MODEL 1
REMARK VINA RESULT: -7.845081537      0.000      0.000
REMARK  17 active torsions:
REMARK  status: ('A' for Active; 'I' for Inactive)
REMARK    1  A    between atoms: C3_3  and  C4_4 
REMARK    2  A    between atoms: C4_4  and  C5_5 
REMARK    3  A    between atoms: C5_5  and  N1_6 
REMARK    4  A    between atoms: N1_6  and  C6_8 
REMARK    5  A    between atoms: C6_8  and  C11_19 
REMARK    6  A    between atoms: N2_9  and  C7_11 
REMARK    7  A    between atoms: C7_11  and  C8_12 
REMARK    8  A    between atoms: C8_12  and  C9_13 
REMARK    9  A    between atoms: C9_13  and  N3_14 
REMARK   10  A    between atoms: C14_22  and  C15_23 
REMARK   11  A    between atoms: C15_23  and  C16_24 
REMARK   12  A    between atoms: C16_24  and  C17_25 
REMARK   13  A    between atoms: C17_25  and  C18_26 
REMARK   14  A    between atoms: N7_31  and  C20_32 
REMARK   15  A    between atoms: C20_32  and  C21_33 
REMARK   16  A    between atoms: C21_33  and  C22_34 
REMARK   17  A    between atoms: C22_34  and  N8_35 
ROOT
HETATM    1  C1  UNL     1      32.647 -13.519  -0.922  1.00  0.00     0.012 C 
HETATM    2  C2  UNL     1      32.781 -12.332  -1.054  1.00  0.00    -0.117 C 
HETATM    3  C3  UNL     1      32.972 -10.868  -1.208  1.00  0.00     0.094 C 
ENDROOT
BRANCH   3   4
HETATM    4  C4  UNL     1      34.354 -10.540  -0.676  1.00  0.00     0.032 C 
BRANCH   4   5
HETATM    5  C5  UNL     1      34.506  -9.046  -0.439  1.00  0.00     0.122 C 
BRANCH   5   6
HETATM    6  N1  UNL     1      34.306  -8.683   0.927  1.00  0.00    -0.376 N 
ATOM      7  H1  UNL     1      33.352  -8.531   1.256  1.00  0.00     0.161 HD
BRANCH   6   8
HETATM    8  C6  UNL     1      35.401  -8.520   1.872  1.00  0.00     0.107 C 
HETATM    9  N2  UNL     1      36.214  -7.585   1.662  1.00  0.00    -0.376 N 
ATOM     10  H2  UNL     1      36.025  -7.021   0.834  1.00  0.00     0.161 HD
BRANCH   9  11
HETATM   11  C7  UNL     1      37.348  -7.204   2.405  1.00  0.00     0.123 C 
BRANCH  11  12
HETATM   12  C8  UNL     1      37.824  -5.805   1.996  1.00  0.00     0.039 C 
BRANCH  12  13
HETATM   13  C9  UNL     1      36.615  -4.903   1.869  1.00  0.00     0.123 C 
BRANCH  13  14
HETATM   14  N3  UNL     1      36.818  -3.994   0.787  1.00  0.00    -0.367 N 
HETATM   15  C10 UNL     1      36.334  -4.218  -0.388  1.00  0.00     0.196 C 
HETATM   16  N4  UNL     1      36.573  -3.267  -1.432  1.00  0.00    -0.067 NA
HETATM   17  N5  UNL     1      35.586  -5.394  -0.594  1.00  0.00    -0.067 NA
ATOM     18  H3  UNL     1      37.360  -3.145   0.947  1.00  0.00     0.161 HD
ENDBRANCH  13  14
ENDBRANCH  12  13
ENDBRANCH  11  12
ENDBRANCH   9  11
BRANCH   8  19
HETATM   19  C11 UNL     1      35.493  -9.458   2.983  1.00  0.00     0.007 A 
HETATM   20  C12 UNL     1      35.615  -9.023   4.308  1.00  0.00     0.016 A 
HETATM   21  C13 UNL     1      35.668  -9.950   5.328  1.00  0.00     0.008 A 
HETATM   22  C14 UNL     1      35.603 -11.305   5.089  1.00  0.00    -0.058 A 
HETATM   23  C25 UNL     1      35.482 -11.708   3.760  1.00  0.00     0.008 A 
HETATM   24  C26 UNL     1      35.428 -10.806   2.717  1.00  0.00     0.016 A 
BRANCH  22  25
HETATM   25  C15 UNL     1      35.653 -12.330   6.188  1.00  0.00     0.039 C 
BRANCH  25  26
HETATM   26  C16 UNL     1      36.943 -13.130   5.985  1.00  0.00     0.011 C 
BRANCH  26  27
HETATM   27  C17 UNL     1      38.119 -12.182   5.953  1.00  0.00     0.063 C 
BRANCH  27  28
HETATM   28  C18 UNL     1      38.719 -12.162   7.324  1.00  0.00     0.082 A 
HETATM   29  N6  UNL     1      38.455 -11.282   8.225  1.00  0.00    -0.307 N 
HETATM   30  C19 UNL     1      39.208 -11.567   9.421  1.00  0.00     0.329 A 
ATOM     31  H6  UNL     1      37.809 -10.501   8.109  1.00  0.00     0.170 HD
HETATM   32  O1  UNL     1      39.148 -10.869  10.478  1.00  0.00    -0.246 OA
HETATM   33  N7  UNL     1      39.987 -12.714   9.207  1.00  0.00    -0.265 N 
HETATM   34  C24 UNL     1      39.680 -13.114   7.848  1.00  0.00     0.274 A 
HETATM   35  O2  UNL     1      40.141 -14.094   7.216  1.00  0.00    -0.266 OA
BRANCH  33  36
HETATM   36  C20 UNL     1      40.937 -13.451   9.988  1.00  0.00     0.139 C 
BRANCH  36  37
HETATM   37  C21 UNL     1      42.283 -12.791   9.966  1.00  0.00     0.040 C 
BRANCH  37  38
HETATM   38  C22 UNL     1      43.367 -13.765   9.648  1.00  0.00     0.123 C 
BRANCH  38  39
HETATM   39  N8  UNL     1      42.906 -14.716   8.647  1.00  0.00    -0.367 N 
HETATM   40  C23 UNL     1      43.523 -14.782   7.536  1.00  0.00     0.196 C 
HETATM   41  N9  UNL     1      44.629 -13.949   7.285  1.00  0.00    -0.067 NA
HETATM   42  N10 UNL     1      43.102 -15.693   6.551  1.00  0.00    -0.067 NA
ATOM     43  H8  UNL     1      42.103 -15.316   8.833  1.00  0.00     0.161 HD
ENDBRANCH  38  39
ENDBRANCH  37  38
ENDBRANCH  36  37
ENDBRANCH  33  36
ENDBRANCH  27  28
ENDBRANCH  26  27
ENDBRANCH  25  26
ENDBRANCH  22  25
ENDBRANCH   8  19
ENDBRANCH   6   8
ENDBRANCH   5   6
ENDBRANCH   4   5
ENDBRANCH   3   4
TORSDOF 17
ENDMDL
MODEL 2
REMARK VINA RESULT: -7.674538290      2.210      4.726
REMARK  17 active torsions:
REMARK  status: ('A' for Active; 'I' for Inactive)
REMARK    1  A    between atoms: C3_3  and  C4_4 
REMARK    2  A    between atoms: C4_4  and  C5_5 
REMARK    3  A    between atoms: C5_5  and  N1_6 
REMARK    4  A    between atoms: N1_6  and  C6_8 
REMARK    5  A    between atoms: C6_8  and  C11_19 
REMARK    6  A    between atoms: N2_9  and  C7_11 
REMARK    7  A    between atoms: C7_11  and  C8_12 
REMARK    8  A    between atoms: C8_12  and  C9_13 
REMARK    9  A    between atoms: C9_13  and  N3_14 
REMARK   10  A    between atoms: C14_22  and  C15_23 
REMARK   11  A    between atoms: C15_23  and  C16_24 
REMARK   12  A    between atoms: C16_24  and  C17_25 
REMARK   13  A    between atoms: C17_25  and  C18_26 
REMARK   14  A    between atoms: N7_31  and  C20_32 
REMARK   15  A    between atoms: C20_32  and  C21_33 
REMARK   16  A    between atoms: C21_33  and  C22_34 
REMARK   17  A    between atoms: C22_34  and  N8_35 
ROOT
HETATM    1  C1  UNL     1      37.478  -4.931   0.834  1.00  0.00     0.012 C 
HETATM    2  C2  UNL     1      37.480  -5.729   1.733  1.00  0.00    -0.117 C 
HETATM    3  C3  UNL     1      37.463  -6.730   2.829  1.00  0.00     0.094 C 
ENDROOT
BRANCH   3   4
HETATM    4  C4  UNL     1      36.427  -7.776   2.464  1.00  0.00     0.032 C 
BRANCH   4   5
HETATM    5  C5  UNL     1      35.671  -8.245   3.696  1.00  0.00     0.122 C 
BRANCH   5   6
HETATM    6  N1  UNL     1      34.605  -9.141   3.380  1.00  0.00    -0.376 N 
ATOM      7  H1  UNL     1      33.665  -8.759   3.273  1.00  0.00     0.161 HD
BRANCH   6   8
HETATM    8  C6  UNL     1      34.799 -10.572   3.203  1.00  0.00     0.107 C 
HETATM    9  N2  UNL     1      34.365 -11.090   2.143  1.00  0.00    -0.376 N 
ATOM     10  H2  UNL     1      33.910 -10.445   1.497  1.00  0.00     0.161 HD
BRANCH   9  11
HETATM   11  C7  UNL     1      34.417 -12.431   1.718  1.00  0.00     0.123 C 
BRANCH  11  12
HETATM   12  C8  UNL     1      34.202 -12.532   0.203  1.00  0.00     0.039 C 
BRANCH  12  13
HETATM   13  C9  UNL     1      33.060 -11.618  -0.184  1.00  0.00     0.123 C 
BRANCH  13  14
HETATM   14  N3  UNL     1      33.455 -10.818  -1.298  1.00  0.00    -0.367 N 
HETATM   15  C10 UNL     1      33.827  -9.590  -1.155  1.00  0.00     0.196 C 
HETATM   16  N4  UNL     1      34.212  -8.841  -2.313  1.00  0.00    -0.067 NA
HETATM   17  N5  UNL     1      33.841  -9.038   0.141  1.00  0.00    -0.067 NA
ATOM     18  H3  UNL     1      33.442 -11.227  -2.233  1.00  0.00     0.161 HD
ENDBRANCH  13  14
ENDBRANCH  12  13
ENDBRANCH  11  12
ENDBRANCH   9  11
BRANCH   8  19
HETATM   19  C11 UNL     1      35.463 -11.312   4.268  1.00  0.00     0.007 A 
HETATM   20  C12 UNL     1      34.744 -12.056   5.209  1.00  0.00     0.016 A 
HETATM   21  C13 UNL     1      35.422 -12.765   6.180  1.00  0.00     0.008 A 
HETATM   22  C14 UNL     1      36.796 -12.767   6.258  1.00  0.00    -0.058 A 
HETATM   23  C25 UNL     1      37.486 -12.016   5.308  1.00  0.00     0.008 A 
HETATM   24  C26 UNL     1      36.838 -11.296   4.324  1.00  0.00     0.016 A 
BRANCH  22  25
HETATM   25  C15 UNL     1      37.552 -13.538   7.306  1.00  0.00     0.039 C 
BRANCH  25  26
HETATM   26  C16 UNL     1      38.156 -12.504   8.262  1.00  0.00     0.011 C 
BRANCH  26  27
HETATM   27  C17 UNL     1      38.547 -13.185   9.552  1.00  0.00     0.063 C 
BRANCH  27  28
HETATM   28  C18 UNL     1      40.037 -13.330   9.552  1.00  0.00     0.082 A 
HETATM   29  N6  UNL     1      40.851 -12.514  10.123  1.00  0.00    -0.307 N 
HETATM   30  C19 UNL     1      42.208 -12.958   9.923  1.00  0.00     0.329 A 
ATOM     31  H6  UNL     1      40.577 -11.677  10.639  1.00  0.00     0.170 HD
HETATM   32  O1  UNL     1      43.226 -12.352  10.376  1.00  0.00    -0.246 OA
HETATM   33  N7  UNL     1      42.195 -14.140   9.167  1.00  0.00    -0.265 N 
HETATM   34  C24 UNL     1      40.789 -14.395   8.918  1.00  0.00     0.274 A 
HETATM   35  O2  UNL     1      40.287 -15.350   8.278  1.00  0.00    -0.266 OA
BRANCH  33  36
HETATM   36  C20 UNL     1      43.201 -15.013   8.638  1.00  0.00     0.139 C 
BRANCH  36  37
HETATM   37  C21 UNL     1      44.073 -14.297   7.651  1.00  0.00     0.040 C 
BRANCH  37  38
HETATM   38  C22 UNL     1      45.515 -14.391   8.021  1.00  0.00     0.123 C 
BRANCH  38  39
HETATM   39  N8  UNL     1      45.736 -13.780   9.324  1.00  0.00    -0.367 N 
HETATM   40  C23 UNL     1      46.502 -14.367  10.153  1.00  0.00     0.196 C 
HETATM   41  N9  UNL     1      47.121 -15.585   9.812  1.00  0.00    -0.067 NA
HETATM   42  N10 UNL     1      46.737 -13.801  11.418  1.00  0.00    -0.067 NA
ATOM     43  H8  UNL     1      45.284 -12.899   9.567  1.00  0.00     0.161 HD
ENDBRANCH  38  39
ENDBRANCH  37  38
ENDBRANCH  36  37
ENDBRANCH  33  36
ENDBRANCH  27  28
ENDBRANCH  26  27
ENDBRANCH  25  26
ENDBRANCH  22  25
ENDBRANCH   8  19
ENDBRANCH   6   8
ENDBRANCH   5   6
ENDBRANCH   4   5
ENDBRANCH   3   4
TORSDOF 17
ENDMDL
MODEL 3
REMARK VINA RESULT: -7.487282524      1.261      1.601
REMARK  17 active torsions:
REMARK  status: ('A' for Active; 'I' for Inactive)
REMARK    1  A    between atoms: C3_3  and  C4_4 
REMARK    2  A    between atoms: C4_4  and  C5_5 
REMARK    3  A    between atoms: C5_5  and  N1_6 
REMARK    4  A    between atoms: N1_6  and  C6_8 
REMARK    5  A    between atoms: C6_8  and  C11_19 
REMARK    6  A    between atoms: N2_9  and  C7_11 
REMARK    7  A    between atoms: C7_11  and  C8_12 
REMARK    8  A    between atoms: C8_12  and  C9_13 
REMARK    9  A    between atoms: C9_13  and  N3_14 
REMARK   10  A    between atoms: C14_22  and  C15_23 
REMARK   11  A    between atoms: C15_23  and  C16_24 
REMARK   12  A    between atoms: C16_24  and  C17_25 
REMARK   13  A    between atoms: C17_25  and  C18_26 
REMARK   14  A    between atoms: N7_31  and  C20_32 
REMARK   15  A    between atoms: C20_32  and  C21_33 
REMARK   16  A    between atoms: C21_33  and  C22_34 
REMARK   17  A    between atoms: C22_34  and  N8_35 
ROOT
HETATM    1  C1  UNL     1      32.648 -13.565  -0.895  1.00  0.00     0.012 C 
HETATM    2  C2  UNL     1      32.755 -12.374  -1.009  1.00  0.00    -0.117 C 
HETATM    3  C3  UNL     1      32.914 -10.904  -1.147  1.00  0.00     0.094 C 
ENDROOT
BRANCH   3   4
HETATM    4  C4  UNL     1      34.375 -10.587  -0.892  1.00  0.00     0.032 C 
BRANCH   4   5
HETATM    5  C5  UNL     1      34.578  -9.096  -0.677  1.00  0.00     0.122 C 
BRANCH   5   6
HETATM    6  N1  UNL     1      34.299  -8.690   0.662  1.00  0.00    -0.376 N 
ATOM      7  H1  UNL     1      33.332  -8.489   0.918  1.00  0.00     0.161 HD
BRANCH   6   8
HETATM    8  C6  UNL     1      35.330  -8.548   1.679  1.00  0.00     0.107 C 
HETATM    9  N2  UNL     1      36.186  -7.643   1.516  1.00  0.00    -0.376 N 
ATOM     10  H2  UNL     1      36.074  -7.084   0.671  1.00  0.00     0.161 HD
BRANCH   9  11
HETATM   11  C7  UNL     1      37.277  -7.288   2.332  1.00  0.00     0.123 C 
BRANCH  11  12
HETATM   12  C8  UNL     1      37.775  -5.877   1.995  1.00  0.00     0.039 C 
BRANCH  12  13
HETATM   13  C9  UNL     1      36.578  -4.956   1.888  1.00  0.00     0.123 C 
BRANCH  13  14
HETATM   14  N3  UNL     1      36.763  -4.070   0.784  1.00  0.00    -0.367 N 
HETATM   15  C10 UNL     1      36.190  -4.276  -0.354  1.00  0.00     0.196 C 
HETATM   16  N4  UNL     1      36.416  -3.349  -1.423  1.00  0.00    -0.067 NA
HETATM   17  N5  UNL     1      35.363  -5.407  -0.497  1.00  0.00    -0.067 NA
ATOM     18  H3  UNL     1      37.363  -3.253   0.898  1.00  0.00     0.161 HD
ENDBRANCH  13  14
ENDBRANCH  12  13
ENDBRANCH  11  12
ENDBRANCH   9  11
BRANCH   8  19
HETATM   19  C11 UNL     1      35.315  -9.473   2.805  1.00  0.00     0.007 A 
HETATM   20  C12 UNL     1      35.515  -9.038   4.120  1.00  0.00     0.016 A 
HETATM   21  C13 UNL     1      35.459  -9.949   5.155  1.00  0.00     0.008 A 
HETATM   22  C14 UNL     1      35.211 -11.286   4.940  1.00  0.00    -0.058 A 
HETATM   23  C25 UNL     1      35.016 -11.690   3.621  1.00  0.00     0.008 A 
HETATM   24  C26 UNL     1      35.066 -10.804   2.563  1.00  0.00     0.016 A 
BRANCH  22  25
HETATM   25  C15 UNL     1      35.142 -12.292   6.056  1.00  0.00     0.039 C 
BRANCH  25  26
HETATM   26  C16 UNL     1      36.403 -13.154   5.951  1.00  0.00     0.011 C 
BRANCH  26  27
HETATM   27  C17 UNL     1      37.609 -12.258   5.791  1.00  0.00     0.063 C 
BRANCH  27  28
HETATM   28  C18 UNL     1      38.398 -12.334   7.060  1.00  0.00     0.082 A 
HETATM   29  N6  UNL     1      38.359 -11.457   8.000  1.00  0.00    -0.307 N 
HETATM   30  C19 UNL     1      39.243 -11.848   9.071  1.00  0.00     0.329 A 
ATOM     31  H6  UNL     1      37.788 -10.611   7.990  1.00  0.00     0.170 HD
HETATM   32  O1  UNL     1      39.408 -11.176  10.134  1.00  0.00    -0.246 OA
HETATM   33  N7  UNL     1      39.859 -13.062   8.733  1.00  0.00    -0.265 N 
HETATM   34  C24 UNL     1      39.320 -13.392   7.428  1.00  0.00     0.274 A 
HETATM   35  O2  UNL     1      39.582 -14.397   6.724  1.00  0.00    -0.266 OA
BRANCH  33  36
HETATM   36  C20 UNL     1      40.830 -13.912   9.359  1.00  0.00     0.139 C 
BRANCH  36  37
HETATM   37  C21 UNL     1      42.224 -13.502   8.990  1.00  0.00     0.040 C 
BRANCH  37  38
HETATM   38  C22 UNL     1      42.961 -12.945  10.162  1.00  0.00     0.123 C 
BRANCH  38  39
HETATM   39  N8  UNL     1      42.717 -13.764  11.339  1.00  0.00    -0.367 N 
HETATM   40  C23 UNL     1      43.714 -14.243  11.969  1.00  0.00     0.196 C 
HETATM   41  N9  UNL     1      45.026 -13.982  11.529  1.00  0.00    -0.067 NA
HETATM   42  N10 UNL     1      43.511 -15.037  13.111  1.00  0.00    -0.067 NA
ATOM     43  H8  UNL     1      41.765 -13.952  11.654  1.00  0.00     0.161 HD
ENDBRANCH  38  39
ENDBRANCH  37  38
ENDBRANCH  36  37
ENDBRANCH  33  36
ENDBRANCH  27  28
ENDBRANCH  26  27
ENDBRANCH  25  26
ENDBRANCH  22  25
ENDBRANCH   8  19
ENDBRANCH   6   8
ENDBRANCH   5   6
ENDBRANCH   4   5
ENDBRANCH   3   4
TORSDOF 17
ENDMDL
MODEL 4
REMARK VINA RESULT: -7.417067444      3.282      5.555
REMARK  17 active torsions:
REMARK  status: ('A' for Active; 'I' for Inactive)
REMARK    1  A    between atoms: C3_3  and  C4_4 
REMARK    2  A    between atoms: C4_4  and  C5_5 
REMARK    3  A    between atoms: C5_5  and  N1_6 
REMARK    4  A    between atoms: N1_6  and  C6_8 
REMARK    5  A    between atoms: C6_8  and  C11_19 
REMARK    6  A    between atoms: N2_9  and  C7_11 
REMARK    7  A    between atoms: C7_11  and  C8_12 
REMARK    8  A    between atoms: C8_12  and  C9_13 
REMARK    9  A    between atoms: C9_13  and  N3_14 
REMARK   10  A    between atoms: C14_22  and  C15_23 
REMARK   11  A    between atoms: C15_23  and  C16_24 
REMARK   12  A    between atoms: C16_24  and  C17_25 
REMARK   13  A    between atoms: C17_25  and  C18_26 
REMARK   14  A    between atoms: N7_31  and  C20_32 
REMARK   15  A    between atoms: C20_32  and  C21_33 
REMARK   16  A    between atoms: C21_33  and  C22_34 
REMARK   17  A    between atoms: C22_34  and  N8_35 
ROOT
HETATM    1  C1  UNL     1      37.469 -13.325   5.074  1.00  0.00     0.012 C 
HETATM    2  C2  UNL     1      37.414 -12.168   5.392  1.00  0.00    -0.117 C 
HETATM    3  C3  UNL     1      37.319 -10.737   5.777  1.00  0.00     0.094 C 
ENDROOT
BRANCH   3   4
HETATM    4  C4  UNL     1      35.929 -10.263   5.397  1.00  0.00     0.032 C 
BRANCH   4   5
HETATM    5  C5  UNL     1      35.771 -10.195   3.887  1.00  0.00     0.122 C 
BRANCH   5   6
HETATM    6  N1  UNL     1      34.488 -10.639   3.447  1.00  0.00    -0.376 N 
ATOM      7  H1  UNL     1      33.665 -10.107   3.731  1.00  0.00     0.161 HD
BRANCH   6   8
HETATM    8  C6  UNL     1      34.299 -11.817   2.613  1.00  0.00     0.107 C 
HETATM    9  N2  UNL     1      34.127 -11.635   1.382  1.00  0.00    -0.376 N 
ATOM     10  H2  UNL     1      34.136 -10.661   1.080  1.00  0.00     0.161 HD
BRANCH   9  11
HETATM   11  C7  UNL     1      33.925 -12.581   0.359  1.00  0.00     0.123 C 
BRANCH  11  12
HETATM   12  C8  UNL     1      32.826 -12.116  -0.605  1.00  0.00     0.039 C 
BRANCH  12  13
HETATM   13  C9  UNL     1      33.344 -10.930  -1.389  1.00  0.00     0.123 C 
BRANCH  13  14
HETATM   14  N3  UNL     1      32.330 -10.484  -2.290  1.00  0.00    -0.367 N 
HETATM   15  C10 UNL     1      32.019  -9.235  -2.397  1.00  0.00     0.196 C 
HETATM   16  N4  UNL     1      30.992  -8.852  -3.320  1.00  0.00    -0.067 NA
HETATM   17  N5  UNL     1      32.706  -8.300  -1.600  1.00  0.00    -0.067 NA
ATOM     18  H3  UNL     1      31.839 -11.169  -2.864  1.00  0.00     0.161 HD
ENDBRANCH  13  14
ENDBRANCH  12  13
ENDBRANCH  11  12
ENDBRANCH   9  11
BRANCH   8  19
HETATM   19  C11 UNL     1      34.303 -13.123   3.260  1.00  0.00     0.007 A 
HETATM   20  C12 UNL     1      34.798 -14.263   2.617  1.00  0.00     0.016 A 
HETATM   21  C13 UNL     1      34.809 -15.471   3.284  1.00  0.00     0.008 A 
HETATM   22  C14 UNL     1      34.347 -15.599   4.574  1.00  0.00    -0.058 A 
HETATM   23  C25 UNL     1      33.859 -14.446   5.188  1.00  0.00     0.008 A 
HETATM   24  C26 UNL     1      33.834 -13.223   4.549  1.00  0.00     0.016 A 
BRANCH  22  25
HETATM   25  C15 UNL     1      34.356 -16.906   5.318  1.00  0.00     0.039 C 
BRANCH  25  26
HETATM   26  C16 UNL     1      35.309 -16.729   6.505  1.00  0.00     0.011 C 
BRANCH  26  27
HETATM   27  C17 UNL     1      36.726 -16.986   6.050  1.00  0.00     0.063 C 
BRANCH  27  28
HETATM   28  C18 UNL     1      37.629 -16.714   7.212  1.00  0.00     0.082 A 
HETATM   29  N6  UNL     1      37.326 -16.941   8.442  1.00  0.00    -0.307 N 
HETATM   30  C19 UNL     1      38.427 -16.562   9.293  1.00  0.00     0.329 A 
ATOM     31  H6  UNL     1      36.440 -17.330   8.765  1.00  0.00     0.170 HD
HETATM   32  O1  UNL     1      38.416 -16.676  10.556  1.00  0.00    -0.246 OA
HETATM   33  N7  UNL     1      39.470 -16.067   8.497  1.00  0.00    -0.265 N 
HETATM   34  C24 UNL     1      38.967 -16.160   7.140  1.00  0.00     0.274 A 
HETATM   35  O2  UNL     1      39.555 -15.831   6.082  1.00  0.00    -0.266 OA
BRANCH  33  36
HETATM   36  C20 UNL     1      40.772 -15.525   8.758  1.00  0.00     0.139 C 
BRANCH  36  37
HETATM   37  C21 UNL     1      40.737 -14.027   8.787  1.00  0.00     0.040 C 
BRANCH  37  38
HETATM   38  C22 UNL     1      40.406 -13.511  10.147  1.00  0.00     0.123 C 
BRANCH  38  39
HETATM   39  N8  UNL     1      40.949 -12.172  10.318  1.00  0.00    -0.367 N 
HETATM   40  C23 UNL     1      40.154 -11.179  10.280  1.00  0.00     0.196 C 
HETATM   41  N9  UNL     1      38.776 -11.379  10.075  1.00  0.00    -0.067 NA
HETATM   42  N10 UNL     1      40.649  -9.873  10.444  1.00  0.00    -0.067 NA
ATOM     43  H8  UNL     1      41.949 -12.032  10.466  1.00  0.00     0.161 HD
ENDBRANCH  38  39
ENDBRANCH  37  38
ENDBRANCH  36  37
ENDBRANCH  33  36
ENDBRANCH  27  28
ENDBRANCH  26  27
ENDBRANCH  25  26
ENDBRANCH  22  25
ENDBRANCH   8  19
ENDBRANCH   6   8
ENDBRANCH   5   6
ENDBRANCH   4   5
ENDBRANCH   3   4
TORSDOF 17
ENDMDL
MODEL 5
REMARK VINA RESULT: -7.300335206      3.192      5.868
REMARK  17 active torsions:
REMARK  status: ('A' for Active; 'I' for Inactive)
REMARK    1  A    between atoms: C3_3  and  C4_4 
REMARK    2  A    between atoms: C4_4  and  C5_5 
REMARK    3  A    between atoms: C5_5  and  N1_6 
REMARK    4  A    between atoms: N1_6  and  C6_8 
REMARK    5  A    between atoms: C6_8  and  C11_19 
REMARK    6  A    between atoms: N2_9  and  C7_11 
REMARK    7  A    between atoms: C7_11  and  C8_12 
REMARK    8  A    between atoms: C8_12  and  C9_13 
REMARK    9  A    between atoms: C9_13  and  N3_14 
REMARK   10  A    between atoms: C14_22  and  C15_23 
REMARK   11  A    between atoms: C15_23  and  C16_24 
REMARK   12  A    between atoms: C16_24  and  C17_25 
REMARK   13  A    between atoms: C17_25  and  C18_26 
REMARK   14  A    between atoms: N7_31  and  C20_32 
REMARK   15  A    between atoms: C20_32  and  C21_33 
REMARK   16  A    between atoms: C21_33  and  C22_34 
REMARK   17  A    between atoms: C22_34  and  N8_35 
ROOT
HETATM    1  C1  UNL     1      36.886 -13.123   6.879  1.00  0.00     0.012 C 
HETATM    2  C2  UNL     1      37.083 -12.330   5.999  1.00  0.00    -0.117 C 
HETATM    3  C3  UNL     1      37.306 -11.335   4.920  1.00  0.00     0.094 C 
ENDROOT
BRANCH   3   4
HETATM    4  C4  UNL     1      36.206 -10.296   5.035  1.00  0.00     0.032 C 
BRANCH   4   5
HETATM    5  C5  UNL     1      35.736  -9.846   3.662  1.00  0.00     0.122 C 
BRANCH   5   6
HETATM    6  N1  UNL     1      34.450 -10.365   3.323  1.00  0.00    -0.376 N 
ATOM      7  H1  UNL     1      33.625  -9.811   3.555  1.00  0.00     0.161 HD
BRANCH   6   8
HETATM    8  C6  UNL     1      34.263 -11.647   2.661  1.00  0.00     0.107 C 
HETATM    9  N2  UNL     1      34.107 -11.640   1.414  1.00  0.00    -0.376 N 
ATOM     10  H2  UNL     1      34.127 -10.719   0.978  1.00  0.00     0.161 HD
BRANCH   9  11
HETATM   11  C7  UNL     1      33.910 -12.720   0.532  1.00  0.00     0.123 C 
BRANCH  11  12
HETATM   12  C8  UNL     1      32.915 -12.346  -0.573  1.00  0.00     0.039 C 
BRANCH  12  13
HETATM   13  C9  UNL     1      33.402 -11.086  -1.255  1.00  0.00     0.123 C 
BRANCH  13  14
HETATM   14  N3  UNL     1      32.393 -10.614  -2.148  1.00  0.00    -0.367 N 
HETATM   15  C10 UNL     1      32.107  -9.359  -2.247  1.00  0.00     0.196 C 
HETATM   16  N4  UNL     1      31.084  -8.950  -3.163  1.00  0.00    -0.067 NA
HETATM   17  N5  UNL     1      32.819  -8.442  -1.449  1.00  0.00    -0.067 NA
ATOM     18  H3  UNL     1      31.884 -11.286  -2.722  1.00  0.00     0.161 HD
ENDBRANCH  13  14
ENDBRANCH  12  13
ENDBRANCH  11  12
ENDBRANCH   9  11
BRANCH   8  19
HETATM   19  C11 UNL     1      34.249 -12.849   3.485  1.00  0.00     0.007 A 
HETATM   20  C12 UNL     1      34.973 -13.994   3.133  1.00  0.00     0.016 A 
HETATM   21  C13 UNL     1      34.952 -15.096   3.963  1.00  0.00     0.008 A 
HETATM   22  C14 UNL     1      34.238 -15.112   5.140  1.00  0.00    -0.058 A 
HETATM   23  C25 UNL     1      33.527 -13.957   5.464  1.00  0.00     0.008 A 
HETATM   24  C26 UNL     1      33.526 -12.839   4.656  1.00  0.00     0.016 A 
BRANCH  22  25
HETATM   25  C15 UNL     1      34.208 -16.301   6.060  1.00  0.00     0.039 C 
BRANCH  25  26
HETATM   26  C16 UNL     1      34.554 -17.526   5.207  1.00  0.00     0.011 C 
BRANCH  26  27
HETATM   27  C17 UNL     1      35.721 -18.255   5.829  1.00  0.00     0.063 C 
BRANCH  27  28
HETATM   28  C18 UNL     1      36.973 -17.583   5.361  1.00  0.00     0.082 A 
HETATM   29  N6  UNL     1      37.501 -17.746   4.200  1.00  0.00    -0.307 N 
HETATM   30  C19 UNL     1      38.698 -16.948   4.090  1.00  0.00     0.329 A 
ATOM     31  H6  UNL     1      37.129 -18.350   3.466  1.00  0.00     0.170 HD
HETATM   32  O1  UNL     1      39.428 -16.906   3.054  1.00  0.00    -0.246 OA
HETATM   33  N7  UNL     1      38.894 -16.253   5.293  1.00  0.00    -0.265 N 
HETATM   34  C24 UNL     1      37.780 -16.655   6.131  1.00  0.00     0.274 A 
HETATM   35  O2  UNL     1      37.534 -16.286   7.304  1.00  0.00    -0.266 OA
BRANCH  33  36
HETATM   36  C20 UNL     1      39.893 -15.353   5.789  1.00  0.00     0.139 C 
BRANCH  36  37
HETATM   37  C21 UNL     1      40.683 -15.980   6.898  1.00  0.00     0.040 C 
BRANCH  37  38
HETATM   38  C22 UNL     1      41.095 -14.971   7.917  1.00  0.00     0.123 C 
BRANCH  38  39
HETATM   39  N8  UNL     1      40.737 -13.634   7.469  1.00  0.00    -0.367 N 
HETATM   40  C23 UNL     1      40.413 -12.764   8.339  1.00  0.00     0.196 C 
HETATM   41  N9  UNL     1      40.402 -13.094   9.707  1.00  0.00    -0.067 NA
HETATM   42  N10 UNL     1      40.064 -11.462   7.937  1.00  0.00    -0.067 NA
ATOM     43  H8  UNL     1      40.745 -13.400   6.476  1.00  0.00     0.161 HD
ENDBRANCH  38  39
ENDBRANCH  37  38
ENDBRANCH  36  37
ENDBRANCH  33  36
ENDBRANCH  27  28
ENDBRANCH  26  27
ENDBRANCH  25  26
ENDBRANCH  22  25
ENDBRANCH   8  19
ENDBRANCH   6   8
ENDBRANCH   5   6
ENDBRANCH   4   5
ENDBRANCH   3   4
TORSDOF 17
ENDMDL
