MODEL 1
REMARK VINA RESULT: -7.875106113      0.000      0.000
REMARK  17 active torsions:
REMARK  status: ('A' for Active; 'I' for Inactive)
REMARK    1  A    between atoms: N1_5  and  C5_7 
REMARK    2  A    between atoms: C5_7  and  C6_8 
REMARK    3  A    between atoms: C6_8  and  C7_9 
REMARK    4  A    between atoms: C7_9  and  C8_10 
REMARK    5  A    between atoms: C8_10  and  N2_11 
REMARK    6  A    between atoms: N3_16  and  C13_17 
REMARK    7  A    between atoms: C13_17  and  C14_18 
REMARK    8  A    between atoms: C13_17  and  C18_26 
REMARK    9  A    between atoms: C14_18  and  C15_19 
REMARK   10  A    between atoms: C15_19  and  C16_20 
REMARK   11  A    between atoms: C16_20  and  N4_21 
REMARK       I    between atoms: C18_26  and  N7_28 
REMARK   12  A    between atoms: N7_28  and  C19_30 
REMARK   13  A    between atoms: C19_30  and  C20_31 
REMARK   14  A    between atoms: C19_30  and  C21_33 
REMARK   15  A    between atoms: C21_33  and  C22_34 
REMARK   16  A    between atoms: C22_34  and  C23_35 
REMARK   17  A    between atoms: C23_35  and  N8_36 
ROOT
HETATM    1  C13 UNL     1      36.240 -10.490   3.682  1.00  0.00     0.177 C 
ENDROOT
BRANCH   1   2
HETATM    2  N3  UNL     1      36.046 -11.791   4.209  1.00  0.00    -0.357 N 
HETATM    3  C4  UNL     1      36.885 -12.296   5.297  1.00  0.00     0.076 C 
HETATM    4  C3  UNL     1      36.276 -13.515   5.879  1.00  0.00     0.082 C 
HETATM    5  N1  UNL     1      37.995 -11.787   5.686  1.00  0.00    -0.380 N 
HETATM    6  C2  UNL     1      34.836 -13.386   5.358  1.00  0.00     0.006 C 
HETATM    7  C1  UNL     1      34.198 -12.332   6.220  1.00  0.00     0.012 C 
HETATM    8  C25 UNL     1      35.154 -12.889   3.946  1.00  0.00     0.129 C 
ATOM      9  H1  UNL     1      38.340 -10.943   5.229  1.00  0.00     0.160 HD
BRANCH   5  10
HETATM   10  C5  UNL     1      38.776 -12.375   6.756  1.00  0.00     0.121 C 
BRANCH  10  11
HETATM   11  C6  UNL     1      39.074 -11.318   7.787  1.00  0.00     0.021 C 
BRANCH  11  12
HETATM   12  C7  UNL     1      38.711 -11.808   9.157  1.00  0.00     0.032 C 
BRANCH  12  13
HETATM   13  C8  UNL     1      39.850 -11.609  10.091  1.00  0.00     0.272 C 
BRANCH  13  14
HETATM   14  N2  UNL     1      40.647 -12.802  10.291  1.00  0.00     0.088 N 
HETATM   15  C9  UNL     1      40.019 -14.016   9.919  1.00  0.00     0.272 C 
HETATM   16  C10 UNL     1      41.047 -14.869   9.190  1.00  0.00     0.032 C 
HETATM   17  C11 UNL     1      42.008 -13.836   8.654  1.00  0.00     0.032 C 
HETATM   18  C12 UNL     1      41.939 -12.724   9.675  1.00  0.00     0.272 C 
ENDBRANCH  13  14
ENDBRANCH  12  13
ENDBRANCH  11  12
ENDBRANCH  10  11
ENDBRANCH   5  10
ENDBRANCH   1   2
BRANCH   1  19
HETATM   19  C14 UNL     1      35.607  -9.339   4.378  1.00  0.00     0.037 C 
BRANCH  19  20
HETATM   20  C15 UNL     1      35.307  -8.130   3.574  1.00  0.00     0.022 C 
BRANCH  20  21
HETATM   21  C16 UNL     1      36.541  -7.246   3.388  1.00  0.00     0.122 C 
BRANCH  21  22
HETATM   22  N4  UNL     1      36.350  -6.246   2.378  1.00  0.00    -0.367 N 
HETATM   23  C17 UNL     1      37.377  -5.723   1.773  1.00  0.00     0.196 C 
HETATM   24  N5  UNL     1      37.180  -4.742   0.782  1.00  0.00    -0.067 NA
HETATM   25  N6  UNL     1      38.688  -6.126   2.103  1.00  0.00    -0.067 NA
ATOM     26  H4  UNL     1      35.407  -5.945   2.132  1.00  0.00     0.161 HD
ENDBRANCH  21  22
ENDBRANCH  20  21
ENDBRANCH  19  20
ENDBRANCH   1  19
BRANCH   1  27
HETATM   27  C18 UNL     1      35.917 -10.343   2.228  1.00  0.00     0.241 C 
HETATM   28  O1  UNL     1      36.911 -10.199   1.472  1.00  0.00    -0.271 OA
HETATM   29  N7  UNL     1      34.633 -10.352   1.668  1.00  0.00    -0.348 N 
ATOM     30  H7  UNL     1      33.821 -10.466   2.275  1.00  0.00     0.163 HD
BRANCH  29  31
HETATM   31  C19 UNL     1      34.441 -10.204   0.242  1.00  0.00     0.146 C 
BRANCH  31  32
HETATM   32  C20 UNL     1      33.516 -11.247  -0.280  1.00  0.00     0.256 C 
HETATM   33  O2  UNL     1      32.909 -11.940   0.539  1.00  0.00    -0.305 OA
ENDBRANCH  31  32
BRANCH  31  34
HETATM   34  C21 UNL     1      33.860  -8.861  -0.077  1.00  0.00     0.034 C 
BRANCH  34  35
HETATM   35  C22 UNL     1      34.843  -8.066  -0.919  1.00  0.00     0.022 C 
BRANCH  35  36
HETATM   36  C23 UNL     1      34.333  -8.137  -2.354  1.00  0.00     0.122 C 
BRANCH  36  37
HETATM   37  N8  UNL     1      32.894  -8.166  -2.387  1.00  0.00    -0.367 N 
HETATM   38  C24 UNL     1      32.211  -9.086  -3.014  1.00  0.00     0.196 C 
HETATM   39  N9  UNL     1      32.897 -10.113  -3.700  1.00  0.00    -0.067 NA
HETATM   40  N10 UNL     1      30.792  -9.003  -2.971  1.00  0.00    -0.067 NA
ATOM     41  H8  UNL     1      32.383  -7.433  -1.896  1.00  0.00     0.161 HD
ENDBRANCH  36  37
ENDBRANCH  35  36
ENDBRANCH  34  35
ENDBRANCH  31  34
ENDBRANCH  29  31
ENDBRANCH   1  27
TORSDOF 17
ENDMDL
MODEL 2
REMARK VINA RESULT: -7.853909629      1.231      1.735
REMARK  17 active torsions:
REMARK  status: ('A' for Active; 'I' for Inactive)
REMARK    1  A    between atoms: N1_5  and  C5_7 
REMARK    2  A    between atoms: C5_7  and  C6_8 
REMARK    3  A    between atoms: C6_8  and  C7_9 
REMARK    4  A    between atoms: C7_9  and  C8_10 
REMARK    5  A    between atoms: C8_10  and  N2_11 
REMARK    6  A    between atoms: N3_16  and  C13_17 
REMARK    7  A    between atoms: C13_17  and  C14_18 
REMARK    8  A    between atoms: C13_17  and  C18_26 
REMARK    9  A    between atoms: C14_18  and  C15_19 
REMARK   10  A    between atoms: C15_19  and  C16_20 
REMARK   11  A    between atoms: C16_20  and  N4_21 
REMARK       I    between atoms: C18_26  and  N7_28 
REMARK   12  A    between atoms: N7_28  and  C19_30 
REMARK   13  A    between atoms: C19_30  and  C20_31 
REMARK   14  A    between atoms: C19_30  and  C21_33 
REMARK   15  A    between atoms: C21_33  and  C22_34 
REMARK   16  A    between atoms: C22_34  and  C23_35 
REMARK   17  A    between atoms: C23_35  and  N8_36 
ROOT
HETATM    1  C13 UNL     1      35.498 -10.705   3.190  1.00  0.00     0.177 C 
ENDROOT
BRANCH   1   2
HETATM    2  N3  UNL     1      35.369 -11.877   3.976  1.00  0.00    -0.357 N 
HETATM    3  C4  UNL     1      36.381 -12.232   4.971  1.00  0.00     0.076 C 
HETATM    4  C3  UNL     1      35.857 -13.288   5.868  1.00  0.00     0.082 C 
HETATM    5  N1  UNL     1      37.560 -11.733   5.053  1.00  0.00    -0.380 N 
HETATM    6  C2  UNL     1      34.350 -13.163   5.599  1.00  0.00     0.006 C 
HETATM    7  C1  UNL     1      33.915 -11.935   6.350  1.00  0.00     0.012 C 
HETATM    8  C25 UNL     1      34.412 -12.945   4.085  1.00  0.00     0.129 C 
ATOM      9  H1  UNL     1      37.837 -11.007   4.393  1.00  0.00     0.160 HD
BRANCH   5  10
HETATM   10  C5  UNL     1      38.509 -12.169   6.057  1.00  0.00     0.121 C 
BRANCH  10  11
HETATM   11  C6  UNL     1      38.666 -11.086   7.092  1.00  0.00     0.021 C 
BRANCH  11  12
HETATM   12  C7  UNL     1      39.965 -11.248   7.824  1.00  0.00     0.032 C 
BRANCH  12  13
HETATM   13  C8  UNL     1      39.730 -11.240   9.292  1.00  0.00     0.272 C 
BRANCH  13  14
HETATM   14  N2  UNL     1      39.679 -12.564   9.875  1.00  0.00     0.088 N 
HETATM   15  C9  UNL     1      38.404 -13.181   9.858  1.00  0.00     0.272 C 
HETATM   16  C10 UNL     1      38.596 -14.639   9.465  1.00  0.00     0.032 C 
HETATM   17  C11 UNL     1      39.887 -14.600   8.685  1.00  0.00     0.032 C 
HETATM   18  C12 UNL     1      40.650 -13.460   9.320  1.00  0.00     0.272 C 
ENDBRANCH  13  14
ENDBRANCH  12  13
ENDBRANCH  11  12
ENDBRANCH  10  11
ENDBRANCH   5  10
ENDBRANCH   1   2
BRANCH   1  19
HETATM   19  C14 UNL     1      34.716  -9.500   3.574  1.00  0.00     0.037 C 
BRANCH  19  20
HETATM   20  C15 UNL     1      35.467  -8.322   4.070  1.00  0.00     0.022 C 
BRANCH  20  21
HETATM   21  C16 UNL     1      36.564  -7.890   3.097  1.00  0.00     0.122 C 
BRANCH  21  22
HETATM   22  N4  UNL     1      36.194  -6.732   2.336  1.00  0.00    -0.367 N 
HETATM   23  C17 UNL     1      37.110  -5.916   1.900  1.00  0.00     0.196 C 
HETATM   24  N5  UNL     1      36.739  -4.781   1.153  1.00  0.00    -0.067 NA
HETATM   25  N6  UNL     1      38.474  -6.155   2.171  1.00  0.00    -0.067 NA
ATOM     26  H4  UNL     1      35.211  -6.548   2.136  1.00  0.00     0.161 HD
ENDBRANCH  21  22
ENDBRANCH  20  21
ENDBRANCH  19  20
ENDBRANCH   1  19
BRANCH   1  27
HETATM   27  C18 UNL     1      35.287 -10.902   1.722  1.00  0.00     0.241 C 
HETATM   28  O1  UNL     1      36.199 -10.449   0.985  1.00  0.00    -0.271 OA
HETATM   29  N7  UNL     1      34.185 -11.532   1.129  1.00  0.00    -0.348 N 
ATOM     30  H7  UNL     1      33.440 -11.901   1.719  1.00  0.00     0.163 HD
BRANCH  29  31
HETATM   31  C19 UNL     1      34.089 -11.669  -0.308  1.00  0.00     0.146 C 
BRANCH  31  32
HETATM   32  C20 UNL     1      34.022 -13.103  -0.701  1.00  0.00     0.256 C 
HETATM   33  O2  UNL     1      34.077 -13.949   0.195  1.00  0.00    -0.305 OA
ENDBRANCH  31  32
BRANCH  31  34
HETATM   34  C21 UNL     1      32.861 -10.985  -0.824  1.00  0.00     0.034 C 
BRANCH  34  35
HETATM   35  C22 UNL     1      33.032 -10.674  -2.301  1.00  0.00     0.022 C 
BRANCH  35  36
HETATM   36  C23 UNL     1      34.059  -9.550  -2.386  1.00  0.00     0.122 C 
BRANCH  36  37
HETATM   37  N8  UNL     1      33.428  -8.265  -2.227  1.00  0.00    -0.367 N 
HETATM   38  C24 UNL     1      33.800  -7.392  -1.330  1.00  0.00     0.196 C 
HETATM   39  N9  UNL     1      34.871  -7.701  -0.463  1.00  0.00    -0.067 NA
HETATM   40  N10 UNL     1      33.095  -6.158  -1.274  1.00  0.00    -0.067 NA
ATOM     41  H8  UNL     1      32.654  -8.026  -2.846  1.00  0.00     0.161 HD
ENDBRANCH  36  37
ENDBRANCH  35  36
ENDBRANCH  34  35
ENDBRANCH  31  34
ENDBRANCH  29  31
ENDBRANCH   1  27
TORSDOF 17
ENDMDL
MODEL 3
REMARK VINA RESULT: -7.802547784      2.717      8.953
REMARK  17 active torsions:
REMARK  status: ('A' for Active; 'I' for Inactive)
REMARK    1  A    between atoms: N1_5  and  C5_7 
REMARK    2  A    between atoms: C5_7  and  C6_8 
REMARK    3  A    between atoms: C6_8  and  C7_9 
REMARK    4  A    between atoms: C7_9  and  C8_10 
REMARK    5  A    between atoms: C8_10  and  N2_11 
REMARK    6  A    between atoms: N3_16  and  C13_17 
REMARK    7  A    between atoms: C13_17  and  C14_18 
REMARK    8  A    between atoms: C13_17  and  C18_26 
REMARK    9  A    between atoms: C14_18  and  C15_19 
REMARK   10  A    between atoms: C15_19  and  C16_20 
REMARK   11  A    between atoms: C16_20  and  N4_21 
REMARK       I    between atoms: C18_26  and  N7_28 
REMARK   12  A    between atoms: N7_28  and  C19_30 
REMARK   13  A    between atoms: C19_30  and  C20_31 
REMARK   14  A    between atoms: C19_30  and  C21_33 
REMARK   15  A    between atoms: C21_33  and  C22_34 
REMARK   16  A    between atoms: C22_34  and  C23_35 
REMARK   17  A    between atoms: C23_35  and  N8_36 
ROOT
HETATM    1  C13 UNL     1      35.227  -8.368   2.216  1.00  0.00     0.177 C 
ENDROOT
BRANCH   1   2
HETATM    2  N3  UNL     1      36.252  -7.474   1.818  1.00  0.00    -0.357 N 
HETATM    3  C4  UNL     1      36.134  -6.695   0.585  1.00  0.00     0.076 C 
HETATM    4  C3  UNL     1      37.150  -5.616   0.571  1.00  0.00     0.082 C 
HETATM    5  N1  UNL     1      35.300  -6.913  -0.364  1.00  0.00    -0.380 N 
HETATM    6  C2  UNL     1      37.523  -5.563   2.060  1.00  0.00     0.006 C 
HETATM    7  C1  UNL     1      36.382  -4.845   2.727  1.00  0.00     0.012 C 
HETATM    8  C25 UNL     1      37.528  -7.067   2.343  1.00  0.00     0.129 C 
ATOM      9  H1  UNL     1      34.632  -7.679  -0.269  1.00  0.00     0.160 HD
BRANCH   5  10
HETATM   10  C5  UNL     1      35.276  -6.105  -1.566  1.00  0.00     0.121 C 
BRANCH  10  11
HETATM   11  C6  UNL     1      35.653  -6.964  -2.746  1.00  0.00     0.021 C 
BRANCH  11  12
HETATM   12  C7  UNL     1      36.391  -6.154  -3.768  1.00  0.00     0.032 C 
BRANCH  12  13
HETATM   13  C8  UNL     1      37.461  -5.355  -3.113  1.00  0.00     0.272 C 
BRANCH  13  14
HETATM   14  N2  UNL     1      37.434  -3.952  -3.469  1.00  0.00     0.088 N 
HETATM   15  C9  UNL     1      36.470  -3.597  -4.445  1.00  0.00     0.272 C 
HETATM   16  C10 UNL     1      35.820  -2.293  -4.005  1.00  0.00     0.032 C 
HETATM   17  C11 UNL     1      36.017  -2.317  -2.509  1.00  0.00     0.032 C 
HETATM   18  C12 UNL     1      37.305  -3.087  -2.333  1.00  0.00     0.272 C 
ENDBRANCH  13  14
ENDBRANCH  12  13
ENDBRANCH  11  12
ENDBRANCH  10  11
ENDBRANCH   5  10
ENDBRANCH   1   2
BRANCH   1  19
HETATM   19  C14 UNL     1      35.001  -8.591   3.668  1.00  0.00     0.037 C 
BRANCH  19  20
HETATM   20  C15 UNL     1      36.152  -9.048   4.481  1.00  0.00     0.022 C 
BRANCH  20  21
HETATM   21  C16 UNL     1      35.901 -10.420   5.109  1.00  0.00     0.122 C 
BRANCH  21  22
HETATM   22  N4  UNL     1      36.946 -10.807   6.013  1.00  0.00    -0.367 N 
HETATM   23  C17 UNL     1      37.630 -11.893   5.795  1.00  0.00     0.196 C 
HETATM   24  N5  UNL     1      38.654 -12.266   6.687  1.00  0.00    -0.067 NA
HETATM   25  N6  UNL     1      37.354 -12.705   4.674  1.00  0.00    -0.067 NA
ATOM     26  H4  UNL     1      37.152 -10.230   6.828  1.00  0.00     0.161 HD
ENDBRANCH  21  22
ENDBRANCH  20  21
ENDBRANCH  19  20
ENDBRANCH   1  19
BRANCH   1  27
HETATM   27  C18 UNL     1      35.287  -9.721   1.579  1.00  0.00     0.241 C 
HETATM   28  O1  UNL     1      36.445 -10.138   1.319  1.00  0.00    -0.271 OA
HETATM   29  N7  UNL     1      34.187 -10.529   1.264  1.00  0.00    -0.348 N 
ATOM     30  H7  UNL     1      33.245 -10.197   1.470  1.00  0.00     0.163 HD
BRANCH  29  31
HETATM   31  C19 UNL     1      34.368 -11.826   0.651  1.00  0.00     0.146 C 
BRANCH  31  32
HETATM   32  C20 UNL     1      34.368 -12.904   1.678  1.00  0.00     0.256 C 
HETATM   33  O2  UNL     1      34.190 -12.578   2.854  1.00  0.00    -0.305 OA
ENDBRANCH  31  32
BRANCH  31  34
HETATM   34  C21 UNL     1      33.265 -12.109  -0.323  1.00  0.00     0.034 C 
BRANCH  34  35
HETATM   35  C22 UNL     1      33.852 -12.355  -1.702  1.00  0.00     0.022 C 
BRANCH  35  36
HETATM   36  C23 UNL     1      34.018 -10.984  -2.348  1.00  0.00     0.122 C 
BRANCH  36  37
HETATM   37  N8  UNL     1      32.755 -10.487  -2.827  1.00  0.00    -0.367 N 
HETATM   38  C24 UNL     1      32.188  -9.406  -2.361  1.00  0.00     0.196 C 
HETATM   39  N9  UNL     1      32.829  -8.673  -1.338  1.00  0.00    -0.067 NA
HETATM   40  N10 UNL     1      30.938  -9.019  -2.919  1.00  0.00    -0.067 NA
ATOM     41  H8  UNL     1      32.280 -11.003  -3.567  1.00  0.00     0.161 HD
ENDBRANCH  36  37
ENDBRANCH  35  36
ENDBRANCH  34  35
ENDBRANCH  31  34
ENDBRANCH  29  31
ENDBRANCH   1  27
TORSDOF 17
ENDMDL
MODEL 4
REMARK VINA RESULT: -7.760417544      1.367      1.596
REMARK  17 active torsions:
REMARK  status: ('A' for Active; 'I' for Inactive)
REMARK    1  A    between atoms: N1_5  and  C5_7 
REMARK    2  A    between atoms: C5_7  and  C6_8 
REMARK    3  A    between atoms: C6_8  and  C7_9 
REMARK    4  A    between atoms: C7_9  and  C8_10 
REMARK    5  A    between atoms: C8_10  and  N2_11 
REMARK    6  A    between atoms: N3_16  and  C13_17 
REMARK    7  A    between atoms: C13_17  and  C14_18 
REMARK    8  A    between atoms: C13_17  and  C18_26 
REMARK    9  A    between atoms: C14_18  and  C15_19 
REMARK   10  A    between atoms: C15_19  and  C16_20 
REMARK   11  A    between atoms: C16_20  and  N4_21 
REMARK       I    between atoms: C18_26  and  N7_28 
REMARK   12  A    between atoms: N7_28  and  C19_30 
REMARK   13  A    between atoms: C19_30  and  C20_31 
REMARK   14  A    between atoms: C19_30  and  C21_33 
REMARK   15  A    between atoms: C21_33  and  C22_34 
REMARK   16  A    between atoms: C22_34  and  C23_35 
REMARK   17  A    between atoms: C23_35  and  N8_36 
ROOT
HETATM    1  C13 UNL     1      36.234 -10.497   3.697  1.00  0.00     0.177 C 
ENDROOT
BRANCH   1   2
HETATM    2  N3  UNL     1      36.043 -11.800   4.221  1.00  0.00    -0.357 N 
HETATM    3  C4  UNL     1      36.879 -12.303   5.311  1.00  0.00     0.076 C 
HETATM    4  C3  UNL     1      36.272 -13.525   5.889  1.00  0.00     0.082 C 
HETATM    5  N1  UNL     1      37.987 -11.791   5.705  1.00  0.00    -0.380 N 
HETATM    6  C2  UNL     1      34.834 -13.400   5.363  1.00  0.00     0.006 C 
HETATM    7  C1  UNL     1      34.189 -12.350   6.224  1.00  0.00     0.012 C 
HETATM    8  C25 UNL     1      35.156 -12.900   3.953  1.00  0.00     0.129 C 
ATOM      9  H1  UNL     1      38.330 -10.945   5.251  1.00  0.00     0.160 HD
BRANCH   5  10
HETATM   10  C5  UNL     1      38.765 -12.378   6.777  1.00  0.00     0.121 C 
BRANCH  10  11
HETATM   11  C6  UNL     1      39.109 -11.307   7.781  1.00  0.00     0.021 C 
BRANCH  11  12
HETATM   12  C7  UNL     1      38.732 -11.748   9.163  1.00  0.00     0.032 C 
BRANCH  12  13
HETATM   13  C8  UNL     1      39.878 -11.558  10.091  1.00  0.00     0.272 C 
BRANCH  13  14
HETATM   14  N2  UNL     1      40.648 -12.764  10.312  1.00  0.00     0.088 N 
HETATM   15  C9  UNL     1      39.989 -13.971   9.972  1.00  0.00     0.272 C 
HETATM   16  C10 UNL     1      40.990 -14.865   9.255  1.00  0.00     0.032 C 
HETATM   17  C11 UNL     1      41.971 -13.867   8.689  1.00  0.00     0.032 C 
HETATM   18  C12 UNL     1      41.937 -12.731   9.684  1.00  0.00     0.272 C 
ENDBRANCH  13  14
ENDBRANCH  12  13
ENDBRANCH  11  12
ENDBRANCH  10  11
ENDBRANCH   5  10
ENDBRANCH   1   2
BRANCH   1  19
HETATM   19  C14 UNL     1      35.588  -9.350   4.387  1.00  0.00     0.037 C 
BRANCH  19  20
HETATM   20  C15 UNL     1      35.254  -8.157   3.573  1.00  0.00     0.022 C 
BRANCH  20  21
HETATM   21  C16 UNL     1      36.478  -7.276   3.318  1.00  0.00     0.122 C 
BRANCH  21  22
HETATM   22  N4  UNL     1      36.303  -6.413   2.187  1.00  0.00    -0.367 N 
HETATM   23  C17 UNL     1      37.336  -5.852   1.627  1.00  0.00     0.196 C 
HETATM   24  N5  UNL     1      37.155  -5.005   0.516  1.00  0.00    -0.067 NA
HETATM   25  N6  UNL     1      38.636  -6.081   2.123  1.00  0.00    -0.067 NA
ATOM     26  H4  UNL     1      35.367  -6.237   1.821  1.00  0.00     0.161 HD
ENDBRANCH  21  22
ENDBRANCH  20  21
ENDBRANCH  19  20
ENDBRANCH   1  19
BRANCH   1  27
HETATM   27  C18 UNL     1      35.924 -10.350   2.240  1.00  0.00     0.241 C 
HETATM   28  O1  UNL     1      36.924 -10.209   1.492  1.00  0.00    -0.271 OA
HETATM   29  N7  UNL     1      34.644 -10.359   1.669  1.00  0.00    -0.348 N 
ATOM     30  H7  UNL     1      33.828 -10.471   2.270  1.00  0.00     0.163 HD
BRANCH  29  31
HETATM   31  C19 UNL     1      34.465 -10.211   0.242  1.00  0.00     0.146 C 
BRANCH  31  32
HETATM   32  C20 UNL     1      33.470 -11.192  -0.272  1.00  0.00     0.256 C 
HETATM   33  O2  UNL     1      32.921 -11.937   0.544  1.00  0.00    -0.305 OA
ENDBRANCH  31  32
BRANCH  31  34
HETATM   34  C21 UNL     1      33.979  -8.834  -0.091  1.00  0.00     0.034 C 
BRANCH  34  35
HETATM   35  C22 UNL     1      34.289  -8.521  -1.544  1.00  0.00     0.022 C 
BRANCH  35  36
HETATM   36  C23 UNL     1      35.149  -7.262  -1.537  1.00  0.00     0.122 C 
BRANCH  36  37
HETATM   37  N8  UNL     1      34.469  -6.179  -0.876  1.00  0.00    -0.367 N 
HETATM   38  C24 UNL     1      33.946  -5.167  -1.515  1.00  0.00     0.196 C 
HETATM   39  N9  UNL     1      34.039  -5.112  -2.923  1.00  0.00    -0.067 NA
HETATM   40  N10 UNL     1      33.299  -4.160  -0.745  1.00  0.00    -0.067 NA
ATOM     41  H8  UNL     1      34.392  -6.204   0.140  1.00  0.00     0.161 HD
ENDBRANCH  36  37
ENDBRANCH  35  36
ENDBRANCH  34  35
ENDBRANCH  31  34
ENDBRANCH  29  31
ENDBRANCH   1  27
TORSDOF 17
ENDMDL
MODEL 5
REMARK VINA RESULT: -7.490061473      1.683      2.184
REMARK  17 active torsions:
REMARK  status: ('A' for Active; 'I' for Inactive)
REMARK    1  A    between atoms: N1_5  and  C5_7 
REMARK    2  A    between atoms: C5_7  and  C6_8 
REMARK    3  A    between atoms: C6_8  and  C7_9 
REMARK    4  A    between atoms: C7_9  and  C8_10 
REMARK    5  A    between atoms: C8_10  and  N2_11 
REMARK    6  A    between atoms: N3_16  and  C13_17 
REMARK    7  A    between atoms: C13_17  and  C14_18 
REMARK    8  A    between atoms: C13_17  and  C18_26 
REMARK    9  A    between atoms: C14_18  and  C15_19 
REMARK   10  A    between atoms: C15_19  and  C16_20 
REMARK   11  A    between atoms: C16_20  and  N4_21 
REMARK       I    between atoms: C18_26  and  N7_28 
REMARK   12  A    between atoms: N7_28  and  C19_30 
REMARK   13  A    between atoms: C19_30  and  C20_31 
REMARK   14  A    between atoms: C19_30  and  C21_33 
REMARK   15  A    between atoms: C21_33  and  C22_34 
REMARK   16  A    between atoms: C22_34  and  C23_35 
REMARK   17  A    between atoms: C23_35  and  N8_36 
ROOT
HETATM    1  C13 UNL     1      36.059 -10.519   3.488  1.00  0.00     0.177 C 
ENDROOT
BRANCH   1   2
HETATM    2  N3  UNL     1      35.907 -11.786   4.103  1.00  0.00    -0.357 N 
HETATM    3  C4  UNL     1      36.815 -12.221   5.165  1.00  0.00     0.076 C 
HETATM    4  C3  UNL     1      36.252 -13.404   5.856  1.00  0.00     0.082 C 
HETATM    5  N1  UNL     1      37.943 -11.685   5.454  1.00  0.00    -0.380 N 
HETATM    6  C2  UNL     1      34.782 -13.312   5.419  1.00  0.00     0.006 C 
HETATM    7  C1  UNL     1      34.190 -12.211   6.253  1.00  0.00     0.012 C 
HETATM    8  C25 UNL     1      35.009 -12.900   3.962  1.00  0.00     0.129 C 
ATOM      9  H1  UNL     1      38.253 -10.869   4.926  1.00  0.00     0.160 HD
BRANCH   5  10
HETATM   10  C5  UNL     1      38.792 -12.204   6.507  1.00  0.00     0.121 C 
BRANCH  10  11
HETATM   11  C6  UNL     1      39.021 -11.125   7.533  1.00  0.00     0.021 C 
BRANCH  11  12
HETATM   12  C7  UNL     1      39.886 -11.638   8.645  1.00  0.00     0.032 C 
BRANCH  12  13
HETATM   13  C8  UNL     1      40.682 -12.804   8.180  1.00  0.00     0.272 C 
BRANCH  13  14
HETATM   14  N2  UNL     1      40.412 -14.019   8.919  1.00  0.00     0.088 N 
HETATM   15  C9  UNL     1      39.295 -13.960   9.789  1.00  0.00     0.272 C 
HETATM   16  C10 UNL     1      38.525 -15.265   9.649  1.00  0.00     0.032 C 
HETATM   17  C11 UNL     1      38.906 -15.723   8.262  1.00  0.00     0.032 C 
HETATM   18  C12 UNL     1      40.302 -15.176   8.079  1.00  0.00     0.272 C 
ENDBRANCH  13  14
ENDBRANCH  12  13
ENDBRANCH  11  12
ENDBRANCH  10  11
ENDBRANCH   5  10
ENDBRANCH   1   2
BRANCH   1  19
HETATM   19  C14 UNL     1      35.384  -9.344   4.100  1.00  0.00     0.037 C 
BRANCH  19  20
HETATM   20  C15 UNL     1      35.381  -8.076   3.334  1.00  0.00     0.022 C 
BRANCH  20  21
HETATM   21  C16 UNL     1      36.772  -7.444   3.267  1.00  0.00     0.122 C 
BRANCH  21  22
HETATM   22  N4  UNL     1      37.138  -7.068   1.933  1.00  0.00    -0.367 N 
HETATM   23  C17 UNL     1      36.982  -5.839   1.533  1.00  0.00     0.196 C 
HETATM   24  N5  UNL     1      37.344  -5.478   0.221  1.00  0.00    -0.067 NA
HETATM   25  N6  UNL     1      36.449  -4.863   2.401  1.00  0.00    -0.067 NA
ATOM     26  H4  UNL     1      37.522  -7.766   1.294  1.00  0.00     0.161 HD
ENDBRANCH  21  22
ENDBRANCH  20  21
ENDBRANCH  19  20
ENDBRANCH   1  19
BRANCH   1  27
HETATM   27  C18 UNL     1      35.738 -10.483   2.026  1.00  0.00     0.241 C 
HETATM   28  O1  UNL     1      36.723 -10.296   1.267  1.00  0.00    -0.271 OA
HETATM   29  N7  UNL     1      34.465 -10.638   1.462  1.00  0.00    -0.348 N 
ATOM     30  H7  UNL     1      33.661 -10.788   2.071  1.00  0.00     0.163 HD
BRANCH  29  31
HETATM   31  C19 UNL     1      34.275 -10.589   0.029  1.00  0.00     0.146 C 
BRANCH  31  32
HETATM   32  C20 UNL     1      33.387 -11.694  -0.427  1.00  0.00     0.256 C 
HETATM   33  O2  UNL     1      32.747 -11.526  -1.468  1.00  0.00    -0.305 OA
ENDBRANCH  31  32
BRANCH  31  34
HETATM   34  C21 UNL     1      33.650  -9.290  -0.377  1.00  0.00     0.034 C 
BRANCH  34  35
HETATM   35  C22 UNL     1      34.736  -8.291  -0.735  1.00  0.00     0.022 C 
BRANCH  35  36
HETATM   36  C23 UNL     1      34.037  -7.130  -1.434  1.00  0.00     0.122 C 
BRANCH  36  37
HETATM   37  N8  UNL     1      34.300  -5.888  -0.754  1.00  0.00    -0.367 N 
HETATM   38  C24 UNL     1      34.192  -4.720  -1.329  1.00  0.00     0.196 C 
HETATM   39  N9  UNL     1      33.797  -4.648  -2.684  1.00  0.00    -0.067 NA
HETATM   40  N10 UNL     1      34.480  -3.567  -0.548  1.00  0.00    -0.067 NA
ATOM     41  H8  UNL     1      34.584  -5.922   0.225  1.00  0.00     0.161 HD
ENDBRANCH  36  37
ENDBRANCH  35  36
ENDBRANCH  34  35
ENDBRANCH  31  34
ENDBRANCH  29  31
ENDBRANCH   1  27
TORSDOF 17
ENDMDL
