MODEL 1
REMARK VINA RESULT: -7.722579807      0.000      0.000
REMARK  15 active torsions:
REMARK  status: ('A' for Active; 'I' for Inactive)
REMARK    1  A    between atoms: C2_2  and  C3_3 
REMARK    2  A    between atoms: C3_3  and  C4_4 
REMARK    3  A    between atoms: C6_8  and  C7_9 
REMARK    4  A    between atoms: C7_9  and  C8_10 
REMARK    5  A    between atoms: C12_20  and  C13_21 
REMARK       I    between atoms: C13_21  and  N4_23 
REMARK    6  A    between atoms: N4_23  and  C14_25 
REMARK    7  A    between atoms: C14_25  and  C15_26 
REMARK    8  A    between atoms: C15_26  and  C16_27 
REMARK    9  A    between atoms: C16_27  and  N5_28 
REMARK   10  A    between atoms: N6_31  and  C19_32 
REMARK   11  A    between atoms: C19_32  and  C20_33 
REMARK   12  A    between atoms: C20_33  and  C21_34 
REMARK   13  A    between atoms: C21_34  and  C22_35 
REMARK   14  A    between atoms: C22_35  and  N7_36 
REMARK   15  A    between atoms: N7_36  and  C23_38 
ROOT
HETATM    1  C13 UNL     1      34.224 -12.477   2.278  1.00  0.00     0.254 C 
HETATM    2  O3  UNL     1      34.561 -13.655   2.357  1.00  0.00    -0.268 OA
HETATM    3  N4  UNL     1      33.666 -11.942   3.503  1.00  0.00    -0.357 N 
ATOM      4  H4  UNL     1      33.383 -10.962   3.526  1.00  0.00     0.162 HD
ENDROOT
BRANCH   1   5
HETATM    5  C12 UNL     1      34.336 -11.594   1.111  1.00  0.00     0.062 A 
HETATM    6  C4  UNL     1      33.471 -11.646   0.028  1.00  0.00     0.025 A 
HETATM    7  N1  UNL     1      33.781 -10.554  -0.725  1.00  0.00    -0.368 N 
HETATM    8  C5  UNL     1      34.762  -9.869  -0.175  1.00  0.00     0.096 A 
ATOM      9  H1  UNL     1      33.316 -10.301  -1.596  1.00  0.00     0.165 HD
HETATM   10  C6  UNL     1      35.166 -10.524   1.045  1.00  0.00    -0.021 A 
BRANCH   6  11
HETATM   11  C3  UNL     1      32.490 -12.670  -0.381  1.00  0.00     0.057 C 
BRANCH  11  12
HETATM   12  C2  UNL     1      33.235 -13.781  -1.106  1.00  0.00     0.002 C 
HETATM   13  C1  UNL     1      33.268 -13.643  -2.587  1.00  0.00     0.005 C 
ENDBRANCH  11  12
ENDBRANCH   6  11
BRANCH  10  14
HETATM   14  C7  UNL     1      36.309  -9.993   1.812  1.00  0.00     0.086 C 
BRANCH  14  15
HETATM   15  C8  UNL     1      36.180  -8.603   2.261  1.00  0.00     0.030 A 
HETATM   16  C9  UNL     1      36.654  -7.641   1.331  1.00  0.00     0.105 A 
HETATM   17  N2  UNL     1      36.683  -6.333   1.593  1.00  0.00    -0.318 N 
HETATM   18  C10 UNL     1      36.257  -5.870   2.773  1.00  0.00     0.326 A 
ATOM     19  H2  UNL     1      37.033  -5.682   0.889  1.00  0.00     0.170 HD
HETATM   20  O1  UNL     1      36.263  -4.639   3.076  1.00  0.00    -0.247 OA
HETATM   21  N3  UNL     1      35.800  -6.733   3.683  1.00  0.00    -0.275 N 
HETATM   22  C11 UNL     1      35.758  -8.091   3.436  1.00  0.00     0.257 A 
ATOM     23  H3  UNL     1      35.474  -6.380   4.583  1.00  0.00     0.173 HD
HETATM   24  O2  UNL     1      35.312  -8.844   4.320  1.00  0.00    -0.267 OA
ENDBRANCH  14  15
ENDBRANCH  10  14
ENDBRANCH   1   5
BRANCH   3  25
HETATM   25  C14 UNL     1      33.495 -12.738   4.686  1.00  0.00     0.124 C 
BRANCH  25  26
HETATM   26  C15 UNL     1      34.565 -12.408   5.689  1.00  0.00     0.050 C 
BRANCH  26  27
HETATM   27  C16 UNL     1      35.643 -13.431   5.748  1.00  0.00     0.274 C 
BRANCH  27  28
HETATM   28  N5  UNL     1      36.846 -13.154   5.042  1.00  0.00     0.098 N 
HETATM   29  C17 UNL     1      37.379 -11.846   5.272  1.00  0.00     0.292 C 
HETATM   30  C18 UNL     1      38.568 -11.839   6.210  1.00  0.00     0.156 C 
HETATM   31  N6  UNL     1      38.300 -12.805   7.259  1.00  0.00    -0.349 N 
HETATM   32  C24 UNL     1      38.025 -14.136   6.814  1.00  0.00     0.248 C 
HETATM   33  O5  UNL     1      38.002 -15.106   7.596  1.00  0.00    -0.271 OA
HETATM   34  C25 UNL     1      37.776 -14.232   5.336  1.00  0.00     0.374 C 
BRANCH  31  35
HETATM   35  C19 UNL     1      38.285 -12.487   8.670  1.00  0.00     0.126 C 
BRANCH  35  36
HETATM   36  C20 UNL     1      39.252 -11.357   8.950  1.00  0.00     0.021 C 
BRANCH  36  37
HETATM   37  C21 UNL     1      40.115 -11.665  10.143  1.00  0.00     0.021 C 
BRANCH  37  38
HETATM   38  C22 UNL     1      40.282 -13.162  10.283  1.00  0.00     0.122 C 
BRANCH  38  39
HETATM   39  N7  UNL     1      41.485 -13.500  11.016  1.00  0.00    -0.368 N 
ATOM     40  H7  UNL     1      41.433 -13.572  12.033  1.00  0.00     0.161 HD
BRANCH  39  41
HETATM   41  C23 UNL     1      42.728 -13.735  10.388  1.00  0.00     0.348 C 
HETATM   42  O4  UNL     1      43.428 -12.780  10.001  1.00  0.00    -0.284 OA
ENDBRANCH  39  41
ENDBRANCH  38  39
ENDBRANCH  37  38
ENDBRANCH  36  37
ENDBRANCH  35  36
ENDBRANCH  31  35
ENDBRANCH  27  28
ENDBRANCH  26  27
ENDBRANCH  25  26
ENDBRANCH   3  25
TORSDOF 15
ENDMDL
MODEL 2
REMARK VINA RESULT: -7.711558493      1.902      4.774
REMARK  15 active torsions:
REMARK  status: ('A' for Active; 'I' for Inactive)
REMARK    1  A    between atoms: C2_2  and  C3_3 
REMARK    2  A    between atoms: C3_3  and  C4_4 
REMARK    3  A    between atoms: C6_8  and  C7_9 
REMARK    4  A    between atoms: C7_9  and  C8_10 
REMARK    5  A    between atoms: C12_20  and  C13_21 
REMARK       I    between atoms: C13_21  and  N4_23 
REMARK    6  A    between atoms: N4_23  and  C14_25 
REMARK    7  A    between atoms: C14_25  and  C15_26 
REMARK    8  A    between atoms: C15_26  and  C16_27 
REMARK    9  A    between atoms: C16_27  and  N5_28 
REMARK   10  A    between atoms: N6_31  and  C19_32 
REMARK   11  A    between atoms: C19_32  and  C20_33 
REMARK   12  A    between atoms: C20_33  and  C21_34 
REMARK   13  A    between atoms: C21_34  and  C22_35 
REMARK   14  A    between atoms: C22_35  and  N7_36 
REMARK   15  A    between atoms: N7_36  and  C23_38 
ROOT
HETATM    1  C13 UNL     1      35.390 -10.474   2.104  1.00  0.00     0.254 C 
HETATM    2  O3  UNL     1      36.471 -11.012   2.320  1.00  0.00    -0.268 OA
HETATM    3  N4  UNL     1      34.275 -11.098   2.787  1.00  0.00    -0.357 N 
ATOM      4  H4  UNL     1      33.345 -10.696   2.677  1.00  0.00     0.162 HD
ENDROOT
BRANCH   1   5
HETATM    5  C12 UNL     1      35.130  -9.302   1.260  1.00  0.00     0.062 A 
HETATM    6  C4  UNL     1      35.813  -8.102   1.388  1.00  0.00     0.025 A 
HETATM    7  N1  UNL     1      35.428  -7.359   0.312  1.00  0.00    -0.368 N 
HETATM    8  C5  UNL     1      34.570  -8.024  -0.433  1.00  0.00     0.096 A 
ATOM      9  H1  UNL     1      35.760  -6.417   0.111  1.00  0.00     0.165 HD
HETATM   10  C6  UNL     1      34.338  -9.319   0.159  1.00  0.00    -0.021 A 
BRANCH   6  11
HETATM   11  C3  UNL     1      36.681  -7.590   2.466  1.00  0.00     0.057 C 
BRANCH  11  12
HETATM   12  C2  UNL     1      37.190  -6.216   2.058  1.00  0.00     0.002 C 
HETATM   13  C1  UNL     1      38.670  -6.073   2.072  1.00  0.00     0.005 C 
ENDBRANCH  11  12
ENDBRANCH   6  11
BRANCH  10  14
HETATM   14  C7  UNL     1      33.348 -10.229  -0.446  1.00  0.00     0.086 C 
BRANCH  14  15
HETATM   15  C8  UNL     1      33.901 -11.317  -1.260  1.00  0.00     0.030 A 
HETATM   16  C9  UNL     1      34.144 -10.971  -2.614  1.00  0.00     0.105 A 
HETATM   17  N2  UNL     1      34.579 -11.849  -3.520  1.00  0.00    -0.318 N 
HETATM   18  C10 UNL     1      34.807 -13.120  -3.174  1.00  0.00     0.326 A 
ATOM     19  H2  UNL     1      34.738 -11.548  -4.482  1.00  0.00     0.170 HD
HETATM   20  O1  UNL     1      35.219 -13.995  -3.992  1.00  0.00    -0.247 OA
HETATM   21  N3  UNL     1      34.595 -13.498  -1.912  1.00  0.00    -0.275 N 
HETATM   22  C11 UNL     1      34.146 -12.608  -0.955  1.00  0.00     0.257 A 
ATOM     23  H3  UNL     1      34.770 -14.467  -1.647  1.00  0.00     0.173 HD
HETATM   24  O2  UNL     1      33.978 -13.018   0.208  1.00  0.00    -0.267 OA
ENDBRANCH  14  15
ENDBRANCH  10  14
ENDBRANCH   1   5
BRANCH   3  25
HETATM   25  C14 UNL     1      34.431 -12.264   3.612  1.00  0.00     0.124 C 
BRANCH  25  26
HETATM   26  C15 UNL     1      34.662 -11.856   5.041  1.00  0.00     0.050 C 
BRANCH  26  27
HETATM   27  C16 UNL     1      35.772 -12.606   5.688  1.00  0.00     0.274 C 
BRANCH  27  28
HETATM   28  N5  UNL     1      37.091 -12.352   5.222  1.00  0.00     0.098 N 
HETATM   29  C17 UNL     1      37.738 -11.242   5.854  1.00  0.00     0.292 C 
HETATM   30  C18 UNL     1      38.766 -11.656   6.886  1.00  0.00     0.156 C 
HETATM   31  N6  UNL     1      38.231 -12.801   7.599  1.00  0.00    -0.349 N 
HETATM   32  C24 UNL     1      37.866 -13.918   6.784  1.00  0.00     0.248 C 
HETATM   33  O5  UNL     1      37.610 -15.037   7.267  1.00  0.00    -0.271 OA
HETATM   34  C25 UNL     1      37.830 -13.600   5.316  1.00  0.00     0.374 C 
BRANCH  31  35
HETATM   35  C19 UNL     1      38.044 -12.849   9.033  1.00  0.00     0.126 C 
BRANCH  35  36
HETATM   36  C20 UNL     1      39.038 -11.930   9.709  1.00  0.00     0.021 C 
BRANCH  36  37
HETATM   37  C21 UNL     1      40.175 -12.710  10.312  1.00  0.00     0.021 C 
BRANCH  37  38
HETATM   38  C22 UNL     1      41.432 -12.496   9.497  1.00  0.00     0.122 C 
BRANCH  38  39
HETATM   39  N7  UNL     1      42.616 -12.498  10.332  1.00  0.00    -0.368 N 
ATOM     40  H7  UNL     1      42.984 -11.604  10.658  1.00  0.00     0.161 HD
BRANCH  39  41
HETATM   41  C23 UNL     1      43.285 -13.681  10.714  1.00  0.00     0.348 C 
HETATM   42  O4  UNL     1      44.188 -13.646  11.571  1.00  0.00    -0.284 OA
ENDBRANCH  39  41
ENDBRANCH  38  39
ENDBRANCH  37  38
ENDBRANCH  36  37
ENDBRANCH  35  36
ENDBRANCH  31  35
ENDBRANCH  27  28
ENDBRANCH  26  27
ENDBRANCH  25  26
ENDBRANCH   3  25
TORSDOF 15
ENDMDL
MODEL 3
REMARK VINA RESULT: -7.569566600      2.822      8.272
REMARK  15 active torsions:
REMARK  status: ('A' for Active; 'I' for Inactive)
REMARK    1  A    between atoms: C2_2  and  C3_3 
REMARK    2  A    between atoms: C3_3  and  C4_4 
REMARK    3  A    between atoms: C6_8  and  C7_9 
REMARK    4  A    between atoms: C7_9  and  C8_10 
REMARK    5  A    between atoms: C12_20  and  C13_21 
REMARK       I    between atoms: C13_21  and  N4_23 
REMARK    6  A    between atoms: N4_23  and  C14_25 
REMARK    7  A    between atoms: C14_25  and  C15_26 
REMARK    8  A    between atoms: C15_26  and  C16_27 
REMARK    9  A    between atoms: C16_27  and  N5_28 
REMARK   10  A    between atoms: N6_31  and  C19_32 
REMARK   11  A    between atoms: C19_32  and  C20_33 
REMARK   12  A    between atoms: C20_33  and  C21_34 
REMARK   13  A    between atoms: C21_34  and  C22_35 
REMARK   14  A    between atoms: C22_35  and  N7_36 
REMARK   15  A    between atoms: N7_36  and  C23_38 
ROOT
HETATM    1  C13 UNL     1      34.972 -10.736   0.895  1.00  0.00     0.254 C 
HETATM    2  O3  UNL     1      36.124 -10.339   1.045  1.00  0.00    -0.268 OA
HETATM    3  N4  UNL     1      34.059  -9.722   0.411  1.00  0.00    -0.357 N 
ATOM      4  H4  UNL     1      33.087  -9.978   0.238  1.00  0.00     0.162 HD
ENDROOT
BRANCH   1   5
HETATM    5  C12 UNL     1      34.455 -12.087   1.143  1.00  0.00     0.062 A 
HETATM    6  C4  UNL     1      34.249 -13.022   0.140  1.00  0.00     0.025 A 
HETATM    7  N1  UNL     1      33.967 -14.184   0.792  1.00  0.00    -0.368 N 
HETATM    8  C5  UNL     1      33.983 -14.006   2.096  1.00  0.00     0.096 A 
ATOM      9  H1  UNL     1      33.769 -15.072   0.332  1.00  0.00     0.165 HD
HETATM   10  C6  UNL     1      34.300 -12.626   2.378  1.00  0.00    -0.021 A 
BRANCH   6  11
HETATM   11  C3  UNL     1      34.196 -12.874  -1.327  1.00  0.00     0.057 C 
BRANCH  11  12
HETATM   12  C2  UNL     1      32.996 -13.652  -1.843  1.00  0.00     0.002 C 
HETATM   13  C1  UNL     1      33.084 -14.054  -3.273  1.00  0.00     0.005 C 
ENDBRANCH  11  12
ENDBRANCH   6  11
BRANCH  10  14
HETATM   14  C7  UNL     1      34.301 -12.150   3.774  1.00  0.00     0.086 C 
BRANCH  14  15
HETATM   15  C8  UNL     1      35.431 -12.598   4.595  1.00  0.00     0.030 A 
HETATM   16  C9  UNL     1      36.586 -11.779   4.501  1.00  0.00     0.105 A 
HETATM   17  N2  UNL     1      37.731 -12.068   5.121  1.00  0.00    -0.318 N 
HETATM   18  C10 UNL     1      37.835 -13.170   5.871  1.00  0.00     0.326 A 
ATOM     19  H2  UNL     1      38.533 -11.444   5.022  1.00  0.00     0.170 HD
HETATM   20  O1  UNL     1      38.898 -13.494   6.480  1.00  0.00    -0.247 OA
HETATM   21  N3  UNL     1      36.778 -13.975   5.993  1.00  0.00    -0.275 N 
HETATM   22  C11 UNL     1      35.580 -13.698   5.362  1.00  0.00     0.257 A 
ATOM     23  H3  UNL     1      36.856 -14.816   6.565  1.00  0.00     0.173 HD
HETATM   24  O2  UNL     1      34.627 -14.481   5.523  1.00  0.00    -0.267 OA
ENDBRANCH  14  15
ENDBRANCH  10  14
ENDBRANCH   1   5
BRANCH   3  25
HETATM   25  C14 UNL     1      34.469  -8.367   0.165  1.00  0.00     0.124 C 
BRANCH  25  26
HETATM   26  C15 UNL     1      34.281  -8.027  -1.287  1.00  0.00     0.050 C 
BRANCH  26  27
HETATM   27  C16 UNL     1      35.318  -7.094  -1.806  1.00  0.00     0.274 C 
BRANCH  27  28
HETATM   28  N5  UNL     1      34.869  -5.872  -2.376  1.00  0.00     0.098 N 
HETATM   29  C17 UNL     1      34.277  -4.965  -1.440  1.00  0.00     0.292 C 
HETATM   30  C18 UNL     1      35.191  -3.820  -1.053  1.00  0.00     0.156 C 
HETATM   31  N6  UNL     1      36.533  -4.358  -0.928  1.00  0.00    -0.349 N 
HETATM   32  C24 UNL     1      37.037  -5.028  -2.087  1.00  0.00     0.248 C 
HETATM   33  O5  UNL     1      38.238  -5.336  -2.205  1.00  0.00    -0.271 OA
HETATM   34  C25 UNL     1      35.984  -5.309  -3.120  1.00  0.00     0.374 C 
BRANCH  31  35
HETATM   35  C19 UNL     1      37.337  -4.263   0.270  1.00  0.00     0.126 C 
BRANCH  35  36
HETATM   36  C20 UNL     1      36.722  -5.104   1.367  1.00  0.00     0.021 C 
BRANCH  36  37
HETATM   37  C21 UNL     1      37.769  -5.917   2.080  1.00  0.00     0.021 C 
BRANCH  37  38
HETATM   38  C22 UNL     1      37.207  -7.275   2.438  1.00  0.00     0.122 C 
BRANCH  38  39
HETATM   39  N7  UNL     1      36.037  -7.164   3.285  1.00  0.00    -0.368 N 
ATOM     40  H7  UNL     1      35.626  -6.241   3.430  1.00  0.00     0.161 HD
BRANCH  39  41
HETATM   41  C23 UNL     1      35.439  -8.274   3.920  1.00  0.00     0.348 C 
HETATM   42  O4  UNL     1      34.382  -8.761   3.475  1.00  0.00    -0.284 OA
ENDBRANCH  39  41
ENDBRANCH  38  39
ENDBRANCH  37  38
ENDBRANCH  36  37
ENDBRANCH  35  36
ENDBRANCH  31  35
ENDBRANCH  27  28
ENDBRANCH  26  27
ENDBRANCH  25  26
ENDBRANCH   3  25
TORSDOF 15
ENDMDL
MODEL 4
REMARK VINA RESULT: -7.429149714      2.505      5.176
REMARK  15 active torsions:
REMARK  status: ('A' for Active; 'I' for Inactive)
REMARK    1  A    between atoms: C2_2  and  C3_3 
REMARK    2  A    between atoms: C3_3  and  C4_4 
REMARK    3  A    between atoms: C6_8  and  C7_9 
REMARK    4  A    between atoms: C7_9  and  C8_10 
REMARK    5  A    between atoms: C12_20  and  C13_21 
REMARK       I    between atoms: C13_21  and  N4_23 
REMARK    6  A    between atoms: N4_23  and  C14_25 
REMARK    7  A    between atoms: C14_25  and  C15_26 
REMARK    8  A    between atoms: C15_26  and  C16_27 
REMARK    9  A    between atoms: C16_27  and  N5_28 
REMARK   10  A    between atoms: N6_31  and  C19_32 
REMARK   11  A    between atoms: C19_32  and  C20_33 
REMARK   12  A    between atoms: C20_33  and  C21_34 
REMARK   13  A    between atoms: C21_34  and  C22_35 
REMARK   14  A    between atoms: C22_35  and  N7_36 
REMARK   15  A    between atoms: N7_36  and  C23_38 
ROOT
HETATM    1  C13 UNL     1      34.272 -12.260   2.483  1.00  0.00     0.254 C 
HETATM    2  O3  UNL     1      34.425 -13.464   2.297  1.00  0.00    -0.268 OA
HETATM    3  N4  UNL     1      33.720 -11.932   3.782  1.00  0.00    -0.357 N 
ATOM      4  H4  UNL     1      33.584 -10.950   4.023  1.00  0.00     0.162 HD
ENDROOT
BRANCH   1   5
HETATM    5  C12 UNL     1      34.587 -11.167   1.557  1.00  0.00     0.062 A 
HETATM    6  C4  UNL     1      35.556 -10.208   1.809  1.00  0.00     0.025 A 
HETATM    7  N1  UNL     1      35.679  -9.514   0.643  1.00  0.00    -0.368 N 
HETATM    8  C5  UNL     1      34.857  -9.985  -0.271  1.00  0.00     0.096 A 
ATOM      9  H1  UNL     1      36.322  -8.736   0.498  1.00  0.00     0.165 HD
HETATM   10  C6  UNL     1      34.107 -11.082   0.291  1.00  0.00    -0.021 A 
BRANCH   6  11
HETATM   11  C3  UNL     1      36.263  -9.847   3.053  1.00  0.00     0.057 C 
BRANCH  11  12
HETATM   12  C2  UNL     1      35.755  -8.491   3.515  1.00  0.00     0.002 C 
HETATM   13  C1  UNL     1      36.615  -7.340   3.127  1.00  0.00     0.005 C 
ENDBRANCH  11  12
ENDBRANCH   6  11
BRANCH  10  14
HETATM   14  C7  UNL     1      33.055 -11.732  -0.513  1.00  0.00     0.086 C 
BRANCH  14  15
HETATM   15  C8  UNL     1      33.528 -12.536  -1.644  1.00  0.00     0.030 A 
HETATM   16  C9  UNL     1      34.091 -13.787  -1.280  1.00  0.00     0.105 A 
HETATM   17  N2  UNL     1      34.636 -14.622  -2.166  1.00  0.00    -0.318 N 
HETATM   18  C10 UNL     1      34.675 -14.300  -3.463  1.00  0.00     0.326 A 
ATOM     19  H2  UNL     1      35.027 -15.511  -1.852  1.00  0.00     0.170 HD
HETATM   20  O1  UNL     1      35.182 -15.054  -4.348  1.00  0.00    -0.247 OA
HETATM   21  N3  UNL     1      34.159 -13.135  -3.860  1.00  0.00    -0.275 N 
HETATM   22  C11 UNL     1      33.587 -12.254  -2.962  1.00  0.00     0.257 A 
ATOM     23  H3  UNL     1      34.187 -12.889  -4.849  1.00  0.00     0.173 HD
HETATM   24  O2  UNL     1      33.113 -11.188  -3.394  1.00  0.00    -0.267 OA
ENDBRANCH  14  15
ENDBRANCH  10  14
ENDBRANCH   1   5
BRANCH   3  25
HETATM   25  C14 UNL     1      33.357 -12.936   4.743  1.00  0.00     0.124 C 
BRANCH  25  26
HETATM   26  C15 UNL     1      34.414 -13.036   5.807  1.00  0.00     0.050 C 
BRANCH  26  27
HETATM   27  C16 UNL     1      35.096 -14.359   5.828  1.00  0.00     0.274 C 
BRANCH  27  28
HETATM   28  N5  UNL     1      36.173 -14.552   4.920  1.00  0.00     0.098 N 
HETATM   29  C17 UNL     1      37.164 -13.521   4.950  1.00  0.00     0.292 C 
HETATM   30  C18 UNL     1      38.427 -13.922   5.684  1.00  0.00     0.156 C 
HETATM   31  N6  UNL     1      38.027 -14.702   6.842  1.00  0.00    -0.349 N 
HETATM   32  C24 UNL     1      37.225 -15.853   6.561  1.00  0.00     0.248 C 
HETATM   33  O5  UNL     1      37.002 -16.730   7.417  1.00  0.00    -0.271 OA
HETATM   34  C25 UNL     1      36.700 -15.887   5.155  1.00  0.00     0.374 C 
BRANCH  31  35
HETATM   35  C19 UNL     1      38.376 -14.367   8.205  1.00  0.00     0.126 C 
BRANCH  35  36
HETATM   36  C20 UNL     1      38.650 -12.883   8.313  1.00  0.00     0.021 C 
BRANCH  36  37
HETATM   37  C21 UNL     1      38.379 -12.380   9.704  1.00  0.00     0.021 C 
BRANCH  37  38
HETATM   38  C22 UNL     1      39.670 -11.920  10.344  1.00  0.00     0.122 C 
BRANCH  38  39
HETATM   39  N7  UNL     1      40.188 -10.727   9.706  1.00  0.00    -0.368 N 
ATOM     40  H7  UNL     1      40.005 -10.588   8.712  1.00  0.00     0.161 HD
BRANCH  39  41
HETATM   41  C23 UNL     1      40.935  -9.748  10.397  1.00  0.00     0.348 C 
HETATM   42  O4  UNL     1      40.923  -8.562  10.017  1.00  0.00    -0.284 OA
ENDBRANCH  39  41
ENDBRANCH  38  39
ENDBRANCH  37  38
ENDBRANCH  36  37
ENDBRANCH  35  36
ENDBRANCH  31  35
ENDBRANCH  27  28
ENDBRANCH  26  27
ENDBRANCH  25  26
ENDBRANCH   3  25
TORSDOF 15
ENDMDL
MODEL 5
REMARK VINA RESULT: -7.313431766      2.779      4.298
REMARK  15 active torsions:
REMARK  status: ('A' for Active; 'I' for Inactive)
REMARK    1  A    between atoms: C2_2  and  C3_3 
REMARK    2  A    between atoms: C3_3  and  C4_4 
REMARK    3  A    between atoms: C6_8  and  C7_9 
REMARK    4  A    between atoms: C7_9  and  C8_10 
REMARK    5  A    between atoms: C12_20  and  C13_21 
REMARK       I    between atoms: C13_21  and  N4_23 
REMARK    6  A    between atoms: N4_23  and  C14_25 
REMARK    7  A    between atoms: C14_25  and  C15_26 
REMARK    8  A    between atoms: C15_26  and  C16_27 
REMARK    9  A    between atoms: C16_27  and  N5_28 
REMARK   10  A    between atoms: N6_31  and  C19_32 
REMARK   11  A    between atoms: C19_32  and  C20_33 
REMARK   12  A    between atoms: C20_33  and  C21_34 
REMARK   13  A    between atoms: C21_34  and  C22_35 
REMARK   14  A    between atoms: C22_35  and  N7_36 
REMARK   15  A    between atoms: N7_36  and  C23_38 
ROOT
HETATM    1  C13 UNL     1      34.935  -9.658   0.548  1.00  0.00     0.254 C 
HETATM    2  O3  UNL     1      36.086 -10.075   0.622  1.00  0.00    -0.268 OA
HETATM    3  N4  UNL     1      34.464  -9.013   1.756  1.00  0.00    -0.357 N 
ATOM      4  H4  UNL     1      33.523  -8.618   1.767  1.00  0.00     0.162 HD
ENDROOT
BRANCH   1   5
HETATM    5  C12 UNL     1      34.028  -9.742  -0.604  1.00  0.00     0.062 A 
HETATM    6  C4  UNL     1      33.499 -10.933  -1.074  1.00  0.00     0.025 A 
HETATM    7  N1  UNL     1      32.569 -10.567  -2.000  1.00  0.00    -0.368 N 
HETATM    8  C5  UNL     1      32.514  -9.256  -2.115  1.00  0.00     0.096 A 
ATOM      9  H1  UNL     1      31.993 -11.219  -2.531  1.00  0.00     0.165 HD
HETATM   10  C6  UNL     1      33.469  -8.665  -1.209  1.00  0.00    -0.021 A 
BRANCH   6  11
HETATM   11  C3  UNL     1      33.871 -12.335  -0.801  1.00  0.00     0.057 C 
BRANCH  11  12
HETATM   12  C2  UNL     1      32.781 -13.237  -1.358  1.00  0.00     0.002 C 
HETATM   13  C1  UNL     1      33.153 -13.966  -2.600  1.00  0.00     0.005 C 
ENDBRANCH  11  12
ENDBRANCH   6  11
BRANCH  10  14
HETATM   14  C7  UNL     1      33.659  -7.202  -1.205  1.00  0.00     0.086 C 
BRANCH  14  15
HETATM   15  C8  UNL     1      35.000  -6.736  -1.574  1.00  0.00     0.030 A 
HETATM   16  C9  UNL     1      35.682  -6.038  -0.544  1.00  0.00     0.105 A 
HETATM   17  N2  UNL     1      36.881  -5.480  -0.719  1.00  0.00    -0.318 N 
HETATM   18  C10 UNL     1      37.499  -5.560  -1.902  1.00  0.00     0.326 A 
ATOM     19  H2  UNL     1      37.330  -4.990   0.056  1.00  0.00     0.170 HD
HETATM   20  O1  UNL     1      38.637  -5.048  -2.124  1.00  0.00    -0.247 OA
HETATM   21  N3  UNL     1      36.901  -6.206  -2.905  1.00  0.00    -0.275 N 
HETATM   22  C11 UNL     1      35.660  -6.793  -2.750  1.00  0.00     0.257 A 
ATOM     23  H3  UNL     1      37.372  -6.268  -3.808  1.00  0.00     0.173 HD
HETATM   24  O2  UNL     1      35.159  -7.392  -3.719  1.00  0.00    -0.267 OA
ENDBRANCH  14  15
ENDBRANCH  10  14
ENDBRANCH   1   5
BRANCH   3  25
HETATM   25  C14 UNL     1      35.271  -8.908   2.940  1.00  0.00     0.124 C 
BRANCH  25  26
HETATM   26  C15 UNL     1      34.832  -9.926   3.955  1.00  0.00     0.050 C 
BRANCH  26  27
HETATM   27  C16 UNL     1      35.219 -11.315   3.592  1.00  0.00     0.274 C 
BRANCH  27  28
HETATM   28  N5  UNL     1      34.173 -12.220   3.262  1.00  0.00     0.098 N 
HETATM   29  C17 UNL     1      34.607 -13.403   2.584  1.00  0.00     0.292 C 
HETATM   30  C18 UNL     1      34.647 -14.626   3.477  1.00  0.00     0.156 C 
HETATM   31  N6  UNL     1      35.144 -14.202   4.773  1.00  0.00    -0.349 N 
HETATM   32  C24 UNL     1      34.405 -13.150   5.401  1.00  0.00     0.248 C 
HETATM   33  O5  UNL     1      34.574 -12.843   6.597  1.00  0.00    -0.271 OA
HETATM   34  C25 UNL     1      33.426 -12.477   4.483  1.00  0.00     0.374 C 
BRANCH  31  35
HETATM   35  C19 UNL     1      36.311 -14.762   5.418  1.00  0.00     0.126 C 
BRANCH  35  36
HETATM   36  C20 UNL     1      37.538 -13.959   5.042  1.00  0.00     0.021 C 
BRANCH  36  37
HETATM   37  C21 UNL     1      38.102 -13.239   6.236  1.00  0.00     0.021 C 
BRANCH  37  38
HETATM   38  C22 UNL     1      37.990 -11.744   6.033  1.00  0.00     0.122 C 
BRANCH  38  39
HETATM   39  N7  UNL     1      38.289 -11.016   7.250  1.00  0.00    -0.368 N 
ATOM     40  H7  UNL     1      37.901 -10.079   7.365  1.00  0.00     0.161 HD
BRANCH  39  41
HETATM   41  C23 UNL     1      39.092 -11.544   8.284  1.00  0.00     0.348 C 
HETATM   42  O4  UNL     1      38.682 -11.551   9.460  1.00  0.00    -0.284 OA
ENDBRANCH  39  41
ENDBRANCH  38  39
ENDBRANCH  37  38
ENDBRANCH  36  37
ENDBRANCH  35  36
ENDBRANCH  31  35
ENDBRANCH  27  28
ENDBRANCH  26  27
ENDBRANCH  25  26
ENDBRANCH   3  25
TORSDOF 15
ENDMDL
