MODEL 1
REMARK VINA RESULT: -5.194733828      0.000      0.000
REMARK  1 active torsions:
REMARK  status: ('A' for Active; 'I' for Inactive)
REMARK    1  A    between atoms: N1_1  and  N2_4 
ROOT
HETATM    1  N2  UNL     1      39.228  -3.136  15.486  1.00  0.00    -0.236 NA
HETATM    2  C1  UNL     1      38.489  -3.885  16.452  1.00  0.00     0.113 C 
HETATM    3  C2  UNL     1      37.969  -5.147  15.789  1.00  0.00     0.016 C 
HETATM    4  C3  UNL     1      36.469  -5.193  15.973  1.00  0.00     0.001 C 
HETATM    5  C4  UNL     1      35.863  -6.369  15.263  1.00  0.00     0.000 C 
HETATM    6  C5  UNL     1      34.401  -6.039  14.986  1.00  0.00     0.000 C 
HETATM    7  C6  UNL     1      34.239  -5.892  13.494  1.00  0.00     0.000 C 
HETATM    8  C7  UNL     1      32.994  -5.114  13.121  1.00  0.00     0.000 C 
HETATM    9  C8  UNL     1      33.039  -3.690  13.587  1.00  0.00     0.000 C 
HETATM   10  C9  UNL     1      33.400  -2.753  12.448  1.00  0.00     0.000 C 
HETATM   11  C10 UNL     1      34.883  -2.779  12.238  1.00  0.00     0.000 C 
HETATM   12  C11 UNL     1      35.426  -1.392  11.932  1.00  0.00     0.010 C 
HETATM   13  C12 UNL     1      35.733  -0.662  13.230  1.00  0.00     0.111 C 
HETATM   14  C13 UNL     1      37.051   0.017  13.184  1.00  0.00     0.258 C 
HETATM   15  O1  UNL     1      37.093   1.265  13.328  1.00  0.00    -0.265 OA
HETATM   16  O2  UNL     1      38.183  -0.718  12.991  1.00  0.00    -0.320 OA
HETATM   17  C14 UNL     1      38.495  -1.951  13.553  1.00  0.00     0.195 C 
HETATM   18  C15 UNL     1      38.576  -1.912  15.073  1.00  0.00     0.139 C 
ENDROOT
BRANCH   1  19
HETATM   19  N1  UNL     1      40.558  -2.938  15.842  1.00  0.00    -0.363 NA
ATOM     20  H12 UNL     1      41.187  -3.604  15.394  1.00  0.00     0.171 HD
ATOM     21  H11 UNL     1      40.860  -1.967  15.757  1.00  0.00     0.171 HD
ENDBRANCH   1  19
TORSDOF 1
ENDMDL
MODEL 2
REMARK VINA RESULT: -5.139412367      2.754      5.004
REMARK  1 active torsions:
REMARK  status: ('A' for Active; 'I' for Inactive)
REMARK    1  A    between atoms: N1_1  and  N2_4 
ROOT
HETATM    1  N2  UNL     1      39.007  -5.073  16.188  1.00  0.00    -0.236 NA
HETATM    2  C1  UNL     1      39.869  -4.224  15.427  1.00  0.00     0.113 C 
HETATM    3  C2  UNL     1      39.407  -2.790  15.598  1.00  0.00     0.016 C 
HETATM    4  C3  UNL     1      39.156  -2.208  14.225  1.00  0.00     0.001 C 
HETATM    5  C4  UNL     1      38.604  -0.814  14.310  1.00  0.00     0.000 C 
HETATM    6  C5  UNL     1      37.847  -0.536  13.018  1.00  0.00     0.000 C 
HETATM    7  C6  UNL     1      36.382  -0.430  13.359  1.00  0.00     0.000 C 
HETATM    8  C7  UNL     1      35.491  -0.634  12.151  1.00  0.00     0.000 C 
HETATM    9  C8  UNL     1      35.594  -2.016  11.581  1.00  0.00     0.000 C 
HETATM   10  C9  UNL     1      34.418  -2.874  12.011  1.00  0.00     0.000 C 
HETATM   11  C10 UNL     1      34.657  -3.380  13.401  1.00  0.00     0.000 C 
HETATM   12  C11 UNL     1      34.198  -4.821  13.555  1.00  0.00     0.010 C 
HETATM   13  C12 UNL     1      35.314  -5.765  13.137  1.00  0.00     0.111 C 
HETATM   14  C13 UNL     1      35.489  -6.877  14.103  1.00  0.00     0.258 C 
HETATM   15  O1  UNL     1      35.335  -8.057  13.699  1.00  0.00    -0.265 OA
HETATM   16  O2  UNL     1      35.813  -6.602  15.398  1.00  0.00    -0.320 OA
HETATM   17  C14 UNL     1      36.720  -5.653  15.859  1.00  0.00     0.195 C 
HETATM   18  C15 UNL     1      38.143  -5.903  15.378  1.00  0.00     0.139 C 
ENDROOT
BRANCH   1  19
HETATM   19  N1  UNL     1      39.674  -5.796  17.172  1.00  0.00    -0.363 NA
ATOM     20  H12 UNL     1      39.209  -5.745  18.078  1.00  0.00     0.171 HD
ATOM     21  H11 UNL     1      39.911  -6.745  16.885  1.00  0.00     0.171 HD
ENDBRANCH   1  19
TORSDOF 1
ENDMDL
MODEL 3
REMARK VINA RESULT: -5.132507243      2.731      4.994
REMARK  1 active torsions:
REMARK  status: ('A' for Active; 'I' for Inactive)
REMARK    1  A    between atoms: N1_1  and  N2_4 
ROOT
HETATM    1  N2  UNL     1      37.898  -4.986  16.658  1.00  0.00    -0.236 NA
HETATM    2  C1  UNL     1      39.013  -4.493  15.912  1.00  0.00     0.113 C 
HETATM    3  C2  UNL     1      38.946  -2.978  15.887  1.00  0.00     0.016 C 
HETATM    4  C3  UNL     1      38.966  -2.528  14.444  1.00  0.00     0.001 C 
HETATM    5  C4  UNL     1      38.809  -1.039  14.330  1.00  0.00     0.000 C 
HETATM    6  C5  UNL     1      38.256  -0.737  12.943  1.00  0.00     0.000 C 
HETATM    7  C6  UNL     1      36.853  -0.211  13.114  1.00  0.00     0.000 C 
HETATM    8  C7  UNL     1      36.034  -0.326  11.844  1.00  0.00     0.000 C 
HETATM    9  C8  UNL     1      35.800  -1.747  11.431  1.00  0.00     0.000 C 
HETATM   10  C9  UNL     1      34.407  -2.208  11.817  1.00  0.00     0.000 C 
HETATM   11  C10 UNL     1      34.394  -2.580  13.268  1.00  0.00     0.000 C 
HETATM   12  C11 UNL     1      33.551  -3.821  13.517  1.00  0.00     0.010 C 
HETATM   13  C12 UNL     1      34.398  -5.068  13.317  1.00  0.00     0.111 C 
HETATM   14  C13 UNL     1      34.192  -6.057  14.403  1.00  0.00     0.258 C 
HETATM   15  O1  UNL     1      33.754  -7.197  14.105  1.00  0.00    -0.265 OA
HETATM   16  O2  UNL     1      34.479  -5.716  15.691  1.00  0.00    -0.320 OA
HETATM   17  C14 UNL     1      35.572  -4.987  16.147  1.00  0.00     0.195 C 
HETATM   18  C15 UNL     1      36.905  -5.657  15.848  1.00  0.00     0.139 C 
ENDROOT
BRANCH   1  19
HETATM   19  N1  UNL     1      38.268  -5.728  17.775  1.00  0.00    -0.363 NA
ATOM     20  H12 UNL     1      38.830  -5.191  18.435  1.00  0.00     0.171 HD
ATOM     21  H11 UNL     1      37.488  -6.223  18.208  1.00  0.00     0.171 HD
ENDBRANCH   1  19
TORSDOF 1
ENDMDL
MODEL 4
REMARK VINA RESULT: -4.985378693      3.688      6.644
REMARK  1 active torsions:
REMARK  status: ('A' for Active; 'I' for Inactive)
REMARK    1  A    between atoms: N1_1  and  N2_4 
ROOT
HETATM    1  N2  UNL     1      32.998  -4.757  12.681  1.00  0.00    -0.236 NA
HETATM    2  C1  UNL     1      32.759  -3.405  13.077  1.00  0.00     0.113 C 
HETATM    3  C2  UNL     1      33.651  -2.496  12.254  1.00  0.00     0.016 C 
HETATM    4  C3  UNL     1      34.471  -1.652  13.203  1.00  0.00     0.001 C 
HETATM    5  C4  UNL     1      35.451  -0.787  12.465  1.00  0.00     0.000 C 
HETATM    6  C5  UNL     1      36.584  -0.449  13.425  1.00  0.00     0.000 C 
HETATM    7  C6  UNL     1      37.828  -1.143  12.929  1.00  0.00     0.000 C 
HETATM    8  C7  UNL     1      38.878  -1.290  14.011  1.00  0.00     0.000 C 
HETATM    9  C8  UNL     1      38.435  -2.179  15.133  1.00  0.00     0.000 C 
HETATM   10  C9  UNL     1      39.040  -3.565  15.007  1.00  0.00     0.000 C 
HETATM   11  C10 UNL     1      38.255  -4.358  14.008  1.00  0.00     0.000 C 
HETATM   12  C11 UNL     1      38.086  -5.802  14.453  1.00  0.00     0.010 C 
HETATM   13  C12 UNL     1      36.864  -5.926  15.348  1.00  0.00     0.111 C 
HETATM   14  C13 UNL     1      36.029  -7.097  14.986  1.00  0.00     0.258 C 
HETATM   15  O1  UNL     1      35.842  -7.994  15.847  1.00  0.00    -0.265 OA
HETATM   16  O2  UNL     1      35.484  -7.179  13.740  1.00  0.00    -0.320 OA
HETATM   17  C14 UNL     1      34.902  -6.152  13.004  1.00  0.00     0.195 C 
HETATM   18  C15 UNL     1      33.682  -5.545  13.683  1.00  0.00     0.139 C 
ENDROOT
BRANCH   1  19
HETATM   19  N1  UNL     1      31.866  -5.394  12.182  1.00  0.00    -0.363 NA
ATOM     20  H12 UNL     1      31.165  -4.736  11.841  1.00  0.00     0.171 HD
ATOM     21  H11 UNL     1      32.080  -6.143  11.525  1.00  0.00     0.171 HD
ENDBRANCH   1  19
TORSDOF 1
ENDMDL
MODEL 5
REMARK VINA RESULT: -4.975306889      2.659      4.856
REMARK  1 active torsions:
REMARK  status: ('A' for Active; 'I' for Inactive)
REMARK    1  A    between atoms: N1_1  and  N2_4 
ROOT
HETATM    1  N2  UNL     1      35.419  -5.777  14.263  1.00  0.00    -0.236 NA
HETATM    2  C1  UNL     1      34.165  -5.208  14.647  1.00  0.00     0.113 C 
HETATM    3  C2  UNL     1      33.543  -4.549  13.431  1.00  0.00     0.016 C 
HETATM    4  C3  UNL     1      33.248  -3.106  13.776  1.00  0.00     0.001 C 
HETATM    5  C4  UNL     1      32.713  -2.355  12.591  1.00  0.00     0.000 C 
HETATM    6  C5  UNL     1      32.999  -0.876  12.813  1.00  0.00     0.000 C 
HETATM    7  C6  UNL     1      34.022  -0.448  11.791  1.00  0.00     0.000 C 
HETATM    8  C7  UNL     1      34.739   0.826  12.189  1.00  0.00     0.000 C 
HETATM    9  C8  UNL     1      35.564   0.666  13.429  1.00  0.00     0.000 C 
HETATM   10  C9  UNL     1      37.034   0.497  13.090  1.00  0.00     0.000 C 
HETATM   11  C10 UNL     1      37.288  -0.922  12.682  1.00  0.00     0.000 C 
HETATM   12  C11 UNL     1      38.610  -1.431  13.234  1.00  0.00     0.010 C 
HETATM   13  C12 UNL     1      38.405  -1.986  14.635  1.00  0.00     0.111 C 
HETATM   14  C13 UNL     1      39.090  -3.288  14.820  1.00  0.00     0.258 C 
HETATM   15  O1  UNL     1      39.977  -3.383  15.705  1.00  0.00    -0.265 OA
HETATM   16  O2  UNL     1      38.747  -4.349  14.036  1.00  0.00    -0.320 OA
HETATM   17  C14 UNL     1      37.468  -4.731  13.644  1.00  0.00     0.195 C 
HETATM   18  C15 UNL     1      36.565  -5.088  14.816  1.00  0.00     0.139 C 
ENDROOT
BRANCH   1  19
HETATM   19  N1  UNL     1      35.482  -7.153  14.452  1.00  0.00    -0.363 NA
ATOM     20  H12 UNL     1      35.576  -7.410  15.435  1.00  0.00     0.171 HD
ATOM     21  H11 UNL     1      34.745  -7.662  13.964  1.00  0.00     0.171 HD
ENDBRANCH   1  19
TORSDOF 1
ENDMDL
