MODEL 1
REMARK VINA RESULT: -6.136723813      0.000      0.000
REMARK  2 active torsions:
REMARK  status: ('A' for Active; 'I' for Inactive)
REMARK    1  A    between atoms: C6_6  and  O1_7 
REMARK    2  A    between atoms: C12_14  and  O2_15 
ROOT
HETATM    1  C1  UNL     1      36.881   1.181  13.342  1.00  0.00     0.010 C 
HETATM    2  C2  UNL     1      37.144   0.058  12.344  1.00  0.00    -0.014 C 
HETATM    3  C3  UNL     1      38.083  -0.943  12.830  1.00  0.00     0.010 C 
HETATM    4  C4  UNL     1      37.975  -1.501  14.190  1.00  0.00    -0.007 C 
HETATM    5  C5  UNL     1      39.273  -1.340  15.018  1.00  0.00     0.037 C 
HETATM    6  C6  UNL     1      39.271  -2.516  15.976  1.00  0.00     0.122 C 
HETATM    7  C7  UNL     1      38.058  -3.375  15.580  1.00  0.00     0.015 C 
HETATM    8  C8  UNL     1      38.274  -4.821  15.876  1.00  0.00     0.013 C 
HETATM    9  C9  UNL     1      37.952  -3.023  14.151  1.00  0.00    -0.004 C 
HETATM   10  C10 UNL     1      36.844  -3.603  13.374  1.00  0.00     0.008 C 
HETATM   11  C11 UNL     1      35.483  -3.116  13.698  1.00  0.00     0.038 C 
HETATM   12  C12 UNL     1      34.562  -2.830  12.604  1.00  0.00     0.058 C 
HETATM   13  C13 UNL     1      35.065  -2.723  11.219  1.00  0.00     0.038 C 
HETATM   14  C14 UNL     1      35.798  -1.485  10.856  1.00  0.00     0.008 C 
HETATM   15  C15 UNL     1      35.793  -0.355  11.811  1.00  0.00    -0.011 C 
HETATM   16  C16 UNL     1      34.719  -0.367  12.858  1.00  0.00     0.008 C 
HETATM   17  C17 UNL     1      33.796  -1.523  12.854  1.00  0.00     0.038 C 
ENDROOT
BRANCH   6  18
HETATM   18  O1  UNL     1      40.390  -3.343  15.723  1.00  0.00    -0.395 OA
ATOM     19  H1  UNL     1      41.006  -3.281  16.443  1.00  0.00     0.210 HD
ENDBRANCH   6  18
BRANCH  12  20
HETATM   20  O2  UNL     1      33.549  -3.826  12.606  1.00  0.00    -0.390 OA
ATOM     21  H2  UNL     1      32.774  -3.460  13.017  1.00  0.00     0.210 HD
ENDBRANCH  12  20
TORSDOF 2
ENDMDL
MODEL 2
REMARK VINA RESULT: -5.950711402      2.084      4.566
REMARK  2 active torsions:
REMARK  status: ('A' for Active; 'I' for Inactive)
REMARK    1  A    between atoms: C6_6  and  O1_7 
REMARK    2  A    between atoms: C12_14  and  O2_15 
ROOT
HETATM    1  C1  UNL     1      39.451  -4.699  15.294  1.00  0.00     0.010 C 
HETATM    2  C2  UNL     1      38.046  -4.378  15.793  1.00  0.00    -0.014 C 
HETATM    3  C3  UNL     1      37.606  -3.030  15.463  1.00  0.00     0.010 C 
HETATM    4  C4  UNL     1      37.795  -2.469  14.112  1.00  0.00    -0.007 C 
HETATM    5  C5  UNL     1      38.575  -1.132  14.112  1.00  0.00     0.037 C 
HETATM    6  C6  UNL     1      38.058  -0.380  12.901  1.00  0.00     0.122 C 
HETATM    7  C7  UNL     1      36.918  -1.241  12.331  1.00  0.00     0.015 C 
HETATM    8  C8  UNL     1      35.879  -0.416  11.649  1.00  0.00     0.013 C 
HETATM    9  C9  UNL     1      36.481  -1.933  13.560  1.00  0.00    -0.004 C 
HETATM   10  C10 UNL     1      35.406  -2.931  13.448  1.00  0.00     0.008 C 
HETATM   11  C11 UNL     1      35.740  -4.188  12.740  1.00  0.00     0.038 C 
HETATM   12  C12 UNL     1      35.272  -5.452  13.296  1.00  0.00     0.058 C 
HETATM   13  C13 UNL     1      34.759  -5.509  14.680  1.00  0.00     0.038 C 
HETATM   14  C14 UNL     1      35.756  -5.455  15.779  1.00  0.00     0.008 C 
HETATM   15  C15 UNL     1      37.191  -5.570  15.437  1.00  0.00    -0.011 C 
HETATM   16  C16 UNL     1      37.515  -6.154  14.094  1.00  0.00     0.008 C 
HETATM   17  C17 UNL     1      36.371  -6.524  13.232  1.00  0.00     0.038 C 
ENDROOT
BRANCH   6  18
HETATM   18  O1  UNL     1      37.428   0.817  13.312  1.00  0.00    -0.395 OA
ATOM     19  H1  UNL     1      37.755   1.546  12.799  1.00  0.00     0.210 HD
ENDBRANCH   6  18
BRANCH  12  20
HETATM   20  O2  UNL     1      34.251  -5.958  12.449  1.00  0.00    -0.390 OA
ATOM     21  H2  UNL     1      33.806  -5.221  12.048  1.00  0.00     0.210 HD
ENDBRANCH  12  20
TORSDOF 2
ENDMDL
MODEL 3
REMARK VINA RESULT: -5.499709948      1.622      5.664
REMARK  2 active torsions:
REMARK  status: ('A' for Active; 'I' for Inactive)
REMARK    1  A    between atoms: C6_6  and  O1_7 
REMARK    2  A    between atoms: C12_14  and  O2_15 
ROOT
HETATM    1  C1  UNL     1      35.466  -5.531  15.292  1.00  0.00     0.010 C 
HETATM    2  C2  UNL     1      36.792  -5.505  14.540  1.00  0.00    -0.014 C 
HETATM    3  C3  UNL     1      36.799  -4.595  13.404  1.00  0.00     0.010 C 
HETATM    4  C4  UNL     1      36.263  -3.225  13.514  1.00  0.00    -0.007 C 
HETATM    5  C5  UNL     1      35.162  -2.917  12.470  1.00  0.00     0.037 C 
HETATM    6  C6  UNL     1      35.268  -1.425  12.223  1.00  0.00     0.122 C 
HETATM    7  C7  UNL     1      36.497  -0.956  13.021  1.00  0.00     0.015 C 
HETATM    8  C8  UNL     1      37.160   0.222  12.389  1.00  0.00     0.013 C 
HETATM    9  C9  UNL     1      37.285  -2.204  13.034  1.00  0.00    -0.004 C 
HETATM   10  C10 UNL     1      38.558  -2.212  13.771  1.00  0.00     0.008 C 
HETATM   11  C11 UNL     1      38.469  -2.136  15.247  1.00  0.00     0.038 C 
HETATM   12  C12 UNL     1      39.338  -2.991  16.047  1.00  0.00     0.058 C 
HETATM   13  C13 UNL     1      40.053  -4.120  15.418  1.00  0.00     0.038 C 
HETATM   14  C14 UNL     1      39.257  -5.328  15.085  1.00  0.00     0.008 C 
HETATM   15  C15 UNL     1      37.871  -5.423  15.593  1.00  0.00    -0.011 C 
HETATM   16  C16 UNL     1      37.514  -4.524  16.740  1.00  0.00     0.008 C 
HETATM   17  C17 UNL     1      38.571  -3.610  17.225  1.00  0.00     0.038 C 
ENDROOT
BRANCH   6  18
HETATM   18  O1  UNL     1      35.610  -1.185  10.872  1.00  0.00    -0.395 OA
ATOM     19  H1  UNL     1      36.501  -1.470  10.709  1.00  0.00     0.210 HD
ENDBRANCH   6  18
BRANCH  12  20
HETATM   20  O2  UNL     1      40.316  -2.170  16.670  1.00  0.00    -0.390 OA
ATOM     21  H2  UNL     1      41.159  -2.362  16.276  1.00  0.00     0.210 HD
ENDBRANCH  12  20
TORSDOF 2
ENDMDL
MODEL 4
REMARK VINA RESULT: -5.485733646      0.952      1.073
REMARK  2 active torsions:
REMARK  status: ('A' for Active; 'I' for Inactive)
REMARK    1  A    between atoms: C6_6  and  O1_7 
REMARK    2  A    between atoms: C12_14  and  O2_15 
ROOT
HETATM    1  C1  UNL     1      36.607   0.887  12.942  1.00  0.00     0.010 C 
HETATM    2  C2  UNL     1      36.514  -0.488  12.289  1.00  0.00    -0.014 C 
HETATM    3  C3  UNL     1      37.478  -1.446  12.810  1.00  0.00     0.010 C 
HETATM    4  C4  UNL     1      37.703  -1.598  14.260  1.00  0.00    -0.007 C 
HETATM    5  C5  UNL     1      39.184  -1.409  14.668  1.00  0.00     0.037 C 
HETATM    6  C6  UNL     1      39.360  -2.272  15.902  1.00  0.00     0.122 C 
HETATM    7  C7  UNL     1      38.028  -3.023  16.080  1.00  0.00     0.015 C 
HETATM    8  C8  UNL     1      38.217  -4.352  16.730  1.00  0.00     0.013 C 
HETATM    9  C9  UNL     1      37.565  -3.056  14.679  1.00  0.00    -0.004 C 
HETATM   10  C10 UNL     1      36.252  -3.657  14.397  1.00  0.00     0.008 C 
HETATM   11  C11 UNL     1      35.066  -2.912  14.876  1.00  0.00     0.038 C 
HETATM   12  C12 UNL     1      33.906  -2.801  14.000  1.00  0.00     0.058 C 
HETATM   13  C13 UNL     1      34.023  -3.141  12.567  1.00  0.00     0.038 C 
HETATM   14  C14 UNL     1      34.714  -2.164  11.690  1.00  0.00     0.008 C 
HETATM   15  C15 UNL     1      35.044  -0.831  12.240  1.00  0.00    -0.011 C 
HETATM   16  C16 UNL     1      34.294  -0.408  13.469  1.00  0.00     0.008 C 
HETATM   17  C17 UNL     1      33.328  -1.379  14.027  1.00  0.00     0.038 C 
ENDROOT
BRANCH   6  18
HETATM   18  O1  UNL     1      40.309  -3.288  15.646  1.00  0.00    -0.395 OA
ATOM     19  H1  UNL     1      40.842  -3.433  16.419  1.00  0.00     0.210 HD
ENDBRANCH   6  18
BRANCH  12  20
HETATM   20  O2  UNL     1      32.865  -3.604  14.538  1.00  0.00    -0.390 OA
ATOM     21  H2  UNL     1      32.084  -3.466  14.015  1.00  0.00     0.210 HD
ENDBRANCH  12  20
TORSDOF 2
ENDMDL
MODEL 5
REMARK VINA RESULT: -5.337278105      3.192      6.043
REMARK  2 active torsions:
REMARK  status: ('A' for Active; 'I' for Inactive)
REMARK    1  A    between atoms: C6_6  and  O1_7 
REMARK    2  A    between atoms: C12_14  and  O2_15 
ROOT
HETATM    1  C1  UNL     1      32.700  -0.798  14.732  1.00  0.00     0.010 C 
HETATM    2  C2  UNL     1      33.142  -0.643  13.281  1.00  0.00    -0.014 C 
HETATM    3  C3  UNL     1      33.179   0.741  12.830  1.00  0.00     0.010 C 
HETATM    4  C4  UNL     1      33.790   1.801  13.653  1.00  0.00    -0.007 C 
HETATM    5  C5  UNL     1      32.825   2.977  13.944  1.00  0.00     0.037 C 
HETATM    6  C6  UNL     1      33.724   4.188  14.097  1.00  0.00     0.122 C 
HETATM    7  C7  UNL     1      35.144   3.700  13.761  1.00  0.00     0.015 C 
HETATM    8  C8  UNL     1      35.987   4.785  13.180  1.00  0.00     0.013 C 
HETATM    9  C9  UNL     1      34.821   2.584  12.851  1.00  0.00    -0.004 C 
HETATM   10  C10 UNL     1      35.932   1.777  12.322  1.00  0.00     0.008 C 
HETATM   11  C11 UNL     1      36.643   0.912  13.291  1.00  0.00     0.038 C 
HETATM   12  C12 UNL     1      37.001  -0.443  12.891  1.00  0.00     0.058 C 
HETATM   13  C13 UNL     1      36.399  -1.044  11.683  1.00  0.00     0.038 C 
HETATM   14  C14 UNL     1      34.990  -1.501  11.779  1.00  0.00     0.008 C 
HETATM   15  C15 UNL     1      34.349  -1.535  13.112  1.00  0.00    -0.011 C 
HETATM   16  C16 UNL     1      35.266  -1.525  14.298  1.00  0.00     0.008 C 
HETATM   17  C17 UNL     1      36.717  -1.445  14.019  1.00  0.00     0.038 C 
ENDROOT
BRANCH   6  18
HETATM   18  O1  UNL     1      33.427   5.137  13.091  1.00  0.00    -0.395 OA
ATOM     19  H1  UNL     1      32.610   4.908  12.664  1.00  0.00     0.210 HD
ENDBRANCH   6  18
BRANCH  12  20
HETATM   20  O2  UNL     1      38.411  -0.500  12.730  1.00  0.00    -0.390 OA
ATOM     21  H2  UNL     1      38.600  -0.583  11.803  1.00  0.00     0.210 HD
ENDBRANCH  12  20
TORSDOF 2
ENDMDL
