MODEL 1
REMARK VINA RESULT: -5.527773152      0.000      0.000
REMARK  1 active torsions:
REMARK  status: ('A' for Active; 'I' for Inactive)
REMARK    1  A    between atoms: C3_5  and  O1_7 
ROOT
HETATM    1  C1  UNL     1      33.833  -4.145  14.432  1.00  0.00     0.039 C 
HETATM    2  C2  UNL     1      34.913  -4.696  13.931  1.00  0.00     0.012 C 
HETATM    3  N1  UNL     1      34.813  -5.328  12.642  1.00  0.00    -0.339 N 
ATOM      4  H1  UNL     1      34.138  -4.990  11.958  1.00  0.00     0.164 HD
HETATM    5  C3  UNL     1      35.676  -6.448  12.320  1.00  0.00     0.243 C 
HETATM    6  C4  UNL     1      34.716  -7.625  12.061  1.00  0.00     0.106 C 
HETATM    7  O2  UNL     1      36.544  -6.822  13.256  1.00  0.00    -0.326 OA
HETATM    8  C5  UNL     1      36.797  -6.175  14.388  1.00  0.00     0.076 C 
HETATM    9  C6  UNL     1      36.348  -7.024  15.579  1.00  0.00     0.047 C 
HETATM   10  C7  UNL     1      38.294  -6.008  14.527  1.00  0.00     0.039 C 
HETATM   11  C8  UNL     1      38.581  -4.546  14.371  1.00  0.00     0.009 C 
HETATM   12  C9  UNL     1      37.294  -3.980  13.809  1.00  0.00     0.011 C 
HETATM   13  C10 UNL     1      37.296  -2.509  14.115  1.00  0.00    -0.043 C 
HETATM   14  C11 UNL     1      36.202  -1.749  13.420  1.00  0.00     0.015 C 
HETATM   15  C12 UNL     1      38.618  -1.971  13.540  1.00  0.00     0.015 C 
HETATM   16  C13 UNL     1      37.339  -2.213  15.580  1.00  0.00     0.009 C 
HETATM   17  C14 UNL     1      36.379  -3.020  16.371  1.00  0.00     0.002 C 
HETATM   18  C15 UNL     1      36.191  -4.431  15.970  1.00  0.00     0.019 C 
HETATM   19  C16 UNL     1      36.253  -4.766  14.528  1.00  0.00     0.036 C 
ENDROOT
BRANCH   5  20
HETATM   20  O1  UNL     1      36.304  -6.244  11.072  1.00  0.00    -0.349 OA
ATOM     21  H1  UNL     1      36.088  -6.948  10.472  1.00  0.00     0.215 HD
ENDBRANCH   5  20
TORSDOF 1
ENDMDL
MODEL 2
REMARK VINA RESULT: -5.450179120      1.962      3.256
REMARK  1 active torsions:
REMARK  status: ('A' for Active; 'I' for Inactive)
REMARK    1  A    between atoms: C3_5  and  O1_7 
ROOT
HETATM    1  C1  UNL     1      34.474  -4.423  14.486  1.00  0.00     0.039 C 
HETATM    2  C2  UNL     1      35.727  -4.061  14.344  1.00  0.00     0.012 C 
HETATM    3  N1  UNL     1      36.678  -5.062  13.937  1.00  0.00    -0.339 N 
ATOM      4  H1  UNL     1      36.379  -5.843  13.353  1.00  0.00     0.164 HD
HETATM    5  C3  UNL     1      38.060  -4.957  14.360  1.00  0.00     0.243 C 
HETATM    6  C4  UNL     1      38.315  -6.228  15.194  1.00  0.00     0.106 C 
HETATM    7  O2  UNL     1      38.379  -3.903  15.106  1.00  0.00    -0.326 OA
HETATM    8  C5  UNL     1      37.591  -2.867  15.368  1.00  0.00     0.076 C 
HETATM    9  C6  UNL     1      37.261  -2.834  16.861  1.00  0.00     0.047 C 
HETATM   10  C7  UNL     1      38.351  -1.592  15.073  1.00  0.00     0.039 C 
HETATM   11  C8  UNL     1      37.702  -0.970  13.876  1.00  0.00     0.009 C 
HETATM   12  C9  UNL     1      36.823  -2.073  13.323  1.00  0.00     0.011 C 
HETATM   13  C10 UNL     1      35.769  -1.410  12.483  1.00  0.00    -0.043 C 
HETATM   14  C11 UNL     1      34.956  -2.374  11.667  1.00  0.00     0.015 C 
HETATM   15  C12 UNL     1      36.537  -0.539  11.472  1.00  0.00     0.015 C 
HETATM   16  C13 UNL     1      34.907  -0.467  13.259  1.00  0.00     0.009 C 
HETATM   17  C14 UNL     1      34.426  -1.031  14.543  1.00  0.00     0.002 C 
HETATM   18  C15 UNL     1      35.374  -1.870  15.309  1.00  0.00     0.019 C 
HETATM   19  C16 UNL     1      36.315  -2.732  14.558  1.00  0.00     0.036 C 
ENDROOT
BRANCH   5  20
HETATM   20  O1  UNL     1      38.927  -5.101  13.254  1.00  0.00    -0.349 OA
ATOM     21  H1  UNL     1      38.661  -5.839  12.718  1.00  0.00     0.215 HD
ENDBRANCH   5  20
TORSDOF 1
ENDMDL
MODEL 3
REMARK VINA RESULT: -5.343898930      1.334      2.070
REMARK  1 active torsions:
REMARK  status: ('A' for Active; 'I' for Inactive)
REMARK    1  A    between atoms: C3_5  and  O1_7 
ROOT
HETATM    1  C1  UNL     1      33.153  -4.180  14.035  1.00  0.00     0.039 C 
HETATM    2  C2  UNL     1      34.368  -4.308  13.559  1.00  0.00     0.012 C 
HETATM    3  N1  UNL     1      34.609  -5.347  12.593  1.00  0.00    -0.339 N 
ATOM      4  H1  UNL     1      33.861  -5.648  11.969  1.00  0.00     0.164 HD
HETATM    5  C3  UNL     1      35.918  -5.964  12.509  1.00  0.00     0.243 C 
HETATM    6  C4  UNL     1      35.676  -7.451  12.833  1.00  0.00     0.106 C 
HETATM    7  O2  UNL     1      36.849  -5.507  13.343  1.00  0.00    -0.326 OA
HETATM    8  C5  UNL     1      36.735  -4.444  14.131  1.00  0.00     0.076 C 
HETATM    9  C6  UNL     1      36.759  -4.883  15.596  1.00  0.00     0.047 C 
HETATM   10  C7  UNL     1      37.948  -3.561  13.932  1.00  0.00     0.039 C 
HETATM   11  C8  UNL     1      37.468  -2.316  13.252  1.00  0.00     0.009 C 
HETATM   12  C9  UNL     1      36.075  -2.673  12.777  1.00  0.00     0.011 C 
HETATM   13  C10 UNL     1      35.340  -1.379  12.573  1.00  0.00    -0.043 C 
HETATM   14  C11 UNL     1      34.019  -1.542  11.876  1.00  0.00     0.015 C 
HETATM   15  C12 UNL     1      36.223  -0.551  11.622  1.00  0.00     0.015 C 
HETATM   16  C13 UNL     1      35.217  -0.569  13.823  1.00  0.00     0.009 C 
HETATM   17  C14 UNL     1      34.780  -1.363  14.997  1.00  0.00     0.002 C 
HETATM   18  C15 UNL     1      35.325  -2.732  15.127  1.00  0.00     0.019 C 
HETATM   19  C16 UNL     1      35.559  -3.516  13.892  1.00  0.00     0.036 C 
ENDROOT
BRANCH   5  20
HETATM   20  O1  UNL     1      36.371  -5.980  11.172  1.00  0.00    -0.349 OA
ATOM     21  H1  UNL     1      36.629  -6.858  10.919  1.00  0.00     0.215 HD
ENDBRANCH   5  20
TORSDOF 1
ENDMDL
MODEL 4
REMARK VINA RESULT: -5.338089604      2.775      4.970
REMARK  1 active torsions:
REMARK  status: ('A' for Active; 'I' for Inactive)
REMARK    1  A    between atoms: C3_5  and  O1_7 
ROOT
HETATM    1  C1  UNL     1      38.644  -1.426  12.974  1.00  0.00     0.039 C 
HETATM    2  C2  UNL     1      37.540  -1.689  13.633  1.00  0.00     0.012 C 
HETATM    3  N1  UNL     1      37.647  -1.999  15.034  1.00  0.00    -0.339 N 
ATOM      4  H1  UNL     1      38.402  -1.599  15.590  1.00  0.00     0.164 HD
HETATM    5  C3  UNL     1      36.677  -2.881  15.653  1.00  0.00     0.243 C 
HETATM    6  C4  UNL     1      37.501  -4.078  16.164  1.00  0.00     0.106 C 
HETATM    7  O2  UNL     1      35.710  -3.350  14.869  1.00  0.00    -0.326 OA
HETATM    8  C5  UNL     1      35.464  -2.968  13.621  1.00  0.00     0.076 C 
HETATM    9  C6  UNL     1      35.726  -4.131  12.664  1.00  0.00     0.047 C 
HETATM   10  C7  UNL     1      33.992  -2.639  13.496  1.00  0.00     0.039 C 
HETATM   11  C8  UNL     1      33.897  -1.158  13.293  1.00  0.00     0.009 C 
HETATM   12  C9  UNL     1      35.278  -0.651  13.653  1.00  0.00     0.011 C 
HETATM   13  C10 UNL     1      35.436   0.688  12.992  1.00  0.00    -0.043 C 
HETATM   14  C11 UNL     1      36.658   1.440  13.440  1.00  0.00     0.015 C 
HETATM   15  C12 UNL     1      34.229   1.522  13.461  1.00  0.00     0.015 C 
HETATM   16  C13 UNL     1      35.332   0.625  11.502  1.00  0.00     0.009 C 
HETATM   17  C14 UNL     1      36.132  -0.470  10.904  1.00  0.00     0.002 C 
HETATM   18  C15 UNL     1      36.173  -1.755  11.636  1.00  0.00     0.019 C 
HETATM   19  C16 UNL     1      36.165  -1.721  13.118  1.00  0.00     0.036 C 
ENDROOT
BRANCH   5  20
HETATM   20  O1  UNL     1      36.162  -2.298  16.832  1.00  0.00    -0.349 OA
ATOM     21  H1  UNL     1      36.650  -1.515  17.056  1.00  0.00     0.215 HD
ENDBRANCH   5  20
TORSDOF 1
ENDMDL
MODEL 5
REMARK VINA RESULT: -5.196946050      1.689      2.694
REMARK  1 active torsions:
REMARK  status: ('A' for Active; 'I' for Inactive)
REMARK    1  A    between atoms: C3_5  and  O1_7 
ROOT
HETATM    1  C1  UNL     1      33.220  -2.904  12.358  1.00  0.00     0.039 C 
HETATM    2  C2  UNL     1      34.329  -3.334  12.913  1.00  0.00     0.012 C 
HETATM    3  N1  UNL     1      34.824  -4.626  12.521  1.00  0.00    -0.339 N 
ATOM      4  H1  UNL     1      34.638  -4.982  11.583  1.00  0.00     0.164 HD
HETATM    5  C3  UNL     1      35.588  -5.421  13.461  1.00  0.00     0.243 C 
HETATM    6  C4  UNL     1      34.760  -6.706  13.657  1.00  0.00     0.106 C 
HETATM    7  O2  UNL     1      35.806  -4.885  14.659  1.00  0.00    -0.326 OA
HETATM    8  C5  UNL     1      35.523  -3.638  15.017  1.00  0.00     0.076 C 
HETATM    9  C6  UNL     1      34.432  -3.644  16.089  1.00  0.00     0.047 C 
HETATM   10  C7  UNL     1      36.748  -3.029  15.663  1.00  0.00     0.039 C 
HETATM   11  C8  UNL     1      37.248  -1.971  14.728  1.00  0.00     0.009 C 
HETATM   12  C9  UNL     1      36.506  -2.246  13.436  1.00  0.00     0.011 C 
HETATM   13  C10 UNL     1      36.529  -0.972  12.642  1.00  0.00    -0.043 C 
HETATM   14  C11 UNL     1      36.043  -1.135  11.230  1.00  0.00     0.015 C 
HETATM   15  C12 UNL     1      38.014  -0.580  12.537  1.00  0.00     0.015 C 
HETATM   16  C13 UNL     1      35.856   0.168  13.338  1.00  0.00     0.009 C 
HETATM   17  C14 UNL     1      34.538  -0.192  13.913  1.00  0.00     0.002 C 
HETATM   18  C15 UNL     1      34.411  -1.531  14.527  1.00  0.00     0.019 C 
HETATM   19  C16 UNL     1      35.158  -2.657  13.919  1.00  0.00     0.036 C 
ENDROOT
BRANCH   5  20
HETATM   20  O1  UNL     1      36.784  -5.879  12.864  1.00  0.00    -0.349 OA
ATOM     21  H1  UNL     1      37.106  -5.242  12.237  1.00  0.00     0.215 HD
ENDBRANCH   5  20
TORSDOF 1
ENDMDL
