MODEL 1
REMARK VINA RESULT: -4.687180064      0.000      0.000
REMARK  3 active torsions:
REMARK  status: ('A' for Active; 'I' for Inactive)
REMARK    1  A    between atoms: N1_1  and  C1_4 
REMARK    2  A    between atoms: C1_4  and  N2_5 
REMARK    3  A    between atoms: N2_5  and  C2_7 
ROOT
HETATM    1  C2  UNL     1       9.902 -12.150   8.271  1.00  0.00     0.039 C 
HETATM    2  C3  UNL     1      11.170 -11.503   7.720  1.00  0.00     0.036 C 
HETATM    3  C4  UNL     1      10.840 -10.528   6.627  1.00  0.00    -0.012 C 
HETATM    4  C5  UNL     1       9.997  -9.426   7.224  1.00  0.00     0.009 C 
HETATM    5  C6  UNL     1       8.750 -10.058   7.807  1.00  0.00    -0.012 C 
HETATM    6  C7  UNL     1       7.978 -10.667   6.658  1.00  0.00     0.009 C 
HETATM    7  C8  UNL     1       8.802 -11.776   6.050  1.00  0.00    -0.012 C 
HETATM    8  C9  UNL     1      10.088 -11.223   5.519  1.00  0.00     0.009 C 
HETATM    9  C10 UNL     1       9.088 -12.779   7.150  1.00  0.00     0.036 C 
HETATM   10  C11 UNL     1       9.077 -11.076   8.875  1.00  0.00     0.036 C 
ENDROOT
BRANCH   1  11
HETATM   11  N2  UNL     1      10.313 -13.190   9.156  1.00  0.00    -0.333 N 
ATOM     12  H2  UNL     1       9.840 -13.256  10.058  1.00  0.00     0.171 HD
BRANCH  11  13
HETATM   13  C1  UNL     1      11.223 -14.039   8.907  1.00  0.00     0.040 C 
BRANCH  13  14
HETATM   14  N1  UNL     1      12.123 -14.718   8.329  1.00  0.00    -0.352 N 
ATOM     15  H12 UNL     1      12.778 -13.940   8.256  1.00  0.00     0.167 HD
ATOM     16  H11 UNL     1      12.644 -15.480   7.894  1.00  0.00     0.167 HD
ENDBRANCH  13  14
ENDBRANCH  11  13
ENDBRANCH   1  11
TORSDOF 3
ENDMDL
MODEL 2
REMARK VINA RESULT: -4.571004142      4.607      5.967
REMARK  3 active torsions:
REMARK  status: ('A' for Active; 'I' for Inactive)
REMARK    1  A    between atoms: N1_1  and  C1_4 
REMARK    2  A    between atoms: C1_4  and  N2_5 
REMARK    3  A    between atoms: N2_5  and  C2_7 
ROOT
HETATM    1  C2  UNL     1       8.931 -14.465   2.907  1.00  0.00     0.039 C 
HETATM    2  C3  UNL     1       7.637 -14.058   2.208  1.00  0.00     0.036 C 
HETATM    3  C4  UNL     1       7.310 -12.620   2.486  1.00  0.00    -0.012 C 
HETATM    4  C5  UNL     1       8.417 -11.769   1.911  1.00  0.00     0.009 C 
HETATM    5  C6  UNL     1       9.715 -12.187   2.569  1.00  0.00    -0.012 C 
HETATM    6  C7  UNL     1       9.593 -11.863   4.042  1.00  0.00     0.009 C 
HETATM    7  C8  UNL     1       8.495 -12.707   4.639  1.00  0.00    -0.012 C 
HETATM    8  C9  UNL     1       7.191 -12.391   3.973  1.00  0.00     0.009 C 
HETATM    9  C10 UNL     1       8.860 -14.158   4.395  1.00  0.00     0.036 C 
HETATM   10  C11 UNL     1      10.027 -13.647   2.334  1.00  0.00     0.036 C 
ENDROOT
BRANCH   1  11
HETATM   11  N2  UNL     1       9.065 -15.877   2.752  1.00  0.00    -0.333 N 
ATOM     12  H2  UNL     1       9.647 -16.372   3.429  1.00  0.00     0.171 HD
BRANCH  11  13
HETATM   13  C1  UNL     1       8.514 -16.563   1.838  1.00  0.00     0.040 C 
BRANCH  13  14
HETATM   14  N1  UNL     1       8.071 -17.526   1.143  1.00  0.00    -0.352 N 
ATOM     15  H12 UNL     1       7.471 -17.890   1.883  1.00  0.00     0.167 HD
ATOM     16  H11 UNL     1       7.895 -18.181   0.381  1.00  0.00     0.167 HD
ENDBRANCH  13  14
ENDBRANCH  11  13
ENDBRANCH   1  11
TORSDOF 3
ENDMDL
MODEL 3
REMARK VINA RESULT: -4.539141622      2.179      3.322
REMARK  3 active torsions:
REMARK  status: ('A' for Active; 'I' for Inactive)
REMARK    1  A    between atoms: N1_1  and  C1_4 
REMARK    2  A    between atoms: C1_4  and  N2_5 
REMARK    3  A    between atoms: N2_5  and  C2_7 
ROOT
HETATM    1  C2  UNL     1       8.891 -11.787   6.047  1.00  0.00     0.039 C 
HETATM    2  C3  UNL     1       9.195 -12.826   7.122  1.00  0.00     0.036 C 
HETATM    3  C4  UNL     1       9.986 -12.219   8.243  1.00  0.00    -0.012 C 
HETATM    4  C5  UNL     1       9.139 -11.146   8.884  1.00  0.00     0.009 C 
HETATM    5  C6  UNL     1       8.798 -10.124   7.820  1.00  0.00    -0.012 C 
HETATM    6  C7  UNL     1      10.099  -9.491   7.377  1.00  0.00     0.009 C 
HETATM    7  C8  UNL     1      10.959 -10.546   6.728  1.00  0.00    -0.012 C 
HETATM    8  C9  UNL     1      11.270 -11.628   7.715  1.00  0.00     0.009 C 
HETATM    9  C10 UNL     1      10.171 -11.119   5.566  1.00  0.00     0.036 C 
HETATM   10  C11 UNL     1       8.043 -10.738   6.664  1.00  0.00     0.036 C 
ENDROOT
BRANCH   1  11
HETATM   11  N2  UNL     1       8.314 -12.481   4.942  1.00  0.00    -0.333 N 
ATOM     12  H2  UNL     1       7.304 -12.629   4.954  1.00  0.00     0.171 HD
BRANCH  11  13
HETATM   13  C1  UNL     1       8.962 -12.929   3.947  1.00  0.00     0.040 C 
BRANCH  13  14
HETATM   14  N1  UNL     1       9.674 -13.653   3.189  1.00  0.00    -0.352 N 
ATOM     15  H12 UNL     1       8.932 -14.326   2.998  1.00  0.00     0.167 HD
ATOM     16  H11 UNL     1      10.451 -14.030   2.647  1.00  0.00     0.167 HD
ENDBRANCH  13  14
ENDBRANCH  11  13
ENDBRANCH   1  11
TORSDOF 3
ENDMDL
MODEL 4
REMARK VINA RESULT: -4.529391544      4.587      5.619
REMARK  3 active torsions:
REMARK  status: ('A' for Active; 'I' for Inactive)
REMARK    1  A    between atoms: N1_1  and  C1_4 
REMARK    2  A    between atoms: C1_4  and  N2_5 
REMARK    3  A    between atoms: N2_5  and  C2_7 
ROOT
HETATM    1  C2  UNL     1       8.848 -14.448   3.018  1.00  0.00     0.039 C 
HETATM    2  C3  UNL     1       9.975 -13.619   2.408  1.00  0.00     0.036 C 
HETATM    3  C4  UNL     1       9.696 -12.151   2.552  1.00  0.00    -0.012 C 
HETATM    4  C5  UNL     1       9.648 -11.828   4.026  1.00  0.00     0.009 C 
HETATM    5  C6  UNL     1       8.557 -12.670   4.653  1.00  0.00    -0.012 C 
HETATM    6  C7  UNL     1       7.246 -12.235   4.036  1.00  0.00     0.009 C 
HETATM    7  C8  UNL     1       7.270 -12.554   2.562  1.00  0.00    -0.012 C 
HETATM    8  C9  UNL     1       8.382 -11.804   1.896  1.00  0.00     0.009 C 
HETATM    9  C10 UNL     1       7.504 -14.047   2.428  1.00  0.00     0.036 C 
HETATM   10  C11 UNL     1       8.806 -14.150   4.470  1.00  0.00     0.036 C 
ENDROOT
BRANCH   1  11
HETATM   11  N2  UNL     1       9.094 -15.810   2.670  1.00  0.00    -0.333 N 
ATOM     12  H2  UNL     1       9.799 -16.314   3.209  1.00  0.00     0.171 HD
BRANCH  11  13
HETATM   13  C1  UNL     1       8.502 -16.441   1.742  1.00  0.00     0.040 C 
BRANCH  13  14
HETATM   14  N1  UNL     1       8.016 -17.361   1.018  1.00  0.00    -0.352 N 
ATOM     15  H12 UNL     1       7.656 -17.901   1.805  1.00  0.00     0.167 HD
ATOM     16  H11 UNL     1       7.737 -17.931   0.220  1.00  0.00     0.167 HD
ENDBRANCH  13  14
ENDBRANCH  11  13
ENDBRANCH   1  11
TORSDOF 3
ENDMDL
MODEL 5
REMARK VINA RESULT: -4.523538735      0.404      2.095
REMARK  3 active torsions:
REMARK  status: ('A' for Active; 'I' for Inactive)
REMARK    1  A    between atoms: N1_1  and  C1_4 
REMARK    2  A    between atoms: C1_4  and  N2_5 
REMARK    3  A    between atoms: N2_5  and  C2_7 
ROOT
HETATM    1  C2  UNL     1      10.100 -12.276   8.231  1.00  0.00     0.039 C 
HETATM    2  C3  UNL     1       9.279 -12.915   7.114  1.00  0.00     0.036 C 
HETATM    3  C4  UNL     1       8.771 -11.872   6.162  1.00  0.00    -0.012 C 
HETATM    4  C5  UNL     1       9.964 -11.206   5.518  1.00  0.00     0.009 C 
HETATM    5  C6  UNL     1      10.808 -10.598   6.618  1.00  0.00    -0.012 C 
HETATM    6  C7  UNL     1       9.973  -9.523   7.279  1.00  0.00     0.009 C 
HETATM    7  C8  UNL     1       8.777 -10.168   7.934  1.00  0.00    -0.012 C 
HETATM    8  C9  UNL     1       7.937 -10.853   6.901  1.00  0.00     0.009 C 
HETATM    9  C10 UNL     1       9.302 -11.184   8.929  1.00  0.00     0.036 C 
HETATM   10  C11 UNL     1      11.284 -11.636   7.609  1.00  0.00     0.036 C 
ENDROOT
BRANCH   1  11
HETATM   11  N2  UNL     1      10.377 -13.299   9.186  1.00  0.00    -0.333 N 
ATOM     12  H2  UNL     1       9.664 -13.495   9.889  1.00  0.00     0.171 HD
BRANCH  11  13
HETATM   13  C1  UNL     1      11.444 -13.985   9.226  1.00  0.00     0.040 C 
BRANCH  13  14
HETATM   14  N1  UNL     1      12.646 -14.351   9.396  1.00  0.00    -0.352 N 
ATOM     15  H12 UNL     1      12.917 -13.508   9.901  1.00  0.00     0.167 HD
ATOM     16  H11 UNL     1      13.516 -14.884   9.384  1.00  0.00     0.167 HD
ENDBRANCH  13  14
ENDBRANCH  11  13
ENDBRANCH   1  11
TORSDOF 3
ENDMDL
