MODEL 1
REMARK VINA RESULT: -5.907492490      0.000      0.000
REMARK  2 active torsions:
REMARK  status: ('A' for Active; 'I' for Inactive)
REMARK    1  A    between atoms: O1_1  and  C1_3 
REMARK    2  A    between atoms: C1_3  and  C2_4 
ROOT
HETATM    1  C1  UNL     1       8.979 -12.789   4.491  1.00  0.00     0.065 C 
HETATM    2  C5  UNL     1       7.576 -12.713   3.932  1.00  0.00     0.043 C 
HETATM    3  C6  UNL     1       7.751 -12.321   2.493  1.00  0.00    -0.011 C 
HETATM    4  C7  UNL     1       7.336 -13.535   1.648  1.00  0.00     0.005 C 
HETATM    5  C8  UNL     1       8.187 -14.714   1.894  1.00  0.00     0.001 C 
HETATM    6  C9  UNL     1       9.254 -14.614   2.914  1.00  0.00     0.007 C 
HETATM    7  C10 UNL     1       9.731 -13.258   3.257  1.00  0.00     0.021 C 
HETATM    8  C11 UNL     1       9.266 -12.235   2.240  1.00  0.00     0.012 C 
ENDROOT
BRANCH   1   9
HETATM    9  O1  UNL     1       9.037 -13.764   5.514  1.00  0.00    -0.389 OA
ATOM     10  H1  UNL     1       9.765 -14.360   5.379  1.00  0.00     0.210 HD
ENDBRANCH   1   9
BRANCH   1  11
HETATM   11  C2  UNL     1       9.410 -11.476   4.985  1.00  0.00     0.020 A 
HETATM   12  C3  UNL     1      10.251 -11.300   6.190  1.00  0.00     0.008 A 
HETATM   13  C4  UNL     1       8.809 -10.928   6.264  1.00  0.00     0.008 A 
ENDBRANCH   1  11
TORSDOF 2
ENDMDL
MODEL 2
REMARK VINA RESULT: -5.132840569      1.392      4.198
REMARK  2 active torsions:
REMARK  status: ('A' for Active; 'I' for Inactive)
REMARK    1  A    between atoms: O1_1  and  C1_3 
REMARK    2  A    between atoms: C1_3  and  C2_4 
ROOT
HETATM    1  C1  UNL     1       8.827 -12.548   4.613  1.00  0.00     0.065 C 
HETATM    2  C5  UNL     1       9.930 -11.607   5.041  1.00  0.00     0.043 C 
HETATM    3  C6  UNL     1       9.317 -10.749   6.110  1.00  0.00    -0.011 C 
HETATM    4  C7  UNL     1      10.001 -11.130   7.432  1.00  0.00     0.005 C 
HETATM    5  C8  UNL     1       9.769 -12.538   7.805  1.00  0.00     0.001 C 
HETATM    6  C9  UNL     1       8.990 -13.393   6.883  1.00  0.00     0.007 C 
HETATM    7  C10 UNL     1       8.089 -12.709   5.932  1.00  0.00     0.021 C 
HETATM    8  C11 UNL     1       7.880 -11.258   6.315  1.00  0.00     0.012 C 
ENDROOT
BRANCH   1   9
HETATM    9  O1  UNL     1       9.380 -13.780   4.195  1.00  0.00    -0.389 OA
ATOM     10  H1  UNL     1       9.133 -13.981   3.300  1.00  0.00     0.210 HD
ENDBRANCH   1   9
BRANCH   1  11
HETATM   11  C2  UNL     1       8.016 -11.943   3.550  1.00  0.00     0.020 A 
HETATM   12  C3  UNL     1       6.894 -12.645   2.888  1.00  0.00     0.008 A 
HETATM   13  C4  UNL     1       8.160 -12.444   2.126  1.00  0.00     0.008 A 
ENDBRANCH   1  11
TORSDOF 2
ENDMDL
MODEL 3
REMARK VINA RESULT: -4.767142571      1.643      4.089
REMARK  2 active torsions:
REMARK  status: ('A' for Active; 'I' for Inactive)
REMARK    1  A    between atoms: O1_1  and  C1_3 
REMARK    2  A    between atoms: C1_3  and  C2_4 
ROOT
HETATM    1  C1  UNL     1       7.777 -12.616   2.842  1.00  0.00     0.065 C 
HETATM    2  C5  UNL     1       7.224 -11.747   3.949  1.00  0.00     0.043 C 
HETATM    3  C6  UNL     1       7.667 -12.408   5.222  1.00  0.00    -0.011 C 
HETATM    4  C7  UNL     1       8.698 -11.473   5.873  1.00  0.00     0.005 C 
HETATM    5  C8  UNL     1       9.895 -11.278   5.034  1.00  0.00     0.001 C 
HETATM    6  C9  UNL     1       9.939 -11.927   3.705  1.00  0.00     0.007 C 
HETATM    7  C10 UNL     1       9.060 -13.097   3.499  1.00  0.00     0.021 C 
HETATM    8  C11 UNL     1       8.521 -13.621   4.816  1.00  0.00     0.012 C 
ENDROOT
BRANCH   1   9
HETATM    9  O1  UNL     1       8.063 -11.824   1.706  1.00  0.00    -0.389 OA
ATOM     10  H1  UNL     1       8.601 -11.076   1.935  1.00  0.00     0.210 HD
ENDBRANCH   1   9
BRANCH   1  11
HETATM   11  C2  UNL     1       6.837 -13.695   2.515  1.00  0.00     0.020 A 
HETATM   12  C3  UNL     1       6.908 -14.477   1.260  1.00  0.00     0.008 A 
HETATM   13  C4  UNL     1       5.810 -13.480   1.421  1.00  0.00     0.008 A 
ENDBRANCH   1  11
TORSDOF 2
ENDMDL
MODEL 4
REMARK VINA RESULT: -4.680991581      1.598      4.680
REMARK  2 active torsions:
REMARK  status: ('A' for Active; 'I' for Inactive)
REMARK    1  A    between atoms: O1_1  and  C1_3 
REMARK    2  A    between atoms: C1_3  and  C2_4 
ROOT
HETATM    1  C1  UNL     1       8.559 -12.132   5.502  1.00  0.00     0.065 C 
HETATM    2  C5  UNL     1       8.761 -12.929   6.771  1.00  0.00     0.043 C 
HETATM    3  C6  UNL     1      10.007 -12.367   7.391  1.00  0.00    -0.011 C 
HETATM    4  C7  UNL     1       9.577 -11.640   8.675  1.00  0.00     0.005 C 
HETATM    5  C8  UNL     1       8.665 -10.512   8.408  1.00  0.00     0.001 C 
HETATM    6  C9  UNL     1       8.246 -10.256   7.013  1.00  0.00     0.007 C 
HETATM    7  C10 UNL     1       9.116 -10.788   5.942  1.00  0.00     0.021 C 
HETATM    8  C11 UNL     1      10.466 -11.210   6.487  1.00  0.00     0.012 C 
ENDROOT
BRANCH   1   9
HETATM    9  O1  UNL     1       7.178 -12.031   5.212  1.00  0.00    -0.389 OA
ATOM     10  H1  UNL     1       6.702 -11.648   5.939  1.00  0.00     0.210 HD
ENDBRANCH   1   9
BRANCH   1  11
HETATM   11  C2  UNL     1       9.292 -12.742   4.387  1.00  0.00     0.020 A 
HETATM   12  C3  UNL     1       9.631 -12.012   3.145  1.00  0.00     0.008 A 
HETATM   13  C4  UNL     1       8.561 -13.049   3.095  1.00  0.00     0.008 A 
ENDBRANCH   1  11
TORSDOF 2
ENDMDL
MODEL 5
REMARK VINA RESULT: -4.638132980      2.226      3.689
REMARK  2 active torsions:
REMARK  status: ('A' for Active; 'I' for Inactive)
REMARK    1  A    between atoms: O1_1  and  C1_3 
REMARK    2  A    between atoms: C1_3  and  C2_4 
ROOT
HETATM    1  C1  UNL     1       9.772 -11.963   7.424  1.00  0.00     0.065 C 
HETATM    2  C5  UNL     1       8.940 -13.042   6.767  1.00  0.00     0.043 C 
HETATM    3  C6  UNL     1       7.853 -12.305   6.039  1.00  0.00    -0.011 C 
HETATM    4  C7  UNL     1       8.121 -12.489   4.537  1.00  0.00     0.005 C 
HETATM    5  C8  UNL     1       9.409 -11.908   4.116  1.00  0.00     0.001 C 
HETATM    6  C9  UNL     1      10.278 -11.296   5.145  1.00  0.00     0.007 C 
HETATM    7  C10 UNL     1       9.627 -10.853   6.397  1.00  0.00     0.021 C 
HETATM    8  C11 UNL     1       8.120 -10.805   6.248  1.00  0.00     0.012 C 
ENDROOT
BRANCH   1   9
HETATM    9  O1  UNL     1      11.119 -12.385   7.519  1.00  0.00    -0.389 OA
ATOM     10  H1  UNL     1      11.217 -13.078   8.162  1.00  0.00     0.210 HD
ENDBRANCH   1   9
BRANCH   1  11
HETATM   11  C2  UNL     1       9.228 -11.625   8.744  1.00  0.00     0.020 A 
HETATM   12  C3  UNL     1      10.027 -10.973   9.807  1.00  0.00     0.008 A 
HETATM   13  C4  UNL     1       9.676 -12.415   9.959  1.00  0.00     0.008 A 
ENDBRANCH   1  11
TORSDOF 2
ENDMDL
