MODEL 1
REMARK VINA RESULT: -6.385181891      0.000      0.000
REMARK  2 active torsions:
REMARK  status: ('A' for Active; 'I' for Inactive)
REMARK    1  A    between atoms: O1_1  and  C1_3 
REMARK    2  A    between atoms: C1_3  and  C2_4 
ROOT
HETATM    1  C1  UNL     1       8.961 -12.180   4.718  1.00  0.00     0.062 C 
HETATM    2  C8  UNL     1       7.493 -12.031   4.359  1.00  0.00     0.038 C 
HETATM    3  C9  UNL     1       7.231 -12.215   2.896  1.00  0.00     0.003 C 
HETATM    4  C10 UNL     1       8.043 -13.294   2.257  1.00  0.00     0.000 C 
HETATM    5  C11 UNL     1       9.510 -13.201   2.572  1.00  0.00     0.003 C 
HETATM    6  C12 UNL     1       9.725 -11.961   3.402  1.00  0.00     0.038 C 
ENDROOT
BRANCH   1   7
HETATM    7  O1  UNL     1       9.165 -13.491   5.057  1.00  0.00    -0.389 OA
ATOM      8  H1  UNL     1       8.934 -13.757   5.940  1.00  0.00     0.210 HD
ENDBRANCH   1   7
BRANCH   1   9
HETATM    9  C2  UNL     1       9.408 -11.161   5.666  1.00  0.00     0.028 C 
HETATM   10  C3  UNL     1       8.599 -10.835   6.876  1.00  0.00    -0.007 C 
HETATM   11  C4  UNL     1       9.326  -9.599   7.391  1.00  0.00     0.005 C 
HETATM   12  C7  UNL     1       9.393 -11.910   7.612  1.00  0.00     0.010 C 
HETATM   13  C5  UNL     1      10.779 -10.086   7.206  1.00  0.00     0.005 C 
HETATM   14  C6  UNL     1      10.479 -11.485   6.651  1.00  0.00    -0.007 C 
ENDBRANCH   1   9
TORSDOF 2
ENDMDL
MODEL 2
REMARK VINA RESULT: -6.103046057      1.318      4.572
REMARK  2 active torsions:
REMARK  status: ('A' for Active; 'I' for Inactive)
REMARK    1  A    between atoms: O1_1  and  C1_3 
REMARK    2  A    between atoms: C1_3  and  C2_4 
ROOT
HETATM    1  C1  UNL     1       8.795 -12.200   4.890  1.00  0.00     0.062 C 
HETATM    2  C8  UNL     1       7.779 -11.088   5.076  1.00  0.00     0.038 C 
HETATM    3  C9  UNL     1       7.426 -10.856   6.514  1.00  0.00     0.003 C 
HETATM    4  C10 UNL     1       8.581 -10.969   7.455  1.00  0.00     0.000 C 
HETATM    5  C11 UNL     1       9.393 -12.218   7.254  1.00  0.00     0.003 C 
HETATM    6  C12 UNL     1       8.724 -13.035   6.179  1.00  0.00     0.038 C 
ENDROOT
BRANCH   1   7
HETATM    7  O1  UNL     1      10.035 -11.620   4.886  1.00  0.00    -0.389 OA
ATOM      8  H1  UNL     1      10.408 -11.375   5.726  1.00  0.00     0.210 HD
ENDBRANCH   1   7
BRANCH   1   9
HETATM    9  C2  UNL     1       8.459 -13.079   3.773  1.00  0.00     0.028 C 
HETATM   10  C3  UNL     1       7.898 -12.526   2.506  1.00  0.00    -0.007 C 
HETATM   11  C4  UNL     1       7.503 -13.803   1.776  1.00  0.00     0.005 C 
HETATM   12  C7  UNL     1       9.333 -12.394   2.008  1.00  0.00     0.010 C 
HETATM   13  C5  UNL     1       8.758 -14.647   2.081  1.00  0.00     0.005 C 
HETATM   14  C6  UNL     1       9.540 -13.603   2.890  1.00  0.00    -0.007 C 
ENDBRANCH   1   9
TORSDOF 2
ENDMDL
MODEL 3
REMARK VINA RESULT: -5.665942535      0.854      1.487
REMARK  2 active torsions:
REMARK  status: ('A' for Active; 'I' for Inactive)
REMARK    1  A    between atoms: O1_1  and  C1_3 
REMARK    2  A    between atoms: C1_3  and  C2_4 
ROOT
HETATM    1  C1  UNL     1       8.990 -12.485   5.399  1.00  0.00     0.062 C 
HETATM    2  C8  UNL     1       7.527 -12.087   5.460  1.00  0.00     0.038 C 
HETATM    3  C9  UNL     1       6.991 -11.633   4.137  1.00  0.00     0.003 C 
HETATM    4  C10 UNL     1       7.497 -12.415   2.968  1.00  0.00     0.000 C 
HETATM    5  C11 UNL     1       8.992 -12.575   2.961  1.00  0.00     0.003 C 
HETATM    6  C12 UNL     1       9.543 -11.806   4.135  1.00  0.00     0.038 C 
ENDROOT
BRANCH   1   7
HETATM    7  O1  UNL     1       9.035 -13.832   5.152  1.00  0.00    -0.389 OA
ATOM      8  H1  UNL     1       8.918 -14.117   4.253  1.00  0.00     0.210 HD
ENDBRANCH   1   7
BRANCH   1   9
HETATM    9  C2  UNL     1       9.752 -11.984   6.541  1.00  0.00     0.028 C 
HETATM   10  C3  UNL     1      10.521 -10.710   6.447  1.00  0.00    -0.007 C 
HETATM   11  C4  UNL     1      11.305 -10.743   7.753  1.00  0.00     0.005 C 
HETATM   12  C7  UNL     1       9.266  -9.995   6.933  1.00  0.00     0.010 C 
HETATM   13  C5  UNL     1      10.177 -11.213   8.694  1.00  0.00     0.005 C 
HETATM   14  C6  UNL     1       9.044 -11.301   7.661  1.00  0.00    -0.007 C 
ENDBRANCH   1   9
TORSDOF 2
ENDMDL
MODEL 4
REMARK VINA RESULT: -5.574038246      0.974      1.281
REMARK  2 active torsions:
REMARK  status: ('A' for Active; 'I' for Inactive)
REMARK    1  A    between atoms: O1_1  and  C1_3 
REMARK    2  A    between atoms: C1_3  and  C2_4 
ROOT
HETATM    1  C1  UNL     1       9.345 -11.864   5.493  1.00  0.00     0.062 C 
HETATM    2  C8  UNL     1       7.916 -11.368   5.619  1.00  0.00     0.038 C 
HETATM    3  C9  UNL     1       7.164 -11.425   4.324  1.00  0.00     0.003 C 
HETATM    4  C10 UNL     1       7.458 -12.634   3.496  1.00  0.00     0.000 C 
HETATM    5  C11 UNL     1       8.928 -12.892   3.321  1.00  0.00     0.003 C 
HETATM    6  C12 UNL     1       9.677 -11.771   3.994  1.00  0.00     0.038 C 
ENDROOT
BRANCH   1   7
HETATM    7  O1  UNL     1       9.339 -13.200   5.794  1.00  0.00    -0.389 OA
ATOM      8  H1  UNL     1       9.533 -13.809   5.090  1.00  0.00     0.210 HD
ENDBRANCH   1   7
BRANCH   1   9
HETATM    9  C2  UNL     1      10.293 -11.016   6.211  1.00  0.00     0.028 C 
HETATM   10  C3  UNL     1       9.818  -9.885   7.060  1.00  0.00    -0.007 C 
HETATM   11  C4  UNL     1      11.133  -9.187   7.383  1.00  0.00     0.005 C 
HETATM   12  C7  UNL     1       9.771 -10.869   8.224  1.00  0.00     0.010 C 
HETATM   13  C5  UNL     1      11.992 -10.432   7.688  1.00  0.00     0.005 C 
HETATM   14  C6  UNL     1      10.917 -11.506   7.474  1.00  0.00    -0.007 C 
ENDBRANCH   1   9
TORSDOF 2
ENDMDL
MODEL 5
REMARK VINA RESULT: -5.555869523      1.655      2.656
REMARK  2 active torsions:
REMARK  status: ('A' for Active; 'I' for Inactive)
REMARK    1  A    between atoms: O1_1  and  C1_3 
REMARK    2  A    between atoms: C1_3  and  C2_4 
ROOT
HETATM    1  C1  UNL     1       8.229 -12.687   2.840  1.00  0.00     0.062 C 
HETATM    2  C8  UNL     1       9.221 -13.833   2.753  1.00  0.00     0.038 C 
HETATM    3  C9  UNL     1       8.588 -15.118   2.315  1.00  0.00     0.003 C 
HETATM    4  C10 UNL     1       7.546 -14.960   1.257  1.00  0.00     0.000 C 
HETATM    5  C11 UNL     1       6.532 -13.896   1.574  1.00  0.00     0.003 C 
HETATM    6  C12 UNL     1       6.847 -13.353   2.944  1.00  0.00     0.038 C 
ENDROOT
BRANCH   1   7
HETATM    7  O1  UNL     1       8.246 -12.043   1.632  1.00  0.00    -0.389 OA
ATOM      8  H1  UNL     1       8.890 -12.326   0.993  1.00  0.00     0.210 HD
ENDBRANCH   1   7
BRANCH   1   9
HETATM    9  C2  UNL     1       8.421 -11.874   4.039  1.00  0.00     0.028 C 
HETATM   10  C3  UNL     1       7.560 -12.070   5.241  1.00  0.00    -0.007 C 
HETATM   11  C4  UNL     1       7.971 -10.877   6.095  1.00  0.00     0.005 C 
HETATM   12  C7  UNL     1       8.588 -13.085   5.729  1.00  0.00     0.010 C 
HETATM   13  C5  UNL     1       9.497 -10.949   5.882  1.00  0.00     0.005 C 
HETATM   14  C6  UNL     1       9.540 -12.186   4.974  1.00  0.00    -0.007 C 
ENDBRANCH   1   9
TORSDOF 2
ENDMDL
