MODEL 1
REMARK VINA RESULT: -6.176895788      0.000      0.000
REMARK  2 active torsions:
REMARK  status: ('A' for Active; 'I' for Inactive)
REMARK    1  A    between atoms: O1_1  and  C1_3 
REMARK    2  A    between atoms: C1_3  and  C2_4 
ROOT
HETATM    1  C1  UNL     1       6.854 -12.233   2.953  1.00  0.00     0.061 C 
HETATM    2  C7  UNL     1       8.276 -12.093   3.398  1.00  0.00     0.038 C 
HETATM    3  C8  UNL     1       9.286 -12.917   2.711  1.00  0.00     0.003 C 
HETATM    4  C9  UNL     1       8.800 -14.280   2.288  1.00  0.00     0.000 C 
HETATM    5  C10 UNL     1       7.538 -14.149   1.462  1.00  0.00     0.003 C 
HETATM    6  C11 UNL     1       6.492 -13.541   2.336  1.00  0.00     0.038 C 
ENDROOT
BRANCH   1   7
HETATM    7  O1  UNL     1       6.616 -11.228   2.000  1.00  0.00    -0.389 OA
ATOM      8  H1  UNL     1       7.069 -10.449   2.297  1.00  0.00     0.210 HD
ENDBRANCH   1   7
BRANCH   1   9
HETATM    9  C2  UNL     1       5.893 -11.988   4.107  1.00  0.00     0.020 C 
HETATM   10  C3  UNL     1       6.558 -11.234   5.237  1.00  0.00     0.007 C 
HETATM   11  C4  UNL     1       5.809  -9.931   5.412  1.00  0.00     0.000 C 
HETATM   12  C5  UNL     1       5.099  -9.708   4.104  1.00  0.00     0.000 C 
HETATM   13  C6  UNL     1       4.730 -11.129   3.728  1.00  0.00     0.007 C 
ENDBRANCH   1   9
TORSDOF 2
ENDMDL
MODEL 2
REMARK VINA RESULT: -6.117904232      2.120      4.518
REMARK  2 active torsions:
REMARK  status: ('A' for Active; 'I' for Inactive)
REMARK    1  A    between atoms: O1_1  and  C1_3 
REMARK    2  A    between atoms: C1_3  and  C2_4 
ROOT
HETATM    1  C1  UNL     1       8.821 -12.248   4.808  1.00  0.00     0.061 C 
HETATM    2  C7  UNL     1       9.825 -11.420   5.547  1.00  0.00     0.038 C 
HETATM    3  C8  UNL     1       9.347 -10.650   6.708  1.00  0.00     0.003 C 
HETATM    4  C9  UNL     1       7.943 -10.117   6.572  1.00  0.00     0.000 C 
HETATM    5  C10 UNL     1       6.991 -11.242   6.224  1.00  0.00     0.003 C 
HETATM    6  C11 UNL     1       7.406 -11.785   4.897  1.00  0.00     0.038 C 
ENDROOT
BRANCH   1   7
HETATM    7  O1  UNL     1       8.882 -13.548   5.339  1.00  0.00    -0.389 OA
ATOM      8  H1  UNL     1       9.552 -13.542   6.011  1.00  0.00     0.210 HD
ENDBRANCH   1   7
BRANCH   1   9
HETATM    9  C2  UNL     1       9.177 -12.353   3.332  1.00  0.00     0.020 C 
HETATM   10  C3  UNL     1       9.653 -13.742   2.970  1.00  0.00     0.007 C 
HETATM   11  C4  UNL     1       8.693 -14.292   1.937  1.00  0.00     0.000 C 
HETATM   12  C5  UNL     1       7.435 -13.484   2.100  1.00  0.00     0.000 C 
HETATM   13  C6  UNL     1       8.007 -12.120   2.430  1.00  0.00     0.007 C 
ENDBRANCH   1   9
TORSDOF 2
ENDMDL
MODEL 3
REMARK VINA RESULT: -5.867265366      1.076      4.209
REMARK  2 active torsions:
REMARK  status: ('A' for Active; 'I' for Inactive)
REMARK    1  A    between atoms: O1_1  and  C1_3 
REMARK    2  A    between atoms: C1_3  and  C2_4 
ROOT
HETATM    1  C1  UNL     1       6.661 -12.054   3.252  1.00  0.00     0.061 C 
HETATM    2  C7  UNL     1       7.118 -11.962   4.674  1.00  0.00     0.038 C 
HETATM    3  C8  UNL     1       6.295 -11.166   5.602  1.00  0.00     0.003 C 
HETATM    4  C9  UNL     1       5.644  -9.956   4.981  1.00  0.00     0.000 C 
HETATM    5  C10 UNL     1       4.858 -10.361   3.752  1.00  0.00     0.003 C 
HETATM    6  C11 UNL     1       5.829 -10.917   2.763  1.00  0.00     0.038 C 
ENDROOT
BRANCH   1   7
HETATM    7  O1  UNL     1       5.897 -13.227   3.136  1.00  0.00    -0.389 OA
ATOM      8  H1  UNL     1       5.503 -13.388   3.984  1.00  0.00     0.210 HD
ENDBRANCH   1   7
BRANCH   1   9
HETATM    9  C2  UNL     1       7.844 -12.196   2.305  1.00  0.00     0.020 C 
HETATM   10  C3  UNL     1       9.161 -12.026   3.029  1.00  0.00     0.007 C 
HETATM   11  C4  UNL     1       9.930 -13.320   2.875  1.00  0.00     0.000 C 
HETATM   12  C5  UNL     1       8.891 -14.358   2.549  1.00  0.00     0.000 C 
HETATM   13  C6  UNL     1       7.938 -13.554   1.687  1.00  0.00     0.007 C 
ENDBRANCH   1   9
TORSDOF 2
ENDMDL
MODEL 4
REMARK VINA RESULT: -5.838679512      2.075      3.965
REMARK  2 active torsions:
REMARK  status: ('A' for Active; 'I' for Inactive)
REMARK    1  A    between atoms: O1_1  and  C1_3 
REMARK    2  A    between atoms: C1_3  and  C2_4 
ROOT
HETATM    1  C1  UNL     1       8.670 -12.493   4.130  1.00  0.00     0.061 C 
HETATM    2  C7  UNL     1       9.916 -11.707   4.392  1.00  0.00     0.038 C 
HETATM    3  C8  UNL     1      10.102 -11.161   5.748  1.00  0.00     0.003 C 
HETATM    4  C9  UNL     1       8.828 -10.730   6.430  1.00  0.00     0.000 C 
HETATM    5  C10 UNL     1       7.824 -11.864   6.422  1.00  0.00     0.003 C 
HETATM    6  C11 UNL     1       7.501 -12.165   4.996  1.00  0.00     0.038 C 
ENDROOT
BRANCH   1   7
HETATM    7  O1  UNL     1       8.984 -13.848   4.327  1.00  0.00    -0.389 OA
ATOM      8  H1  UNL     1       8.870 -14.029   5.253  1.00  0.00     0.210 HD
ENDBRANCH   1   7
BRANCH   1   9
HETATM    9  C2  UNL     1       8.224 -12.345   2.683  1.00  0.00     0.020 C 
HETATM   10  C3  UNL     1       8.185 -13.678   1.971  1.00  0.00     0.007 C 
HETATM   11  C4  UNL     1       6.757 -13.914   1.531  1.00  0.00     0.000 C 
HETATM   12  C5  UNL     1       5.923 -13.026   2.413  1.00  0.00     0.000 C 
HETATM   13  C6  UNL     1       6.830 -11.820   2.551  1.00  0.00     0.007 C 
ENDBRANCH   1   9
TORSDOF 2
ENDMDL
MODEL 5
REMARK VINA RESULT: -5.813179224      2.855      4.026
REMARK  2 active torsions:
REMARK  status: ('A' for Active; 'I' for Inactive)
REMARK    1  A    between atoms: O1_1  and  C1_3 
REMARK    2  A    between atoms: C1_3  and  C2_4 
ROOT
HETATM    1  C1  UNL     1       8.955 -12.061   5.004  1.00  0.00     0.061 C 
HETATM    2  C7  UNL     1       7.479 -11.873   4.851  1.00  0.00     0.038 C 
HETATM    3  C8  UNL     1       6.874 -12.267   3.566  1.00  0.00     0.003 C 
HETATM    4  C9  UNL     1       7.753 -12.035   2.363  1.00  0.00     0.000 C 
HETATM    5  C10 UNL     1       9.100 -12.696   2.567  1.00  0.00     0.003 C 
HETATM    6  C11 UNL     1       9.748 -12.039   3.741  1.00  0.00     0.038 C 
ENDROOT
BRANCH   1   7
HETATM    7  O1  UNL     1       9.155 -13.310   5.616  1.00  0.00    -0.389 OA
ATOM      8  H1  UNL     1       9.147 -13.165   6.554  1.00  0.00     0.210 HD
ENDBRANCH   1   7
BRANCH   1   9
HETATM    9  C2  UNL     1       9.547 -11.010   5.933  1.00  0.00     0.020 C 
HETATM   10  C3  UNL     1       8.472 -10.284   6.711  1.00  0.00     0.007 C 
HETATM   11  C4  UNL     1       8.723 -10.545   8.180  1.00  0.00     0.000 C 
HETATM   12  C5  UNL     1       9.566 -11.790   8.218  1.00  0.00     0.000 C 
HETATM   13  C6  UNL     1      10.430 -11.594   6.989  1.00  0.00     0.007 C 
ENDBRANCH   1   9
TORSDOF 2
ENDMDL
