MODEL 1
REMARK VINA RESULT: -6.212610444      0.000      0.000
REMARK  4 active torsions:
REMARK  status: ('A' for Active; 'I' for Inactive)
REMARK       I    between atoms: N1_2  and  C2_4 
REMARK    1  A    between atoms: C2_4  and  C3_6 
REMARK       I    between atoms: C3_6  and  N2_8 
REMARK    2  A    between atoms: N2_8  and  C4_10 
REMARK    3  A    between atoms: C4_10  and  C5_11 
REMARK       I    between atoms: C5_11  and  N3_13 
REMARK    4  A    between atoms: N3_13  and  N4_15 
REMARK       I    between atoms: N4_15  and  C6_17 
REMARK       I    between atoms: N6_19  and  C7_21 
REMARK       I    between atoms: C7_21  and  N8_25 
ROOT
HETATM    1  C5  UNL     1      41.019  -8.222  60.813  1.00  0.00     0.253 C 
HETATM    2  O3  UNL     1      41.992  -8.048  61.638  1.00  0.00    -0.270 OA
HETATM    3  N3  UNL     1      40.603  -7.180  59.984  1.00  0.00    -0.266 N 
ATOM      4  H3  UNL     1      39.824  -7.344  59.348  1.00  0.00     0.190 HD
ENDROOT
BRANCH   3   5
HETATM    5  N4  UNL     1      41.201  -5.934  59.990  1.00  0.00    -0.270 N 
HETATM    6  C6  UNL     1      42.299  -5.643  59.148  1.00  0.00     0.221 C 
HETATM    7  N5  UNL     1      43.617  -5.828  59.598  1.00  0.00    -0.061 NA
HETATM    8  N6  UNL     1      42.042  -5.186  57.970  1.00  0.00    -0.163 N 
HETATM    9  C7  UNL     1      43.013  -4.848  57.009  1.00  0.00     0.675 C 
ATOM     10  H6  UNL     1      41.062  -5.061  57.717  1.00  0.00     0.187 HD
HETATM   11  N7  UNL     1      43.056  -5.579  55.944  1.00  0.00    -0.235 N 
HETATM   12  N8  UNL     1      43.910  -3.762  57.184  1.00  0.00    -0.227 N 
ATOM     13  H72 UNL     1      42.411  -6.358  55.818  1.00  0.00     0.174 HD
ATOM     14  H71 UNL     1      43.760  -5.333  55.247  1.00  0.00     0.174 HD
HETATM   15  C8  UNL     1      45.223  -3.822  56.549  1.00  0.00     0.168 C 
HETATM   16  C9  UNL     1      43.614  -2.581  57.956  1.00  0.00     0.168 C 
ATOM     17  H4  UNL     1      40.843  -5.210  60.614  1.00  0.00     0.189 HD
ENDBRANCH   3   5
BRANCH   1  18
HETATM   18  C4  UNL     1      40.441  -9.576  60.860  1.00  0.00     0.227 C 
BRANCH  18  19
HETATM   19  N2  UNL     1      39.877  -9.902  62.125  1.00  0.00    -0.344 N 
HETATM   20  C3  UNL     1      40.296 -10.976  62.936  1.00  0.00     0.309 C 
HETATM   21  O2  UNL     1      41.250 -11.702  62.526  1.00  0.00    -0.262 OA
ATOM     22  H2  UNL     1      39.115  -9.317  62.469  1.00  0.00     0.163 HD
BRANCH  20  23
HETATM   23  C2  UNL     1      39.665 -11.268  64.221  1.00  0.00     0.308 C 
HETATM   24  N1  UNL     1      38.309 -10.981  64.457  1.00  0.00    -0.357 N 
HETATM   25  C1  UNL     1      37.716 -11.281  65.742  1.00  0.00     0.149 C 
ATOM     26  H1  UNL     1      37.742 -10.559  63.721  1.00  0.00     0.162 HD
HETATM   27  O1  UNL     1      40.360 -11.785  65.121  1.00  0.00    -0.262 OA
ENDBRANCH  20  23
ENDBRANCH  18  19
ENDBRANCH   1  18
TORSDOF 4
ENDMDL
MODEL 2
REMARK VINA RESULT: -6.185296755      1.106      1.106
REMARK  4 active torsions:
REMARK  status: ('A' for Active; 'I' for Inactive)
REMARK       I    between atoms: N1_2  and  C2_4 
REMARK    1  A    between atoms: C2_4  and  C3_6 
REMARK       I    between atoms: C3_6  and  N2_8 
REMARK    2  A    between atoms: N2_8  and  C4_10 
REMARK    3  A    between atoms: C4_10  and  C5_11 
REMARK       I    between atoms: C5_11  and  N3_13 
REMARK    4  A    between atoms: N3_13  and  N4_15 
REMARK       I    between atoms: N4_15  and  C6_17 
REMARK       I    between atoms: N6_19  and  C7_21 
REMARK       I    between atoms: C7_21  and  N8_25 
ROOT
HETATM    1  C5  UNL     1      40.535  -8.797  60.679  1.00  0.00     0.253 C 
HETATM    2  O3  UNL     1      39.417  -8.159  60.723  1.00  0.00    -0.270 OA
HETATM    3  N3  UNL     1      41.743  -8.101  60.649  1.00  0.00    -0.266 N 
ATOM      4  H3  UNL     1      42.612  -8.633  60.605  1.00  0.00     0.190 HD
ENDROOT
BRANCH   3   5
HETATM    5  N4  UNL     1      41.814  -6.721  60.677  1.00  0.00    -0.270 N 
HETATM    6  C6  UNL     1      42.641  -6.010  59.777  1.00  0.00     0.221 C 
HETATM    7  N5  UNL     1      43.961  -5.679  60.124  1.00  0.00    -0.061 NA
HETATM    8  N6  UNL     1      42.130  -5.665  58.644  1.00  0.00    -0.163 N 
HETATM    9  C7  UNL     1      42.812  -4.958  57.637  1.00  0.00     0.675 C 
ATOM     10  H6  UNL     1      41.160  -5.924  58.466  1.00  0.00     0.187 HD
HETATM   11  N7  UNL     1      43.044  -5.593  56.535  1.00  0.00    -0.235 N 
HETATM   12  N8  UNL     1      43.234  -3.613  57.804  1.00  0.00    -0.227 N 
ATOM     13  H72 UNL     1      42.741  -6.559  56.414  1.00  0.00     0.174 HD
ATOM     14  H71 UNL     1      43.539  -5.080  55.804  1.00  0.00     0.174 HD
HETATM   15  C8  UNL     1      44.411  -3.146  57.077  1.00  0.00     0.168 C 
HETATM   16  C9  UNL     1      42.571  -2.655  58.653  1.00  0.00     0.168 C 
ATOM     17  H4  UNL     1      41.258  -6.205  61.359  1.00  0.00     0.189 HD
ENDBRANCH   3   5
BRANCH   1  18
HETATM   18  C4  UNL     1      40.377 -10.261  60.661  1.00  0.00     0.227 C 
BRANCH  18  19
HETATM   19  N2  UNL     1      39.798 -10.778  61.854  1.00  0.00    -0.344 N 
HETATM   20  C3  UNL     1      40.286 -10.530  63.153  1.00  0.00     0.309 C 
HETATM   21  O2  UNL     1      41.304  -9.786  63.281  1.00  0.00    -0.262 OA
ATOM     22  H2  UNL     1      38.972 -11.370  61.762  1.00  0.00     0.163 HD
BRANCH  20  23
HETATM   23  C2  UNL     1      39.654 -11.102  64.339  1.00  0.00     0.308 C 
HETATM   24  N1  UNL     1      38.288 -10.905  64.613  1.00  0.00    -0.357 N 
HETATM   25  C1  UNL     1      37.694 -11.485  65.798  1.00  0.00     0.149 C 
ATOM     26  H1  UNL     1      37.716 -10.352  63.975  1.00  0.00     0.162 HD
HETATM   27  O1  UNL     1      40.356 -11.780  65.119  1.00  0.00    -0.262 OA
ENDBRANCH  20  23
ENDBRANCH  18  19
ENDBRANCH   1  18
TORSDOF 4
ENDMDL
MODEL 3
REMARK VINA RESULT: -5.739194842      1.611      2.466
REMARK  4 active torsions:
REMARK  status: ('A' for Active; 'I' for Inactive)
REMARK       I    between atoms: N1_2  and  C2_4 
REMARK    1  A    between atoms: C2_4  and  C3_6 
REMARK       I    between atoms: C3_6  and  N2_8 
REMARK    2  A    between atoms: N2_8  and  C4_10 
REMARK    3  A    between atoms: C4_10  and  C5_11 
REMARK       I    between atoms: C5_11  and  N3_13 
REMARK    4  A    between atoms: N3_13  and  N4_15 
REMARK       I    between atoms: N4_15  and  C6_17 
REMARK       I    between atoms: N6_19  and  C7_21 
REMARK       I    between atoms: C7_21  and  N8_25 
ROOT
HETATM    1  C5  UNL     1      40.915  -9.574  61.666  1.00  0.00     0.253 C 
HETATM    2  O3  UNL     1      39.756  -9.654  61.110  1.00  0.00    -0.270 OA
HETATM    3  N3  UNL     1      41.953  -8.888  61.034  1.00  0.00    -0.266 N 
ATOM      4  H3  UNL     1      42.862  -8.849  61.494  1.00  0.00     0.190 HD
ENDROOT
BRANCH   3   5
HETATM    5  N4  UNL     1      41.801  -8.260  59.812  1.00  0.00    -0.270 N 
HETATM    6  C6  UNL     1      42.050  -6.876  59.663  1.00  0.00     0.221 C 
HETATM    7  N5  UNL     1      41.013  -5.940  59.814  1.00  0.00    -0.061 NA
HETATM    8  N6  UNL     1      43.251  -6.516  59.365  1.00  0.00    -0.163 N 
HETATM    9  C7  UNL     1      43.670  -5.185  59.181  1.00  0.00     0.675 C 
ATOM     10  H6  UNL     1      43.950  -7.250  59.253  1.00  0.00     0.187 HD
HETATM   11  N7  UNL     1      44.501  -4.711  60.051  1.00  0.00    -0.235 N 
HETATM   12  N8  UNL     1      43.211  -4.385  58.102  1.00  0.00    -0.227 N 
ATOM     13  H72 UNL     1      44.831  -5.286  60.827  1.00  0.00     0.174 HD
ATOM     14  H71 UNL     1      44.804  -3.746  59.918  1.00  0.00     0.174 HD
HETATM   15  C8  UNL     1      43.139  -2.937  58.277  1.00  0.00     0.168 C 
HETATM   16  C9  UNL     1      42.806  -4.907  56.821  1.00  0.00     0.168 C 
ATOM     17  H4  UNL     1      41.505  -8.805  59.003  1.00  0.00     0.189 HD
ENDBRANCH   3   5
BRANCH   1  18
HETATM   18  C4  UNL     1      40.994 -10.260  62.966  1.00  0.00     0.227 C 
BRANCH  18  19
HETATM   19  N2  UNL     1      39.720 -10.595  63.503  1.00  0.00    -0.344 N 
HETATM   20  C3  UNL     1      39.517 -11.401  64.642  1.00  0.00     0.309 C 
HETATM   21  O2  UNL     1      40.535 -11.855  65.245  1.00  0.00    -0.262 OA
ATOM     22  H2  UNL     1      38.894 -10.226  63.031  1.00  0.00     0.163 HD
BRANCH  20  23
HETATM   23  C2  UNL     1      38.181 -11.721  65.136  1.00  0.00     0.308 C 
HETATM   24  N1  UNL     1      37.774 -13.050  65.352  1.00  0.00    -0.357 N 
HETATM   25  C1  UNL     1      36.442 -13.332  65.842  1.00  0.00     0.149 C 
ATOM     26  H1  UNL     1      38.420 -13.817  65.163  1.00  0.00     0.162 HD
HETATM   27  O1  UNL     1      37.391 -10.781  65.368  1.00  0.00    -0.262 OA
ENDBRANCH  20  23
ENDBRANCH  18  19
ENDBRANCH   1  18
TORSDOF 4
ENDMDL
MODEL 4
REMARK VINA RESULT: -5.583711925      1.946      2.534
REMARK  4 active torsions:
REMARK  status: ('A' for Active; 'I' for Inactive)
REMARK       I    between atoms: N1_2  and  C2_4 
REMARK    1  A    between atoms: C2_4  and  C3_6 
REMARK       I    between atoms: C3_6  and  N2_8 
REMARK    2  A    between atoms: N2_8  and  C4_10 
REMARK    3  A    between atoms: C4_10  and  C5_11 
REMARK       I    between atoms: C5_11  and  N3_13 
REMARK    4  A    between atoms: N3_13  and  N4_15 
REMARK       I    between atoms: N4_15  and  C6_17 
REMARK       I    between atoms: N6_19  and  C7_21 
REMARK       I    between atoms: C7_21  and  N8_25 
ROOT
HETATM    1  C5  UNL     1      41.135  -9.466  61.984  1.00  0.00     0.253 C 
HETATM    2  O3  UNL     1      40.519  -8.488  61.418  1.00  0.00    -0.270 OA
HETATM    3  N3  UNL     1      42.391  -9.270  62.558  1.00  0.00    -0.266 N 
ATOM      4  H3  UNL     1      42.859 -10.065  62.992  1.00  0.00     0.190 HD
ENDROOT
BRANCH   3   5
HETATM    5  N4  UNL     1      43.030  -8.044  62.564  1.00  0.00    -0.270 N 
HETATM    6  C6  UNL     1      43.354  -7.380  61.358  1.00  0.00     0.221 C 
HETATM    7  N5  UNL     1      44.604  -7.571  60.747  1.00  0.00    -0.061 NA
HETATM    8  N6  UNL     1      42.470  -6.584  60.861  1.00  0.00    -0.163 N 
HETATM    9  C7  UNL     1      42.629  -5.848  59.671  1.00  0.00     0.675 C 
ATOM     10  H6  UNL     1      41.590  -6.480  61.367  1.00  0.00     0.187 HD
HETATM   11  N7  UNL     1      41.865  -6.173  58.680  1.00  0.00    -0.235 N 
HETATM   12  N8  UNL     1      43.576  -4.799  59.547  1.00  0.00    -0.227 N 
ATOM     13  H72 UNL     1      41.183  -6.927  58.770  1.00  0.00     0.174 HD
ATOM     14  H71 UNL     1      41.980  -5.639  57.818  1.00  0.00     0.174 HD
HETATM   15  C8  UNL     1      44.142  -4.511  58.232  1.00  0.00     0.168 C 
HETATM   16  C9  UNL     1      44.028  -3.980  60.644  1.00  0.00     0.168 C 
ATOM     17  H4  UNL     1      43.271  -7.609  63.455  1.00  0.00     0.189 HD
ENDBRANCH   3   5
BRANCH   1  18
HETATM   18  C4  UNL     1      40.388 -10.734  61.946  1.00  0.00     0.227 C 
BRANCH  18  19
HETATM   19  N2  UNL     1      39.405 -10.839  62.969  1.00  0.00    -0.344 N 
HETATM   20  C3  UNL     1      39.630 -11.405  64.241  1.00  0.00     0.309 C 
HETATM   21  O2  UNL     1      40.789 -11.844  64.507  1.00  0.00    -0.262 OA
ATOM     22  H2  UNL     1      38.472 -10.480  62.768  1.00  0.00     0.163 HD
BRANCH  20  23
HETATM   23  C2  UNL     1      38.574 -11.496  65.245  1.00  0.00     0.308 C 
HETATM   24  N1  UNL     1      38.828 -11.988  66.538  1.00  0.00    -0.357 N 
HETATM   25  C1  UNL     1      37.759 -12.066  67.509  1.00  0.00     0.149 C 
ATOM     26  H1  UNL     1      39.769 -12.291  66.791  1.00  0.00     0.162 HD
HETATM   27  O1  UNL     1      37.423 -11.125  64.934  1.00  0.00    -0.262 OA
ENDBRANCH  20  23
ENDBRANCH  18  19
ENDBRANCH   1  18
TORSDOF 4
ENDMDL
MODEL 5
REMARK VINA RESULT: -5.489725403      1.834      3.019
REMARK  4 active torsions:
REMARK  status: ('A' for Active; 'I' for Inactive)
REMARK       I    between atoms: N1_2  and  C2_4 
REMARK    1  A    between atoms: C2_4  and  C3_6 
REMARK       I    between atoms: C3_6  and  N2_8 
REMARK    2  A    between atoms: N2_8  and  C4_10 
REMARK    3  A    between atoms: C4_10  and  C5_11 
REMARK       I    between atoms: C5_11  and  N3_13 
REMARK    4  A    between atoms: N3_13  and  N4_15 
REMARK       I    between atoms: N4_15  and  C6_17 
REMARK       I    between atoms: N6_19  and  C7_21 
REMARK       I    between atoms: C7_21  and  N8_25 
ROOT
HETATM    1  C5  UNL     1      40.785 -10.034  62.001  1.00  0.00     0.253 C 
HETATM    2  O3  UNL     1      41.814  -9.292  62.215  1.00  0.00    -0.270 OA
HETATM    3  N3  UNL     1      39.930  -9.763  60.932  1.00  0.00    -0.266 N 
ATOM      4  H3  UNL     1      39.117 -10.362  60.793  1.00  0.00     0.190 HD
ENDROOT
BRANCH   3   5
HETATM    5  N4  UNL     1      40.138  -8.715  60.054  1.00  0.00    -0.270 N 
HETATM    6  C6  UNL     1      41.130  -7.738  60.300  1.00  0.00     0.221 C 
HETATM    7  N5  UNL     1      40.819  -6.558  60.995  1.00  0.00    -0.061 NA
HETATM    8  N6  UNL     1      42.314  -7.965  59.844  1.00  0.00    -0.163 N 
HETATM    9  C7  UNL     1      43.415  -7.101  59.998  1.00  0.00     0.675 C 
ATOM     10  H6  UNL     1      42.465  -8.834  59.332  1.00  0.00     0.187 HD
HETATM   11  N7  UNL     1      44.387  -7.524  60.739  1.00  0.00    -0.235 N 
HETATM   12  N8  UNL     1      43.472  -5.823  59.382  1.00  0.00    -0.227 N 
ATOM     13  H72 UNL     1      44.346  -8.442  61.181  1.00  0.00     0.174 HD
ATOM     14  H71 UNL     1      45.184  -6.898  60.851  1.00  0.00     0.174 HD
HETATM   15  C8  UNL     1      44.244  -4.764  60.024  1.00  0.00     0.168 C 
HETATM   16  C9  UNL     1      42.812  -5.490  58.145  1.00  0.00     0.168 C 
ATOM     17  H4  UNL     1      39.564  -8.646  59.213  1.00  0.00     0.189 HD
ENDBRANCH   3   5
BRANCH   1  18
HETATM   18  C4  UNL     1      40.637 -11.132  62.972  1.00  0.00     0.227 C 
BRANCH  18  19
HETATM   19  N2  UNL     1      39.447 -11.040  63.747  1.00  0.00    -0.344 N 
HETATM   20  C3  UNL     1      39.284 -11.597  65.032  1.00  0.00     0.309 C 
HETATM   21  O2  UNL     1      40.263 -12.213  65.548  1.00  0.00    -0.262 OA
ATOM     22  H2  UNL     1      38.656 -10.537  63.344  1.00  0.00     0.163 HD
BRANCH  20  23
HETATM   23  C2  UNL     1      38.030 -11.480  65.772  1.00  0.00     0.308 C 
HETATM   24  N1  UNL     1      37.929 -10.683  66.927  1.00  0.00    -0.357 N 
HETATM   25  C1  UNL     1      36.673 -10.590  67.638  1.00  0.00     0.149 C 
ATOM     26  H1  UNL     1      38.744 -10.171  67.264  1.00  0.00     0.162 HD
HETATM   27  O1  UNL     1      37.034 -12.108  65.358  1.00  0.00    -0.262 OA
ENDBRANCH  20  23
ENDBRANCH  18  19
ENDBRANCH   1  18
TORSDOF 4
ENDMDL
