MODEL 1
REMARK VINA RESULT: -7.499781931      0.000      0.000
REMARK  5 active torsions:
REMARK  status: ('A' for Active; 'I' for Inactive)
REMARK    1  A    between atoms: C2_2  and  C3_3 
REMARK       I    between atoms: C3_3  and  N1_5 
REMARK    2  A    between atoms: N1_5  and  N2_7 
REMARK       I    between atoms: N2_7  and  C4_9 
REMARK    3  A    between atoms: C4_9  and  C5_11 
REMARK    4  A    between atoms: C5_11  and  N3_12 
REMARK       I    between atoms: C6_14  and  N5_16 
REMARK       I    between atoms: C7_18  and  N7_20 
REMARK    5  A    between atoms: N7_20  and  N8_22 
REMARK       I    between atoms: N8_22  and  C8_24 
ROOT
HETATM    1  N3  UNL     1      42.314  -8.281  60.886  1.00  0.00    -0.335 N 
ATOM      2  H3  UNL     1      41.399  -8.148  60.455  1.00  0.00     0.168 HD
HETATM    3  C6  UNL     1      43.199  -7.691  60.248  1.00  0.00     0.194 C 
HETATM    4  N4  UNL     1      44.552  -7.677  60.584  1.00  0.00    -0.063 NA
HETATM    5  N5  UNL     1      42.792  -6.968  59.070  1.00  0.00    -0.303 N 
ATOM      6  H5  UNL     1      42.939  -7.395  58.156  1.00  0.00     0.171 HD
HETATM    7  C7  UNL     1      42.255  -5.815  59.130  1.00  0.00     0.209 C 
HETATM    8  N6  UNL     1      41.871  -5.148  57.954  1.00  0.00    -0.062 NA
HETATM    9  N7  UNL     1      42.058  -5.211  60.393  1.00  0.00    -0.271 N 
ATOM     10  H7  UNL     1      41.947  -5.772  61.238  1.00  0.00     0.189 HD
ENDROOT
BRANCH   1  11
HETATM   11  C5  UNL     1      42.225  -9.076  62.028  1.00  0.00     0.166 C 
BRANCH  11  12
HETATM   12  C4  UNL     1      40.954  -9.669  62.406  1.00  0.00     0.275 C 
HETATM   13  N2  UNL     1      40.636 -10.321  63.607  1.00  0.00    -0.263 N 
ATOM     14  H2  UNL     1      41.355 -10.421  64.323  1.00  0.00     0.190 HD
HETATM   15  O2  UNL     1      40.017  -9.574  61.522  1.00  0.00    -0.265 OA
BRANCH  13  16
HETATM   16  N1  UNL     1      39.359 -10.837  63.848  1.00  0.00    -0.264 N 
HETATM   17  C3  UNL     1      39.048 -11.713  64.907  1.00  0.00     0.258 C 
HETATM   18  O1  UNL     1      39.981 -12.040  65.671  1.00  0.00    -0.267 OA
ATOM     19  H1  UNL     1      38.605 -10.564  63.218  1.00  0.00     0.190 HD
BRANCH  17  20
HETATM   20  C2  UNL     1      37.668 -12.206  65.082  1.00  0.00     0.065 C 
HETATM   21  C1  UNL     1      37.335 -12.659  66.278  1.00  0.00     0.017 C 
ENDBRANCH  17  20
ENDBRANCH  13  16
ENDBRANCH  11  12
ENDBRANCH   1  11
BRANCH   9  22
HETATM   22  N8  UNL     1      42.022  -3.811  60.435  1.00  0.00    -0.268 N 
HETATM   23  C8  UNL     1      43.191  -3.104  60.789  1.00  0.00     0.232 C 
HETATM   24  C9  UNL     1      43.204  -1.625  60.840  1.00  0.00     0.119 C 
HETATM   25  O3  UNL     1      44.249  -3.716  61.068  1.00  0.00    -0.272 OA
ATOM     26  H8  UNL     1      41.162  -3.310  60.212  1.00  0.00     0.190 HD
ENDBRANCH   9  22
TORSDOF 5
ENDMDL
MODEL 2
REMARK VINA RESULT: -7.424604681      1.979      2.530
REMARK  5 active torsions:
REMARK  status: ('A' for Active; 'I' for Inactive)
REMARK    1  A    between atoms: C2_2  and  C3_3 
REMARK       I    between atoms: C3_3  and  N1_5 
REMARK    2  A    between atoms: N1_5  and  N2_7 
REMARK       I    between atoms: N2_7  and  C4_9 
REMARK    3  A    between atoms: C4_9  and  C5_11 
REMARK    4  A    between atoms: C5_11  and  N3_12 
REMARK       I    between atoms: C6_14  and  N5_16 
REMARK       I    between atoms: C7_18  and  N7_20 
REMARK    5  A    between atoms: N7_20  and  N8_22 
REMARK       I    between atoms: N8_22  and  C8_24 
ROOT
HETATM    1  N3  UNL     1      42.282  -7.447  61.202  1.00  0.00    -0.335 N 
ATOM      2  H3  UNL     1      43.028  -7.163  61.838  1.00  0.00     0.168 HD
HETATM    3  C6  UNL     1      41.763  -6.465  60.652  1.00  0.00     0.194 C 
HETATM    4  N4  UNL     1      40.721  -6.525  59.728  1.00  0.00    -0.063 NA
HETATM    5  N5  UNL     1      42.278  -5.165  61.002  1.00  0.00    -0.303 N 
ATOM      6  H5  UNL     1      41.761  -4.595  61.670  1.00  0.00     0.171 HD
HETATM    7  C7  UNL     1      43.355  -4.703  60.504  1.00  0.00     0.209 C 
HETATM    8  N6  UNL     1      43.821  -3.431  60.877  1.00  0.00    -0.062 NA
HETATM    9  N7  UNL     1      44.071  -5.483  59.568  1.00  0.00    -0.271 N 
ATOM     10  H7  UNL     1      44.010  -6.501  59.567  1.00  0.00     0.189 HD
ENDROOT
BRANCH   1  11
HETATM   11  C5  UNL     1      42.129  -8.833  61.193  1.00  0.00     0.166 C 
BRANCH  11  12
HETATM   12  C4  UNL     1      40.925  -9.438  61.732  1.00  0.00     0.275 C 
HETATM   13  N2  UNL     1      40.756 -10.044  62.986  1.00  0.00    -0.263 N 
ATOM     14  H2  UNL     1      41.550 -10.095  63.623  1.00  0.00     0.190 HD
HETATM   15  O2  UNL     1      39.895  -9.406  60.952  1.00  0.00    -0.265 OA
BRANCH  13  16
HETATM   16  N1  UNL     1      39.528 -10.580  63.386  1.00  0.00    -0.264 N 
HETATM   17  C3  UNL     1      39.357 -11.411  64.511  1.00  0.00     0.258 C 
HETATM   18  O1  UNL     1      40.375 -11.679  65.183  1.00  0.00    -0.267 OA
ATOM     19  H1  UNL     1      38.703 -10.354  62.829  1.00  0.00     0.190 HD
BRANCH  17  20
HETATM   20  C2  UNL     1      38.018 -11.929  64.854  1.00  0.00     0.065 C 
HETATM   21  C1  UNL     1      37.825 -12.324  66.100  1.00  0.00     0.017 C 
ENDBRANCH  17  20
ENDBRANCH  13  16
ENDBRANCH  11  12
ENDBRANCH   1  11
BRANCH   9  22
HETATM   22  N8  UNL     1      44.869  -4.798  58.642  1.00  0.00    -0.268 N 
HETATM   23  C8  UNL     1      44.299  -4.380  57.420  1.00  0.00     0.232 C 
HETATM   24  C9  UNL     1      45.099  -3.647  56.415  1.00  0.00     0.119 C 
HETATM   25  O3  UNL     1      43.096  -4.619  57.161  1.00  0.00    -0.272 OA
ATOM     26  H8  UNL     1      45.849  -4.604  58.848  1.00  0.00     0.190 HD
ENDBRANCH   9  22
TORSDOF 5
ENDMDL
MODEL 3
REMARK VINA RESULT: -6.191365995      2.233      2.791
REMARK  5 active torsions:
REMARK  status: ('A' for Active; 'I' for Inactive)
REMARK    1  A    between atoms: C2_2  and  C3_3 
REMARK       I    between atoms: C3_3  and  N1_5 
REMARK    2  A    between atoms: N1_5  and  N2_7 
REMARK       I    between atoms: N2_7  and  C4_9 
REMARK    3  A    between atoms: C4_9  and  C5_11 
REMARK    4  A    between atoms: C5_11  and  N3_12 
REMARK       I    between atoms: C6_14  and  N5_16 
REMARK       I    between atoms: C7_18  and  N7_20 
REMARK    5  A    between atoms: N7_20  and  N8_22 
REMARK       I    between atoms: N8_22  and  C8_24 
ROOT
HETATM    1  N3  UNL     1      41.800  -7.321  60.836  1.00  0.00    -0.335 N 
ATOM      2  H3  UNL     1      42.512  -7.137  61.543  1.00  0.00     0.168 HD
HETATM    3  C6  UNL     1      41.424  -6.272  60.293  1.00  0.00     0.194 C 
HETATM    4  N4  UNL     1      40.465  -6.192  59.285  1.00  0.00    -0.063 NA
HETATM    5  N5  UNL     1      42.028  -5.044  60.745  1.00  0.00    -0.303 N 
ATOM      6  H5  UNL     1      41.512  -4.453  61.396  1.00  0.00     0.171 HD
HETATM    7  C7  UNL     1      43.182  -4.670  60.359  1.00  0.00     0.209 C 
HETATM    8  N6  UNL     1      43.732  -3.465  60.829  1.00  0.00    -0.062 NA
HETATM    9  N7  UNL     1      43.900  -5.478  59.449  1.00  0.00    -0.271 N 
ATOM     10  H7  UNL     1      43.743  -6.485  59.394  1.00  0.00     0.189 HD
ENDROOT
BRANCH   1  11
HETATM   11  C5  UNL     1      41.518  -8.684  60.747  1.00  0.00     0.166 C 
BRANCH  11  12
HETATM   12  C4  UNL     1      41.310  -9.466  61.953  1.00  0.00     0.275 C 
HETATM   13  N2  UNL     1      40.332 -10.445  62.182  1.00  0.00    -0.263 N 
ATOM     14  H2  UNL     1      39.660 -10.657  61.445  1.00  0.00     0.190 HD
HETATM   15  O2  UNL     1      42.133  -9.220  62.918  1.00  0.00    -0.265 OA
BRANCH  13  16
HETATM   16  N1  UNL     1      40.252 -11.136  63.395  1.00  0.00    -0.264 N 
HETATM   17  C3  UNL     1      39.161 -11.050  64.283  1.00  0.00     0.258 C 
HETATM   18  O1  UNL     1      38.214 -10.306  63.955  1.00  0.00    -0.267 OA
ATOM     19  H1  UNL     1      41.032 -11.741  63.653  1.00  0.00     0.190 HD
BRANCH  17  20
HETATM   20  C2  UNL     1      39.167 -11.820  65.543  1.00  0.00     0.065 C 
HETATM   21  C1  UNL     1      37.995 -12.155  66.052  1.00  0.00     0.017 C 
ENDBRANCH  17  20
ENDBRANCH  13  16
ENDBRANCH  11  12
ENDBRANCH   1  11
BRANCH   9  22
HETATM   22  N8  UNL     1      44.834  -4.838  58.624  1.00  0.00    -0.268 N 
HETATM   23  C8  UNL     1      44.424  -4.357  57.363  1.00  0.00     0.232 C 
HETATM   24  C9  UNL     1      45.373  -3.669  56.461  1.00  0.00     0.119 C 
HETATM   25  O3  UNL     1      43.239  -4.502  56.979  1.00  0.00    -0.272 OA
ATOM     26  H8  UNL     1      45.800  -4.722  58.932  1.00  0.00     0.190 HD
ENDBRANCH   9  22
TORSDOF 5
ENDMDL
MODEL 4
REMARK VINA RESULT: -6.023413987      2.076      2.713
REMARK  5 active torsions:
REMARK  status: ('A' for Active; 'I' for Inactive)
REMARK    1  A    between atoms: C2_2  and  C3_3 
REMARK       I    between atoms: C3_3  and  N1_5 
REMARK    2  A    between atoms: N1_5  and  N2_7 
REMARK       I    between atoms: N2_7  and  C4_9 
REMARK    3  A    between atoms: C4_9  and  C5_11 
REMARK    4  A    between atoms: C5_11  and  N3_12 
REMARK       I    between atoms: C6_14  and  N5_16 
REMARK       I    between atoms: C7_18  and  N7_20 
REMARK    5  A    between atoms: N7_20  and  N8_22 
REMARK       I    between atoms: N8_22  and  C8_24 
ROOT
HETATM    1  N3  UNL     1      41.100  -7.948  61.143  1.00  0.00    -0.335 N 
ATOM      2  H3  UNL     1      41.750  -7.595  61.845  1.00  0.00     0.168 HD
HETATM    3  C6  UNL     1      40.643  -7.026  60.451  1.00  0.00     0.194 C 
HETATM    4  N4  UNL     1      39.734  -7.186  59.406  1.00  0.00    -0.063 NA
HETATM    5  N5  UNL     1      41.087  -5.690  60.757  1.00  0.00    -0.303 N 
ATOM      6  H5  UNL     1      40.478  -5.082  61.303  1.00  0.00     0.171 HD
HETATM    7  C7  UNL     1      42.214  -5.241  60.368  1.00  0.00     0.209 C 
HETATM    8  N6  UNL     1      42.607  -3.931  60.693  1.00  0.00    -0.062 NA
HETATM    9  N7  UNL     1      43.059  -6.073  59.601  1.00  0.00    -0.271 N 
ATOM     10  H7  UNL     1      43.014  -7.090  59.676  1.00  0.00     0.189 HD
ENDROOT
BRANCH   1  11
HETATM   11  C5  UNL     1      40.970  -9.333  61.227  1.00  0.00     0.166 C 
BRANCH  11  12
HETATM   12  C4  UNL     1      40.803  -9.974  62.519  1.00  0.00     0.275 C 
HETATM   13  N2  UNL     1      39.897 -10.988  62.864  1.00  0.00    -0.263 N 
ATOM     14  H2  UNL     1      39.254 -11.340  62.155  1.00  0.00     0.190 HD
HETATM   15  O2  UNL     1      41.591  -9.549  63.451  1.00  0.00    -0.265 OA
BRANCH  13  16
HETATM   16  N1  UNL     1      39.851 -11.528  64.153  1.00  0.00    -0.264 N 
HETATM   17  C3  UNL     1      38.712 -11.498  64.981  1.00  0.00     0.258 C 
HETATM   18  O1  UNL     1      37.686 -10.952  64.524  1.00  0.00    -0.267 OA
ATOM     19  H1  UNL     1      40.695 -11.971  64.516  1.00  0.00     0.190 HD
BRANCH  17  20
HETATM   20  C2  UNL     1      38.759 -12.096  66.330  1.00  0.00     0.065 C 
HETATM   21  C1  UNL     1      37.718 -11.893  67.118  1.00  0.00     0.017 C 
ENDBRANCH  17  20
ENDBRANCH  13  16
ENDBRANCH  11  12
ENDBRANCH   1  11
BRANCH   9  22
HETATM   22  N8  UNL     1      43.962  -5.444  58.734  1.00  0.00    -0.268 N 
HETATM   23  C8  UNL     1      43.482  -4.882  57.531  1.00  0.00     0.232 C 
HETATM   24  C9  UNL     1      44.396  -4.201  56.588  1.00  0.00     0.119 C 
HETATM   25  O3  UNL     1      42.266  -4.947  57.236  1.00  0.00    -0.272 OA
ATOM     26  H8  UNL     1      44.953  -5.393  58.969  1.00  0.00     0.190 HD
ENDBRANCH   9  22
TORSDOF 5
ENDMDL
MODEL 5
REMARK VINA RESULT: -5.983640688      3.407      7.949
REMARK  5 active torsions:
REMARK  status: ('A' for Active; 'I' for Inactive)
REMARK    1  A    between atoms: C2_2  and  C3_3 
REMARK       I    between atoms: C3_3  and  N1_5 
REMARK    2  A    between atoms: N1_5  and  N2_7 
REMARK       I    between atoms: N2_7  and  C4_9 
REMARK    3  A    between atoms: C4_9  and  C5_11 
REMARK    4  A    between atoms: C5_11  and  N3_12 
REMARK       I    between atoms: C6_14  and  N5_16 
REMARK       I    between atoms: C7_18  and  N7_20 
REMARK    5  A    between atoms: N7_20  and  N8_22 
REMARK       I    between atoms: N8_22  and  C8_24 
ROOT
HETATM    1  N3  UNL     1      43.272  -6.358  62.232  1.00  0.00    -0.335 N 
ATOM      2  H3  UNL     1      42.469  -6.437  62.855  1.00  0.00     0.168 HD
HETATM    3  C6  UNL     1      43.610  -7.466  61.791  1.00  0.00     0.194 C 
HETATM    4  N4  UNL     1      44.670  -7.688  60.913  1.00  0.00    -0.063 NA
HETATM    5  N5  UNL     1      42.848  -8.609  62.227  1.00  0.00    -0.303 N 
ATOM      6  H5  UNL     1      43.228  -9.201  62.965  1.00  0.00     0.171 HD
HETATM    7  C7  UNL     1      41.717  -8.905  61.723  1.00  0.00     0.209 C 
HETATM    8  N6  UNL     1      41.007 -10.028  62.182  1.00  0.00    -0.062 NA
HETATM    9  N7  UNL     1      41.188  -8.095  60.693  1.00  0.00    -0.271 N 
ATOM     10  H7  UNL     1      41.442  -7.111  60.608  1.00  0.00     0.189 HD
ENDROOT
BRANCH   1  11
HETATM   11  C5  UNL     1      43.687  -5.032  62.110  1.00  0.00     0.166 C 
BRANCH  11  12
HETATM   12  C4  UNL     1      43.947  -4.466  60.799  1.00  0.00     0.275 C 
HETATM   13  N2  UNL     1      44.316  -5.146  59.628  1.00  0.00    -0.263 N 
ATOM     14  H2  UNL     1      44.436  -6.158  59.659  1.00  0.00     0.190 HD
HETATM   15  O2  UNL     1      43.818  -3.183  60.717  1.00  0.00    -0.265 OA
BRANCH  13  16
HETATM   16  N1  UNL     1      44.525  -4.473  58.420  1.00  0.00    -0.264 N 
HETATM   17  C3  UNL     1      43.552  -4.347  57.408  1.00  0.00     0.258 C 
HETATM   18  O1  UNL     1      42.439  -4.875  57.615  1.00  0.00    -0.267 OA
ATOM     19  H1  UNL     1      45.437  -4.046  58.262  1.00  0.00     0.190 HD
BRANCH  17  20
HETATM   20  C2  UNL     1      43.866  -3.616  56.165  1.00  0.00     0.065 C 
HETATM   21  C1  UNL     1      44.977  -2.901  56.148  1.00  0.00     0.017 C 
ENDBRANCH  17  20
ENDBRANCH  13  16
ENDBRANCH  11  12
ENDBRANCH   1  11
BRANCH   9  22
HETATM   22  N8  UNL     1      40.302  -8.701  59.793  1.00  0.00    -0.268 N 
HETATM   23  C8  UNL     1      38.932  -8.365  59.845  1.00  0.00     0.232 C 
HETATM   24  C9  UNL     1      37.959  -8.973  58.911  1.00  0.00     0.119 C 
HETATM   25  O3  UNL     1      38.509  -7.538  60.686  1.00  0.00    -0.272 OA
ATOM     26  H8  UNL     1      40.642  -9.377  59.109  1.00  0.00     0.190 HD
ENDBRANCH   9  22
TORSDOF 5
ENDMDL
