MODEL 1
REMARK VINA RESULT: -6.869458858      0.000      0.000
REMARK  6 active torsions:
REMARK  status: ('A' for Active; 'I' for Inactive)
REMARK    1  A    between atoms: S1_2  and  C1_4 
REMARK    2  A    between atoms: S1_2  and  N2_18 
REMARK    3  A    between atoms: C1_4  and  C2_5 
REMARK    4  A    between atoms: N1_12  and  C9_13 
REMARK    5  A    between atoms: C9_13  and  C10_14 
REMARK    6  A    between atoms: N2_18  and  C13_20 
ROOT
HETATM    1  C2  UNL     1       7.154  -2.686   7.316  1.00  0.00     0.001 C 
HETATM    2  C3  UNL     1       7.130  -1.223   7.571  1.00  0.00     0.012 C 
HETATM    3  C4  UNL     1       5.920  -0.695   8.256  1.00  0.00     0.007 C 
HETATM    4  C5  UNL     1       5.083  -1.766   8.907  1.00  0.00     0.014 C 
HETATM    5  C6  UNL     1       5.947  -2.820   9.540  1.00  0.00     0.007 C 
HETATM    6  C7  UNL     1       7.056  -3.339   8.724  1.00  0.00     0.012 C 
HETATM    7  C8  UNL     1       4.180  -2.359   7.848  1.00  0.00     0.277 C 
HETATM    8  N1  UNL     1       4.873  -2.210   6.587  1.00  0.00     0.092 N 
HETATM    9  C12 UNL     1       5.943  -3.179   6.555  1.00  0.00     0.283 C 
ENDROOT
BRANCH   1  10
HETATM   10  C1  UNL     1       8.445  -3.198   6.799  1.00  0.00     0.174 C 
BRANCH  10  11
HETATM   11  S1  UNL     1       8.730  -3.328   5.109  1.00  0.00     0.227 S 
HETATM   12  O1  UNL     1       7.520  -2.713   4.385  1.00  0.00    -0.206 OA
HETATM   13  O2  UNL     1       8.552  -4.828   4.759  1.00  0.00    -0.206 OA
BRANCH  11  14
HETATM   14  N2  UNL     1      10.096  -2.695   4.416  1.00  0.00    -0.315 N 
ATOM     15  H2  UNL     1      10.003  -2.118   3.580  1.00  0.00     0.172 HD
BRANCH  14  16
HETATM   16  C13 UNL     1      11.378  -2.928   4.939  1.00  0.00     0.097 C 
HETATM   17  C14 UNL     1      12.460  -1.947   4.553  1.00  0.00     0.052 C 
HETATM   18  C15 UNL     1      13.792  -2.671   4.548  1.00  0.00     0.169 C 
HETATM   19  O4  UNL     1      13.877  -3.463   5.689  1.00  0.00    -0.391 OA
HETATM   20  C16 UNL     1      13.056  -4.577   5.557  1.00  0.00     0.169 C 
HETATM   21  C17 UNL     1      11.877  -4.355   4.640  1.00  0.00     0.052 C 
ENDBRANCH  14  16
ENDBRANCH  11  14
ENDBRANCH  10  11
ENDBRANCH   1  10
BRANCH   8  22
HETATM   22  C9  UNL     1       3.951  -2.304   5.512  1.00  0.00     0.306 C 
BRANCH  22  23
HETATM   23  C10 UNL     1       3.755  -1.057   4.707  1.00  0.00     0.173 A 
HETATM   24  C11 UNL     1       2.466  -0.380   4.537  1.00  0.00     0.201 A 
HETATM   25  O3  UNL     1       3.386   0.051   5.486  1.00  0.00    -0.379 OA
ENDBRANCH  22  23
ENDBRANCH   8  22
TORSDOF 6
ENDMDL
MODEL 2
REMARK VINA RESULT: -6.718363671      1.050      1.251
REMARK  6 active torsions:
REMARK  status: ('A' for Active; 'I' for Inactive)
REMARK    1  A    between atoms: S1_2  and  C1_4 
REMARK    2  A    between atoms: S1_2  and  N2_18 
REMARK    3  A    between atoms: C1_4  and  C2_5 
REMARK    4  A    between atoms: N1_12  and  C9_13 
REMARK    5  A    between atoms: C9_13  and  C10_14 
REMARK    6  A    between atoms: N2_18  and  C13_20 
ROOT
HETATM    1  C2  UNL     1       7.177  -2.697   7.298  1.00  0.00     0.001 C 
HETATM    2  C3  UNL     1       7.148  -1.235   7.554  1.00  0.00     0.012 C 
HETATM    3  C4  UNL     1       5.933  -0.710   8.232  1.00  0.00     0.007 C 
HETATM    4  C5  UNL     1       5.094  -1.785   8.877  1.00  0.00     0.014 C 
HETATM    5  C6  UNL     1       5.957  -2.837   9.514  1.00  0.00     0.007 C 
HETATM    6  C7  UNL     1       7.073  -3.352   8.704  1.00  0.00     0.012 C 
HETATM    7  C8  UNL     1       4.199  -2.379   7.811  1.00  0.00     0.277 C 
HETATM    8  N1  UNL     1       4.900  -2.227   6.555  1.00  0.00     0.092 N 
HETATM    9  C12 UNL     1       5.973  -3.193   6.528  1.00  0.00     0.283 C 
ENDROOT
BRANCH   1  10
HETATM   10  C1  UNL     1       8.473  -3.205   6.788  1.00  0.00     0.174 C 
BRANCH  10  11
HETATM   11  S1  UNL     1       8.767  -3.339   5.100  1.00  0.00     0.227 S 
HETATM   12  O1  UNL     1       7.564  -2.720   4.368  1.00  0.00    -0.206 OA
HETATM   13  O2  UNL     1       8.585  -4.838   4.751  1.00  0.00    -0.206 OA
BRANCH  11  14
HETATM   14  N2  UNL     1      10.139  -2.712   4.413  1.00  0.00    -0.315 N 
ATOM     15  H2  UNL     1      10.053  -2.141   3.572  1.00  0.00     0.172 HD
BRANCH  14  16
HETATM   16  C13 UNL     1      11.417  -2.941   4.950  1.00  0.00     0.097 C 
HETATM   17  C14 UNL     1      12.497  -1.951   4.582  1.00  0.00     0.052 C 
HETATM   18  C15 UNL     1      13.834  -2.667   4.587  1.00  0.00     0.169 C 
HETATM   19  O4  UNL     1      13.910  -3.467   5.724  1.00  0.00    -0.391 OA
HETATM   20  C16 UNL     1      13.097  -4.585   5.574  1.00  0.00     0.169 C 
HETATM   21  C17 UNL     1      11.927  -4.363   4.645  1.00  0.00     0.052 C 
ENDBRANCH  14  16
ENDBRANCH  11  14
ENDBRANCH  10  11
ENDBRANCH   1  10
BRANCH   8  22
HETATM   22  C9  UNL     1       3.986  -2.322   5.473  1.00  0.00     0.306 C 
BRANCH  22  23
HETATM   23  C10 UNL     1       4.066  -3.575   4.657  1.00  0.00     0.173 A 
HETATM   24  C11 UNL     1       3.147  -3.906   3.563  1.00  0.00     0.201 A 
HETATM   25  O3  UNL     1       4.391  -3.339   3.313  1.00  0.00    -0.379 OA
ENDBRANCH  22  23
ENDBRANCH   8  22
TORSDOF 6
ENDMDL
MODEL 3
REMARK VINA RESULT: -6.626495209      1.434      1.724
REMARK  6 active torsions:
REMARK  status: ('A' for Active; 'I' for Inactive)
REMARK    1  A    between atoms: S1_2  and  C1_4 
REMARK    2  A    between atoms: S1_2  and  N2_18 
REMARK    3  A    between atoms: C1_4  and  C2_5 
REMARK    4  A    between atoms: N1_12  and  C9_13 
REMARK    5  A    between atoms: C9_13  and  C10_14 
REMARK    6  A    between atoms: N2_18  and  C13_20 
ROOT
HETATM    1  C2  UNL     1       6.209  -2.133   6.049  1.00  0.00     0.001 C 
HETATM    2  C3  UNL     1       6.919  -1.117   6.866  1.00  0.00     0.012 C 
HETATM    3  C4  UNL     1       6.228  -0.668   8.104  1.00  0.00     0.007 C 
HETATM    4  C5  UNL     1       5.098  -1.575   8.522  1.00  0.00     0.014 C 
HETATM    5  C6  UNL     1       5.450  -3.019   8.299  1.00  0.00     0.007 C 
HETATM    6  C7  UNL     1       6.039  -3.357   6.993  1.00  0.00     0.012 C 
HETATM    7  C8  UNL     1       3.868  -1.181   7.735  1.00  0.00     0.277 C 
HETATM    8  N1  UNL     1       4.340  -0.625   6.486  1.00  0.00     0.092 N 
HETATM    9  C12 UNL     1       4.806  -1.718   5.665  1.00  0.00     0.283 C 
ENDROOT
BRANCH   1  10
HETATM   10  C1  UNL     1       7.006  -2.685   4.927  1.00  0.00     0.174 C 
BRANCH  10  11
HETATM   11  S1  UNL     1       8.585  -3.312   5.190  1.00  0.00     0.227 S 
HETATM   12  O1  UNL     1       8.546  -4.817   4.873  1.00  0.00    -0.206 OA
HETATM   13  O2  UNL     1       8.784  -3.340   6.727  1.00  0.00    -0.206 OA
BRANCH  11  14
HETATM   14  N2  UNL     1       9.904  -2.676   4.413  1.00  0.00    -0.315 N 
ATOM     15  H2  UNL     1       9.760  -2.129   3.564  1.00  0.00     0.172 HD
BRANCH  14  16
HETATM   16  C13 UNL     1      11.213  -2.866   4.883  1.00  0.00     0.097 C 
HETATM   17  C14 UNL     1      12.263  -1.901   4.384  1.00  0.00     0.052 C 
HETATM   18  C15 UNL     1      13.601  -2.613   4.354  1.00  0.00     0.169 C 
HETATM   19  O4  UNL     1      13.753  -3.334   5.535  1.00  0.00    -0.391 OA
HETATM   20  C16 UNL     1      12.939  -4.461   5.511  1.00  0.00     0.169 C 
HETATM   21  C17 UNL     1      11.713  -4.304   4.644  1.00  0.00     0.052 C 
ENDBRANCH  14  16
ENDBRANCH  11  14
ENDBRANCH  10  11
ENDBRANCH   1  10
BRANCH   8  22
HETATM   22  C9  UNL     1       3.327   0.174   5.895  1.00  0.00     0.306 C 
BRANCH  22  23
HETATM   23  C10 UNL     1       3.122   1.527   6.503  1.00  0.00     0.173 A 
HETATM   24  C11 UNL     1       2.690   2.710   5.753  1.00  0.00     0.201 A 
HETATM   25  O3  UNL     1       1.783   1.947   6.479  1.00  0.00    -0.379 OA
ENDBRANCH  22  23
ENDBRANCH   8  22
TORSDOF 6
ENDMDL
MODEL 4
REMARK VINA RESULT: -6.449426495      1.972      3.252
REMARK  6 active torsions:
REMARK  status: ('A' for Active; 'I' for Inactive)
REMARK    1  A    between atoms: S1_2  and  C1_4 
REMARK    2  A    between atoms: S1_2  and  N2_18 
REMARK    3  A    between atoms: C1_4  and  C2_5 
REMARK    4  A    between atoms: N1_12  and  C9_13 
REMARK    5  A    between atoms: C9_13  and  C10_14 
REMARK    6  A    between atoms: N2_18  and  C13_20 
ROOT
HETATM    1  C2  UNL     1       7.265  -2.729   7.415  1.00  0.00     0.001 C 
HETATM    2  C3  UNL     1       6.025  -2.988   6.639  1.00  0.00     0.012 C 
HETATM    3  C4  UNL     1       4.808  -2.258   7.083  1.00  0.00     0.007 C 
HETATM    4  C5  UNL     1       5.104  -1.103   8.007  1.00  0.00     0.014 C 
HETATM    5  C6  UNL     1       6.346  -0.373   7.583  1.00  0.00     0.007 C 
HETATM    6  C7  UNL     1       7.520  -1.203   7.264  1.00  0.00     0.012 C 
HETATM    7  C8  UNL     1       5.241  -1.653   9.410  1.00  0.00     0.277 C 
HETATM    8  N1  UNL     1       5.708  -3.016   9.273  1.00  0.00     0.092 N 
HETATM    9  C12 UNL     1       7.102  -2.969   8.900  1.00  0.00     0.283 C 
ENDROOT
BRANCH   1  10
HETATM   10  C1  UNL     1       8.489  -3.331   6.834  1.00  0.00     0.174 C 
BRANCH  10  11
HETATM   11  S1  UNL     1       8.725  -3.384   5.133  1.00  0.00     0.227 S 
HETATM   12  O1  UNL     1       7.481  -2.765   4.471  1.00  0.00    -0.206 OA
HETATM   13  O2  UNL     1       8.566  -4.871   4.724  1.00  0.00    -0.206 OA
BRANCH  11  14
HETATM   14  N2  UNL     1      10.056  -2.693   4.427  1.00  0.00    -0.315 N 
ATOM     15  H2  UNL     1       9.929  -2.107   3.602  1.00  0.00     0.172 HD
BRANCH  14  16
HETATM   16  C13 UNL     1      11.354  -2.888   4.926  1.00  0.00     0.097 C 
HETATM   17  C14 UNL     1      12.408  -1.899   4.487  1.00  0.00     0.052 C 
HETATM   18  C15 UNL     1      13.753  -2.599   4.470  1.00  0.00     0.169 C 
HETATM   19  O4  UNL     1      13.879  -3.356   5.631  1.00  0.00    -0.391 OA
HETATM   20  C16 UNL     1      13.076  -4.488   5.550  1.00  0.00     0.169 C 
HETATM   21  C17 UNL     1      11.872  -4.313   4.655  1.00  0.00     0.052 C 
ENDBRANCH  14  16
ENDBRANCH  11  14
ENDBRANCH  10  11
ENDBRANCH   1  10
BRANCH   8  22
HETATM   22  C9  UNL     1       5.433  -3.745  10.459  1.00  0.00     0.306 C 
BRANCH  22  23
HETATM   23  C10 UNL     1       4.001  -3.771  10.895  1.00  0.00     0.173 A 
HETATM   24  C11 UNL     1       3.463  -4.688  11.905  1.00  0.00     0.201 A 
HETATM   25  O3  UNL     1       3.823  -3.386  12.233  1.00  0.00    -0.379 OA
ENDBRANCH  22  23
ENDBRANCH   8  22
TORSDOF 6
ENDMDL
MODEL 5
REMARK VINA RESULT: -6.369729127      1.136      1.260
REMARK  6 active torsions:
REMARK  status: ('A' for Active; 'I' for Inactive)
REMARK    1  A    between atoms: S1_2  and  C1_4 
REMARK    2  A    between atoms: S1_2  and  N2_18 
REMARK    3  A    between atoms: C1_4  and  C2_5 
REMARK    4  A    between atoms: N1_12  and  C9_13 
REMARK    5  A    between atoms: C9_13  and  C10_14 
REMARK    6  A    between atoms: N2_18  and  C13_20 
ROOT
HETATM    1  C2  UNL     1       6.307  -2.674   7.806  1.00  0.00     0.001 C 
HETATM    2  C3  UNL     1       6.199  -1.239   8.172  1.00  0.00     0.012 C 
HETATM    3  C4  UNL     1       5.029  -0.860   9.007  1.00  0.00     0.007 C 
HETATM    4  C5  UNL     1       4.345  -2.038   9.653  1.00  0.00     0.014 C 
HETATM    5  C6  UNL     1       5.346  -3.058  10.119  1.00  0.00     0.007 C 
HETATM    6  C7  UNL     1       6.403  -3.426   9.164  1.00  0.00     0.012 C 
HETATM    7  C8  UNL     1       3.386  -2.631   8.643  1.00  0.00     0.277 C 
HETATM    8  N1  UNL     1       3.935  -2.340   7.337  1.00  0.00     0.092 N 
HETATM    9  C12 UNL     1       5.066  -3.213   7.129  1.00  0.00     0.283 C 
ENDROOT
BRANCH   1  10
HETATM   10  C1  UNL     1       7.574  -3.041   7.131  1.00  0.00     0.174 C 
BRANCH  10  11
HETATM   11  S1  UNL     1       7.712  -2.983   5.419  1.00  0.00     0.227 S 
HETATM   12  O1  UNL     1       6.801  -1.848   4.918  1.00  0.00    -0.206 OA
HETATM   13  O2  UNL     1       6.955  -4.226   4.885  1.00  0.00    -0.206 OA
BRANCH  11  14
HETATM   14  N2  UNL     1       9.184  -2.797   4.679  1.00  0.00    -0.315 N 
ATOM     15  H2  UNL     1       9.259  -2.165   3.882  1.00  0.00     0.172 HD
BRANCH  14  16
HETATM   16  C13 UNL     1      10.331  -3.480   5.113  1.00  0.00     0.097 C 
HETATM   17  C14 UNL     1      11.665  -2.875   4.745  1.00  0.00     0.052 C 
HETATM   18  C15 UNL     1      12.684  -3.990   4.612  1.00  0.00     0.169 C 
HETATM   19  O4  UNL     1      12.533  -4.865   5.683  1.00  0.00    -0.391 OA
HETATM   20  C16 UNL     1      11.388  -5.635   5.510  1.00  0.00     0.169 C 
HETATM   21  C17 UNL     1      10.325  -4.959   4.678  1.00  0.00     0.052 C 
ENDBRANCH  14  16
ENDBRANCH  11  14
ENDBRANCH  10  11
ENDBRANCH   1  10
BRANCH   8  22
HETATM   22  C9  UNL     1       2.919  -2.437   6.350  1.00  0.00     0.306 C 
BRANCH  22  23
HETATM   23  C10 UNL     1       3.291  -1.966   4.979  1.00  0.00     0.173 A 
HETATM   24  C11 UNL     1       2.526  -0.979   4.210  1.00  0.00     0.201 A 
HETATM   25  O3  UNL     1       3.650  -0.610   4.939  1.00  0.00    -0.379 OA
ENDBRANCH  22  23
ENDBRANCH   8  22
TORSDOF 6
ENDMDL
