MODEL 1
REMARK VINA RESULT: -7.000640810      0.000      0.000
REMARK  6 active torsions:
REMARK  status: ('A' for Active; 'I' for Inactive)
REMARK    1  A    between atoms: C1_2  and  C2_3 
REMARK       I    between atoms: C1_2  and  N2_18 
REMARK    2  A    between atoms: C2_3  and  O2_4 
REMARK    3  A    between atoms: O2_4  and  C3_5 
REMARK    4  A    between atoms: C3_5  and  C4_7 
REMARK       I    between atoms: N1_11  and  C8_12 
REMARK    5  A    between atoms: C8_12  and  C9_14 
REMARK    6  A    between atoms: N2_18  and  C13_20 
ROOT
HETATM    1  C3  UNL     1       9.222  -3.609   5.565  1.00  0.00     0.265 C 
HETATM    2  O3  UNL     1       9.078  -2.847   6.549  1.00  0.00    -0.265 OA
ENDROOT
BRANCH   1   3
HETATM    3  O2  UNL     1       8.341  -3.505   4.510  1.00  0.00    -0.312 OA
BRANCH   3   4
HETATM    4  C2  UNL     1       6.952  -3.726   4.571  1.00  0.00     0.281 C 
BRANCH   4   5
HETATM    5  C1  UNL     1       6.202  -2.579   5.130  1.00  0.00     0.242 C 
HETATM    6  O1  UNL     1       5.704  -1.654   4.422  1.00  0.00    -0.271 OA
HETATM    7  N2  UNL     1       5.987  -2.445   6.543  1.00  0.00    -0.354 N 
ATOM      8  H2  UNL     1       6.367  -3.165   7.158  1.00  0.00     0.162 HD
BRANCH   7   9
HETATM    9  C13 UNL     1       5.269  -1.359   7.139  1.00  0.00     0.093 C 
HETATM   10  C14 UNL     1       5.900  -0.818   8.367  1.00  0.00     0.026 C 
HETATM   11  C15 UNL     1       5.353  -1.329   9.651  1.00  0.00     0.012 C 
HETATM   12  C16 UNL     1       5.141  -2.813   9.689  1.00  0.00     0.074 C 
HETATM   13  S1  UNL     1       3.827  -3.190   8.467  1.00  0.00    -0.167 SA
HETATM   14  C17 UNL     1       3.825  -1.764   7.315  1.00  0.00     0.099 C 
ENDBRANCH   7   9
ENDBRANCH   4   5
ENDBRANCH   3   4
ENDBRANCH   1   3
BRANCH   1  15
HETATM   15  C4  UNL     1      10.312  -4.585   5.556  1.00  0.00     0.103 C 
HETATM   16  C5  UNL     1      11.526  -4.029   4.806  1.00  0.00     0.018 C 
HETATM   17  C6  UNL     1      12.687  -4.883   5.267  1.00  0.00     0.021 C 
HETATM   18  C7  UNL     1      12.486  -6.274   4.797  1.00  0.00     0.126 C 
HETATM   19  N1  UNL     1      11.111  -6.699   4.655  1.00  0.00    -0.351 N 
HETATM   20  C8  UNL     1      10.881  -8.034   4.263  1.00  0.00     0.224 C 
HETATM   21  C12 UNL     1       9.955  -5.861   4.882  1.00  0.00     0.140 C 
HETATM   22  O4  UNL     1       9.720  -8.461   4.125  1.00  0.00    -0.273 OA
BRANCH  20  23
HETATM   23  C9  UNL     1      12.017  -8.939   4.013  1.00  0.00     0.078 A 
HETATM   24  C10 UNL     1      12.280  -9.354   2.582  1.00  0.00     0.015 A 
HETATM   25  C11 UNL     1      11.755 -10.335   3.545  1.00  0.00     0.015 A 
ENDBRANCH  20  23
ENDBRANCH   1  15
TORSDOF 6
ENDMDL
MODEL 2
REMARK VINA RESULT: -6.993387967      1.287      1.609
REMARK  6 active torsions:
REMARK  status: ('A' for Active; 'I' for Inactive)
REMARK    1  A    between atoms: C1_2  and  C2_3 
REMARK       I    between atoms: C1_2  and  N2_18 
REMARK    2  A    between atoms: C2_3  and  O2_4 
REMARK    3  A    between atoms: O2_4  and  C3_5 
REMARK    4  A    between atoms: C3_5  and  C4_7 
REMARK       I    between atoms: N1_11  and  C8_12 
REMARK    5  A    between atoms: C8_12  and  C9_14 
REMARK    6  A    between atoms: N2_18  and  C13_20 
ROOT
HETATM    1  C3  UNL     1       9.337  -3.457   5.451  1.00  0.00     0.265 C 
HETATM    2  O3  UNL     1       8.655  -3.325   4.409  1.00  0.00    -0.265 OA
ENDROOT
BRANCH   1   3
HETATM    3  O2  UNL     1       9.082  -2.627   6.522  1.00  0.00    -0.312 OA
BRANCH   3   4
HETATM    4  C2  UNL     1       8.285  -2.945   7.639  1.00  0.00     0.281 C 
BRANCH   4   5
HETATM    5  C1  UNL     1       6.905  -2.420   7.540  1.00  0.00     0.242 C 
HETATM    6  O1  UNL     1       6.477  -1.750   6.554  1.00  0.00    -0.271 OA
HETATM    7  N2  UNL     1       5.944  -2.647   8.583  1.00  0.00    -0.354 N 
ATOM      8  H2  UNL     1       6.238  -3.182   9.399  1.00  0.00     0.162 HD
BRANCH   7   9
HETATM    9  C13 UNL     1       4.596  -2.165   8.541  1.00  0.00     0.093 C 
HETATM   10  C14 UNL     1       4.393  -0.875   9.244  1.00  0.00     0.026 C 
HETATM   11  C15 UNL     1       3.868  -0.974  10.631  1.00  0.00     0.012 C 
HETATM   12  C16 UNL     1       4.535  -2.018  11.475  1.00  0.00     0.074 C 
HETATM   13  S1  UNL     1       4.121  -3.641  10.730  1.00  0.00    -0.167 SA
HETATM   14  C17 UNL     1       3.668  -3.268   8.993  1.00  0.00     0.099 C 
ENDBRANCH   7   9
ENDBRANCH   4   5
ENDBRANCH   3   4
ENDBRANCH   1   3
BRANCH   1  15
HETATM   15  C4  UNL     1      10.382  -4.479   5.511  1.00  0.00     0.103 C 
HETATM   16  C5  UNL     1      11.660  -3.984   4.825  1.00  0.00     0.018 C 
HETATM   17  C6  UNL     1      12.754  -4.884   5.357  1.00  0.00     0.021 C 
HETATM   18  C7  UNL     1      12.518  -6.269   4.888  1.00  0.00     0.126 C 
HETATM   19  N1  UNL     1      11.136  -6.636   4.673  1.00  0.00    -0.351 N 
HETATM   20  C8  UNL     1      10.869  -7.963   4.280  1.00  0.00     0.224 C 
HETATM   21  C12 UNL     1      10.007  -5.746   4.828  1.00  0.00     0.140 C 
HETATM   22  O4  UNL     1       9.699  -8.341   4.080  1.00  0.00    -0.273 OA
BRANCH  20  23
HETATM   23  C9  UNL     1      11.976  -8.920   4.101  1.00  0.00     0.078 A 
HETATM   24  C10 UNL     1      12.265  -9.401   2.696  1.00  0.00     0.015 A 
HETATM   25  C11 UNL     1      11.674 -10.322   3.679  1.00  0.00     0.015 A 
ENDBRANCH  20  23
ENDBRANCH   1  15
TORSDOF 6
ENDMDL
MODEL 3
REMARK VINA RESULT: -6.921704825      1.711      2.323
REMARK  6 active torsions:
REMARK  status: ('A' for Active; 'I' for Inactive)
REMARK    1  A    between atoms: C1_2  and  C2_3 
REMARK       I    between atoms: C1_2  and  N2_18 
REMARK    2  A    between atoms: C2_3  and  O2_4 
REMARK    3  A    between atoms: O2_4  and  C3_5 
REMARK    4  A    between atoms: C3_5  and  C4_7 
REMARK       I    between atoms: N1_11  and  C8_12 
REMARK    5  A    between atoms: C8_12  and  C9_14 
REMARK    6  A    between atoms: N2_18  and  C13_20 
ROOT
HETATM    1  C3  UNL     1       9.312  -3.596   5.451  1.00  0.00     0.265 C 
HETATM    2  O3  UNL     1       8.465  -3.623   4.529  1.00  0.00    -0.265 OA
ENDROOT
BRANCH   1   3
HETATM    3  O2  UNL     1       9.232  -2.597   6.398  1.00  0.00    -0.312 OA
BRANCH   3   4
HETATM    4  C2  UNL     1       8.314  -2.544   7.464  1.00  0.00     0.281 C 
BRANCH   4   5
HETATM    5  C1  UNL     1       7.101  -1.755   7.152  1.00  0.00     0.242 C 
HETATM    6  O1  UNL     1       6.837  -0.634   7.682  1.00  0.00    -0.271 OA
HETATM    7  N2  UNL     1       6.128  -2.223   6.206  1.00  0.00    -0.354 N 
ATOM      8  H2  UNL     1       6.294  -3.121   5.751  1.00  0.00     0.162 HD
BRANCH   7   9
HETATM    9  C13 UNL     1       4.939  -1.503   5.865  1.00  0.00     0.093 C 
HETATM   10  C14 UNL     1       3.733  -1.938   6.609  1.00  0.00     0.026 C 
HETATM   11  C15 UNL     1       2.849  -2.899   5.897  1.00  0.00     0.012 C 
HETATM   12  C16 UNL     1       3.572  -4.022   5.218  1.00  0.00     0.074 C 
HETATM   13  S1  UNL     1       4.575  -3.270   3.879  1.00  0.00    -0.167 SA
HETATM   14  C17 UNL     1       4.775  -1.513   4.363  1.00  0.00     0.099 C 
ENDBRANCH   7   9
ENDBRANCH   4   5
ENDBRANCH   3   4
ENDBRANCH   1   3
BRANCH   1  15
HETATM   15  C4  UNL     1      10.359  -4.616   5.505  1.00  0.00     0.103 C 
HETATM   16  C5  UNL     1      11.633  -4.118   4.817  1.00  0.00     0.018 C 
HETATM   17  C6  UNL     1      12.731  -5.016   5.343  1.00  0.00     0.021 C 
HETATM   18  C7  UNL     1      12.497  -6.401   4.873  1.00  0.00     0.126 C 
HETATM   19  N1  UNL     1      11.114  -6.770   4.662  1.00  0.00    -0.351 N 
HETATM   20  C8  UNL     1      10.849  -8.097   4.267  1.00  0.00     0.224 C 
HETATM   21  C12 UNL     1       9.984  -5.883   4.822  1.00  0.00     0.140 C 
HETATM   22  O4  UNL     1       9.680  -8.477   4.071  1.00  0.00    -0.273 OA
BRANCH  20  23
HETATM   23  C9  UNL     1      11.957  -9.051   4.083  1.00  0.00     0.078 A 
HETATM   24  C10 UNL     1      12.337  -9.418   2.665  1.00  0.00     0.015 A 
HETATM   25  C11 UNL     1      11.673 -10.409   3.525  1.00  0.00     0.015 A 
ENDBRANCH  20  23
ENDBRANCH   1  15
TORSDOF 6
ENDMDL
MODEL 4
REMARK VINA RESULT: -6.714170524      1.611      2.219
REMARK  6 active torsions:
REMARK  status: ('A' for Active; 'I' for Inactive)
REMARK    1  A    between atoms: C1_2  and  C2_3 
REMARK       I    between atoms: C1_2  and  N2_18 
REMARK    2  A    between atoms: C2_3  and  O2_4 
REMARK    3  A    between atoms: O2_4  and  C3_5 
REMARK    4  A    between atoms: C3_5  and  C4_7 
REMARK       I    between atoms: N1_11  and  C8_12 
REMARK    5  A    between atoms: C8_12  and  C9_14 
REMARK    6  A    between atoms: N2_18  and  C13_20 
ROOT
HETATM    1  C3  UNL     1       9.307  -3.574   5.440  1.00  0.00     0.265 C 
HETATM    2  O3  UNL     1       9.114  -2.944   4.374  1.00  0.00    -0.265 OA
ENDROOT
BRANCH   1   3
HETATM    3  O2  UNL     1       8.525  -3.281   6.536  1.00  0.00    -0.312 OA
BRANCH   3   4
HETATM    4  C2  UNL     1       7.688  -2.156   6.674  1.00  0.00     0.281 C 
BRANCH   4   5
HETATM    5  C1  UNL     1       6.289  -2.416   6.267  1.00  0.00     0.242 C 
HETATM    6  O1  UNL     1       5.822  -3.576   6.059  1.00  0.00    -0.271 OA
HETATM    7  N2  UNL     1       5.354  -1.343   6.080  1.00  0.00    -0.354 N 
ATOM      8  H2  UNL     1       5.680  -0.389   6.236  1.00  0.00     0.162 HD
BRANCH   7   9
HETATM    9  C13 UNL     1       3.990  -1.535   5.688  1.00  0.00     0.093 C 
HETATM   10  C14 UNL     1       3.487  -0.520   4.731  1.00  0.00     0.026 C 
HETATM   11  C15 UNL     1       2.716   0.602   5.329  1.00  0.00     0.012 C 
HETATM   12  C16 UNL     1       3.333   1.193   6.560  1.00  0.00     0.074 C 
HETATM   13  S1  UNL     1       3.288  -0.109   7.850  1.00  0.00    -0.167 SA
HETATM   14  C17 UNL     1       3.142  -1.688   6.929  1.00  0.00     0.099 C 
ENDBRANCH   7   9
ENDBRANCH   4   5
ENDBRANCH   3   4
ENDBRANCH   1   3
BRANCH   1  15
HETATM   15  C4  UNL     1      10.348  -4.600   5.498  1.00  0.00     0.103 C 
HETATM   16  C5  UNL     1      11.629  -4.106   4.818  1.00  0.00     0.018 C 
HETATM   17  C6  UNL     1      12.719  -5.011   5.349  1.00  0.00     0.021 C 
HETATM   18  C7  UNL     1      12.480  -6.394   4.873  1.00  0.00     0.126 C 
HETATM   19  N1  UNL     1      11.097  -6.755   4.653  1.00  0.00    -0.351 N 
HETATM   20  C8  UNL     1      10.828  -8.080   4.253  1.00  0.00     0.224 C 
HETATM   21  C12 UNL     1       9.971  -5.862   4.809  1.00  0.00     0.140 C 
HETATM   22  O4  UNL     1       9.658  -8.453   4.048  1.00  0.00    -0.273 OA
BRANCH  20  23
HETATM   23  C9  UNL     1      11.932  -9.039   4.073  1.00  0.00     0.078 A 
HETATM   24  C10 UNL     1      12.302  -9.424   2.657  1.00  0.00     0.015 A 
HETATM   25  C11 UNL     1      11.641 -10.403   3.534  1.00  0.00     0.015 A 
ENDBRANCH  20  23
ENDBRANCH   1  15
TORSDOF 6
ENDMDL
MODEL 5
REMARK VINA RESULT: -6.703725960      1.453      2.161
REMARK  6 active torsions:
REMARK  status: ('A' for Active; 'I' for Inactive)
REMARK    1  A    between atoms: C1_2  and  C2_3 
REMARK       I    between atoms: C1_2  and  N2_18 
REMARK    2  A    between atoms: C2_3  and  O2_4 
REMARK    3  A    between atoms: O2_4  and  C3_5 
REMARK    4  A    between atoms: C3_5  and  C4_7 
REMARK       I    between atoms: N1_11  and  C8_12 
REMARK    5  A    between atoms: C8_12  and  C9_14 
REMARK    6  A    between atoms: N2_18  and  C13_20 
ROOT
HETATM    1  C3  UNL     1       9.389  -3.500   5.489  1.00  0.00     0.265 C 
HETATM    2  O3  UNL     1       9.055  -2.983   4.398  1.00  0.00    -0.265 OA
ENDROOT
BRANCH   1   3
HETATM    3  O2  UNL     1       8.754  -3.089   6.642  1.00  0.00    -0.312 OA
BRANCH   3   4
HETATM    4  C2  UNL     1       7.562  -2.342   6.703  1.00  0.00     0.281 C 
BRANCH   4   5
HETATM    5  C1  UNL     1       6.750  -2.635   7.906  1.00  0.00     0.242 C 
HETATM    6  O1  UNL     1       7.140  -3.385   8.849  1.00  0.00    -0.271 OA
HETATM    7  N2  UNL     1       5.441  -2.072   8.079  1.00  0.00    -0.354 N 
ATOM      8  H2  UNL     1       5.081  -1.460   7.347  1.00  0.00     0.162 HD
BRANCH   7   9
HETATM    9  C13 UNL     1       4.613  -2.320   9.220  1.00  0.00     0.093 C 
HETATM   10  C14 UNL     1       3.601  -3.385   9.013  1.00  0.00     0.026 C 
HETATM   11  C15 UNL     1       2.237  -2.916   8.652  1.00  0.00     0.012 C 
HETATM   12  C16 UNL     1       2.206  -1.847   7.602  1.00  0.00     0.074 C 
HETATM   13  S1  UNL     1       3.002  -0.366   8.332  1.00  0.00    -0.167 SA
HETATM   14  C17 UNL     1       4.038  -1.008   9.701  1.00  0.00     0.099 C 
ENDBRANCH   7   9
ENDBRANCH   4   5
ENDBRANCH   3   4
ENDBRANCH   1   3
BRANCH   1  15
HETATM   15  C4  UNL     1      10.437  -4.520   5.519  1.00  0.00     0.103 C 
HETATM   16  C5  UNL     1      11.693  -4.024   4.796  1.00  0.00     0.018 C 
HETATM   17  C6  UNL     1      12.804  -4.921   5.295  1.00  0.00     0.021 C 
HETATM   18  C7  UNL     1      12.557  -6.307   4.834  1.00  0.00     0.126 C 
HETATM   19  N1  UNL     1      11.170  -6.676   4.660  1.00  0.00    -0.351 N 
HETATM   20  C8  UNL     1      10.894  -8.004   4.275  1.00  0.00     0.224 C 
HETATM   21  C12 UNL     1      10.045  -5.788   4.848  1.00  0.00     0.140 C 
HETATM   22  O4  UNL     1       9.720  -8.384   4.111  1.00  0.00    -0.273 OA
BRANCH  20  23
HETATM   23  C9  UNL     1      11.997  -8.959   4.065  1.00  0.00     0.078 A 
HETATM   24  C10 UNL     1      12.262  -9.420   2.648  1.00  0.00     0.015 A 
HETATM   25  C11 UNL     1      11.686 -10.355   3.628  1.00  0.00     0.015 A 
ENDBRANCH  20  23
ENDBRANCH   1  15
TORSDOF 6
ENDMDL
