MODEL 1
REMARK VINA RESULT: -6.642618016      0.000      0.000
REMARK  5 active torsions:
REMARK  status: ('A' for Active; 'I' for Inactive)
REMARK    1  A    between atoms: C5_6  and  C6_7 
REMARK    2  A    between atoms: C6_7  and  N1_8 
REMARK       I    between atoms: N1_8  and  C7_10 
REMARK    3  A    between atoms: C7_10  and  C8_12 
REMARK    4  A    between atoms: N2_18  and  C13_19 
REMARK    5  A    between atoms: C13_19  and  C14_20 
ROOT
HETATM    1  C8  UNL     1       6.704  -1.650   6.483  1.00  0.00     0.186 C 
HETATM    2  C9  UNL     1       6.028  -2.448   5.410  1.00  0.00     0.111 C 
HETATM    3  S1  UNL     1       4.684  -3.249   6.333  1.00  0.00    -0.141 SA
HETATM    4  C10 UNL     1       5.298  -2.723   7.991  1.00  0.00     0.148 C 
HETATM    5  C11 UNL     1       4.212  -2.669   8.991  1.00  0.00     0.066 C 
HETATM    6  C12 UNL     1       4.423  -1.516   9.924  1.00  0.00     0.275 C 
HETATM    7  N2  UNL     1       3.641  -0.407   9.456  1.00  0.00     0.093 N 
HETATM    8  C17 UNL     1       3.804  -0.289   8.021  1.00  0.00     0.316 C 
HETATM    9  C18 UNL     1       5.243  -0.302   7.682  1.00  0.00     0.090 C 
HETATM   10  N3  UNL     1       5.923  -1.521   7.647  1.00  0.00    -0.364 N 
ENDROOT
BRANCH   1  11
HETATM   11  C7  UNL     1       8.052  -2.269   6.742  1.00  0.00     0.241 C 
HETATM   12  N1  UNL     1       8.695  -3.030   5.738  1.00  0.00    -0.357 N 
ATOM     13  H1  UNL     1       8.237  -3.159   4.836  1.00  0.00     0.162 HD
HETATM   14  O2  UNL     1       8.631  -2.126   7.846  1.00  0.00    -0.271 OA
BRANCH  12  15
HETATM   15  C6  UNL     1       9.990  -3.629   5.968  1.00  0.00     0.155 C 
BRANCH  15  16
HETATM   16  C5  UNL     1      10.509  -4.208   4.673  1.00  0.00     0.143 C 
HETATM   17  C2  UNL     1      11.964  -3.798   4.447  1.00  0.00     0.014 C 
HETATM   18  C1  UNL     1      12.230  -2.406   4.935  1.00  0.00     0.012 C 
HETATM   19  C3  UNL     1      12.649  -4.851   5.329  1.00  0.00     0.033 C 
HETATM   20  C4  UNL     1      11.737  -6.026   5.130  1.00  0.00     0.168 C 
HETATM   21  O1  UNL     1      10.498  -5.573   4.779  1.00  0.00    -0.384 OA
ENDBRANCH  15  16
ENDBRANCH  12  15
ENDBRANCH   1  11
BRANCH   7  22
HETATM   22  C13 UNL     1       2.285  -0.579   9.861  1.00  0.00     0.277 C 
BRANCH  22  23
HETATM   23  C14 UNL     1       1.762   0.547  10.712  1.00  0.00     0.014 A 
HETATM   24  C15 UNL     1       2.364   0.845  12.034  1.00  0.00     0.007 A 
HETATM   25  C16 UNL     1       1.077   0.111  12.019  1.00  0.00     0.007 A 
ENDBRANCH  22  23
ENDBRANCH   7  22
TORSDOF 5
ENDMDL
MODEL 2
REMARK VINA RESULT: -6.584094207      1.502      2.035
REMARK  5 active torsions:
REMARK  status: ('A' for Active; 'I' for Inactive)
REMARK    1  A    between atoms: C5_6  and  C6_7 
REMARK    2  A    between atoms: C6_7  and  N1_8 
REMARK       I    between atoms: N1_8  and  C7_10 
REMARK    3  A    between atoms: C7_10  and  C8_12 
REMARK    4  A    between atoms: N2_18  and  C13_19 
REMARK    5  A    between atoms: C13_19  and  C14_20 
ROOT
HETATM    1  C8  UNL     1       6.508  -2.011   5.434  1.00  0.00     0.186 C 
HETATM    2  C9  UNL     1       5.260  -2.027   4.605  1.00  0.00     0.111 C 
HETATM    3  S1  UNL     1       4.048  -2.714   5.772  1.00  0.00    -0.141 SA
HETATM    4  C10 UNL     1       5.300  -3.165   7.050  1.00  0.00     0.148 C 
HETATM    5  C11 UNL     1       4.709  -3.232   8.402  1.00  0.00     0.066 C 
HETATM    6  C12 UNL     1       5.680  -2.716   9.419  1.00  0.00     0.275 C 
HETATM    7  N2  UNL     1       5.372  -1.339   9.679  1.00  0.00     0.093 N 
HETATM    8  C17 UNL     1       5.129  -0.665   8.420  1.00  0.00     0.316 C 
HETATM    9  C18 UNL     1       6.235  -0.952   7.481  1.00  0.00     0.090 C 
HETATM   10  N3  UNL     1       6.257  -2.175   6.809  1.00  0.00    -0.364 N 
ENDROOT
BRANCH   1  11
HETATM   11  C7  UNL     1       7.448  -3.046   4.877  1.00  0.00     0.241 C 
HETATM   12  N1  UNL     1       8.846  -2.901   5.033  1.00  0.00    -0.357 N 
ATOM     13  H1  UNL     1       9.214  -2.086   5.524  1.00  0.00     0.162 HD
HETATM   14  O2  UNL     1       7.016  -4.054   4.265  1.00  0.00    -0.271 OA
BRANCH  12  15
HETATM   15  C6  UNL     1       9.763  -3.887   4.507  1.00  0.00     0.155 C 
BRANCH  15  16
HETATM   16  C5  UNL     1      10.612  -4.428   5.633  1.00  0.00     0.143 C 
HETATM   17  C2  UNL     1      10.936  -5.903   5.398  1.00  0.00     0.014 C 
HETATM   18  C1  UNL     1       9.791  -6.628   4.758  1.00  0.00     0.012 C 
HETATM   19  C3  UNL     1      12.117  -5.738   4.431  1.00  0.00     0.033 C 
HETATM   20  C4  UNL     1      12.751  -4.488   4.967  1.00  0.00     0.168 C 
HETATM   21  O1  UNL     1      11.806  -3.759   5.630  1.00  0.00    -0.384 OA
ENDBRANCH  15  16
ENDBRANCH  12  15
ENDBRANCH   1  11
BRANCH   7  22
HETATM   22  C13 UNL     1       4.273  -1.262  10.585  1.00  0.00     0.277 C 
BRANCH  22  23
HETATM   23  C14 UNL     1       3.204  -0.295  10.155  1.00  0.00     0.014 A 
HETATM   24  C15 UNL     1       2.300   0.333  11.149  1.00  0.00     0.007 A 
HETATM   25  C16 UNL     1       1.761  -0.792  10.350  1.00  0.00     0.007 A 
ENDBRANCH  22  23
ENDBRANCH   7  22
TORSDOF 5
ENDMDL
MODEL 3
REMARK VINA RESULT: -6.316305473      1.020      1.108
REMARK  5 active torsions:
REMARK  status: ('A' for Active; 'I' for Inactive)
REMARK    1  A    between atoms: C5_6  and  C6_7 
REMARK    2  A    between atoms: C6_7  and  N1_8 
REMARK       I    between atoms: N1_8  and  C7_10 
REMARK    3  A    between atoms: C7_10  and  C8_12 
REMARK    4  A    between atoms: N2_18  and  C13_19 
REMARK    5  A    between atoms: C13_19  and  C14_20 
ROOT
HETATM    1  C8  UNL     1       6.807  -1.876   6.326  1.00  0.00     0.186 C 
HETATM    2  C9  UNL     1       6.173  -2.534   5.138  1.00  0.00     0.111 C 
HETATM    3  S1  UNL     1       4.690  -3.281   5.876  1.00  0.00    -0.141 SA
HETATM    4  C10 UNL     1       5.187  -2.929   7.617  1.00  0.00     0.148 C 
HETATM    5  C11 UNL     1       4.020  -2.854   8.520  1.00  0.00     0.066 C 
HETATM    6  C12 UNL     1       4.234  -1.793   9.556  1.00  0.00     0.275 C 
HETATM    7  N2  UNL     1       3.589  -0.591   9.111  1.00  0.00     0.093 N 
HETATM    8  C17 UNL     1       3.893  -0.385   7.708  1.00  0.00     0.316 C 
HETATM    9  C18 UNL     1       5.352  -0.497   7.495  1.00  0.00     0.090 C 
HETATM   10  N3  UNL     1       5.934  -1.764   7.424  1.00  0.00    -0.364 N 
ENDROOT
BRANCH   1  11
HETATM   11  C7  UNL     1       8.072  -2.624   6.651  1.00  0.00     0.241 C 
HETATM   12  N1  UNL     1       8.977  -2.980   5.624  1.00  0.00    -0.357 N 
ATOM     13  H1  UNL     1       8.765  -2.727   4.659  1.00  0.00     0.162 HD
HETATM   14  O2  UNL     1       8.350  -2.948   7.831  1.00  0.00    -0.271 OA
BRANCH  12  15
HETATM   15  C6  UNL     1      10.198  -3.696   5.919  1.00  0.00     0.155 C 
BRANCH  15  16
HETATM   16  C5  UNL     1      10.774  -4.247   4.635  1.00  0.00     0.143 C 
HETATM   17  C2  UNL     1      12.216  -3.774   4.449  1.00  0.00     0.014 C 
HETATM   18  C1  UNL     1      12.409  -2.374   4.947  1.00  0.00     0.012 C 
HETATM   19  C3  UNL     1      12.923  -4.800   5.345  1.00  0.00     0.033 C 
HETATM   20  C4  UNL     1      12.068  -6.012   5.119  1.00  0.00     0.168 C 
HETATM   21  O1  UNL     1      10.819  -5.612   4.737  1.00  0.00    -0.384 OA
ENDBRANCH  15  16
ENDBRANCH  12  15
ENDBRANCH   1  11
BRANCH   7  22
HETATM   22  C13 UNL     1       2.191  -0.675   9.382  1.00  0.00     0.277 C 
BRANCH  22  23
HETATM   23  C14 UNL     1       1.367   0.326   8.616  1.00  0.00     0.014 A 
HETATM   24  C15 UNL     1       0.722   1.468   9.306  1.00  0.00     0.007 A 
HETATM   25  C16 UNL     1      -0.136   0.317   8.943  1.00  0.00     0.007 A 
ENDBRANCH  22  23
ENDBRANCH   7  22
TORSDOF 5
ENDMDL
MODEL 4
REMARK VINA RESULT: -6.306315212      2.620      8.774
REMARK  5 active torsions:
REMARK  status: ('A' for Active; 'I' for Inactive)
REMARK    1  A    between atoms: C5_6  and  C6_7 
REMARK    2  A    between atoms: C6_7  and  N1_8 
REMARK       I    between atoms: N1_8  and  C7_10 
REMARK    3  A    between atoms: C7_10  and  C8_12 
REMARK    4  A    between atoms: N2_18  and  C13_19 
REMARK    5  A    between atoms: C13_19  and  C14_20 
ROOT
HETATM    1  C8  UNL     1       6.362  -1.937   7.690  1.00  0.00     0.186 C 
HETATM    2  C9  UNL     1       5.251  -2.942   7.716  1.00  0.00     0.111 C 
HETATM    3  S1  UNL     1       5.527  -3.842   6.162  1.00  0.00    -0.141 SA
HETATM    4  C10 UNL     1       6.812  -2.677   5.533  1.00  0.00     0.148 C 
HETATM    5  C11 UNL     1       7.719  -3.326   4.564  1.00  0.00     0.066 C 
HETATM    6  C12 UNL     1       9.116  -2.812   4.738  1.00  0.00     0.275 C 
HETATM    7  N2  UNL     1       9.835  -3.732   5.572  1.00  0.00     0.093 N 
HETATM    8  C17 UNL     1       8.996  -4.105   6.694  1.00  0.00     0.316 C 
HETATM    9  C18 UNL     1       8.449  -2.888   7.331  1.00  0.00     0.090 C 
HETATM   10  N3  UNL     1       7.358  -2.244   6.744  1.00  0.00    -0.364 N 
ENDROOT
BRANCH   1  11
HETATM   11  C7  UNL     1       5.752  -0.576   7.486  1.00  0.00     0.241 C 
HETATM   12  N1  UNL     1       4.372  -0.444   7.211  1.00  0.00    -0.357 N 
ATOM     13  H1  UNL     1       3.790  -1.280   7.149  1.00  0.00     0.162 HD
HETATM   14  O2  UNL     1       6.450   0.465   7.553  1.00  0.00    -0.271 OA
BRANCH  12  15
HETATM   15  C6  UNL     1       3.769   0.855   7.015  1.00  0.00     0.155 C 
BRANCH  15  16
HETATM   16  C5  UNL     1       2.606   0.726   6.058  1.00  0.00     0.143 C 
HETATM   17  C2  UNL     1       1.353   1.373   6.648  1.00  0.00     0.014 C 
HETATM   18  C1  UNL     1       1.273   1.176   8.132  1.00  0.00     0.012 C 
HETATM   19  C3  UNL     1       1.643   2.835   6.283  1.00  0.00     0.033 C 
HETATM   20  C4  UNL     1       2.345   2.666   4.967  1.00  0.00     0.168 C 
HETATM   21  O1  UNL     1       2.909   1.424   4.920  1.00  0.00    -0.384 OA
ENDBRANCH  15  16
ENDBRANCH  12  15
ENDBRANCH   1  11
BRANCH   7  22
HETATM   22  C13 UNL     1      10.265  -4.844   4.790  1.00  0.00     0.277 C 
BRANCH  22  23
HETATM   23  C14 UNL     1      11.314  -5.686   5.466  1.00  0.00     0.014 A 
HETATM   24  C15 UNL     1      12.744  -5.564   5.094  1.00  0.00     0.007 A 
HETATM   25  C16 UNL     1      11.996  -6.726   4.560  1.00  0.00     0.007 A 
ENDBRANCH  22  23
ENDBRANCH   7  22
TORSDOF 5
ENDMDL
MODEL 5
REMARK VINA RESULT: -6.188460079      3.593      8.680
REMARK  5 active torsions:
REMARK  status: ('A' for Active; 'I' for Inactive)
REMARK    1  A    between atoms: C5_6  and  C6_7 
REMARK    2  A    between atoms: C6_7  and  N1_8 
REMARK       I    between atoms: N1_8  and  C7_10 
REMARK    3  A    between atoms: C7_10  and  C8_12 
REMARK    4  A    between atoms: N2_18  and  C13_19 
REMARK    5  A    between atoms: C13_19  and  C14_20 
ROOT
HETATM    1  C8  UNL     1       4.599  -0.388   7.963  1.00  0.00     0.186 C 
HETATM    2  C9  UNL     1       4.112  -1.198   9.125  1.00  0.00     0.111 C 
HETATM    3  S1  UNL     1       4.601  -2.879   8.635  1.00  0.00    -0.141 SA
HETATM    4  C10 UNL     1       5.091  -2.406   6.921  1.00  0.00     0.148 C 
HETATM    5  C11 UNL     1       6.078  -3.345   6.349  1.00  0.00     0.066 C 
HETATM    6  C12 UNL     1       7.070  -2.605   5.505  1.00  0.00     0.275 C 
HETATM    7  N2  UNL     1       8.233  -2.340   6.304  1.00  0.00     0.093 N 
HETATM    8  C17 UNL     1       7.810  -1.867   7.608  1.00  0.00     0.316 C 
HETATM    9  C18 UNL     1       6.828  -0.773   7.445  1.00  0.00     0.090 C 
HETATM   10  N3  UNL     1       5.502  -1.089   7.143  1.00  0.00    -0.364 N 
ENDROOT
BRANCH   1  11
HETATM   11  C7  UNL     1       3.396   0.121   7.216  1.00  0.00     0.241 C 
HETATM   12  N1  UNL     1       3.530   0.632   5.904  1.00  0.00    -0.357 N 
ATOM     13  H1  UNL     1       4.452   0.654   5.467  1.00  0.00     0.162 HD
HETATM   14  O2  UNL     1       2.253   0.106   7.736  1.00  0.00    -0.271 OA
BRANCH  12  15
HETATM   15  C6  UNL     1       2.385   1.122   5.171  1.00  0.00     0.155 C 
BRANCH  15  16
HETATM   16  C5  UNL     1       2.598   2.579   4.830  1.00  0.00     0.143 C 
HETATM   17  C2  UNL     1       1.409   3.123   4.039  1.00  0.00     0.014 C 
HETATM   18  C1  UNL     1       0.846   2.095   3.105  1.00  0.00     0.012 C 
HETATM   19  C3  UNL     1       0.456   3.413   5.207  1.00  0.00     0.033 C 
HETATM   20  C4  UNL     1       1.428   3.839   6.268  1.00  0.00     0.168 C 
HETATM   21  O1  UNL     1       2.648   3.289   6.000  1.00  0.00    -0.384 OA
ENDBRANCH  15  16
ENDBRANCH  12  15
ENDBRANCH   1  11
BRANCH   7  22
HETATM   22  C13 UNL     1       9.046  -3.510   6.361  1.00  0.00     0.277 C 
BRANCH  22  23
HETATM   23  C14 UNL     1       9.568  -3.946   5.019  1.00  0.00     0.014 A 
HETATM   24  C15 UNL     1      10.407  -5.162   4.886  1.00  0.00     0.007 A 
HETATM   25  C16 UNL     1      11.095  -3.850   4.852  1.00  0.00     0.007 A 
ENDBRANCH  22  23
ENDBRANCH   7  22
TORSDOF 5
ENDMDL
