MODEL 1
REMARK VINA RESULT: -6.619972748      0.000      0.000
REMARK  4 active torsions:
REMARK  status: ('A' for Active; 'I' for Inactive)
REMARK    1  A    between atoms: N1_1  and  S1_4 
REMARK    2  A    between atoms: S1_4  and  C1_7 
REMARK    3  A    between atoms: C4_10  and  N2_11 
REMARK    4  A    between atoms: N2_11  and  C5_13 
ROOT
HETATM    1  C1  UNL     1      -3.788  -5.105  40.318  1.00  0.00     0.079 A 
HETATM    2  C2  UNL     1      -3.349  -5.801  41.423  1.00  0.00     0.027 A 
HETATM    3  C3  UNL     1      -2.831  -7.078  41.308  1.00  0.00     0.031 A 
HETATM    4  C4  UNL     1      -2.752  -7.665  40.060  1.00  0.00     0.049 A 
HETATM    5  C7  UNL     1      -3.196  -6.951  38.968  1.00  0.00     0.031 A 
HETATM    6  C8  UNL     1      -3.709  -5.690  39.070  1.00  0.00     0.027 A 
ENDROOT
BRANCH   4   7
HETATM    7  N2  UNL     1      -2.217  -8.989  39.921  1.00  0.00    -0.190 N 
ATOM      8  H2  UNL     1      -1.215  -9.169  39.990  1.00  0.00     0.184 HD
BRANCH   7   9
HETATM    9  C5  UNL     1      -3.070  -9.952  39.701  1.00  0.00     0.698 A 
HETATM   10  N3  UNL     1      -2.852 -11.182  39.226  1.00  0.00    -0.185 N 
HETATM   11  C6  UNL     1      -4.020 -11.843  39.162  1.00  0.00     0.215 A 
ATOM     12  H3  UNL     1      -1.943 -11.559  38.954  1.00  0.00     0.185 HD
HETATM   13  N4  UNL     1      -4.970 -11.005  39.605  1.00  0.00    -0.281 N 
HETATM   14  N5  UNL     1      -4.377  -9.870  39.926  1.00  0.00    -0.131 N 
ATOM     15  H4  UNL     1      -5.966 -11.209  39.681  1.00  0.00     0.188 HD
ATOM     16  H5  UNL     1      -4.855  -9.046  40.293  1.00  0.00     0.205 HD
ENDBRANCH   7   9
ENDBRANCH   4   7
BRANCH   1  17
HETATM   17  S1  UNL     1      -4.447  -3.476  40.480  1.00  0.00     0.256 S 
HETATM   18  O1  UNL     1      -5.617  -3.286  39.532  1.00  0.00    -0.201 OA
HETATM   19  O2  UNL     1      -3.354  -2.494  40.158  1.00  0.00    -0.201 OA
BRANCH  17  20
HETATM   20  N1  UNL     1      -4.952  -3.255  42.128  1.00  0.00    -0.324 N 
ATOM     21  H12 UNL     1      -5.080  -4.020  42.791  1.00  0.00     0.169 HD
ATOM     22  H11 UNL     1      -5.099  -2.266  42.329  1.00  0.00     0.169 HD
ENDBRANCH  17  20
ENDBRANCH   1  17
TORSDOF 4
ENDMDL
MODEL 2
REMARK VINA RESULT: -6.619017678      0.065      1.190
REMARK  4 active torsions:
REMARK  status: ('A' for Active; 'I' for Inactive)
REMARK    1  A    between atoms: N1_1  and  S1_4 
REMARK    2  A    between atoms: S1_4  and  C1_7 
REMARK    3  A    between atoms: C4_10  and  N2_11 
REMARK    4  A    between atoms: N2_11  and  C5_13 
ROOT
HETATM    1  C1  UNL     1      -3.791  -5.101  40.328  1.00  0.00     0.079 A 
HETATM    2  C2  UNL     1      -3.691  -5.723  39.103  1.00  0.00     0.027 A 
HETATM    3  C3  UNL     1      -3.188  -7.006  38.987  1.00  0.00     0.031 A 
HETATM    4  C4  UNL     1      -2.780  -7.676  40.124  1.00  0.00     0.049 A 
HETATM    5  C7  UNL     1      -2.890  -7.036  41.340  1.00  0.00     0.031 A 
HETATM    6  C8  UNL     1      -3.385  -5.770  41.465  1.00  0.00     0.027 A 
ENDROOT
BRANCH   4   7
HETATM    7  N2  UNL     1      -2.256  -9.008  40.025  1.00  0.00    -0.190 N 
ATOM      8  H2  UNL     1      -1.266  -9.204  40.170  1.00  0.00     0.184 HD
BRANCH   7   9
HETATM    9  C5  UNL     1      -3.105  -9.958  39.740  1.00  0.00     0.698 A 
HETATM   10  N3  UNL     1      -2.882 -11.149  39.176  1.00  0.00    -0.185 N 
HETATM   11  C6  UNL     1      -4.046 -11.811  39.070  1.00  0.00     0.215 A 
ATOM     12  H3  UNL     1      -1.972 -11.501  38.875  1.00  0.00     0.185 HD
HETATM   13  N4  UNL     1      -4.999 -11.013  39.576  1.00  0.00    -0.281 N 
HETATM   14  N5  UNL     1      -4.412  -9.900  39.975  1.00  0.00    -0.131 N 
ATOM     15  H4  UNL     1      -5.994 -11.228  39.641  1.00  0.00     0.188 HD
ATOM     16  H5  UNL     1      -4.892  -9.108  40.403  1.00  0.00     0.205 HD
ENDBRANCH   7   9
ENDBRANCH   4   7
BRANCH   1  17
HETATM   17  S1  UNL     1      -4.436  -3.464  40.460  1.00  0.00     0.256 S 
HETATM   18  O1  UNL     1      -5.619  -3.289  39.525  1.00  0.00    -0.201 OA
HETATM   19  O2  UNL     1      -3.341  -2.499  40.096  1.00  0.00    -0.201 OA
BRANCH  17  20
HETATM   20  N1  UNL     1      -4.913  -3.198  42.109  1.00  0.00    -0.324 N 
ATOM     21  H12 UNL     1      -5.088  -3.948  42.778  1.00  0.00     0.169 HD
ATOM     22  H11 UNL     1      -4.990  -2.200  42.305  1.00  0.00     0.169 HD
ENDBRANCH  17  20
ENDBRANCH   1  17
TORSDOF 4
ENDMDL
MODEL 3
REMARK VINA RESULT: -6.596467662      4.474      8.066
REMARK  4 active torsions:
REMARK  status: ('A' for Active; 'I' for Inactive)
REMARK    1  A    between atoms: N1_1  and  S1_4 
REMARK    2  A    between atoms: S1_4  and  C1_7 
REMARK    3  A    between atoms: C4_10  and  N2_11 
REMARK    4  A    between atoms: N2_11  and  C5_13 
ROOT
HETATM    1  C1  UNL     1      -5.008  -4.828  42.307  1.00  0.00     0.079 A 
HETATM    2  C2  UNL     1      -5.737  -5.250  43.397  1.00  0.00     0.027 A 
HETATM    3  C3  UNL     1      -6.058  -4.384  44.426  1.00  0.00     0.031 A 
HETATM    4  C4  UNL     1      -5.640  -3.069  44.356  1.00  0.00     0.049 A 
HETATM    5  C7  UNL     1      -4.913  -2.666  43.256  1.00  0.00     0.031 A 
HETATM    6  C8  UNL     1      -4.590  -3.514  42.235  1.00  0.00     0.027 A 
ENDROOT
BRANCH   4   7
HETATM    7  N2  UNL     1      -5.965  -2.154  45.413  1.00  0.00    -0.190 N 
ATOM      8  H2  UNL     1      -5.390  -2.084  46.252  1.00  0.00     0.184 HD
BRANCH   7   9
HETATM    9  C5  UNL     1      -7.029  -1.416  45.250  1.00  0.00     0.698 A 
HETATM   10  N3  UNL     1      -7.250  -0.436  44.368  1.00  0.00    -0.185 N 
HETATM   11  C6  UNL     1      -8.487   0.054  44.556  1.00  0.00     0.215 A 
ATOM     12  H3  UNL     1      -6.586  -0.111  43.665  1.00  0.00     0.185 HD
HETATM   13  N4  UNL     1      -9.034  -0.636  45.568  1.00  0.00    -0.281 N 
HETATM   14  N5  UNL     1      -8.139  -1.518  45.974  1.00  0.00    -0.131 N 
ATOM     15  H4  UNL     1      -9.969  -0.503  45.954  1.00  0.00     0.188 HD
ATOM     16  H5  UNL     1      -8.279  -2.183  46.735  1.00  0.00     0.205 HD
ENDBRANCH   7   9
ENDBRANCH   4   7
BRANCH   1  17
HETATM   17  S1  UNL     1      -4.605  -5.945  41.002  1.00  0.00     0.256 S 
HETATM   18  O1  UNL     1      -3.121  -6.264  41.023  1.00  0.00    -0.201 OA
HETATM   19  O2  UNL     1      -4.977  -5.296  39.697  1.00  0.00    -0.201 OA
BRANCH  17  20
HETATM   20  N1  UNL     1      -5.545  -7.391  41.214  1.00  0.00    -0.324 N 
ATOM     21  H12 UNL     1      -6.140  -7.569  42.024  1.00  0.00     0.169 HD
ATOM     22  H11 UNL     1      -5.416  -8.023  40.424  1.00  0.00     0.169 HD
ENDBRANCH  17  20
ENDBRANCH   1  17
TORSDOF 4
ENDMDL
MODEL 4
REMARK VINA RESULT: -6.559143055      4.235      7.893
REMARK  4 active torsions:
REMARK  status: ('A' for Active; 'I' for Inactive)
REMARK    1  A    between atoms: N1_1  and  S1_4 
REMARK    2  A    between atoms: S1_4  and  C1_7 
REMARK    3  A    between atoms: C4_10  and  N2_11 
REMARK    4  A    between atoms: N2_11  and  C5_13 
ROOT
HETATM    1  C1  UNL     1      -4.923  -5.091  42.084  1.00  0.00     0.079 A 
HETATM    2  C2  UNL     1      -4.417  -3.816  41.956  1.00  0.00     0.027 A 
HETATM    3  C3  UNL     1      -4.621  -2.860  42.935  1.00  0.00     0.031 A 
HETATM    4  C4  UNL     1      -5.345  -3.194  44.063  1.00  0.00     0.049 A 
HETATM    5  C7  UNL     1      -5.841  -4.475  44.172  1.00  0.00     0.031 A 
HETATM    6  C8  UNL     1      -5.647  -5.425  43.212  1.00  0.00     0.027 A 
ENDROOT
BRANCH   4   7
HETATM    7  N2  UNL     1      -5.566  -2.216  45.090  1.00  0.00    -0.190 N 
ATOM      8  H2  UNL     1      -4.872  -2.040  45.817  1.00  0.00     0.184 HD
BRANCH   7   9
HETATM    9  C5  UNL     1      -6.695  -1.562  45.051  1.00  0.00     0.698 A 
HETATM   10  N3  UNL     1      -7.115  -0.655  44.164  1.00  0.00    -0.185 N 
HETATM   11  C6  UNL     1      -8.345  -0.239  44.509  1.00  0.00     0.215 A 
ATOM     12  H3  UNL     1      -6.587  -0.330  43.354  1.00  0.00     0.185 HD
HETATM   13  N4  UNL     1      -8.685  -0.901  45.625  1.00  0.00    -0.281 N 
HETATM   14  N5  UNL     1      -7.677  -1.695  45.936  1.00  0.00    -0.131 N 
ATOM     15  H4  UNL     1      -9.562  -0.809  46.138  1.00  0.00     0.188 HD
ATOM     16  H5  UNL     1      -7.655  -2.320  46.742  1.00  0.00     0.205 HD
ENDBRANCH   7   9
ENDBRANCH   4   7
BRANCH   1  17
HETATM   17  S1  UNL     1      -4.655  -6.300  40.827  1.00  0.00     0.256 S 
HETATM   18  O1  UNL     1      -3.169  -6.477  40.578  1.00  0.00    -0.201 OA
HETATM   19  O2  UNL     1      -5.338  -5.830  39.572  1.00  0.00    -0.201 OA
BRANCH  17  20
HETATM   20  N1  UNL     1      -5.372  -7.794  41.348  1.00  0.00    -0.324 N 
ATOM     21  H12 UNL     1      -4.945  -8.710  41.204  1.00  0.00     0.169 HD
ATOM     22  H11 UNL     1      -6.265  -7.623  41.810  1.00  0.00     0.169 HD
ENDBRANCH  17  20
ENDBRANCH   1  17
TORSDOF 4
ENDMDL
MODEL 5
REMARK VINA RESULT: -6.516791447      3.227      4.111
REMARK  4 active torsions:
REMARK  status: ('A' for Active; 'I' for Inactive)
REMARK    1  A    between atoms: N1_1  and  S1_4 
REMARK    2  A    between atoms: S1_4  and  C1_7 
REMARK    3  A    between atoms: C4_10  and  N2_11 
REMARK    4  A    between atoms: N2_11  and  C5_13 
ROOT
HETATM    1  C1  UNL     1      -5.331  -3.696  43.648  1.00  0.00     0.079 A 
HETATM    2  C2  UNL     1      -4.359  -3.448  42.704  1.00  0.00     0.027 A 
HETATM    3  C3  UNL     1      -3.716  -4.480  42.046  1.00  0.00     0.031 A 
HETATM    4  C4  UNL     1      -4.059  -5.786  42.342  1.00  0.00     0.049 A 
HETATM    5  C7  UNL     1      -5.035  -6.012  43.288  1.00  0.00     0.031 A 
HETATM    6  C8  UNL     1      -5.675  -5.000  43.944  1.00  0.00     0.027 A 
ENDROOT
BRANCH   4   7
HETATM    7  N2  UNL     1      -3.403  -6.871  41.668  1.00  0.00    -0.190 N 
ATOM      8  H2  UNL     1      -2.793  -7.518  42.168  1.00  0.00     0.184 HD
BRANCH   7   9
HETATM    9  C5  UNL     1      -3.625  -6.992  40.387  1.00  0.00     0.698 A 
HETATM   10  N3  UNL     1      -2.758  -6.931  39.371  1.00  0.00    -0.185 N 
HETATM   11  C6  UNL     1      -3.421  -7.110  38.217  1.00  0.00     0.215 A 
ATOM     12  H3  UNL     1      -1.754  -6.773  39.459  1.00  0.00     0.185 HD
HETATM   13  N4  UNL     1      -4.714  -7.284  38.529  1.00  0.00    -0.281 N 
HETATM   14  N5  UNL     1      -4.817  -7.209  39.843  1.00  0.00    -0.131 N 
ATOM     15  H4  UNL     1      -5.477  -7.445  37.872  1.00  0.00     0.188 HD
ATOM     16  H5  UNL     1      -5.688  -7.305  40.366  1.00  0.00     0.205 HD
ENDBRANCH   7   9
ENDBRANCH   4   7
BRANCH   1  17
HETATM   17  S1  UNL     1      -6.143  -2.368  44.480  1.00  0.00     0.256 S 
HETATM   18  O1  UNL     1      -7.208  -2.909  45.417  1.00  0.00    -0.201 OA
HETATM   19  O2  UNL     1      -6.770  -1.479  43.442  1.00  0.00    -0.201 OA
BRANCH  17  20
HETATM   20  N1  UNL     1      -4.948  -1.469  45.363  1.00  0.00    -0.324 N 
ATOM     21  H12 UNL     1      -5.140  -0.969  46.232  1.00  0.00     0.169 HD
ATOM     22  H11 UNL     1      -4.044  -1.514  44.894  1.00  0.00     0.169 HD
ENDBRANCH  17  20
ENDBRANCH   1  17
TORSDOF 4
ENDMDL
