MODEL 1
REMARK VINA RESULT: -7.654765665      0.000      0.000
REMARK  5 active torsions:
REMARK  status: ('A' for Active; 'I' for Inactive)
REMARK    1  A    between atoms: C5_8  and  C6_9 
REMARK    2  A    between atoms: C6_9  and  C7_10 
REMARK    3  A    between atoms: C11_14  and  C12_15 
REMARK    4  A    between atoms: C12_15  and  O1_16 
REMARK    5  A    between atoms: C12_15  and  O2_18 
ROOT
HETATM    1  C1  UNL     1      -3.748 -11.363  39.449  1.00  0.00     0.063 C 
HETATM    2  C2  UNL     1      -3.659 -10.052  39.560  1.00  0.00     0.097 A 
HETATM    3  N1  UNL     1      -4.123  -9.107  38.709  1.00  0.00    -0.333 N 
ATOM      4  H1  UNL     1      -4.619  -9.307  37.840  1.00  0.00     0.168 HD
HETATM    5  C3  UNL     1      -3.845  -7.871  39.156  1.00  0.00     0.142 A 
HETATM    6  C4  UNL     1      -4.201  -6.649  38.486  1.00  0.00     0.120 C 
HETATM    7  N2  UNL     1      -4.477  -5.658  37.964  1.00  0.00    -0.190 NA
HETATM    8  C5  UNL     1      -3.174  -8.035  40.347  1.00  0.00     0.072 A 
HETATM    9  N3  UNL     1      -3.075  -9.346  40.567  1.00  0.00    -0.341 N 
ATOM     10  H3  UNL     1      -2.623  -9.763  41.380  1.00  0.00     0.167 HD
ENDROOT
BRANCH   8  11
HETATM   11  C6  UNL     1      -2.709  -7.085  41.136  1.00  0.00     0.044 C 
BRANCH  11  12
HETATM   12  C7  UNL     1      -3.563  -6.242  41.958  1.00  0.00    -0.033 A 
HETATM   13  C8  UNL     1      -4.393  -6.840  42.884  1.00  0.00     0.011 A 
HETATM   14  C9  UNL     1      -5.235  -6.114  43.704  1.00  0.00     0.002 A 
HETATM   15  C10 UNL     1      -5.248  -4.734  43.594  1.00  0.00     0.012 A 
HETATM   16  C11 UNL     1      -4.428  -4.097  42.675  1.00  0.00    -0.003 A 
HETATM   17  C13 UNL     1      -3.595  -4.866  41.868  1.00  0.00     0.023 A 
BRANCH  16  18
HETATM   18  C12 UNL     1      -4.476  -2.625  42.592  1.00  0.00     0.288 C 
BRANCH  18  19
HETATM   19  O1  UNL     1      -5.790  -2.219  42.864  1.00  0.00    -0.367 OA
ATOM     20  H1  UNL     1      -6.069  -1.640  42.164  1.00  0.00     0.213 HD
ENDBRANCH  18  19
BRANCH  18  21
HETATM   21  O2  UNL     1      -4.143  -2.136  41.341  1.00  0.00    -0.367 OA
ATOM     22  H2  UNL     1      -3.207  -2.119  41.180  1.00  0.00     0.213 HD
ENDBRANCH  18  21
ENDBRANCH  16  18
ENDBRANCH  11  12
ENDBRANCH   8  11
TORSDOF 5
ENDMDL
MODEL 2
REMARK VINA RESULT: -7.533733147      5.020      7.859
REMARK  5 active torsions:
REMARK  status: ('A' for Active; 'I' for Inactive)
REMARK    1  A    between atoms: C5_8  and  C6_9 
REMARK    2  A    between atoms: C6_9  and  C7_10 
REMARK    3  A    between atoms: C11_14  and  C12_15 
REMARK    4  A    between atoms: C12_15  and  O1_16 
REMARK    5  A    between atoms: C12_15  and  O2_18 
ROOT
HETATM    1  C1  UNL     1      -9.042   1.089  43.800  1.00  0.00     0.063 C 
HETATM    2  C2  UNL     1      -8.414   0.108  44.421  1.00  0.00     0.097 A 
HETATM    3  N1  UNL     1      -8.837  -0.614  45.485  1.00  0.00    -0.333 N 
ATOM      4  H1  UNL     1      -9.733  -0.479  45.954  1.00  0.00     0.168 HD
HETATM    5  C3  UNL     1      -7.924  -1.532  45.843  1.00  0.00     0.142 A 
HETATM    6  C4  UNL     1      -8.067  -2.459  46.934  1.00  0.00     0.120 C 
HETATM    7  N2  UNL     1      -8.162  -3.210  47.805  1.00  0.00    -0.190 NA
HETATM    8  C5  UNL     1      -6.872  -1.390  44.968  1.00  0.00     0.072 A 
HETATM    9  N3  UNL     1      -7.188  -0.404  44.128  1.00  0.00    -0.341 N 
ATOM     10  H3  UNL     1      -6.591  -0.078  43.368  1.00  0.00     0.167 HD
ENDROOT
BRANCH   8  11
HETATM   11  C6  UNL     1      -5.752  -2.088  44.947  1.00  0.00     0.044 C 
BRANCH  11  12
HETATM   12  C7  UNL     1      -5.481  -3.132  43.971  1.00  0.00    -0.033 A 
HETATM   13  C8  UNL     1      -5.699  -4.447  44.328  1.00  0.00     0.011 A 
HETATM   14  C9  UNL     1      -5.467  -5.499  43.464  1.00  0.00     0.002 A 
HETATM   15  C10 UNL     1      -4.999  -5.226  42.190  1.00  0.00     0.012 A 
HETATM   16  C11 UNL     1      -4.767  -3.917  41.795  1.00  0.00    -0.003 A 
HETATM   17  C13 UNL     1      -5.013  -2.886  42.697  1.00  0.00     0.023 A 
BRANCH  16  18
HETATM   18  C12 UNL     1      -4.267  -3.673  40.429  1.00  0.00     0.288 C 
BRANCH  18  19
HETATM   19  O1  UNL     1      -3.559  -2.462  40.438  1.00  0.00    -0.367 OA
ATOM     20  H1  UNL     1      -2.792  -2.575  40.988  1.00  0.00     0.213 HD
ENDBRANCH  18  19
BRANCH  18  21
HETATM   21  O2  UNL     1      -5.275  -3.554  39.489  1.00  0.00    -0.367 OA
ATOM     22  H2  UNL     1      -5.937  -2.915  39.725  1.00  0.00     0.213 HD
ENDBRANCH  18  21
ENDBRANCH  16  18
ENDBRANCH  11  12
ENDBRANCH   8  11
TORSDOF 5
ENDMDL
MODEL 3
REMARK VINA RESULT: -7.392389748      2.637      3.557
REMARK  5 active torsions:
REMARK  status: ('A' for Active; 'I' for Inactive)
REMARK    1  A    between atoms: C5_8  and  C6_9 
REMARK    2  A    between atoms: C6_9  and  C7_10 
REMARK    3  A    between atoms: C11_14  and  C12_15 
REMARK    4  A    between atoms: C12_15  and  O1_16 
REMARK    5  A    between atoms: C12_15  and  O2_18 
ROOT
HETATM    1  C1  UNL     1       0.837  -7.282  36.852  1.00  0.00     0.063 C 
HETATM    2  C2  UNL     1      -0.360  -7.805  37.033  1.00  0.00     0.097 A 
HETATM    3  N1  UNL     1      -0.901  -8.888  36.426  1.00  0.00    -0.333 N 
ATOM      4  H1  UNL     1      -0.423  -9.453  35.723  1.00  0.00     0.168 HD
HETATM    5  C3  UNL     1      -2.147  -9.121  36.868  1.00  0.00     0.142 A 
HETATM    6  C4  UNL     1      -2.996 -10.195  36.423  1.00  0.00     0.120 C 
HETATM    7  N2  UNL     1      -3.690 -11.050  36.079  1.00  0.00    -0.190 NA
HETATM    8  C5  UNL     1      -2.414  -8.144  37.799  1.00  0.00     0.072 A 
HETATM    9  N3  UNL     1      -1.332  -7.370  37.881  1.00  0.00    -0.341 N 
ATOM     10  H3  UNL     1      -1.244  -6.562  38.496  1.00  0.00     0.167 HD
ENDROOT
BRANCH   8  11
HETATM   11  C6  UNL     1      -3.526  -7.987  38.493  1.00  0.00     0.044 C 
BRANCH  11  12
HETATM   12  C7  UNL     1      -3.633  -7.095  39.637  1.00  0.00    -0.033 A 
HETATM   13  C8  UNL     1      -3.339  -7.588  40.892  1.00  0.00     0.011 A 
HETATM   14  C9  UNL     1      -3.414  -6.810  42.031  1.00  0.00     0.002 A 
HETATM   15  C10 UNL     1      -3.801  -5.487  41.912  1.00  0.00     0.012 A 
HETATM   16  C11 UNL     1      -4.105  -4.956  40.668  1.00  0.00    -0.003 A 
HETATM   17  C13 UNL     1      -4.016  -5.773  39.545  1.00  0.00     0.023 A 
BRANCH  16  18
HETATM   18  C12 UNL     1      -4.514  -3.541  40.588  1.00  0.00     0.288 C 
BRANCH  18  19
HETATM   19  O1  UNL     1      -5.444  -3.417  39.545  1.00  0.00    -0.367 OA
ATOM     20  H1  UNL     1      -6.276  -3.158  39.923  1.00  0.00     0.213 HD
ENDBRANCH  18  19
BRANCH  18  21
HETATM   21  O2  UNL     1      -3.465  -2.682  40.309  1.00  0.00    -0.367 OA
ATOM     22  H2  UNL     1      -3.748  -1.837  39.980  1.00  0.00     0.213 HD
ENDBRANCH  18  21
ENDBRANCH  16  18
ENDBRANCH  11  12
ENDBRANCH   8  11
TORSDOF 5
ENDMDL
MODEL 4
REMARK VINA RESULT: -7.376134411      1.084      1.189
REMARK  5 active torsions:
REMARK  status: ('A' for Active; 'I' for Inactive)
REMARK    1  A    between atoms: C5_8  and  C6_9 
REMARK    2  A    between atoms: C6_9  and  C7_10 
REMARK    3  A    between atoms: C11_14  and  C12_15 
REMARK    4  A    between atoms: C12_15  and  O1_16 
REMARK    5  A    between atoms: C12_15  and  O2_18 
ROOT
HETATM    1  C1  UNL     1      -3.129 -12.032  39.057  1.00  0.00     0.063 C 
HETATM    2  C2  UNL     1      -3.170 -10.718  39.169  1.00  0.00     0.097 A 
HETATM    3  N1  UNL     1      -3.782  -9.827  38.353  1.00  0.00    -0.333 N 
ATOM      4  H1  UNL     1      -4.307 -10.080  37.516  1.00  0.00     0.168 HD
HETATM    5  C3  UNL     1      -3.607  -8.569  38.789  1.00  0.00     0.142 A 
HETATM    6  C4  UNL     1      -4.129  -7.391  38.148  1.00  0.00     0.120 C 
HETATM    7  N2  UNL     1      -4.540  -6.435  37.649  1.00  0.00    -0.190 NA
HETATM    8  C5  UNL     1      -2.851  -8.660  39.935  1.00  0.00     0.072 A 
HETATM    9  N3  UNL     1      -2.602  -9.953  40.142  1.00  0.00    -0.341 N 
ATOM     10  H3  UNL     1      -2.059 -10.320  40.923  1.00  0.00     0.167 HD
ENDROOT
BRANCH   8  11
HETATM   11  C6  UNL     1      -2.439  -7.666  40.699  1.00  0.00     0.044 C 
BRANCH  11  12
HETATM   12  C7  UNL     1      -3.346  -6.759  41.386  1.00  0.00    -0.033 A 
HETATM   13  C8  UNL     1      -3.942  -7.178  42.557  1.00  0.00     0.011 A 
HETATM   14  C9  UNL     1      -4.815  -6.381  43.272  1.00  0.00     0.002 A 
HETATM   15  C10 UNL     1      -5.105  -5.114  42.796  1.00  0.00     0.012 A 
HETATM   16  C11 UNL     1      -4.526  -4.658  41.622  1.00  0.00    -0.003 A 
HETATM   17  C13 UNL     1      -3.651  -5.493  40.932  1.00  0.00     0.023 A 
BRANCH  16  18
HETATM   18  C12 UNL     1      -4.863  -3.301  41.152  1.00  0.00     0.288 C 
BRANCH  18  19
HETATM   19  O1  UNL     1      -5.317  -3.403  39.828  1.00  0.00    -0.367 OA
ATOM     20  H1  UNL     1      -4.561  -3.532  39.268  1.00  0.00     0.213 HD
ENDBRANCH  18  19
BRANCH  18  21
HETATM   21  O2  UNL     1      -3.784  -2.436  41.152  1.00  0.00    -0.367 OA
ATOM     22  H2  UNL     1      -3.919  -1.666  41.692  1.00  0.00     0.213 HD
ENDBRANCH  18  21
ENDBRANCH  16  18
ENDBRANCH  11  12
ENDBRANCH   8  11
TORSDOF 5
ENDMDL
MODEL 5
REMARK VINA RESULT: -7.343820651      5.038      7.846
REMARK  5 active torsions:
REMARK  status: ('A' for Active; 'I' for Inactive)
REMARK    1  A    between atoms: C5_8  and  C6_9 
REMARK    2  A    between atoms: C6_9  and  C7_10 
REMARK    3  A    between atoms: C11_14  and  C12_15 
REMARK    4  A    between atoms: C12_15  and  O1_16 
REMARK    5  A    between atoms: C12_15  and  O2_18 
ROOT
HETATM    1  C1  UNL     1      -9.013   0.991  43.897  1.00  0.00     0.063 C 
HETATM    2  C2  UNL     1      -7.895   0.448  44.340  1.00  0.00     0.097 A 
HETATM    3  N1  UNL     1      -6.764   1.073  44.743  1.00  0.00    -0.333 N 
ATOM      4  H1  UNL     1      -6.636   2.085  44.751  1.00  0.00     0.168 HD
HETATM    5  C3  UNL     1      -5.831   0.188  45.130  1.00  0.00     0.142 A 
HETATM    6  C4  UNL     1      -4.518   0.526  45.612  1.00  0.00     0.120 C 
HETATM    7  N2  UNL     1      -3.461   0.778  46.001  1.00  0.00    -0.190 NA
HETATM    8  C5  UNL     1      -6.392  -1.058  44.968  1.00  0.00     0.072 A 
HETATM    9  N3  UNL     1      -7.625  -0.877  44.495  1.00  0.00    -0.341 N 
ATOM     10  H3  UNL     1      -8.278  -1.630  44.279  1.00  0.00     0.167 HD
ENDROOT
BRANCH   8  11
HETATM   11  C6  UNL     1      -5.831  -2.224  45.227  1.00  0.00     0.044 C 
BRANCH  11  12
HETATM   12  C7  UNL     1      -5.547  -3.218  44.202  1.00  0.00    -0.033 A 
HETATM   13  C8  UNL     1      -5.791  -4.547  44.481  1.00  0.00     0.011 A 
HETATM   14  C9  UNL     1      -5.550  -5.553  43.565  1.00  0.00     0.002 A 
HETATM   15  C10 UNL     1      -5.044  -5.217  42.322  1.00  0.00     0.012 A 
HETATM   16  C11 UNL     1      -4.785  -3.893  42.006  1.00  0.00    -0.003 A 
HETATM   17  C13 UNL     1      -5.042  -2.909  42.956  1.00  0.00     0.023 A 
BRANCH  16  18
HETATM   18  C12 UNL     1      -4.245  -3.581  40.669  1.00  0.00     0.288 C 
BRANCH  18  19
HETATM   19  O1  UNL     1      -3.707  -2.286  40.711  1.00  0.00    -0.367 OA
ATOM     20  H1  UNL     1      -3.372  -2.080  39.846  1.00  0.00     0.213 HD
ENDBRANCH  18  19
BRANCH  18  21
HETATM   21  O2  UNL     1      -5.205  -3.596  39.672  1.00  0.00    -0.367 OA
ATOM     22  H2  UNL     1      -4.841  -3.518  38.798  1.00  0.00     0.213 HD
ENDBRANCH  18  21
ENDBRANCH  16  18
ENDBRANCH  11  12
ENDBRANCH   8  11
TORSDOF 5
ENDMDL
