MODEL 1
REMARK VINA RESULT: -6.731459170      0.000      0.000
REMARK  2 active torsions:
REMARK  status: ('A' for Active; 'I' for Inactive)
REMARK    1  A    between atoms: N1_2  and  C3_4 
REMARK    2  A    between atoms: N2_5  and  C4_7 
ROOT
HETATM    1  C4  UNL     1      -4.208  -8.352  40.257  1.00  0.00     0.035 A 
HETATM    2  C5  UNL     1      -4.422  -8.532  41.608  1.00  0.00     0.032 A 
HETATM    3  C6  UNL     1      -4.465  -7.406  42.401  1.00  0.00     0.034 A 
HETATM    4  C7  UNL     1      -4.303  -6.151  41.869  1.00  0.00     0.062 A 
HETATM    5  N3  UNL     1      -4.354  -5.074  42.688  1.00  0.00    -0.317 N 
ATOM      6  H3  UNL     1      -4.512  -5.209  43.686  1.00  0.00     0.169 HD
HETATM    7  C8  UNL     1      -4.199  -3.828  42.206  1.00  0.00     0.314 A 
HETATM    8  O1  UNL     1      -4.248  -2.817  42.986  1.00  0.00    -0.262 OA
HETATM    9  C9  UNL     1      -3.988  -3.685  40.855  1.00  0.00     0.314 A 
HETATM   10  O2  UNL     1      -3.844  -2.515  40.416  1.00  0.00    -0.262 OA
HETATM   11  N4  UNL     1      -3.931  -4.732  40.013  1.00  0.00    -0.317 N 
ATOM     12  H4  UNL     1      -3.772  -4.590  39.015  1.00  0.00     0.169 HD
HETATM   13  C10 UNL     1      -4.088  -5.974  40.513  1.00  0.00     0.064 A 
HETATM   14  C11 UNL     1      -4.044  -7.093  39.718  1.00  0.00     0.061 A 
ENDROOT
BRANCH   1  15
HETATM   15  N2  UNL     1      -4.154  -9.479  39.395  1.00  0.00    -0.352 N 
HETATM   16  C3  UNL     1      -4.054 -10.688  39.833  1.00  0.00     0.178 C 
ATOM     17  H2  UNL     1      -4.196  -9.326  38.387  1.00  0.00     0.166 HD
BRANCH  16  18
HETATM   18  N1  UNL     1      -4.007 -11.752  38.904  1.00  0.00    -0.386 N 
HETATM   19  C1  UNL     1      -4.793 -12.933  39.151  1.00  0.00     0.149 C 
HETATM   20  C2  UNL     1      -3.177 -11.634  37.734  1.00  0.00     0.149 C 
ENDBRANCH  16  18
ENDBRANCH   1  15
TORSDOF 2
ENDMDL
MODEL 2
REMARK VINA RESULT: -6.701675003      3.320      7.406
REMARK  2 active torsions:
REMARK  status: ('A' for Active; 'I' for Inactive)
REMARK    1  A    between atoms: N1_2  and  C3_4 
REMARK    2  A    between atoms: N2_5  and  C4_7 
ROOT
HETATM    1  C4  UNL     1      -5.078  -3.397  42.976  1.00  0.00     0.035 A 
HETATM    2  C5  UNL     1      -5.427  -4.558  43.632  1.00  0.00     0.032 A 
HETATM    3  C6  UNL     1      -5.284  -5.745  42.946  1.00  0.00     0.034 A 
HETATM    4  C7  UNL     1      -4.810  -5.773  41.658  1.00  0.00     0.062 A 
HETATM    5  N3  UNL     1      -4.686  -6.963  41.025  1.00  0.00    -0.317 N 
ATOM      6  H3  UNL     1      -4.946  -7.820  41.512  1.00  0.00     0.169 HD
HETATM    7  C8  UNL     1      -4.227  -7.032  39.763  1.00  0.00     0.314 A 
HETATM    8  O1  UNL     1      -4.113  -8.160  39.172  1.00  0.00    -0.262 OA
HETATM    9  C9  UNL     1      -3.888  -5.855  39.138  1.00  0.00     0.314 A 
HETATM   10  O2  UNL     1      -3.460  -5.933  37.958  1.00  0.00    -0.262 OA
HETATM   11  N4  UNL     1      -3.999  -4.656  39.736  1.00  0.00    -0.317 N 
ATOM     12  H4  UNL     1      -3.739  -3.802  39.243  1.00  0.00     0.169 HD
HETATM   13  C10 UNL     1      -4.461  -4.605  41.002  1.00  0.00     0.064 A 
HETATM   14  C11 UNL     1      -4.602  -3.420  41.681  1.00  0.00     0.061 A 
ENDROOT
BRANCH   1  15
HETATM   15  N2  UNL     1      -5.206  -2.146  43.636  1.00  0.00    -0.352 N 
HETATM   16  C3  UNL     1      -6.349  -1.586  43.852  1.00  0.00     0.178 C 
ATOM     17  H2  UNL     1      -4.361  -1.671  43.953  1.00  0.00     0.166 HD
BRANCH  16  18
HETATM   18  N1  UNL     1      -6.386  -0.340  44.518  1.00  0.00    -0.386 N 
HETATM   19  C1  UNL     1      -5.181   0.168  45.120  1.00  0.00     0.149 C 
HETATM   20  C2  UNL     1      -7.623   0.393  44.580  1.00  0.00     0.149 C 
ENDBRANCH  16  18
ENDBRANCH   1  15
TORSDOF 2
ENDMDL
MODEL 3
REMARK VINA RESULT: -6.566500978      3.662      6.776
REMARK  2 active torsions:
REMARK  status: ('A' for Active; 'I' for Inactive)
REMARK    1  A    between atoms: N1_2  and  C3_4 
REMARK    2  A    between atoms: N2_5  and  C4_7 
ROOT
HETATM    1  C4  UNL     1      -4.411  -6.873  42.115  1.00  0.00     0.035 A 
HETATM    2  C5  UNL     1      -3.083  -6.551  41.924  1.00  0.00     0.032 A 
HETATM    3  C6  UNL     1      -2.326  -7.406  41.151  1.00  0.00     0.034 A 
HETATM    4  C7  UNL     1      -2.872  -8.534  40.590  1.00  0.00     0.062 A 
HETATM    5  N3  UNL     1      -2.089  -9.343  39.838  1.00  0.00    -0.317 N 
ATOM      6  H3  UNL     1      -1.108  -9.104  39.698  1.00  0.00     0.169 HD
HETATM    7  C8  UNL     1      -2.585 -10.458  39.273  1.00  0.00     0.314 A 
HETATM    8  O1  UNL     1      -1.840 -11.216  38.564  1.00  0.00    -0.262 OA
HETATM    9  C9  UNL     1      -3.913 -10.748  39.484  1.00  0.00     0.314 A 
HETATM   10  O2  UNL     1      -4.365 -11.793  38.950  1.00  0.00    -0.262 OA
HETATM   11  N4  UNL     1      -4.719  -9.968  40.225  1.00  0.00    -0.317 N 
ATOM     12  H4  UNL     1      -5.699 -10.213  40.362  1.00  0.00     0.169 HD
HETATM   13  C10 UNL     1      -4.204  -8.854  40.785  1.00  0.00     0.064 A 
HETATM   14  C11 UNL     1      -4.963  -8.006  41.554  1.00  0.00     0.061 A 
ENDROOT
BRANCH   1  15
HETATM   15  N2  UNL     1      -5.235  -6.027  42.903  1.00  0.00    -0.352 N 
HETATM   16  C3  UNL     1      -4.998  -4.768  43.056  1.00  0.00     0.178 C 
ATOM     17  H2  UNL     1      -6.048  -6.432  43.368  1.00  0.00     0.166 HD
BRANCH  16  18
HETATM   18  N1  UNL     1      -5.871  -3.999  43.858  1.00  0.00    -0.386 N 
HETATM   19  C1  UNL     1      -6.736  -4.670  44.794  1.00  0.00     0.149 C 
HETATM   20  C2  UNL     1      -5.879  -2.566  43.724  1.00  0.00     0.149 C 
ENDBRANCH  16  18
ENDBRANCH   1  15
TORSDOF 2
ENDMDL
MODEL 4
REMARK VINA RESULT: -6.514573821      1.591      2.032
REMARK  2 active torsions:
REMARK  status: ('A' for Active; 'I' for Inactive)
REMARK    1  A    between atoms: N1_2  and  C3_4 
REMARK    2  A    between atoms: N2_5  and  C4_7 
ROOT
HETATM    1  C4  UNL     1      -3.842  -8.312  39.587  1.00  0.00     0.035 A 
HETATM    2  C5  UNL     1      -4.388  -8.838  40.739  1.00  0.00     0.032 A 
HETATM    3  C6  UNL     1      -4.764  -7.953  41.727  1.00  0.00     0.034 A 
HETATM    4  C7  UNL     1      -4.603  -6.598  41.571  1.00  0.00     0.062 A 
HETATM    5  N3  UNL     1      -4.988  -5.768  42.569  1.00  0.00    -0.317 N 
ATOM      6  H3  UNL     1      -5.391  -6.159  43.420  1.00  0.00     0.169 HD
HETATM    7  C8  UNL     1      -4.847  -4.436  42.456  1.00  0.00     0.314 A 
HETATM    8  O1  UNL     1      -5.213  -3.659  43.402  1.00  0.00    -0.262 OA
HETATM    9  C9  UNL     1      -4.299  -3.945  41.294  1.00  0.00     0.314 A 
HETATM   10  O2  UNL     1      -4.172  -2.697  41.200  1.00  0.00    -0.262 OA
HETATM   11  N4  UNL     1      -3.906  -4.740  40.283  1.00  0.00    -0.317 N 
ATOM     12  H4  UNL     1      -3.503  -4.343  39.435  1.00  0.00     0.169 HD
HETATM   13  C10 UNL     1      -4.055  -6.074  40.414  1.00  0.00     0.064 A 
HETATM   14  C11 UNL     1      -3.678  -6.951  39.426  1.00  0.00     0.061 A 
ENDROOT
BRANCH   1  15
HETATM   15  N2  UNL     1      -3.437  -9.179  38.538  1.00  0.00    -0.352 N 
HETATM   16  C3  UNL     1      -2.653  -8.801  37.585  1.00  0.00     0.178 C 
ATOM     17  H2  UNL     1      -3.780 -10.140  38.537  1.00  0.00     0.166 HD
BRANCH  16  18
HETATM   18  N1  UNL     1      -2.299  -9.730  36.580  1.00  0.00    -0.386 N 
HETATM   19  C1  UNL     1      -0.956  -9.724  36.063  1.00  0.00     0.149 C 
HETATM   20  C2  UNL     1      -3.286 -10.660  36.096  1.00  0.00     0.149 C 
ENDBRANCH  16  18
ENDBRANCH   1  15
TORSDOF 2
ENDMDL
MODEL 5
REMARK VINA RESULT: -6.495729304      3.530      6.829
REMARK  2 active torsions:
REMARK  status: ('A' for Active; 'I' for Inactive)
REMARK    1  A    between atoms: N1_2  and  C3_4 
REMARK    2  A    between atoms: N2_5  and  C4_7 
ROOT
HETATM    1  C4  UNL     1      -4.738  -6.242  42.265  1.00  0.00     0.035 A 
HETATM    2  C5  UNL     1      -3.425  -5.854  42.096  1.00  0.00     0.032 A 
HETATM    3  C6  UNL     1      -2.598  -6.698  41.387  1.00  0.00     0.034 A 
HETATM    4  C7  UNL     1      -3.061  -7.881  40.866  1.00  0.00     0.062 A 
HETATM    5  N3  UNL     1      -2.211  -8.678  40.176  1.00  0.00    -0.317 N 
ATOM      6  H3  UNL     1      -1.241  -8.389  40.053  1.00  0.00     0.169 HD
HETATM    7  C8  UNL     1      -2.626  -9.844  39.652  1.00  0.00     0.314 A 
HETATM    8  O1  UNL     1      -1.818 -10.590  39.002  1.00  0.00    -0.262 OA
HETATM    9  C9  UNL     1      -3.941 -10.201  39.839  1.00  0.00     0.314 A 
HETATM   10  O2  UNL     1      -4.317 -11.294  39.344  1.00  0.00    -0.262 OA
HETATM   11  N4  UNL     1      -4.812  -9.434  40.519  1.00  0.00    -0.317 N 
ATOM     12  H4  UNL     1      -5.781  -9.729  40.640  1.00  0.00     0.169 HD
HETATM   13  C10 UNL     1      -4.379  -8.268  41.038  1.00  0.00     0.064 A 
HETATM   14  C11 UNL     1      -5.207  -7.430  41.744  1.00  0.00     0.061 A 
ENDROOT
BRANCH   1  15
HETATM   15  N2  UNL     1      -5.632  -5.410  42.988  1.00  0.00    -0.352 N 
HETATM   16  C3  UNL     1      -5.264  -4.301  43.537  1.00  0.00     0.178 C 
ATOM     17  H2  UNL     1      -6.606  -5.700  43.078  1.00  0.00     0.166 HD
BRANCH  16  18
HETATM   18  N1  UNL     1      -6.221  -3.533  44.238  1.00  0.00    -0.386 N 
HETATM   19  C1  UNL     1      -6.350  -2.131  43.937  1.00  0.00     0.149 C 
HETATM   20  C2  UNL     1      -7.043  -4.166  45.236  1.00  0.00     0.149 C 
ENDBRANCH  16  18
ENDBRANCH   1  15
TORSDOF 2
ENDMDL
