MODEL 1
REMARK VINA RESULT: -6.996164542      0.000      0.000
REMARK  3 active torsions:
REMARK  status: ('A' for Active; 'I' for Inactive)
REMARK    1  A    between atoms: C2_2  and  N1_3 
REMARK    2  A    between atoms: C2_2  and  C3_7 
REMARK    3  A    between atoms: C2_2  and  C4_9 
ROOT
HETATM    1  C4  UNL     1     -16.571  25.051  -3.008  1.00  0.00     0.013 A 
HETATM    2  C5  UNL     1     -15.830  25.965  -3.741  1.00  0.00     0.012 A 
HETATM    3  C6  UNL     1     -16.186  27.266  -3.906  1.00  0.00     0.003 A 
HETATM    4  C7  UNL     1     -17.338  27.710  -3.319  1.00  0.00     0.032 A 
HETATM    5  C8  UNL     1     -18.105  26.837  -2.580  1.00  0.00     0.062 A 
HETATM    6  N2  UNL     1     -19.251  27.278  -1.988  1.00  0.00    -0.317 N 
ATOM      7  H2  UNL     1     -19.541  28.249  -2.097  1.00  0.00     0.169 HD
HETATM    8  C9  UNL     1     -19.995  26.431  -1.263  1.00  0.00     0.314 A 
HETATM    9  O2  UNL     1     -21.057  26.845  -0.714  1.00  0.00    -0.262 OA
HETATM   10  C10 UNL     1     -19.623  25.116  -1.102  1.00  0.00     0.314 A 
HETATM   11  O3  UNL     1     -20.297  24.288  -0.424  1.00  0.00    -0.262 OA
HETATM   12  N3  UNL     1     -18.489  24.655  -1.682  1.00  0.00    -0.316 N 
ATOM     13  H3  UNL     1     -18.206  23.681  -1.568  1.00  0.00     0.169 HD
HETATM   14  C11 UNL     1     -17.748  25.496  -2.404  1.00  0.00     0.071 A 
ENDROOT
BRANCH   1  15
HETATM   15  C2  UNL     1     -16.163  23.653  -2.881  1.00  0.00     0.201 C 
HETATM   16  C1  UNL     1     -14.883  23.509  -3.748  1.00  0.00     0.059 C 
BRANCH  15  17
HETATM   17  N1  UNL     1     -17.033  22.675  -3.499  1.00  0.00    -0.060 N 
ATOM     18  H13 UNL     1     -17.559  23.007  -4.307  1.00  0.00     0.276 HD
ATOM     19  H12 UNL     1     -16.560  21.924  -4.002  1.00  0.00     0.276 HD
ATOM     20  H11 UNL     1     -17.597  22.380  -2.702  1.00  0.00     0.276 HD
ENDBRANCH  15  17
BRANCH  15  21
HETATM   21  C3  UNL     1     -15.682  23.257  -1.529  1.00  0.00     0.274 C 
HETATM   22  O1  UNL     1     -16.373  22.680  -0.713  1.00  0.00    -0.304 OA
ENDBRANCH  15  21
ENDBRANCH   1  15
TORSDOF 3
ENDMDL
MODEL 2
REMARK VINA RESULT: -6.757197196      2.541      4.027
REMARK  3 active torsions:
REMARK  status: ('A' for Active; 'I' for Inactive)
REMARK    1  A    between atoms: C2_2  and  N1_3 
REMARK    2  A    between atoms: C2_2  and  C3_7 
REMARK    3  A    between atoms: C2_2  and  C4_9 
ROOT
HETATM    1  C4  UNL     1     -18.053  25.557  -1.180  1.00  0.00     0.013 A 
HETATM    2  C5  UNL     1     -16.895  24.843  -0.915  1.00  0.00     0.012 A 
HETATM    3  C6  UNL     1     -16.686  24.145   0.232  1.00  0.00     0.003 A 
HETATM    4  C7  UNL     1     -17.666  24.138   1.184  1.00  0.00     0.032 A 
HETATM    5  C8  UNL     1     -18.834  24.833   0.963  1.00  0.00     0.062 A 
HETATM    6  N2  UNL     1     -19.816  24.824   1.907  1.00  0.00    -0.317 N 
ATOM      7  H2  UNL     1     -19.684  24.308   2.777  1.00  0.00     0.169 HD
HETATM    8  C9  UNL     1     -20.957  25.494   1.690  1.00  0.00     0.314 A 
HETATM    9  O2  UNL     1     -21.866  25.482   2.568  1.00  0.00    -0.262 OA
HETATM   10  C10 UNL     1     -21.157  26.196   0.523  1.00  0.00     0.314 A 
HETATM   11  O3  UNL     1     -22.220  26.840   0.281  1.00  0.00    -0.262 OA
HETATM   12  N3  UNL     1     -20.194  26.221  -0.430  1.00  0.00    -0.316 N 
ATOM     13  H3  UNL     1     -20.335  26.740  -1.296  1.00  0.00     0.169 HD
HETATM   14  C11 UNL     1     -19.060  25.555  -0.214  1.00  0.00     0.071 A 
ENDROOT
BRANCH   1  15
HETATM   15  C2  UNL     1     -18.222  26.317  -2.417  1.00  0.00     0.201 C 
HETATM   16  C1  UNL     1     -18.289  27.808  -1.990  1.00  0.00     0.059 C 
BRANCH  15  17
HETATM   17  N1  UNL     1     -19.492  26.161  -3.094  1.00  0.00    -0.060 N 
ATOM     18  H13 UNL     1     -19.937  25.250  -2.985  1.00  0.00     0.276 HD
ATOM     19  H12 UNL     1     -20.268  26.690  -2.695  1.00  0.00     0.276 HD
ATOM     20  H11 UNL     1     -19.239  26.412  -4.050  1.00  0.00     0.276 HD
ENDBRANCH  15  17
BRANCH  15  21
HETATM   21  C3  UNL     1     -17.049  26.297  -3.334  1.00  0.00     0.274 C 
HETATM   22  O1  UNL     1     -16.347  27.266  -3.547  1.00  0.00    -0.304 OA
ENDBRANCH  15  21
ENDBRANCH   1  15
TORSDOF 3
ENDMDL
MODEL 3
REMARK VINA RESULT: -6.531957953      2.816      4.382
REMARK  3 active torsions:
REMARK  status: ('A' for Active; 'I' for Inactive)
REMARK    1  A    between atoms: C2_2  and  N1_3 
REMARK    2  A    between atoms: C2_2  and  C3_7 
REMARK    3  A    between atoms: C2_2  and  C4_9 
ROOT
HETATM    1  C4  UNL     1     -17.846  25.872  -0.873  1.00  0.00     0.013 A 
HETATM    2  C5  UNL     1     -16.625  25.230  -1.011  1.00  0.00     0.012 A 
HETATM    3  C6  UNL     1     -16.237  24.177  -0.245  1.00  0.00     0.003 A 
HETATM    4  C7  UNL     1     -17.090  23.716   0.717  1.00  0.00     0.032 A 
HETATM    5  C8  UNL     1     -18.314  24.322   0.889  1.00  0.00     0.062 A 
HETATM    6  N2  UNL     1     -19.170  23.860   1.843  1.00  0.00    -0.317 N 
ATOM      7  H2  UNL     1     -18.902  23.072   2.432  1.00  0.00     0.169 HD
HETATM    8  C9  UNL     1     -20.365  24.445   2.006  1.00  0.00     0.314 A 
HETATM    9  O2  UNL     1     -21.157  24.013   2.892  1.00  0.00    -0.262 OA
HETATM   10  C10 UNL     1     -20.748  25.510   1.224  1.00  0.00     0.314 A 
HETATM   11  O3  UNL     1     -21.867  26.088   1.346  1.00  0.00    -0.262 OA
HETATM   12  N3  UNL     1     -19.913  25.987   0.269  1.00  0.00    -0.316 N 
ATOM     13  H3  UNL     1     -20.190  26.777  -0.314  1.00  0.00     0.169 HD
HETATM   14  C11 UNL     1     -18.724  25.407   0.106  1.00  0.00     0.071 A 
ENDROOT
BRANCH   1  15
HETATM   15  C2  UNL     1     -18.210  27.020  -1.702  1.00  0.00     0.201 C 
HETATM   16  C1  UNL     1     -17.103  27.126  -2.785  1.00  0.00     0.059 C 
BRANCH  15  17
HETATM   17  N1  UNL     1     -18.111  28.320  -1.071  1.00  0.00    -0.060 N 
ATOM     18  H13 UNL     1     -17.204  28.779  -1.156  1.00  0.00     0.276 HD
ATOM     19  H12 UNL     1     -18.634  29.068  -1.527  1.00  0.00     0.276 HD
ATOM     20  H11 UNL     1     -18.403  28.101  -0.119  1.00  0.00     0.276 HD
ENDBRANCH  15  17
BRANCH  15  21
HETATM   21  C3  UNL     1     -19.443  26.844  -2.517  1.00  0.00     0.274 C 
HETATM   22  O1  UNL     1     -20.488  27.421  -2.289  1.00  0.00    -0.304 OA
ENDBRANCH  15  21
ENDBRANCH   1  15
TORSDOF 3
ENDMDL
MODEL 4
REMARK VINA RESULT: -6.395012351      2.458      3.916
REMARK  3 active torsions:
REMARK  status: ('A' for Active; 'I' for Inactive)
REMARK    1  A    between atoms: C2_2  and  N1_3 
REMARK    2  A    between atoms: C2_2  and  C3_7 
REMARK    3  A    between atoms: C2_2  and  C4_9 
ROOT
HETATM    1  C4  UNL     1     -18.335  23.235  -0.043  1.00  0.00     0.013 A 
HETATM    2  C5  UNL     1     -17.307  22.511  -0.627  1.00  0.00     0.012 A 
HETATM    3  C6  UNL     1     -16.739  22.834  -1.818  1.00  0.00     0.003 A 
HETATM    4  C7  UNL     1     -17.200  23.933  -2.488  1.00  0.00     0.032 A 
HETATM    5  C8  UNL     1     -18.219  24.682  -1.945  1.00  0.00     0.062 A 
HETATM    6  N2  UNL     1     -18.675  25.782  -2.607  1.00  0.00    -0.317 N 
ATOM      7  H2  UNL     1     -18.267  26.046  -3.503  1.00  0.00     0.169 HD
HETATM    8  C9  UNL     1     -19.663  26.518  -2.076  1.00  0.00     0.314 A 
HETATM    9  O2  UNL     1     -20.083  27.539  -2.693  1.00  0.00    -0.262 OA
HETATM   10  C10 UNL     1     -20.229  26.181  -0.868  1.00  0.00     0.314 A 
HETATM   11  O3  UNL     1     -21.161  26.850  -0.334  1.00  0.00    -0.262 OA
HETATM   12  N3  UNL     1     -19.792  25.091  -0.192  1.00  0.00    -0.316 N 
ATOM     13  H3  UNL     1     -20.207  24.835   0.704  1.00  0.00     0.169 HD
HETATM   14  C11 UNL     1     -18.810  24.359  -0.719  1.00  0.00     0.071 A 
ENDROOT
BRANCH   1  15
HETATM   15  C2  UNL     1     -18.934  22.833   1.228  1.00  0.00     0.201 C 
HETATM   16  C1  UNL     1     -18.313  21.452   1.568  1.00  0.00     0.059 C 
BRANCH  15  17
HETATM   17  N1  UNL     1     -20.344  22.507   1.195  1.00  0.00    -0.060 N 
ATOM     18  H13 UNL     1     -20.785  22.567   0.277  1.00  0.00     0.276 HD
ATOM     19  H12 UNL     1     -20.569  21.523   1.339  1.00  0.00     0.276 HD
ATOM     20  H11 UNL     1     -20.713  23.147   1.899  1.00  0.00     0.276 HD
ENDBRANCH  15  17
BRANCH  15  21
HETATM   21  C3  UNL     1     -18.539  23.661   2.401  1.00  0.00     0.274 C 
HETATM   22  O1  UNL     1     -19.159  24.639   2.771  1.00  0.00    -0.304 OA
ENDBRANCH  15  21
ENDBRANCH   1  15
TORSDOF 3
ENDMDL
MODEL 5
REMARK VINA RESULT: -6.369559989      2.599      3.982
REMARK  3 active torsions:
REMARK  status: ('A' for Active; 'I' for Inactive)
REMARK    1  A    between atoms: C2_2  and  N1_3 
REMARK    2  A    between atoms: C2_2  and  C3_7 
REMARK    3  A    between atoms: C2_2  and  C4_9 
ROOT
HETATM    1  C4  UNL     1     -17.362  24.300   0.367  1.00  0.00     0.013 A 
HETATM    2  C5  UNL     1     -16.947  23.588   1.482  1.00  0.00     0.012 A 
HETATM    3  C6  UNL     1     -17.684  23.467   2.616  1.00  0.00     0.003 A 
HETATM    4  C7  UNL     1     -18.907  24.076   2.673  1.00  0.00     0.032 A 
HETATM    5  C8  UNL     1     -19.360  24.793   1.589  1.00  0.00     0.062 A 
HETATM    6  N2  UNL     1     -20.581  25.395   1.639  1.00  0.00    -0.317 N 
ATOM      7  H2  UNL     1     -21.154  25.321   2.479  1.00  0.00     0.169 HD
HETATM    8  C9  UNL     1     -21.027  26.088   0.580  1.00  0.00     0.314 A 
HETATM    9  O2  UNL     1     -22.161  26.644   0.631  1.00  0.00    -0.262 OA
HETATM   10  C10 UNL     1     -20.271  26.202  -0.564  1.00  0.00     0.314 A 
HETATM   11  O3  UNL     1     -20.658  26.845  -1.583  1.00  0.00    -0.262 OA
HETATM   12  N3  UNL     1     -19.054  25.612  -0.637  1.00  0.00    -0.316 N 
ATOM     13  H3  UNL     1     -18.488  25.693  -1.481  1.00  0.00     0.169 HD
HETATM   14  C11 UNL     1     -18.609  24.924   0.415  1.00  0.00     0.071 A 
ENDROOT
BRANCH   1  15
HETATM   15  C2  UNL     1     -16.522  24.427  -0.822  1.00  0.00     0.201 C 
HETATM   16  C1  UNL     1     -15.150  23.812  -0.436  1.00  0.00     0.059 C 
BRANCH  15  17
HETATM   17  N1  UNL     1     -16.133  25.772  -1.190  1.00  0.00    -0.060 N 
ATOM     18  H13 UNL     1     -15.134  25.969  -1.134  1.00  0.00     0.276 HD
ATOM     19  H12 UNL     1     -16.215  25.995  -2.182  1.00  0.00     0.276 HD
ATOM     20  H11 UNL     1     -16.723  26.326  -0.568  1.00  0.00     0.276 HD
ENDBRANCH  15  17
BRANCH  15  21
HETATM   21  C3  UNL     1     -16.937  23.587  -1.979  1.00  0.00     0.274 C 
HETATM   22  O1  UNL     1     -17.764  23.935  -2.799  1.00  0.00    -0.304 OA
ENDBRANCH  15  21
ENDBRANCH   1  15
TORSDOF 3
ENDMDL
