MODEL 1
REMARK VINA RESULT: -7.565080953      0.000      0.000
REMARK  4 active torsions:
REMARK  status: ('A' for Active; 'I' for Inactive)
REMARK    1  A    between atoms: N1_1  and  C1_4 
REMARK    2  A    between atoms: C3_10  and  N4_11 
REMARK    3  A    between atoms: N4_11  and  S1_13 
REMARK    4  A    between atoms: S1_13  and  C4_16 
ROOT
HETATM    1  C1  UNL     1     -20.717  25.385   1.303  1.00  0.00     0.691 A 
HETATM    2  N2  UNL     1     -20.103  24.228   1.612  1.00  0.00    -0.187 N 
ATOM      3  H2  UNL     1     -20.170  23.833   2.550  1.00  0.00     0.185 HD
HETATM    4  C2  UNL     1     -19.393  23.603   0.639  1.00  0.00     0.215 A 
HETATM    5  N3  UNL     1     -19.308  24.129  -0.600  1.00  0.00    -0.186 N 
ATOM      6  H3  UNL     1     -18.767  23.639  -1.313  1.00  0.00     0.185 HD
HETATM    7  C3  UNL     1     -19.921  25.291  -0.919  1.00  0.00     0.707 A 
HETATM    8  N5  UNL     1     -20.621  25.885   0.083  1.00  0.00    -0.022 N 
ATOM      9  H5  UNL     1     -21.097  26.763  -0.118  1.00  0.00     0.203 HD
ENDROOT
BRANCH   7  10
HETATM   10  N4  UNL     1     -19.858  25.818  -2.097  1.00  0.00    -0.112 N 
ATOM     11  H4  UNL     1     -20.399  25.441  -2.874  1.00  0.00     0.197 HD
BRANCH  10  12
HETATM   12  S1  UNL     1     -18.826  27.179  -2.305  1.00  0.00     0.276 S 
HETATM   13  O1  UNL     1     -18.898  28.117  -1.135  1.00  0.00    -0.200 OA
HETATM   14  O2  UNL     1     -19.295  27.930  -3.518  1.00  0.00    -0.200 OA
BRANCH  12  15
HETATM   15  C4  UNL     1     -17.174  26.728  -2.534  1.00  0.00     0.080 A 
HETATM   16  C5  UNL     1     -16.557  27.094  -3.716  1.00  0.00     0.025 A 
HETATM   17  C6  UNL     1     -15.251  26.780  -3.986  1.00  0.00     0.002 A 
HETATM   18  C7  UNL     1     -14.524  26.077  -3.048  1.00  0.00     0.000 A 
HETATM   19  C8  UNL     1     -15.098  25.692  -1.854  1.00  0.00     0.002 A 
HETATM   20  C9  UNL     1     -16.415  26.025  -1.621  1.00  0.00     0.025 A 
ENDBRANCH  12  15
ENDBRANCH  10  12
ENDBRANCH   7  10
BRANCH   1  21
HETATM   21  N1  UNL     1     -21.403  25.992   2.242  1.00  0.00    -0.234 N 
ATOM     22  H12 UNL     1     -22.342  25.687   2.501  1.00  0.00     0.174 HD
ATOM     23  H11 UNL     1     -20.975  26.788   2.715  1.00  0.00     0.174 HD
ENDBRANCH   1  21
TORSDOF 4
ENDMDL
MODEL 2
REMARK VINA RESULT: -7.388441993      2.152      3.008
REMARK  4 active torsions:
REMARK  status: ('A' for Active; 'I' for Inactive)
REMARK    1  A    between atoms: N1_1  and  C1_4 
REMARK    2  A    between atoms: C3_10  and  N4_11 
REMARK    3  A    between atoms: N4_11  and  S1_13 
REMARK    4  A    between atoms: S1_13  and  C4_16 
ROOT
HETATM    1  C1  UNL     1     -21.688  24.559   3.309  1.00  0.00     0.691 A 
HETATM    2  N2  UNL     1     -20.937  23.675   3.991  1.00  0.00    -0.187 N 
ATOM      3  H2  UNL     1     -21.349  23.082   4.711  1.00  0.00     0.185 HD
HETATM    4  C2  UNL     1     -19.616  23.595   3.691  1.00  0.00     0.215 A 
HETATM    5  N3  UNL     1     -19.075  24.380   2.738  1.00  0.00    -0.186 N 
ATOM      6  H3  UNL     1     -18.079  24.301   2.533  1.00  0.00     0.185 HD
HETATM    7  C3  UNL     1     -19.822  25.272   2.048  1.00  0.00     0.707 A 
HETATM    8  N5  UNL     1     -21.138  25.321   2.378  1.00  0.00    -0.022 N 
ATOM      9  H5  UNL     1     -21.735  25.981   1.881  1.00  0.00     0.203 HD
ENDROOT
BRANCH   7  10
HETATM   10  N4  UNL     1     -19.331  26.036   1.130  1.00  0.00    -0.112 N 
ATOM     11  H4  UNL     1     -18.546  26.658   1.323  1.00  0.00     0.197 HD
BRANCH  10  12
HETATM   12  S1  UNL     1     -20.050  25.968  -0.432  1.00  0.00     0.276 S 
HETATM   13  O1  UNL     1     -21.308  26.784  -0.502  1.00  0.00    -0.200 OA
HETATM   14  O2  UNL     1     -20.421  24.538  -0.705  1.00  0.00    -0.200 OA
BRANCH  12  15
HETATM   15  C4  UNL     1     -18.983  26.512  -1.676  1.00  0.00     0.080 A 
HETATM   16  C5  UNL     1     -17.630  26.275  -1.524  1.00  0.00     0.025 A 
HETATM   17  C6  UNL     1     -16.709  26.670  -2.458  1.00  0.00     0.002 A 
HETATM   18  C7  UNL     1     -17.144  27.325  -3.591  1.00  0.00     0.000 A 
HETATM   19  C8  UNL     1     -18.484  27.583  -3.786  1.00  0.00     0.002 A 
HETATM   20  C9  UNL     1     -19.379  27.171  -2.823  1.00  0.00     0.025 A 
ENDBRANCH  12  15
ENDBRANCH  10  12
ENDBRANCH   7  10
BRANCH   1  21
HETATM   21  N1  UNL     1     -22.965  24.640   3.597  1.00  0.00    -0.234 N 
ATOM     22  H12 UNL     1     -23.673  24.733   2.868  1.00  0.00     0.174 HD
ATOM     23  H11 UNL     1     -23.241  24.608   4.579  1.00  0.00     0.174 HD
ENDBRANCH   1  21
TORSDOF 4
ENDMDL
MODEL 3
REMARK VINA RESULT: -7.294446996      1.837      2.369
REMARK  4 active torsions:
REMARK  status: ('A' for Active; 'I' for Inactive)
REMARK    1  A    between atoms: N1_1  and  C1_4 
REMARK    2  A    between atoms: C3_10  and  N4_11 
REMARK    3  A    between atoms: N4_11  and  S1_13 
REMARK    4  A    between atoms: S1_13  and  C4_16 
ROOT
HETATM    1  C1  UNL     1     -21.675  24.574   3.191  1.00  0.00     0.691 A 
HETATM    2  N2  UNL     1     -21.520  23.239   3.112  1.00  0.00    -0.187 N 
ATOM      3  H2  UNL     1     -22.072  22.612   3.698  1.00  0.00     0.185 HD
HETATM    4  C2  UNL     1     -20.610  22.754   2.231  1.00  0.00     0.215 A 
HETATM    5  N3  UNL     1     -19.883  23.586   1.459  1.00  0.00    -0.186 N 
ATOM      6  H3  UNL     1     -19.205  23.195   0.805  1.00  0.00     0.185 HD
HETATM    7  C3  UNL     1     -20.031  24.928   1.531  1.00  0.00     0.707 A 
HETATM    8  N5  UNL     1     -20.952  25.374   2.426  1.00  0.00    -0.022 N 
ATOM      9  H5  UNL     1     -21.093  26.380   2.511  1.00  0.00     0.203 HD
ENDROOT
BRANCH   7  10
HETATM   10  N4  UNL     1     -19.350  25.750   0.804  1.00  0.00    -0.112 N 
ATOM     11  H4  UNL     1     -18.565  26.273   1.193  1.00  0.00     0.197 HD
BRANCH  10  12
HETATM   12  S1  UNL     1     -19.814  25.930  -0.842  1.00  0.00     0.276 S 
HETATM   13  O1  UNL     1     -20.887  26.967  -1.008  1.00  0.00    -0.200 OA
HETATM   14  O2  UNL     1     -20.376  24.617  -1.308  1.00  0.00    -0.200 OA
BRANCH  12  15
HETATM   15  C4  UNL     1     -18.487  26.360  -1.861  1.00  0.00     0.080 A 
HETATM   16  C5  UNL     1     -18.739  27.168  -2.953  1.00  0.00     0.025 A 
HETATM   17  C6  UNL     1     -17.750  27.560  -3.817  1.00  0.00     0.002 A 
HETATM   18  C7  UNL     1     -16.457  27.135  -3.590  1.00  0.00     0.000 A 
HETATM   19  C8  UNL     1     -16.159  26.328  -2.512  1.00  0.00     0.002 A 
HETATM   20  C9  UNL     1     -17.182  25.955  -1.668  1.00  0.00     0.025 A 
ENDBRANCH  12  15
ENDBRANCH  10  12
ENDBRANCH   7  10
BRANCH   1  21
HETATM   21  N1  UNL     1     -22.553  25.046   4.043  1.00  0.00    -0.234 N 
ATOM     22  H12 UNL     1     -23.488  24.645   4.125  1.00  0.00     0.174 HD
ATOM     23  H11 UNL     1     -22.281  25.836   4.629  1.00  0.00     0.174 HD
ENDBRANCH   1  21
TORSDOF 4
ENDMDL
MODEL 4
REMARK VINA RESULT: -7.292364400      0.550      1.560
REMARK  4 active torsions:
REMARK  status: ('A' for Active; 'I' for Inactive)
REMARK    1  A    between atoms: N1_1  and  C1_4 
REMARK    2  A    between atoms: C3_10  and  N4_11 
REMARK    3  A    between atoms: N4_11  and  S1_13 
REMARK    4  A    between atoms: S1_13  and  C4_16 
ROOT
HETATM    1  C1  UNL     1     -19.608  23.625   0.536  1.00  0.00     0.691 A 
HETATM    2  N2  UNL     1     -20.190  24.305   1.541  1.00  0.00    -0.187 N 
ATOM      3  H2  UNL     1     -20.262  23.902   2.475  1.00  0.00     0.185 HD
HETATM    4  C2  UNL     1     -20.678  25.543   1.275  1.00  0.00     0.215 A 
HETATM    5  N3  UNL     1     -20.581  26.073   0.039  1.00  0.00    -0.186 N 
ATOM      6  H3  UNL     1     -20.957  27.005  -0.135  1.00  0.00     0.185 HD
HETATM    7  C3  UNL     1     -19.997  25.397  -0.977  1.00  0.00     0.707 A 
HETATM    8  N5  UNL     1     -19.523  24.162  -0.669  1.00  0.00    -0.022 N 
ATOM      9  H5  UNL     1     -19.076  23.620  -1.408  1.00  0.00     0.203 HD
ENDROOT
BRANCH   7  10
HETATM   10  N4  UNL     1     -19.890  25.879  -2.170  1.00  0.00    -0.112 N 
ATOM     11  H4  UNL     1     -20.409  25.479  -2.951  1.00  0.00     0.197 HD
BRANCH  10  12
HETATM   12  S1  UNL     1     -18.838  27.222  -2.395  1.00  0.00     0.276 S 
HETATM   13  O1  UNL     1     -18.915  28.187  -1.248  1.00  0.00    -0.200 OA
HETATM   14  O2  UNL     1     -19.280  27.951  -3.632  1.00  0.00    -0.200 OA
BRANCH  12  15
HETATM   15  C4  UNL     1     -17.189  26.745  -2.590  1.00  0.00     0.080 A 
HETATM   16  C5  UNL     1     -16.529  27.136  -3.740  1.00  0.00     0.025 A 
HETATM   17  C6  UNL     1     -15.222  26.805  -3.981  1.00  0.00     0.002 A 
HETATM   18  C7  UNL     1     -14.538  26.057  -3.045  1.00  0.00     0.000 A 
HETATM   19  C8  UNL     1     -15.155  25.645  -1.883  1.00  0.00     0.002 A 
HETATM   20  C9  UNL     1     -16.471  25.998  -1.678  1.00  0.00     0.025 A 
ENDBRANCH  12  15
ENDBRANCH  10  12
ENDBRANCH   7  10
BRANCH   1  21
HETATM   21  N1  UNL     1     -19.136  22.428   0.790  1.00  0.00    -0.234 N 
ATOM     22  H12 UNL     1     -19.369  21.626   0.204  1.00  0.00     0.174 HD
ATOM     23  H11 UNL     1     -18.524  22.312   1.598  1.00  0.00     0.174 HD
ENDBRANCH   1  21
TORSDOF 4
ENDMDL
MODEL 5
REMARK VINA RESULT: -7.240745862      2.093      3.104
REMARK  4 active torsions:
REMARK  status: ('A' for Active; 'I' for Inactive)
REMARK    1  A    between atoms: N1_1  and  C1_4 
REMARK    2  A    between atoms: C3_10  and  N4_11 
REMARK    3  A    between atoms: N4_11  and  S1_13 
REMARK    4  A    between atoms: S1_13  and  C4_16 
ROOT
HETATM    1  C1  UNL     1     -19.435  23.822   3.564  1.00  0.00     0.691 A 
HETATM    2  N2  UNL     1     -20.760  23.842   3.794  1.00  0.00    -0.187 N 
ATOM      3  H2  UNL     1     -21.170  23.288   4.547  1.00  0.00     0.185 HD
HETATM    4  C2  UNL     1     -21.535  24.619   2.996  1.00  0.00     0.215 A 
HETATM    5  N3  UNL     1     -20.990  25.349   2.002  1.00  0.00    -0.186 N 
ATOM      6  H3  UNL     1     -21.595  25.924   1.417  1.00  0.00     0.185 HD
HETATM    7  C3  UNL     1     -19.659  25.336   1.764  1.00  0.00     0.707 A 
HETATM    8  N5  UNL     1     -18.919  24.545   2.584  1.00  0.00    -0.022 N 
ATOM      9  H5  UNL     1     -17.911  24.507   2.435  1.00  0.00     0.203 HD
ENDROOT
BRANCH   7  10
HETATM   10  N4  UNL     1     -19.108  26.024   0.820  1.00  0.00    -0.112 N 
ATOM     11  H4  UNL     1     -18.251  26.552   0.982  1.00  0.00     0.197 HD
BRANCH  10  12
HETATM   12  S1  UNL     1     -19.875  26.020  -0.720  1.00  0.00     0.276 S 
HETATM   13  O1  UNL     1     -21.080  26.914  -0.745  1.00  0.00    -0.200 OA
HETATM   14  O2  UNL     1     -20.343  24.619  -0.997  1.00  0.00    -0.200 OA
BRANCH  12  15
HETATM   15  C4  UNL     1     -18.812  26.511  -1.990  1.00  0.00     0.080 A 
HETATM   16  C5  UNL     1     -17.458  26.282  -1.832  1.00  0.00     0.025 A 
HETATM   17  C6  UNL     1     -16.540  26.638  -2.785  1.00  0.00     0.002 A 
HETATM   18  C7  UNL     1     -16.979  27.244  -3.943  1.00  0.00     0.000 A 
HETATM   19  C8  UNL     1     -18.321  27.492  -4.145  1.00  0.00     0.002 A 
HETATM   20  C9  UNL     1     -19.212  27.120  -3.162  1.00  0.00     0.025 A 
ENDBRANCH  12  15
ENDBRANCH  10  12
ENDBRANCH   7  10
BRANCH   1  21
HETATM   21  N1  UNL     1     -18.683  23.071   4.333  1.00  0.00    -0.234 N 
ATOM     22  H12 UNL     1     -18.902  22.929   5.319  1.00  0.00     0.174 HD
ATOM     23  H11 UNL     1     -17.863  22.627   3.920  1.00  0.00     0.174 HD
ENDBRANCH   1  21
TORSDOF 4
ENDMDL
