MODEL 1
REMARK VINA RESULT: -6.769809573      0.000      0.000
REMARK  3 active torsions:
REMARK  status: ('A' for Active; 'I' for Inactive)
REMARK    1  A    between atoms: S1_2  and  C2_5 
REMARK    2  A    between atoms: C5_8  and  N1_9 
REMARK    3  A    between atoms: N1_9  and  C6_11 
ROOT
HETATM    1  N1  UNL     1     -19.016  24.265  -0.293  1.00  0.00    -0.190 N 
ATOM      2  H1  UNL     1     -18.359  23.490  -0.378  1.00  0.00     0.184 HD
ENDROOT
BRANCH   1   3
HETATM    3  C5  UNL     1     -19.880  24.354   0.837  1.00  0.00     0.049 A 
HETATM    4  C4  UNL     1     -20.062  23.261   1.660  1.00  0.00     0.031 A 
HETATM    5  C3  UNL     1     -20.889  23.352   2.738  1.00  0.00     0.025 A 
HETATM    6  C2  UNL     1     -21.575  24.517   3.057  1.00  0.00     0.059 A 
HETATM    7  C9  UNL     1     -21.394  25.594   2.243  1.00  0.00     0.025 A 
HETATM    8  C8  UNL     1     -20.561  25.511   1.152  1.00  0.00     0.031 A 
BRANCH   6   9
HETATM    9  S1  UNL     1     -22.619  24.572   4.450  1.00  0.00     0.171 S 
HETATM   10  C1  UNL     1     -22.245  23.186   5.501  1.00  0.00     0.167 C 
HETATM   11  O1  UNL     1     -24.042  24.454   3.951  1.00  0.00    -0.223 OA
HETATM   12  O2  UNL     1     -22.461  25.817   5.244  1.00  0.00    -0.223 OA
ENDBRANCH   6   9
ENDBRANCH   1   3
BRANCH   1  13
HETATM   13  C6  UNL     1     -19.074  25.173  -1.205  1.00  0.00     0.701 A 
HETATM   14  N2  UNL     1     -19.679  25.059  -2.409  1.00  0.00    -0.128 N 
HETATM   15  N3  UNL     1     -19.539  26.176  -3.081  1.00  0.00    -0.237 N 
ATOM     16  H2  UNL     1     -20.169  24.230  -2.744  1.00  0.00     0.205 HD
HETATM   17  C7  UNL     1     -18.842  27.055  -2.344  1.00  0.00     0.353 A 
ATOM     18  H3  UNL     1     -19.903  26.350  -4.018  1.00  0.00     0.192 HD
HETATM   19  O3  UNL     1     -18.515  28.233  -2.662  1.00  0.00    -0.245 OA
HETATM   20  N4  UNL     1     -18.567  26.416  -1.195  1.00  0.00    -0.139 N 
ATOM     21  H4  UNL     1     -18.044  26.821  -0.418  1.00  0.00     0.189 HD
ENDBRANCH   1  13
TORSDOF 3
ENDMDL
MODEL 2
REMARK VINA RESULT: -6.692497825      5.523      7.740
REMARK  3 active torsions:
REMARK  status: ('A' for Active; 'I' for Inactive)
REMARK    1  A    between atoms: S1_2  and  C2_5 
REMARK    2  A    between atoms: C5_8  and  N1_9 
REMARK    3  A    between atoms: N1_9  and  C6_11 
ROOT
HETATM    1  N1  UNL     1     -13.378  26.081  -4.029  1.00  0.00    -0.190 N 
ATOM      2  H1  UNL     1     -12.625  25.826  -3.390  1.00  0.00     0.184 HD
ENDROOT
BRANCH   1   3
HETATM    3  C5  UNL     1     -14.690  26.328  -3.531  1.00  0.00     0.049 A 
HETATM    4  C4  UNL     1     -15.541  27.176  -4.210  1.00  0.00     0.031 A 
HETATM    5  C3  UNL     1     -16.795  27.408  -3.730  1.00  0.00     0.025 A 
HETATM    6  C2  UNL     1     -17.269  26.821  -2.563  1.00  0.00     0.059 A 
HETATM    7  C9  UNL     1     -16.426  25.984  -1.896  1.00  0.00     0.025 A 
HETATM    8  C8  UNL     1     -15.159  25.744  -2.373  1.00  0.00     0.031 A 
BRANCH   6   9
HETATM    9  S1  UNL     1     -18.882  27.157  -2.000  1.00  0.00     0.171 S 
HETATM   10  C1  UNL     1     -19.590  25.655  -1.361  1.00  0.00     0.167 C 
HETATM   11  O1  UNL     1     -19.687  27.624  -3.191  1.00  0.00    -0.223 OA
HETATM   12  O2  UNL     1     -18.920  28.184  -0.928  1.00  0.00    -0.223 OA
ENDBRANCH   6   9
ENDBRANCH   1   3
BRANCH   1  13
HETATM   13  C6  UNL     1     -13.152  26.182  -5.292  1.00  0.00     0.701 A 
HETATM   14  N2  UNL     1     -12.630  27.257  -5.928  1.00  0.00    -0.128 N 
HETATM   15  N3  UNL     1     -12.541  27.009  -7.213  1.00  0.00    -0.237 N 
ATOM     16  H2  UNL     1     -12.349  28.126  -5.477  1.00  0.00     0.205 HD
HETATM   17  C7  UNL     1     -12.998  25.773  -7.461  1.00  0.00     0.353 A 
ATOM     18  H3  UNL     1     -12.181  27.657  -7.914  1.00  0.00     0.192 HD
HETATM   19  O3  UNL     1     -13.066  25.191  -8.580  1.00  0.00    -0.245 OA
HETATM   20  N4  UNL     1     -13.368  25.283  -6.266  1.00  0.00    -0.139 N 
ATOM     21  H4  UNL     1     -13.760  24.353  -6.117  1.00  0.00     0.189 HD
ENDBRANCH   1  13
TORSDOF 3
ENDMDL
MODEL 3
REMARK VINA RESULT: -6.648465658      5.494      7.630
REMARK  3 active torsions:
REMARK  status: ('A' for Active; 'I' for Inactive)
REMARK    1  A    between atoms: S1_2  and  C2_5 
REMARK    2  A    between atoms: C5_8  and  N1_9 
REMARK    3  A    between atoms: N1_9  and  C6_11 
ROOT
HETATM    1  N1  UNL     1     -13.442  26.021  -4.030  1.00  0.00    -0.190 N 
ATOM      2  H1  UNL     1     -12.707  25.713  -3.394  1.00  0.00     0.184 HD
ENDROOT
BRANCH   1   3
HETATM    3  C5  UNL     1     -14.746  26.314  -3.535  1.00  0.00     0.049 A 
HETATM    4  C4  UNL     1     -15.174  25.772  -2.341  1.00  0.00     0.031 A 
HETATM    5  C3  UNL     1     -16.421  26.055  -1.873  1.00  0.00     0.025 A 
HETATM    6  C2  UNL     1     -17.305  26.882  -2.555  1.00  0.00     0.059 A 
HETATM    7  C9  UNL     1     -16.880  27.416  -3.735  1.00  0.00     0.025 A 
HETATM    8  C8  UNL     1     -15.622  27.135  -4.214  1.00  0.00     0.031 A 
BRANCH   6   9
HETATM    9  S1  UNL     1     -18.888  27.208  -1.906  1.00  0.00     0.171 S 
HETATM   10  C1  UNL     1     -19.500  25.733  -1.121  1.00  0.00     0.167 C 
HETATM   11  O1  UNL     1     -19.785  27.567  -3.068  1.00  0.00    -0.223 OA
HETATM   12  O2  UNL     1     -18.889  28.304  -0.905  1.00  0.00    -0.223 OA
ENDBRANCH   6   9
ENDBRANCH   1   3
BRANCH   1  13
HETATM   13  C6  UNL     1     -13.200  26.150  -5.288  1.00  0.00     0.701 A 
HETATM   14  N2  UNL     1     -12.697  27.247  -5.898  1.00  0.00    -0.128 N 
HETATM   15  N3  UNL     1     -12.583  27.024  -7.186  1.00  0.00    -0.237 N 
ATOM     16  H2  UNL     1     -12.445  28.116  -5.429  1.00  0.00     0.205 HD
HETATM   17  C7  UNL     1     -13.005  25.780  -7.461  1.00  0.00     0.353 A 
ATOM     18  H3  UNL     1     -12.230  27.692  -7.871  1.00  0.00     0.192 HD
HETATM   19  O3  UNL     1     -13.042  25.216  -8.590  1.00  0.00    -0.245 OA
HETATM   20  N4  UNL     1     -13.379  25.262  -6.279  1.00  0.00    -0.139 N 
ATOM     21  H4  UNL     1     -13.749  24.320  -6.152  1.00  0.00     0.189 HD
ENDBRANCH   1  13
TORSDOF 3
ENDMDL
MODEL 4
REMARK VINA RESULT: -6.555704164      5.537      9.106
REMARK  3 active torsions:
REMARK  status: ('A' for Active; 'I' for Inactive)
REMARK    1  A    between atoms: S1_2  and  C2_5 
REMARK    2  A    between atoms: C5_8  and  N1_9 
REMARK    3  A    between atoms: N1_9  and  C6_11 
ROOT
HETATM    1  N1  UNL     1     -16.458  25.682  -1.317  1.00  0.00    -0.190 N 
ATOM      2  H1  UNL     1     -16.096  25.418  -0.401  1.00  0.00     0.184 HD
ENDROOT
BRANCH   1   3
HETATM    3  C5  UNL     1     -15.562  25.988  -2.383  1.00  0.00     0.049 A 
HETATM    4  C4  UNL     1     -14.300  25.431  -2.411  1.00  0.00     0.031 A 
HETATM    5  C3  UNL     1     -13.448  25.726  -3.432  1.00  0.00     0.025 A 
HETATM    6  C2  UNL     1     -13.795  26.582  -4.470  1.00  0.00     0.059 A 
HETATM    7  C9  UNL     1     -15.043  27.130  -4.440  1.00  0.00     0.025 A 
HETATM    8  C8  UNL     1     -15.909  26.837  -3.413  1.00  0.00     0.031 A 
BRANCH   6   9
HETATM    9  S1  UNL     1     -12.663  26.921  -5.749  1.00  0.00     0.171 S 
HETATM   10  C1  UNL     1     -13.018  25.854  -7.127  1.00  0.00     0.167 C 
HETATM   11  O1  UNL     1     -11.281  26.614  -5.219  1.00  0.00    -0.223 OA
HETATM   12  O2  UNL     1     -12.725  28.328  -6.220  1.00  0.00    -0.223 OA
ENDBRANCH   6   9
ENDBRANCH   1   3
BRANCH   1  13
HETATM   13  C6  UNL     1     -17.728  25.743  -1.522  1.00  0.00     0.701 A 
HETATM   14  N2  UNL     1     -18.450  24.923  -2.320  1.00  0.00    -0.128 N 
HETATM   15  N3  UNL     1     -19.712  25.278  -2.291  1.00  0.00    -0.237 N 
ATOM     16  H2  UNL     1     -18.070  24.147  -2.861  1.00  0.00     0.205 HD
HETATM   17  C7  UNL     1     -19.859  26.335  -1.478  1.00  0.00     0.353 A 
ATOM     18  H3  UNL     1     -20.464  24.821  -2.806  1.00  0.00     0.192 HD
HETATM   19  O3  UNL     1     -20.929  26.948  -1.204  1.00  0.00    -0.245 OA
HETATM   20  N4  UNL     1     -18.626  26.604  -1.017  1.00  0.00    -0.139 N 
ATOM     21  H4  UNL     1     -18.402  27.359  -0.370  1.00  0.00     0.189 HD
ENDBRANCH   1  13
TORSDOF 3
ENDMDL
MODEL 5
REMARK VINA RESULT: -6.529930135      5.659      7.722
REMARK  3 active torsions:
REMARK  status: ('A' for Active; 'I' for Inactive)
REMARK    1  A    between atoms: S1_2  and  C2_5 
REMARK    2  A    between atoms: C5_8  and  N1_9 
REMARK    3  A    between atoms: N1_9  and  C6_11 
ROOT
HETATM    1  N1  UNL     1     -13.200  25.733  -3.594  1.00  0.00    -0.190 N 
ATOM      2  H1  UNL     1     -12.435  25.952  -2.956  1.00  0.00     0.184 HD
ENDROOT
BRANCH   1   3
HETATM    3  C5  UNL     1     -14.537  26.100  -3.267  1.00  0.00     0.049 A 
HETATM    4  C4  UNL     1     -15.126  25.622  -2.114  1.00  0.00     0.031 A 
HETATM    5  C3  UNL     1     -16.405  25.977  -1.806  1.00  0.00     0.025 A 
HETATM    6  C2  UNL     1     -17.163  26.814  -2.615  1.00  0.00     0.059 A 
HETATM    7  C9  UNL     1     -16.579  27.284  -3.753  1.00  0.00     0.025 A 
HETATM    8  C8  UNL     1     -15.288  26.931  -4.071  1.00  0.00     0.031 A 
BRANCH   6   9
HETATM    9  S1  UNL     1     -18.794  27.232  -2.168  1.00  0.00     0.171 S 
HETATM   10  C1  UNL     1     -19.610  25.775  -1.554  1.00  0.00     0.167 C 
HETATM   11  O1  UNL     1     -19.494  27.710  -3.420  1.00  0.00    -0.223 OA
HETATM   12  O2  UNL     1     -18.857  28.280  -1.119  1.00  0.00    -0.223 OA
ENDBRANCH   6   9
ENDBRANCH   1   3
BRANCH   1  13
HETATM   13  C6  UNL     1     -12.966  25.121  -4.703  1.00  0.00     0.701 A 
HETATM   14  N2  UNL     1     -13.635  24.047  -5.180  1.00  0.00    -0.128 N 
HETATM   15  N3  UNL     1     -13.128  23.687  -6.334  1.00  0.00    -0.237 N 
ATOM     16  H2  UNL     1     -14.417  23.587  -4.713  1.00  0.00     0.205 HD
HETATM   17  C7  UNL     1     -12.115  24.508  -6.651  1.00  0.00     0.353 A 
ATOM     18  H3  UNL     1     -13.452  22.905  -6.903  1.00  0.00     0.192 HD
HETATM   19  O3  UNL     1     -11.392  24.470  -7.686  1.00  0.00    -0.245 OA
HETATM   20  N4  UNL     1     -12.034  25.382  -5.633  1.00  0.00    -0.139 N 
ATOM     21  H4  UNL     1     -11.356  26.142  -5.576  1.00  0.00     0.189 HD
ENDBRANCH   1  13
TORSDOF 3
ENDMDL
