MODEL 1
REMARK VINA RESULT: -7.475780269      0.000      0.000
REMARK  3 active torsions:
REMARK  status: ('A' for Active; 'I' for Inactive)
REMARK    1  A    between atoms: S1_2  and  N1_4 
REMARK    2  A    between atoms: S1_2  and  C5_18 
REMARK    3  A    between atoms: N1_4  and  C1_6 
ROOT
HETATM    1  C1  UNL     1     -19.650  25.207  -0.753  1.00  0.00     0.145 A 
HETATM    2  N2  UNL     1     -18.882  24.107  -0.493  1.00  0.00    -0.282 N 
ATOM      3  H2  UNL     1     -18.246  23.660  -1.152  1.00  0.00     0.188 HD
HETATM    4  N3  UNL     1     -19.094  23.723   0.735  1.00  0.00    -0.282 N 
ATOM      5  H3  UNL     1     -18.635  22.921   1.166  1.00  0.00     0.188 HD
HETATM    6  C2  UNL     1     -19.986  24.504   1.367  1.00  0.00     0.150 A 
HETATM    7  N4  UNL     1     -20.683  24.795   2.468  1.00  0.00    -0.284 N 
ATOM      8  H4  UNL     1     -20.638  24.275   3.344  1.00  0.00     0.188 HD
HETATM    9  N5  UNL     1     -21.440  25.854   2.256  1.00  0.00    -0.309 N 
ATOM     10  H5  UNL     1     -22.069  26.280   2.936  1.00  0.00     0.186 HD
HETATM   11  C3  UNL     1     -21.246  26.285   0.985  1.00  0.00     0.126 A 
HETATM   12  C4  UNL     1     -20.338  25.455   0.402  1.00  0.00     0.073 A 
ENDROOT
BRANCH   1  13
HETATM   13  N1  UNL     1     -19.635  25.783  -1.879  1.00  0.00    -0.264 N 
ATOM     14  H1  UNL     1     -20.161  25.324  -2.623  1.00  0.00     0.180 HD
BRANCH  13  15
HETATM   15  S1  UNL     1     -18.851  27.224  -2.304  1.00  0.00     0.265 S 
HETATM   16  O1  UNL     1     -19.378  27.873  -3.539  1.00  0.00    -0.200 OA
HETATM   17  O2  UNL     1     -18.894  28.157  -1.103  1.00  0.00    -0.200 OA
BRANCH  15  18
HETATM   18  C5  UNL     1     -17.133  26.925  -2.604  1.00  0.00     0.095 A 
HETATM   19  C6  UNL     1     -16.508  27.246  -3.773  1.00  0.00     0.028 A 
HETATM   20  C7  UNL     1     -15.156  26.967  -3.903  1.00  0.00     0.019 A 
HETATM   21  C8  UNL     1     -14.424  26.378  -2.895  1.00  0.00     0.087 A 
HETATM   22  N6  UNL     1     -15.066  26.072  -1.757  1.00  0.00    -0.374 N 
HETATM   23  C9  UNL     1     -16.390  26.338  -1.609  1.00  0.00     0.112 A 
ATOM     24  H6  UNL     1     -14.552  25.634  -0.992  1.00  0.00     0.164 HD
ENDBRANCH  15  18
ENDBRANCH  13  15
ENDBRANCH   1  13
TORSDOF 3
ENDMDL
MODEL 2
REMARK VINA RESULT: -7.286125777      0.963      1.705
REMARK  3 active torsions:
REMARK  status: ('A' for Active; 'I' for Inactive)
REMARK    1  A    between atoms: S1_2  and  N1_4 
REMARK    2  A    between atoms: S1_2  and  C5_18 
REMARK    3  A    between atoms: N1_4  and  C1_6 
ROOT
HETATM    1  C1  UNL     1     -19.861  25.685  -0.249  1.00  0.00     0.145 A 
HETATM    2  N2  UNL     1     -20.974  26.211   0.342  1.00  0.00    -0.282 N 
ATOM      3  H2  UNL     1     -21.674  26.790  -0.123  1.00  0.00     0.188 HD
HETATM    4  N3  UNL     1     -20.998  25.854   1.595  1.00  0.00    -0.282 N 
ATOM      5  H3  UNL     1     -21.733  26.122   2.249  1.00  0.00     0.188 HD
HETATM    6  C2  UNL     1     -19.942  25.091   1.928  1.00  0.00     0.150 A 
HETATM    7  N4  UNL     1     -19.272  24.395   2.849  1.00  0.00    -0.284 N 
ATOM      8  H4  UNL     1     -19.557  24.286   3.822  1.00  0.00     0.188 HD
HETATM    9  N5  UNL     1     -18.186  23.870   2.315  1.00  0.00    -0.309 N 
ATOM     10  H5  UNL     1     -17.502  23.295   2.806  1.00  0.00     0.186 HD
HETATM   11  C3  UNL     1     -18.127  24.220   1.007  1.00  0.00     0.126 A 
HETATM   12  C4  UNL     1     -19.218  24.988   0.735  1.00  0.00     0.073 A 
ENDROOT
BRANCH   1  13
HETATM   13  N1  UNL     1     -19.595  25.880  -1.471  1.00  0.00    -0.264 N 
ATOM     14  H1  UNL     1     -19.841  25.123  -2.108  1.00  0.00     0.180 HD
BRANCH  13  15
HETATM   15  S1  UNL     1     -18.881  27.245  -2.178  1.00  0.00     0.265 S 
HETATM   16  O1  UNL     1     -19.505  27.671  -3.465  1.00  0.00    -0.200 OA
HETATM   17  O2  UNL     1     -18.875  28.363  -1.146  1.00  0.00    -0.200 OA
BRANCH  15  18
HETATM   18  C5  UNL     1     -17.178  26.931  -2.541  1.00  0.00     0.095 A 
HETATM   19  C6  UNL     1     -16.579  27.302  -3.709  1.00  0.00     0.028 A 
HETATM   20  C7  UNL     1     -15.236  27.006  -3.891  1.00  0.00     0.019 A 
HETATM   21  C8  UNL     1     -14.489  26.352  -2.935  1.00  0.00     0.087 A 
HETATM   22  N6  UNL     1     -15.106  25.998  -1.797  1.00  0.00    -0.374 N 
HETATM   23  C9  UNL     1     -16.420  26.279  -1.599  1.00  0.00     0.112 A 
ATOM     24  H6  UNL     1     -14.581  25.512  -1.071  1.00  0.00     0.164 HD
ENDBRANCH  15  18
ENDBRANCH  13  15
ENDBRANCH   1  13
TORSDOF 3
ENDMDL
MODEL 3
REMARK VINA RESULT: -7.068650352      1.156      2.039
REMARK  3 active torsions:
REMARK  status: ('A' for Active; 'I' for Inactive)
REMARK    1  A    between atoms: S1_2  and  N1_4 
REMARK    2  A    between atoms: S1_2  and  C5_18 
REMARK    3  A    between atoms: N1_4  and  C1_6 
ROOT
HETATM    1  C1  UNL     1     -19.889  25.683  -0.227  1.00  0.00     0.145 A 
HETATM    2  N2  UNL     1     -20.995  26.189   0.395  1.00  0.00    -0.282 N 
ATOM      3  H2  UNL     1     -21.707  26.772  -0.044  1.00  0.00     0.188 HD
HETATM    4  N3  UNL     1     -20.992  25.807   1.641  1.00  0.00    -0.282 N 
ATOM      5  H3  UNL     1     -21.717  26.056   2.314  1.00  0.00     0.188 HD
HETATM    6  C2  UNL     1     -19.926  25.045   1.939  1.00  0.00     0.150 A 
HETATM    7  N4  UNL     1     -19.233  24.336   2.832  1.00  0.00    -0.284 N 
ATOM      8  H4  UNL     1     -19.498  24.205   3.809  1.00  0.00     0.188 HD
HETATM    9  N5  UNL     1     -18.154  23.830   2.268  1.00  0.00    -0.309 N 
ATOM     10  H5  UNL     1     -17.456  23.249   2.734  1.00  0.00     0.186 HD
HETATM   11  C3  UNL     1     -18.122  24.207   0.966  1.00  0.00     0.126 A 
HETATM   12  C4  UNL     1     -19.223  24.972   0.731  1.00  0.00     0.073 A 
ENDROOT
BRANCH   1  13
HETATM   13  N1  UNL     1     -19.648  25.905  -1.449  1.00  0.00    -0.264 N 
ATOM     14  H1  UNL     1     -19.951  25.183  -2.103  1.00  0.00     0.180 HD
BRANCH  13  15
HETATM   15  S1  UNL     1     -18.883  27.254  -2.134  1.00  0.00     0.265 S 
HETATM   16  O1  UNL     1     -19.457  27.692  -3.439  1.00  0.00    -0.200 OA
HETATM   17  O2  UNL     1     -18.885  28.373  -1.102  1.00  0.00    -0.200 OA
BRANCH  15  18
HETATM   18  C5  UNL     1     -17.177  26.903  -2.443  1.00  0.00     0.095 A 
HETATM   19  C6  UNL     1     -16.365  26.276  -1.544  1.00  0.00     0.028 A 
HETATM   20  C7  UNL     1     -15.041  26.050  -1.888  1.00  0.00     0.019 A 
HETATM   21  C8  UNL     1     -14.518  26.437  -3.103  1.00  0.00     0.087 A 
HETATM   22  N6  UNL     1     -15.340  27.053  -3.967  1.00  0.00    -0.374 N 
HETATM   23  C9  UNL     1     -16.641  27.283  -3.649  1.00  0.00     0.112 A 
ATOM     24  H6  UNL     1     -14.984  27.353  -4.874  1.00  0.00     0.164 HD
ENDBRANCH  15  18
ENDBRANCH  13  15
ENDBRANCH   1  13
TORSDOF 3
ENDMDL
MODEL 4
REMARK VINA RESULT: -7.042365217      2.899      6.618
REMARK  3 active torsions:
REMARK  status: ('A' for Active; 'I' for Inactive)
REMARK    1  A    between atoms: S1_2  and  N1_4 
REMARK    2  A    between atoms: S1_2  and  C5_18 
REMARK    3  A    between atoms: N1_4  and  C1_6 
ROOT
HETATM    1  C1  UNL     1     -19.462  25.320  -1.034  1.00  0.00     0.145 A 
HETATM    2  N2  UNL     1     -20.370  26.319  -1.244  1.00  0.00    -0.282 N 
ATOM      3  H2  UNL     1     -21.206  26.487  -0.685  1.00  0.00     0.188 HD
HETATM    4  N3  UNL     1     -19.994  27.023  -2.275  1.00  0.00    -0.282 N 
ATOM      5  H3  UNL     1     -20.509  27.828  -2.631  1.00  0.00     0.188 HD
HETATM    6  C2  UNL     1     -18.851  26.566  -2.815  1.00  0.00     0.150 A 
HETATM    7  N4  UNL     1     -17.899  26.667  -3.745  1.00  0.00    -0.284 N 
ATOM      8  H4  UNL     1     -17.869  27.375  -4.478  1.00  0.00     0.188 HD
HETATM    9  N5  UNL     1     -17.001  25.716  -3.575  1.00  0.00    -0.309 N 
ATOM     10  H5  UNL     1     -16.173  25.572  -4.153  1.00  0.00     0.186 HD
HETATM   11  C3  UNL     1     -17.358  24.961  -2.507  1.00  0.00     0.126 A 
HETATM   12  C4  UNL     1     -18.517  25.472  -2.009  1.00  0.00     0.073 A 
ENDROOT
BRANCH   1  13
HETATM   13  N1  UNL     1     -19.589  24.487  -0.090  1.00  0.00    -0.264 N 
ATOM     14  H1  UNL     1     -19.416  23.511  -0.329  1.00  0.00     0.180 HD
BRANCH  13  15
HETATM   15  S1  UNL     1     -20.011  24.793   1.523  1.00  0.00     0.265 S 
HETATM   16  O1  UNL     1     -18.879  25.244   2.382  1.00  0.00    -0.200 OA
HETATM   17  O2  UNL     1     -21.166  25.784   1.529  1.00  0.00    -0.200 OA
BRANCH  15  18
HETATM   18  C5  UNL     1     -20.648  23.326   2.281  1.00  0.00     0.095 A 
HETATM   19  C6  UNL     1     -20.513  22.082   1.739  1.00  0.00     0.028 A 
HETATM   20  C7  UNL     1     -21.051  20.999   2.418  1.00  0.00     0.019 A 
HETATM   21  C8  UNL     1     -21.715  21.135   3.617  1.00  0.00     0.087 A 
HETATM   22  N6  UNL     1     -21.833  22.372   4.125  1.00  0.00    -0.374 N 
HETATM   23  C9  UNL     1     -21.313  23.446   3.477  1.00  0.00     0.112 A 
ATOM     24  H6  UNL     1     -22.321  22.507   5.011  1.00  0.00     0.164 HD
ENDBRANCH  15  18
ENDBRANCH  13  15
ENDBRANCH   1  13
TORSDOF 3
ENDMDL
MODEL 5
REMARK VINA RESULT: -7.030957016      2.106      5.925
REMARK  3 active torsions:
REMARK  status: ('A' for Active; 'I' for Inactive)
REMARK    1  A    between atoms: S1_2  and  N1_4 
REMARK    2  A    between atoms: S1_2  and  C5_18 
REMARK    3  A    between atoms: N1_4  and  C1_6 
ROOT
HETATM    1  C1  UNL     1     -18.420  26.937  -1.931  1.00  0.00     0.145 A 
HETATM    2  N2  UNL     1     -19.171  27.229  -3.035  1.00  0.00    -0.282 N 
ATOM      3  H2  UNL     1     -20.173  27.421  -3.035  1.00  0.00     0.188 HD
HETATM    4  N3  UNL     1     -18.400  27.220  -4.086  1.00  0.00    -0.282 N 
ATOM      5  H3  UNL     1     -18.729  27.411  -5.032  1.00  0.00     0.188 HD
HETATM    6  C2  UNL     1     -17.124  26.933  -3.780  1.00  0.00     0.150 A 
HETATM    7  N4  UNL     1     -15.862  26.742  -4.173  1.00  0.00    -0.284 N 
ATOM      8  H4  UNL     1     -15.533  26.808  -5.136  1.00  0.00     0.188 HD
HETATM    9  N5  UNL     1     -15.104  26.457  -3.132  1.00  0.00    -0.309 N 
ATOM     10  H5  UNL     1     -14.102  26.268  -3.162  1.00  0.00     0.186 HD
HETATM   11  C3  UNL     1     -15.873  26.457  -2.016  1.00  0.00     0.126 A 
HETATM   12  C4  UNL     1     -17.147  26.752  -2.392  1.00  0.00     0.073 A 
ENDROOT
BRANCH   1  13
HETATM   13  N1  UNL     1     -18.926  26.880  -0.772  1.00  0.00    -0.264 N 
ATOM     14  H1  UNL     1     -18.532  27.517  -0.081  1.00  0.00     0.180 HD
BRANCH  13  15
HETATM   15  S1  UNL     1     -20.178  25.875  -0.228  1.00  0.00     0.265 S 
HETATM   16  O1  UNL     1     -21.453  26.586   0.074  1.00  0.00    -0.200 OA
HETATM   17  O2  UNL     1     -20.369  24.764  -1.251  1.00  0.00    -0.200 OA
BRANCH  15  18
HETATM   18  C5  UNL     1     -19.705  25.059   1.269  1.00  0.00     0.095 A 
HETATM   19  C6  UNL     1     -18.423  24.686   1.548  1.00  0.00     0.028 A 
HETATM   20  C7  UNL     1     -18.162  24.051   2.753  1.00  0.00     0.019 A 
HETATM   21  C8  UNL     1     -19.151  23.784   3.676  1.00  0.00     0.087 A 
HETATM   22  N6  UNL     1     -20.403  24.161   3.372  1.00  0.00    -0.374 N 
HETATM   23  C9  UNL     1     -20.679  24.785   2.198  1.00  0.00     0.112 A 
ATOM     24  H6  UNL     1     -21.158  23.977   4.034  1.00  0.00     0.164 HD
ENDBRANCH  15  18
ENDBRANCH  13  15
ENDBRANCH   1  13
TORSDOF 3
ENDMDL
