MODEL 1
REMARK VINA RESULT: -6.898651051      0.000      0.000
REMARK  3 active torsions:
REMARK  status: ('A' for Active; 'I' for Inactive)
REMARK    1  A    between atoms: C3_4  and  C4_5 
REMARK    2  A    between atoms: C9_13  and  C10_14 
REMARK    3  A    between atoms: N6_23  and  O2_24 
ROOT
HETATM    1  N1  UNL     1     -21.689  26.556   0.792  1.00  0.00    -0.190 NA
HETATM    2  C1  UNL     1     -20.855  26.254   0.033  1.00  0.00     0.123 C 
HETATM    3  C2  UNL     1     -19.843  25.880  -0.910  1.00  0.00     0.175 A 
HETATM    4  C3  UNL     1     -18.935  24.820  -0.800  1.00  0.00     0.063 A 
HETATM    5  C9  UNL     1     -18.128  24.798  -1.916  1.00  0.00     0.094 A 
HETATM    6  N5  UNL     1     -18.559  25.844  -2.682  1.00  0.00    -0.270 N 
ATOM      7  H5  UNL     1     -18.165  26.106  -3.586  1.00  0.00     0.189 HD
HETATM    8  N6  UNL     1     -19.560  26.467  -2.084  1.00  0.00    -0.151 N 
ENDROOT
BRANCH   4   9
HETATM    9  C4  UNL     1     -18.908  23.928   0.331  1.00  0.00     0.050 A 
HETATM   10  C5  UNL     1     -17.953  23.940   1.323  1.00  0.00     0.031 A 
HETATM   11  C6  UNL     1     -17.992  23.052   2.387  1.00  0.00     0.008 A 
HETATM   12  C7  UNL     1     -19.018  22.153   2.422  1.00  0.00     0.074 A 
HETATM   13  C8  UNL     1     -19.982  22.124   1.441  1.00  0.00     0.245 A 
HETATM   14  O1  UNL     1     -20.914  21.269   1.523  1.00  0.00    -0.268 OA
HETATM   15  N2  UNL     1     -19.894  23.000   0.444  1.00  0.00    -0.323 N 
ATOM     16  H2  UNL     1     -20.612  22.974  -0.281  1.00  0.00     0.169 HD
ENDBRANCH   4   9
BRANCH   8  17
HETATM   17  O2  UNL     1     -20.206  27.571  -2.623  1.00  0.00    -0.267 OA
ATOM     18  H2  UNL     1     -20.914  27.551  -3.257  1.00  0.00     0.247 HD
ENDBRANCH   8  17
BRANCH   5  19
HETATM   19  C10 UNL     1     -17.048  23.870  -2.218  1.00  0.00     0.078 A 
HETATM   20  C11 UNL     1     -17.063  22.891  -3.198  1.00  0.00     0.052 A 
HETATM   21  C12 UNL     1     -15.865  22.206  -3.188  1.00  0.00     0.109 A 
HETATM   22  N3  UNL     1     -15.145  22.784  -2.200  1.00  0.00    -0.311 N 
HETATM   23  N4  UNL     1     -15.843  23.754  -1.639  1.00  0.00    -0.299 N 
ATOM     24  H3  UNL     1     -14.201  22.511  -1.928  1.00  0.00     0.186 HD
ATOM     25  H4  UNL     1     -15.511  24.336  -0.870  1.00  0.00     0.187 HD
ENDBRANCH   5  19
TORSDOF 3
ENDMDL
MODEL 2
REMARK VINA RESULT: -6.871949339      2.488      4.630
REMARK  3 active torsions:
REMARK  status: ('A' for Active; 'I' for Inactive)
REMARK    1  A    between atoms: C3_4  and  C4_5 
REMARK    2  A    between atoms: C9_13  and  C10_14 
REMARK    3  A    between atoms: N6_23  and  O2_24 
ROOT
HETATM    1  N1  UNL     1     -18.507  27.389  -4.340  1.00  0.00    -0.190 NA
HETATM    2  C1  UNL     1     -18.796  27.001  -3.277  1.00  0.00     0.123 C 
HETATM    3  C2  UNL     1     -19.153  26.541  -1.968  1.00  0.00     0.175 A 
HETATM    4  C3  UNL     1     -18.353  25.811  -1.081  1.00  0.00     0.063 A 
HETATM    5  C9  UNL     1     -19.064  25.566   0.073  1.00  0.00     0.094 A 
HETATM    6  N5  UNL     1     -20.282  26.149  -0.134  1.00  0.00    -0.270 N 
ATOM      7  H5  UNL     1     -21.051  26.149   0.537  1.00  0.00     0.189 HD
HETATM    8  N6  UNL     1     -20.320  26.715  -1.328  1.00  0.00    -0.151 N 
ENDROOT
BRANCH   4   9
HETATM    9  C4  UNL     1     -17.002  25.415  -1.391  1.00  0.00     0.050 A 
HETATM   10  C5  UNL     1     -15.873  26.113  -1.028  1.00  0.00     0.031 A 
HETATM   11  C6  UNL     1     -14.601  25.670  -1.358  1.00  0.00     0.008 A 
HETATM   12  C7  UNL     1     -14.501  24.506  -2.064  1.00  0.00     0.074 A 
HETATM   13  C8  UNL     1     -15.618  23.794  -2.437  1.00  0.00     0.245 A 
HETATM   14  O1  UNL     1     -15.468  22.719  -3.091  1.00  0.00    -0.268 OA
HETATM   15  N2  UNL     1     -16.812  24.267  -2.092  1.00  0.00    -0.323 N 
ATOM     16  H2  UNL     1     -17.636  23.734  -2.371  1.00  0.00     0.169 HD
ENDBRANCH   4   9
BRANCH   8  17
HETATM   17  O2  UNL     1     -21.430  27.389  -1.820  1.00  0.00    -0.267 OA
ATOM     18  H2  UNL     1     -22.335  27.229  -1.577  1.00  0.00     0.247 HD
ENDBRANCH   8  17
BRANCH   5  19
HETATM   19  C10 UNL     1     -18.623  24.840   1.255  1.00  0.00     0.078 A 
HETATM   20  C11 UNL     1     -17.905  23.655   1.264  1.00  0.00     0.052 A 
HETATM   21  C12 UNL     1     -17.671  23.264   2.567  1.00  0.00     0.109 A 
HETATM   22  N3  UNL     1     -18.252  24.223   3.324  1.00  0.00    -0.311 N 
HETATM   23  N4  UNL     1     -18.805  25.138   2.550  1.00  0.00    -0.299 N 
ATOM     24  H3  UNL     1     -18.262  24.237   4.344  1.00  0.00     0.186 HD
ATOM     25  H4  UNL     1     -19.303  25.961   2.891  1.00  0.00     0.187 HD
ENDBRANCH   5  19
TORSDOF 3
ENDMDL
MODEL 3
REMARK VINA RESULT: -6.842913636      2.366      4.125
REMARK  3 active torsions:
REMARK  status: ('A' for Active; 'I' for Inactive)
REMARK    1  A    between atoms: C3_4  and  C4_5 
REMARK    2  A    between atoms: C9_13  and  C10_14 
REMARK    3  A    between atoms: N6_23  and  O2_24 
ROOT
HETATM    1  N1  UNL     1     -18.989  22.877   3.267  1.00  0.00    -0.190 NA
HETATM    2  C1  UNL     1     -19.262  23.674   2.459  1.00  0.00     0.123 C 
HETATM    3  C2  UNL     1     -19.610  24.645   1.465  1.00  0.00     0.175 A 
HETATM    4  C3  UNL     1     -18.928  24.918   0.274  1.00  0.00     0.063 A 
HETATM    5  C9  UNL     1     -19.585  25.920  -0.405  1.00  0.00     0.094 A 
HETATM    6  N5  UNL     1     -20.653  26.238   0.385  1.00  0.00    -0.270 N 
ATOM      7  H5  UNL     1     -21.348  26.953   0.168  1.00  0.00     0.189 HD
HETATM    8  N6  UNL     1     -20.656  25.487   1.473  1.00  0.00    -0.151 N 
ENDROOT
BRANCH   4   9
HETATM    9  C4  UNL     1     -17.731  24.218  -0.120  1.00  0.00     0.050 A 
HETATM   10  C5  UNL     1     -16.464  24.756  -0.112  1.00  0.00     0.031 A 
HETATM   11  C6  UNL     1     -15.355  24.020  -0.501  1.00  0.00     0.008 A 
HETATM   12  C7  UNL     1     -15.560  22.731  -0.899  1.00  0.00     0.074 A 
HETATM   13  C8  UNL     1     -16.819  22.175  -0.914  1.00  0.00     0.245 A 
HETATM   14  O1  UNL     1     -16.952  20.972  -1.292  1.00  0.00    -0.268 OA
HETATM   15  N2  UNL     1     -17.845  22.928  -0.530  1.00  0.00    -0.323 N 
ATOM     16  H2  UNL     1     -18.776  22.510  -0.543  1.00  0.00     0.169 HD
ENDBRANCH   4   9
BRANCH   8  17
HETATM   17  O2  UNL     1     -21.623  25.581   2.466  1.00  0.00    -0.267 OA
ATOM     18  H2  UNL     1     -22.410  26.113   2.432  1.00  0.00     0.247 HD
ENDBRANCH   8  17
BRANCH   5  19
HETATM   19  C10 UNL     1     -19.224  26.518  -1.682  1.00  0.00     0.078 A 
HETATM   20  C11 UNL     1     -18.449  27.653  -1.862  1.00  0.00     0.052 A 
HETATM   21  C12 UNL     1     -18.323  27.920  -3.210  1.00  0.00     0.109 A 
HETATM   22  N3  UNL     1     -19.025  26.939  -3.823  1.00  0.00    -0.311 N 
HETATM   23  N4  UNL     1     -19.547  26.126  -2.924  1.00  0.00    -0.299 N 
ATOM     24  H3  UNL     1     -19.134  26.842  -4.832  1.00  0.00     0.186 HD
ATOM     25  H4  UNL     1     -20.119  25.310  -3.143  1.00  0.00     0.187 HD
ENDBRANCH   5  19
TORSDOF 3
ENDMDL
MODEL 4
REMARK VINA RESULT: -6.797289136      2.571      4.472
REMARK  3 active torsions:
REMARK  status: ('A' for Active; 'I' for Inactive)
REMARK    1  A    between atoms: C3_4  and  C4_5 
REMARK    2  A    between atoms: C9_13  and  C10_14 
REMARK    3  A    between atoms: N6_23  and  O2_24 
ROOT
HETATM    1  N1  UNL     1     -19.080  22.769   3.192  1.00  0.00    -0.190 NA
HETATM    2  C1  UNL     1     -19.334  23.597   2.409  1.00  0.00     0.123 C 
HETATM    3  C2  UNL     1     -19.660  24.607   1.446  1.00  0.00     0.175 A 
HETATM    4  C3  UNL     1     -18.980  24.891   0.256  1.00  0.00     0.063 A 
HETATM    5  C9  UNL     1     -19.610  25.932  -0.388  1.00  0.00     0.094 A 
HETATM    6  N5  UNL     1     -20.660  26.263   0.421  1.00  0.00    -0.270 N 
ATOM      7  H5  UNL     1     -21.333  27.005   0.230  1.00  0.00     0.189 HD
HETATM    8  N6  UNL     1     -20.678  25.482   1.488  1.00  0.00    -0.151 N 
ENDROOT
BRANCH   4   9
HETATM    9  C4  UNL     1     -17.810  24.164  -0.169  1.00  0.00     0.050 A 
HETATM   10  C5  UNL     1     -17.822  22.894  -0.701  1.00  0.00     0.031 A 
HETATM   11  C6  UNL     1     -16.656  22.255  -1.093  1.00  0.00     0.008 A 
HETATM   12  C7  UNL     1     -15.481  22.930  -0.934  1.00  0.00     0.074 A 
HETATM   13  C8  UNL     1     -15.448  24.200  -0.404  1.00  0.00     0.245 A 
HETATM   14  O1  UNL     1     -14.329  24.781  -0.278  1.00  0.00    -0.268 OA
HETATM   15  N2  UNL     1     -16.598  24.763  -0.045  1.00  0.00    -0.323 N 
ATOM     16  H2  UNL     1     -16.567  25.705   0.347  1.00  0.00     0.169 HD
ENDBRANCH   4   9
BRANCH   8  17
HETATM   17  O2  UNL     1     -21.631  25.579   2.492  1.00  0.00    -0.267 OA
ATOM     18  H2  UNL     1     -22.502  25.948   2.403  1.00  0.00     0.247 HD
ENDBRANCH   8  17
BRANCH   5  19
HETATM   19  C10 UNL     1     -19.242  26.554  -1.652  1.00  0.00     0.078 A 
HETATM   20  C11 UNL     1     -18.467  27.693  -1.806  1.00  0.00     0.052 A 
HETATM   21  C12 UNL     1     -18.332  27.984  -3.148  1.00  0.00     0.109 A 
HETATM   22  N3  UNL     1     -19.029  27.014  -3.783  1.00  0.00    -0.311 N 
HETATM   23  N4  UNL     1     -19.556  26.184  -2.903  1.00  0.00    -0.299 N 
ATOM     24  H3  UNL     1     -19.131  26.935  -4.795  1.00  0.00     0.186 HD
ATOM     25  H4  UNL     1     -20.125  25.372  -3.140  1.00  0.00     0.187 HD
ENDBRANCH   5  19
TORSDOF 3
ENDMDL
MODEL 5
REMARK VINA RESULT: -6.767398667      1.012      1.062
REMARK  3 active torsions:
REMARK  status: ('A' for Active; 'I' for Inactive)
REMARK    1  A    between atoms: C3_4  and  C4_5 
REMARK    2  A    between atoms: C9_13  and  C10_14 
REMARK    3  A    between atoms: N6_23  and  O2_24 
ROOT
HETATM    1  N1  UNL     1     -21.327  26.171   1.491  1.00  0.00    -0.190 NA
HETATM    2  C1  UNL     1     -20.674  25.954   0.548  1.00  0.00     0.123 C 
HETATM    3  C2  UNL     1     -19.886  25.683  -0.618  1.00  0.00     0.175 A 
HETATM    4  C3  UNL     1     -18.891  24.709  -0.759  1.00  0.00     0.063 A 
HETATM    5  C9  UNL     1     -18.372  24.772  -2.033  1.00  0.00     0.094 A 
HETATM    6  N5  UNL     1     -19.060  25.783  -2.643  1.00  0.00    -0.270 N 
ATOM      7  H5  UNL     1     -18.916  26.090  -3.605  1.00  0.00     0.189 HD
HETATM    8  N6  UNL     1     -19.941  26.306  -1.806  1.00  0.00    -0.151 N 
ENDROOT
BRANCH   4   9
HETATM    9  C4  UNL     1     -18.520  23.811   0.306  1.00  0.00     0.050 A 
HETATM   10  C5  UNL     1     -17.406  23.950   1.103  1.00  0.00     0.031 A 
HETATM   11  C6  UNL     1     -17.113  23.047   2.113  1.00  0.00     0.008 A 
HETATM   12  C7  UNL     1     -17.972  22.003   2.297  1.00  0.00     0.074 A 
HETATM   13  C8  UNL     1     -19.091  21.846   1.510  1.00  0.00     0.245 A 
HETATM   14  O1  UNL     1     -19.855  20.859   1.724  1.00  0.00    -0.268 OA
HETATM   15  N2  UNL     1     -19.322  22.743   0.556  1.00  0.00    -0.323 N 
ATOM     16  H2  UNL     1     -20.153  22.622  -0.023  1.00  0.00     0.169 HD
ENDBRANCH   4   9
BRANCH   8  17
HETATM   17  O2  UNL     1     -20.789  27.353  -2.143  1.00  0.00    -0.267 OA
ATOM     18  H2  UNL     1     -20.534  28.166  -2.564  1.00  0.00     0.247 HD
ENDBRANCH   8  17
BRANCH   5  19
HETATM   19  C10 UNL     1     -17.319  23.950  -2.609  1.00  0.00     0.078 A 
HETATM   20  C11 UNL     1     -15.959  24.093  -2.388  1.00  0.00     0.052 A 
HETATM   21  C12 UNL     1     -15.268  23.137  -3.104  1.00  0.00     0.109 A 
HETATM   22  N3  UNL     1     -16.226  22.429  -3.747  1.00  0.00    -0.311 N 
HETATM   23  N4  UNL     1     -17.420  22.911  -3.452  1.00  0.00    -0.299 N 
ATOM     24  H3  UNL     1     -16.052  21.639  -4.368  1.00  0.00     0.186 HD
ATOM     25  H4  UNL     1     -18.298  22.543  -3.816  1.00  0.00     0.187 HD
ENDBRANCH   5  19
TORSDOF 3
ENDMDL
