MODEL 1
REMARK VINA RESULT: -7.506200181      0.000      0.000
REMARK  4 active torsions:
REMARK  status: ('A' for Active; 'I' for Inactive)
REMARK    1  A    between atoms: C3_4  and  O1_5 
REMARK    2  A    between atoms: C4_11  and  N4_12 
REMARK    3  A    between atoms: N4_12  and  S1_14 
REMARK    4  A    between atoms: S1_14  and  C5_17 
ROOT
HETATM    1  N1  UNL     1     -22.274  26.934   0.340  1.00  0.00    -0.191 NA
HETATM    2  C1  UNL     1     -21.328  26.282   0.412  1.00  0.00     0.108 C 
HETATM    3  C2  UNL     1     -20.147  25.452   0.542  1.00  0.00     0.142 A 
HETATM    4  C3  UNL     1     -19.798  24.778   1.704  1.00  0.00     0.180 A 
HETATM    5  N2  UNL     1     -18.670  24.126   1.460  1.00  0.00    -0.277 N 
ATOM      6  H2  UNL     1     -18.183  23.545   2.142  1.00  0.00     0.189 HD
HETATM    7  N3  UNL     1     -18.262  24.323   0.234  1.00  0.00    -0.282 N 
ATOM      8  H3  UNL     1     -17.423  23.931  -0.193  1.00  0.00     0.188 HD
HETATM    9  C4  UNL     1     -19.180  25.166  -0.383  1.00  0.00     0.155 A 
ENDROOT
BRANCH   4  10
HETATM   10  O1  UNL     1     -20.507  24.792   2.892  1.00  0.00    -0.344 OA
ATOM     11  H1  UNL     1     -20.650  24.046   3.463  1.00  0.00     0.219 HD
ENDBRANCH   4  10
BRANCH   9  12
HETATM   12  N4  UNL     1     -19.077  25.552  -1.569  1.00  0.00    -0.263 N 
ATOM     13  H4  UNL     1     -19.477  24.873  -2.218  1.00  0.00     0.180 HD
BRANCH  12  14
HETATM   14  S1  UNL     1     -18.471  26.861  -2.368  1.00  0.00     0.264 S 
HETATM   15  O2  UNL     1     -18.644  28.153  -1.618  1.00  0.00    -0.200 OA
HETATM   16  O3  UNL     1     -19.105  27.057  -3.743  1.00  0.00    -0.200 OA
BRANCH  14  17
HETATM   17  C5  UNL     1     -16.709  26.726  -2.654  1.00  0.00     0.080 A 
HETATM   18  C6  UNL     1     -16.132  27.234  -3.792  1.00  0.00     0.027 A 
HETATM   19  C7  UNL     1     -14.768  27.131  -4.016  1.00  0.00     0.028 A 
HETATM   20  C8  UNL     1     -13.935  26.515  -3.106  1.00  0.00     0.046 A 
HETATM   21  N5  UNL     1     -12.541  26.428  -3.369  1.00  0.00    -0.102 NA
HETATM   22  C9  UNL     1     -14.515  26.006  -1.963  1.00  0.00     0.028 A 
HETATM   23  C10 UNL     1     -15.881  26.112  -1.745  1.00  0.00     0.027 A 
ENDBRANCH  14  17
ENDBRANCH  12  14
ENDBRANCH   9  12
TORSDOF 4
ENDMDL
MODEL 2
REMARK VINA RESULT: -7.477126282      0.052      1.080
REMARK  4 active torsions:
REMARK  status: ('A' for Active; 'I' for Inactive)
REMARK    1  A    between atoms: C3_4  and  O1_5 
REMARK    2  A    between atoms: C4_11  and  N4_12 
REMARK    3  A    between atoms: N4_12  and  S1_14 
REMARK    4  A    between atoms: S1_14  and  C5_17 
ROOT
HETATM    1  N1  UNL     1     -22.278  26.949   0.374  1.00  0.00    -0.191 NA
HETATM    2  C1  UNL     1     -21.340  26.286   0.430  1.00  0.00     0.108 C 
HETATM    3  C2  UNL     1     -20.167  25.441   0.539  1.00  0.00     0.142 A 
HETATM    4  C3  UNL     1     -19.810  24.758   1.693  1.00  0.00     0.180 A 
HETATM    5  N2  UNL     1     -18.693  24.094   1.430  1.00  0.00    -0.277 N 
ATOM      6  H2  UNL     1     -18.203  23.504   2.103  1.00  0.00     0.189 HD
HETATM    7  N3  UNL     1     -18.299  24.292   0.200  1.00  0.00    -0.282 N 
ATOM      8  H3  UNL     1     -17.471  23.892  -0.240  1.00  0.00     0.188 HD
HETATM    9  C4  UNL     1     -19.216  25.149  -0.400  1.00  0.00     0.155 A 
ENDROOT
BRANCH   4  10
HETATM   10  O1  UNL     1     -20.502  24.774   2.891  1.00  0.00    -0.344 OA
ATOM     11  H1  UNL     1     -21.065  24.083   3.218  1.00  0.00     0.219 HD
ENDBRANCH   4  10
BRANCH   9  12
HETATM   12  N4  UNL     1     -19.125  25.539  -1.587  1.00  0.00    -0.263 N 
ATOM     13  H4  UNL     1     -19.537  24.865  -2.233  1.00  0.00     0.180 HD
BRANCH  12  14
HETATM   14  S1  UNL     1     -18.521  26.847  -2.387  1.00  0.00     0.264 S 
HETATM   15  O2  UNL     1     -18.707  28.141  -1.644  1.00  0.00    -0.200 OA
HETATM   16  O3  UNL     1     -19.146  27.033  -3.767  1.00  0.00    -0.200 OA
BRANCH  14  17
HETATM   17  C5  UNL     1     -16.757  26.720  -2.660  1.00  0.00     0.080 A 
HETATM   18  C6  UNL     1     -15.936  26.117  -1.739  1.00  0.00     0.027 A 
HETATM   19  C7  UNL     1     -14.569  26.017  -1.947  1.00  0.00     0.028 A 
HETATM   20  C8  UNL     1     -13.977  26.520  -3.087  1.00  0.00     0.046 A 
HETATM   21  N5  UNL     1     -12.573  26.399  -3.267  1.00  0.00    -0.102 NA
HETATM   22  C9  UNL     1     -14.803  27.125  -4.012  1.00  0.00     0.028 A 
HETATM   23  C10 UNL     1     -16.169  27.221  -3.797  1.00  0.00     0.027 A 
ENDBRANCH  14  17
ENDBRANCH  12  14
ENDBRANCH   9  12
TORSDOF 4
ENDMDL
MODEL 3
REMARK VINA RESULT: -7.357746543      1.133      2.076
REMARK  4 active torsions:
REMARK  status: ('A' for Active; 'I' for Inactive)
REMARK    1  A    between atoms: C3_4  and  O1_5 
REMARK    2  A    between atoms: C4_11  and  N4_12 
REMARK    3  A    between atoms: N4_12  and  S1_14 
REMARK    4  A    between atoms: S1_14  and  C5_17 
ROOT
HETATM    1  N1  UNL     1     -17.626  22.704  -0.307  1.00  0.00    -0.191 NA
HETATM    2  C1  UNL     1     -18.407  23.487   0.010  1.00  0.00     0.108 C 
HETATM    3  C2  UNL     1     -19.394  24.455   0.446  1.00  0.00     0.142 A 
HETATM    4  C3  UNL     1     -20.011  24.425   1.689  1.00  0.00     0.180 A 
HETATM    5  N2  UNL     1     -20.848  25.452   1.741  1.00  0.00    -0.277 N 
ATOM      6  H2  UNL     1     -21.437  25.674   2.544  1.00  0.00     0.189 HD
HETATM    7  N3  UNL     1     -20.821  26.144   0.632  1.00  0.00    -0.282 N 
ATOM      8  H3  UNL     1     -21.372  26.977   0.428  1.00  0.00     0.188 HD
HETATM    9  C4  UNL     1     -19.905  25.535  -0.219  1.00  0.00     0.155 A 
ENDROOT
BRANCH   4  10
HETATM   10  O1  UNL     1     -19.784  23.490   2.684  1.00  0.00    -0.344 OA
ATOM     11  H1  UNL     1     -19.958  22.559   2.621  1.00  0.00     0.219 HD
ENDBRANCH   4  10
BRANCH   9  12
HETATM   12  N4  UNL     1     -19.644  25.955  -1.370  1.00  0.00    -0.263 N 
ATOM     13  H4  UNL     1     -20.004  25.325  -2.087  1.00  0.00     0.180 HD
BRANCH  12  14
HETATM   14  S1  UNL     1     -18.877  27.252  -2.040  1.00  0.00     0.264 S 
HETATM   15  O2  UNL     1     -18.844  28.457  -1.142  1.00  0.00    -0.200 OA
HETATM   16  O3  UNL     1     -19.510  27.695  -3.356  1.00  0.00    -0.200 OA
BRANCH  14  17
HETATM   17  C5  UNL     1     -17.160  26.907  -2.412  1.00  0.00     0.080 A 
HETATM   18  C6  UNL     1     -16.604  27.277  -3.612  1.00  0.00     0.027 A 
HETATM   19  C7  UNL     1     -15.275  27.012  -3.902  1.00  0.00     0.028 A 
HETATM   20  C8  UNL     1     -14.457  26.365  -3.000  1.00  0.00     0.046 A 
HETATM   21  N5  UNL     1     -13.100  26.110  -3.332  1.00  0.00    -0.102 NA
HETATM   22  C9  UNL     1     -15.017  25.994  -1.795  1.00  0.00     0.028 A 
HETATM   23  C10 UNL     1     -16.347  26.262  -1.511  1.00  0.00     0.027 A 
ENDBRANCH  14  17
ENDBRANCH  12  14
ENDBRANCH   9  12
TORSDOF 4
ENDMDL
MODEL 4
REMARK VINA RESULT: -7.075564379      2.061      2.987
REMARK  4 active torsions:
REMARK  status: ('A' for Active; 'I' for Inactive)
REMARK    1  A    between atoms: C3_4  and  O1_5 
REMARK    2  A    between atoms: C4_11  and  N4_12 
REMARK    3  A    between atoms: N4_12  and  S1_14 
REMARK    4  A    between atoms: S1_14  and  C5_17 
ROOT
HETATM    1  N1  UNL     1     -16.677  23.256   2.076  1.00  0.00    -0.191 NA
HETATM    2  C1  UNL     1     -17.732  23.691   2.220  1.00  0.00     0.108 C 
HETATM    3  C2  UNL     1     -19.067  24.214   2.435  1.00  0.00     0.142 A 
HETATM    4  C3  UNL     1     -19.925  23.762   3.427  1.00  0.00     0.180 A 
HETATM    5  N2  UNL     1     -21.049  24.459   3.327  1.00  0.00    -0.277 N 
ATOM      6  H2  UNL     1     -21.859  24.335   3.934  1.00  0.00     0.189 HD
HETATM    7  N3  UNL     1     -20.985  25.327   2.351  1.00  0.00    -0.282 N 
ATOM      8  H3  UNL     1     -21.719  25.979   2.075  1.00  0.00     0.188 HD
HETATM    9  C4  UNL     1     -19.733  25.198   1.758  1.00  0.00     0.155 A 
ENDROOT
BRANCH   4  10
HETATM   10  O1  UNL     1     -19.648  22.765   4.346  1.00  0.00    -0.344 OA
ATOM     11  H1  UNL     1     -19.241  21.929   4.153  1.00  0.00     0.219 HD
ENDBRANCH   4  10
BRANCH   9  12
HETATM   12  N4  UNL     1     -19.354  25.890   0.785  1.00  0.00    -0.263 N 
ATOM     13  H4  UNL     1     -18.685  26.603   1.074  1.00  0.00     0.180 HD
BRANCH  12  14
HETATM   14  S1  UNL     1     -19.644  25.960  -0.836  1.00  0.00     0.264 S 
HETATM   15  O2  UNL     1     -20.633  27.027  -1.221  1.00  0.00    -0.200 OA
HETATM   16  O3  UNL     1     -20.170  24.642  -1.398  1.00  0.00    -0.200 OA
BRANCH  14  17
HETATM   17  C5  UNL     1     -18.167  26.340  -1.774  1.00  0.00     0.080 A 
HETATM   18  C6  UNL     1     -18.240  26.979  -2.988  1.00  0.00     0.027 A 
HETATM   19  C7  UNL     1     -17.099  27.275  -3.716  1.00  0.00     0.028 A 
HETATM   20  C8  UNL     1     -15.843  26.940  -3.253  1.00  0.00     0.046 A 
HETATM   21  N5  UNL     1     -14.696  27.259  -4.027  1.00  0.00    -0.102 NA
HETATM   22  C9  UNL     1     -15.772  26.299  -2.033  1.00  0.00     0.028 A 
HETATM   23  C10 UNL     1     -16.918  26.006  -1.310  1.00  0.00     0.027 A 
ENDBRANCH  14  17
ENDBRANCH  12  14
ENDBRANCH   9  12
TORSDOF 4
ENDMDL
MODEL 5
REMARK VINA RESULT: -7.052493528      1.274      1.362
REMARK  4 active torsions:
REMARK  status: ('A' for Active; 'I' for Inactive)
REMARK    1  A    between atoms: C3_4  and  O1_5 
REMARK    2  A    between atoms: C4_11  and  N4_12 
REMARK    3  A    between atoms: N4_12  and  S1_14 
REMARK    4  A    between atoms: S1_14  and  C5_17 
ROOT
HETATM    1  N1  UNL     1     -22.108  26.904   0.195  1.00  0.00    -0.191 NA
HETATM    2  C1  UNL     1     -21.216  26.283   0.574  1.00  0.00     0.108 C 
HETATM    3  C2  UNL     1     -20.116  25.488   1.082  1.00  0.00     0.142 A 
HETATM    4  C3  UNL     1     -20.192  24.698   2.221  1.00  0.00     0.180 A 
HETATM    5  N2  UNL     1     -19.010  24.120   2.383  1.00  0.00    -0.277 N 
ATOM      6  H2  UNL     1     -18.781  23.483   3.146  1.00  0.00     0.189 HD
HETATM    7  N3  UNL     1     -18.176  24.472   1.440  1.00  0.00    -0.282 N 
ATOM      8  H3  UNL     1     -17.209  24.161   1.344  1.00  0.00     0.188 HD
HETATM    9  C4  UNL     1     -18.847  25.345   0.591  1.00  0.00     0.155 A 
ENDROOT
BRANCH   4  10
HETATM   10  O1  UNL     1     -21.305  24.550   3.030  1.00  0.00    -0.344 OA
ATOM     11  H1  UNL     1     -21.993  25.193   3.153  1.00  0.00     0.219 HD
ENDBRANCH   4  10
BRANCH   9  12
HETATM   12  N4  UNL     1     -18.323  25.868  -0.419  1.00  0.00    -0.263 N 
ATOM     13  H4  UNL     1     -17.564  26.499  -0.161  1.00  0.00     0.180 HD
BRANCH  12  14
HETATM   14  S1  UNL     1     -18.528  25.813  -2.054  1.00  0.00     0.264 S 
HETATM   15  O2  UNL     1     -19.374  26.936  -2.589  1.00  0.00    -0.200 OA
HETATM   16  O3  UNL     1     -19.170  24.510  -2.524  1.00  0.00    -0.200 OA
BRANCH  14  17
HETATM   17  C5  UNL     1     -16.976  25.943  -2.937  1.00  0.00     0.080 A 
HETATM   18  C6  UNL     1     -16.482  27.163  -3.330  1.00  0.00     0.027 A 
HETATM   19  C7  UNL     1     -15.280  27.267  -4.014  1.00  0.00     0.028 A 
HETATM   20  C8  UNL     1     -14.533  26.151  -4.328  1.00  0.00     0.046 A 
HETATM   21  N5  UNL     1     -13.306  26.296  -5.030  1.00  0.00    -0.102 NA
HETATM   22  C9  UNL     1     -15.031  24.927  -3.933  1.00  0.00     0.028 A 
HETATM   23  C10 UNL     1     -16.233  24.830  -3.249  1.00  0.00     0.027 A 
ENDBRANCH  14  17
ENDBRANCH  12  14
ENDBRANCH   9  12
TORSDOF 4
ENDMDL
