MODEL 1
REMARK VINA RESULT: -6.476327685      0.000      0.000
REMARK  3 active torsions:
REMARK  status: ('A' for Active; 'I' for Inactive)
REMARK    1  A    between atoms: C5_11  and  C6_12 
REMARK    2  A    between atoms: C9_15  and  S1_16 
REMARK    3  A    between atoms: S1_16  and  N3_17 
ROOT
HETATM    1  C1  UNL     1     -15.061  22.306  -4.345  1.00  0.00     0.019 C 
HETATM    2  C2  UNL     1     -14.453  23.302  -4.681  1.00  0.00    -0.057 C 
HETATM    3  C3  UNL     1     -13.709  24.470  -5.056  1.00  0.00     0.122 A 
HETATM    4  N1  UNL     1     -12.611  24.491  -5.857  1.00  0.00    -0.250 N 
ATOM      5  H1  UNL     1     -12.184  23.677  -6.299  1.00  0.00     0.195 HD
HETATM    6  O1  UNL     1     -12.186  25.731  -5.969  1.00  0.00    -0.218 OA
HETATM    7  C4  UNL     1     -12.980  26.523  -5.262  1.00  0.00     0.178 A 
HETATM    8  N2  UNL     1     -12.848  27.797  -5.154  1.00  0.00    -0.377 N 
ATOM      9  H21 UNL     1     -13.459  28.407  -4.609  1.00  0.00     0.158 HD
ATOM     10  H22 UNL     1     -12.122  28.360  -5.597  1.00  0.00     0.158 HD
HETATM   11  C5  UNL     1     -13.960  25.764  -4.665  1.00  0.00     0.064 A 
ENDROOT
BRANCH  11  12
HETATM   12  C6  UNL     1     -15.069  26.162  -3.813  1.00  0.00    -0.019 A 
HETATM   13  C7  UNL     1     -16.222  26.660  -4.397  1.00  0.00     0.014 A 
HETATM   14  C8  UNL     1     -17.301  27.042  -3.645  1.00  0.00     0.026 A 
HETATM   15  C9  UNL     1     -17.292  26.950  -2.282  1.00  0.00     0.079 A 
HETATM   16  C10 UNL     1     -16.129  26.449  -1.711  1.00  0.00     0.026 A 
HETATM   17  C11 UNL     1     -15.026  26.056  -2.437  1.00  0.00     0.014 A 
BRANCH  15  18
HETATM   18  S1  UNL     1     -18.664  27.446  -1.337  1.00  0.00     0.256 S 
HETATM   19  O2  UNL     1     -19.833  27.627  -2.270  1.00  0.00    -0.201 OA
HETATM   20  O3  UNL     1     -18.357  28.786  -0.682  1.00  0.00    -0.201 OA
BRANCH  18  21
HETATM   21  N3  UNL     1     -19.091  26.364  -0.109  1.00  0.00    -0.324 N 
ATOM     22  H32 UNL     1     -18.971  25.356  -0.210  1.00  0.00     0.169 HD
ATOM     23  H31 UNL     1     -19.471  26.807   0.727  1.00  0.00     0.169 HD
ENDBRANCH  18  21
ENDBRANCH  15  18
ENDBRANCH  11  12
TORSDOF 3
ENDMDL
MODEL 2
REMARK VINA RESULT: -6.366372161      3.806      5.131
REMARK  3 active torsions:
REMARK  status: ('A' for Active; 'I' for Inactive)
REMARK    1  A    between atoms: C5_11  and  C6_12 
REMARK    2  A    between atoms: C9_15  and  S1_16 
REMARK    3  A    between atoms: S1_16  and  N3_17 
ROOT
HETATM    1  C1  UNL     1     -14.210  25.524  -0.680  1.00  0.00     0.019 C 
HETATM    2  C2  UNL     1     -15.051  25.914  -1.465  1.00  0.00    -0.057 C 
HETATM    3  C3  UNL     1     -16.039  26.407  -2.380  1.00  0.00     0.122 A 
HETATM    4  N1  UNL     1     -15.791  27.104  -3.522  1.00  0.00    -0.250 N 
ATOM      5  H1  UNL     1     -14.867  27.354  -3.873  1.00  0.00     0.195 HD
HETATM    6  O1  UNL     1     -16.934  27.403  -4.098  1.00  0.00    -0.218 OA
HETATM    7  C4  UNL     1     -17.926  26.919  -3.363  1.00  0.00     0.178 A 
HETATM    8  N2  UNL     1     -19.176  27.035  -3.640  1.00  0.00    -0.377 N 
ATOM      9  H21 UNL     1     -19.940  26.663  -3.075  1.00  0.00     0.158 HD
ATOM     10  H22 UNL     1     -19.564  27.508  -4.457  1.00  0.00     0.158 HD
HETATM   11  C5  UNL     1     -17.403  26.281  -2.264  1.00  0.00     0.064 A 
ENDROOT
BRANCH  11  12
HETATM   12  C6  UNL     1     -18.071  25.579  -1.179  1.00  0.00    -0.019 A 
HETATM   13  C7  UNL     1     -18.715  26.315  -0.198  1.00  0.00     0.014 A 
HETATM   14  C8  UNL     1     -19.368  25.708   0.842  1.00  0.00     0.026 A 
HETATM   15  C9  UNL     1     -19.415  24.348   0.962  1.00  0.00     0.079 A 
HETATM   16  C10 UNL     1     -18.764  23.624  -0.029  1.00  0.00     0.026 A 
HETATM   17  C11 UNL     1     -18.098  24.202  -1.087  1.00  0.00     0.014 A 
BRANCH  15  18
HETATM   18  S1  UNL     1     -20.239  23.589   2.292  1.00  0.00     0.256 S 
HETATM   19  O2  UNL     1     -19.201  23.111   3.273  1.00  0.00    -0.201 OA
HETATM   20  O3  UNL     1     -21.008  22.380   1.774  1.00  0.00    -0.201 OA
BRANCH  18  21
HETATM   21  N3  UNL     1     -21.344  24.593   3.089  1.00  0.00    -0.324 N 
ATOM     22  H32 UNL     1     -22.039  25.141   2.583  1.00  0.00     0.169 HD
ATOM     23  H31 UNL     1     -21.250  24.596   4.105  1.00  0.00     0.169 HD
ENDBRANCH  18  21
ENDBRANCH  15  18
ENDBRANCH  11  12
TORSDOF 3
ENDMDL
MODEL 3
REMARK VINA RESULT: -6.344049662      2.158      2.628
REMARK  3 active torsions:
REMARK  status: ('A' for Active; 'I' for Inactive)
REMARK    1  A    between atoms: C5_11  and  C6_12 
REMARK    2  A    between atoms: C9_15  and  S1_16 
REMARK    3  A    between atoms: S1_16  and  N3_17 
ROOT
HETATM    1  C1  UNL     1     -13.372  24.628  -6.064  1.00  0.00     0.019 C 
HETATM    2  C2  UNL     1     -12.894  24.938  -4.992  1.00  0.00    -0.057 C 
HETATM    3  C3  UNL     1     -12.328  25.271  -3.716  1.00  0.00     0.122 A 
HETATM    4  N1  UNL     1     -11.035  25.075  -3.342  1.00  0.00    -0.250 N 
ATOM      5  H1  UNL     1     -10.304  24.674  -3.929  1.00  0.00     0.195 HD
HETATM    6  O1  UNL     1     -10.880  25.485  -2.103  1.00  0.00    -0.218 OA
HETATM    7  C4  UNL     1     -12.040  25.946  -1.655  1.00  0.00     0.178 A 
HETATM    8  N2  UNL     1     -12.241  26.424  -0.478  1.00  0.00    -0.377 N 
ATOM      9  H21 UNL     1     -13.133  26.778  -0.133  1.00  0.00     0.158 HD
ATOM     10  H22 UNL     1     -11.539  26.511   0.257  1.00  0.00     0.158 HD
HETATM   11  C5  UNL     1     -12.986  25.828  -2.646  1.00  0.00     0.064 A 
ENDROOT
BRANCH  11  12
HETATM   12  C6  UNL     1     -14.390  26.206  -2.654  1.00  0.00    -0.019 A 
HETATM   13  C7  UNL     1     -15.209  25.775  -1.623  1.00  0.00     0.014 A 
HETATM   14  C8  UNL     1     -16.537  26.108  -1.574  1.00  0.00     0.026 A 
HETATM   15  C9  UNL     1     -17.118  26.880  -2.539  1.00  0.00     0.079 A 
HETATM   16  C10 UNL     1     -16.284  27.304  -3.566  1.00  0.00     0.026 A 
HETATM   17  C11 UNL     1     -14.945  26.989  -3.646  1.00  0.00     0.014 A 
BRANCH  15  18
HETATM   18  S1  UNL     1     -18.806  27.289  -2.471  1.00  0.00     0.256 S 
HETATM   19  O2  UNL     1     -19.163  28.014  -3.742  1.00  0.00    -0.201 OA
HETATM   20  O3  UNL     1     -19.043  28.228  -1.296  1.00  0.00    -0.201 OA
BRANCH  18  21
HETATM   21  N3  UNL     1     -19.836  25.960  -2.277  1.00  0.00    -0.324 N 
ATOM     22  H32 UNL     1     -20.580  25.950  -1.580  1.00  0.00     0.169 HD
ATOM     23  H31 UNL     1     -19.644  25.185  -2.912  1.00  0.00     0.169 HD
ENDBRANCH  18  21
ENDBRANCH  15  18
ENDBRANCH  11  12
TORSDOF 3
ENDMDL
MODEL 4
REMARK VINA RESULT: -6.340908101      3.809      5.141
REMARK  3 active torsions:
REMARK  status: ('A' for Active; 'I' for Inactive)
REMARK    1  A    between atoms: C5_11  and  C6_12 
REMARK    2  A    between atoms: C9_15  and  S1_16 
REMARK    3  A    between atoms: S1_16  and  N3_17 
ROOT
HETATM    1  C1  UNL     1     -14.265  25.548  -0.676  1.00  0.00     0.019 C 
HETATM    2  C2  UNL     1     -15.096  25.934  -1.473  1.00  0.00    -0.057 C 
HETATM    3  C3  UNL     1     -16.072  26.422  -2.403  1.00  0.00     0.122 A 
HETATM    4  N1  UNL     1     -15.807  27.067  -3.571  1.00  0.00    -0.250 N 
ATOM      5  H1  UNL     1     -14.878  27.276  -3.934  1.00  0.00     0.195 HD
HETATM    6  O1  UNL     1     -16.943  27.380  -4.155  1.00  0.00    -0.218 OA
HETATM    7  C4  UNL     1     -17.946  26.955  -3.399  1.00  0.00     0.178 A 
HETATM    8  N2  UNL     1     -19.194  27.097  -3.677  1.00  0.00    -0.377 N 
ATOM      9  H21 UNL     1     -19.966  26.771  -3.096  1.00  0.00     0.158 HD
ATOM     10  H22 UNL     1     -19.570  27.552  -4.510  1.00  0.00     0.158 HD
HETATM   11  C5  UNL     1     -17.439  26.342  -2.278  1.00  0.00     0.064 A 
ENDROOT
BRANCH  11  12
HETATM   12  C6  UNL     1     -18.123  25.702  -1.165  1.00  0.00    -0.019 A 
HETATM   13  C7  UNL     1     -18.143  24.319  -1.094  1.00  0.00     0.014 A 
HETATM   14  C8  UNL     1     -18.764  23.662  -0.064  1.00  0.00     0.026 A 
HETATM   15  C9  UNL     1     -19.394  24.339   0.941  1.00  0.00     0.079 A 
HETATM   16  C10 UNL     1     -19.366  25.726   0.854  1.00  0.00     0.026 A 
HETATM   17  C11 UNL     1     -18.751  26.418  -0.166  1.00  0.00     0.014 A 
BRANCH  15  18
HETATM   18  S1  UNL     1     -20.186  23.495   2.237  1.00  0.00     0.256 S 
HETATM   19  O2  UNL     1     -19.127  22.983   3.178  1.00  0.00    -0.201 OA
HETATM   20  O3  UNL     1     -20.942  22.303   1.665  1.00  0.00    -0.201 OA
BRANCH  18  21
HETATM   21  N3  UNL     1     -21.296  24.434   3.103  1.00  0.00    -0.324 N 
ATOM     22  H32 UNL     1     -21.231  24.555   4.114  1.00  0.00     0.169 HD
ATOM     23  H31 UNL     1     -22.023  24.860   2.528  1.00  0.00     0.169 HD
ENDBRANCH  18  21
ENDBRANCH  15  18
ENDBRANCH  11  12
TORSDOF 3
ENDMDL
MODEL 5
REMARK VINA RESULT: -6.309757517      2.572      6.183
REMARK  3 active torsions:
REMARK  status: ('A' for Active; 'I' for Inactive)
REMARK    1  A    between atoms: C5_11  and  C6_12 
REMARK    2  A    between atoms: C9_15  and  S1_16 
REMARK    3  A    between atoms: S1_16  and  N3_17 
ROOT
HETATM    1  C1  UNL     1     -17.330  24.482   0.421  1.00  0.00     0.019 C 
HETATM    2  C2  UNL     1     -17.913  25.205  -0.361  1.00  0.00    -0.057 C 
HETATM    3  C3  UNL     1     -18.622  26.033  -1.293  1.00  0.00     0.122 A 
HETATM    4  N1  UNL     1     -19.862  26.560  -1.108  1.00  0.00    -0.250 N 
ATOM      5  H1  UNL     1     -20.438  26.439  -0.275  1.00  0.00     0.195 HD
HETATM    6  O1  UNL     1     -20.198  27.251  -2.175  1.00  0.00    -0.218 OA
HETATM    7  C4  UNL     1     -19.209  27.190  -3.055  1.00  0.00     0.178 A 
HETATM    8  N2  UNL     1     -19.211  27.756  -4.210  1.00  0.00    -0.377 N 
ATOM      9  H21 UNL     1     -18.450  27.709  -4.888  1.00  0.00     0.158 HD
ATOM     10  H22 UNL     1     -19.967  28.323  -4.594  1.00  0.00     0.158 HD
HETATM   11  C5  UNL     1     -18.190  26.427  -2.537  1.00  0.00     0.064 A 
ENDROOT
BRANCH  11  12
HETATM   12  C6  UNL     1     -16.895  26.080  -3.102  1.00  0.00    -0.019 A 
HETATM   13  C7  UNL     1     -16.015  27.095  -3.439  1.00  0.00     0.014 A 
HETATM   14  C8  UNL     1     -14.778  26.828  -3.966  1.00  0.00     0.026 A 
HETATM   15  C9  UNL     1     -14.354  25.548  -4.183  1.00  0.00     0.079 A 
HETATM   16  C10 UNL     1     -15.248  24.542  -3.839  1.00  0.00     0.026 A 
HETATM   17  C11 UNL     1     -16.497  24.775  -3.308  1.00  0.00     0.014 A 
BRANCH  15  18
HETATM   18  S1  UNL     1     -12.786  25.222  -4.859  1.00  0.00     0.256 S 
HETATM   19  O2  UNL     1     -12.452  23.778  -4.589  1.00  0.00    -0.201 OA
HETATM   20  O3  UNL     1     -11.753  26.096  -4.161  1.00  0.00    -0.201 OA
BRANCH  18  21
HETATM   21  N3  UNL     1     -12.670  25.522  -6.521  1.00  0.00    -0.324 N 
ATOM     22  H32 UNL     1     -12.880  24.806  -7.216  1.00  0.00     0.169 HD
ATOM     23  H31 UNL     1     -12.375  26.470  -6.755  1.00  0.00     0.169 HD
ENDBRANCH  18  21
ENDBRANCH  15  18
ENDBRANCH  11  12
TORSDOF 3
ENDMDL
