MODEL 1
REMARK VINA RESULT: -6.579076207      0.000      0.000
REMARK  4 active torsions:
REMARK  status: ('A' for Active; 'I' for Inactive)
REMARK    1  A    between atoms: C4_7  and  N3_8 
REMARK    2  A    between atoms: N3_8  and  C5_10 
REMARK    3  A    between atoms: C8_13  and  S1_14 
REMARK    4  A    between atoms: S1_14  and  N4_15 
ROOT
HETATM    1  N1  UNL     1     -13.230  22.137  -8.168  1.00  0.00    -0.190 NA
HETATM    2  C1  UNL     1     -13.175  23.125  -7.589  1.00  0.00     0.119 C 
HETATM    3  C2  UNL     1     -13.090  24.363  -6.879  1.00  0.00     0.145 A 
HETATM    4  C3  UNL     1     -12.834  25.621  -7.378  1.00  0.00     0.147 A 
HETATM    5  N2  UNL     1     -12.843  26.514  -6.374  1.00  0.00    -0.199 N 
ATOM      6  H2  UNL     1     -12.684  27.518  -6.452  1.00  0.00     0.183 HD
HETATM    7  C4  UNL     1     -13.102  25.831  -5.251  1.00  0.00     0.683 A 
HETATM    8  N5  UNL     1     -13.253  24.523  -5.558  1.00  0.00    -0.180 N 
ATOM      9  H5  UNL     1     -13.457  23.778  -4.892  1.00  0.00     0.185 HD
ENDROOT
BRANCH   7  10
HETATM   10  N3  UNL     1     -13.189  26.352  -4.085  1.00  0.00    -0.192 N 
ATOM     11  H3  UNL     1     -12.343  26.661  -3.607  1.00  0.00     0.184 HD
BRANCH  10  12
HETATM   12  C5  UNL     1     -14.451  26.506  -3.448  1.00  0.00     0.049 A 
HETATM   13  C6  UNL     1     -14.689  26.018  -2.180  1.00  0.00     0.031 A 
HETATM   14  C7  UNL     1     -15.917  26.170  -1.565  1.00  0.00     0.027 A 
HETATM   15  C8  UNL     1     -16.970  26.821  -2.193  1.00  0.00     0.079 A 
HETATM   16  C9  UNL     1     -16.730  27.308  -3.460  1.00  0.00     0.027 A 
HETATM   17  C10 UNL     1     -15.504  27.155  -4.073  1.00  0.00     0.031 A 
BRANCH  15  18
HETATM   18  S1  UNL     1     -18.531  27.020  -1.427  1.00  0.00     0.256 S 
HETATM   19  O1  UNL     1     -18.611  26.186  -0.165  1.00  0.00    -0.201 OA
HETATM   20  O2  UNL     1     -18.775  28.442  -1.026  1.00  0.00    -0.201 OA
BRANCH  18  21
HETATM   21  N4  UNL     1     -19.814  26.464  -2.457  1.00  0.00    -0.324 N 
ATOM     22  H42 UNL     1     -19.661  25.903  -3.296  1.00  0.00     0.169 HD
ATOM     23  H41 UNL     1     -20.725  26.770  -2.112  1.00  0.00     0.169 HD
ENDBRANCH  18  21
ENDBRANCH  15  18
ENDBRANCH  10  12
ENDBRANCH   7  10
TORSDOF 4
ENDMDL
MODEL 2
REMARK VINA RESULT: -6.567947475      0.035      1.110
REMARK  4 active torsions:
REMARK  status: ('A' for Active; 'I' for Inactive)
REMARK    1  A    between atoms: C4_7  and  N3_8 
REMARK    2  A    between atoms: N3_8  and  C5_10 
REMARK    3  A    between atoms: C8_13  and  S1_14 
REMARK    4  A    between atoms: S1_14  and  N4_15 
ROOT
HETATM    1  N1  UNL     1     -13.183  22.136  -8.189  1.00  0.00    -0.190 NA
HETATM    2  C1  UNL     1     -13.141  23.118  -7.600  1.00  0.00     0.119 C 
HETATM    3  C2  UNL     1     -13.074  24.349  -6.876  1.00  0.00     0.145 A 
HETATM    4  C3  UNL     1     -12.832  25.616  -7.360  1.00  0.00     0.147 A 
HETATM    5  N2  UNL     1     -12.855  26.497  -6.346  1.00  0.00    -0.199 N 
ATOM      6  H2  UNL     1     -12.708  27.504  -6.412  1.00  0.00     0.183 HD
HETATM    7  C4  UNL     1     -13.107  25.798  -5.231  1.00  0.00     0.683 A 
HETATM    8  N5  UNL     1     -13.240  24.492  -5.553  1.00  0.00    -0.180 N 
ATOM      9  H5  UNL     1     -13.436  23.737  -4.895  1.00  0.00     0.185 HD
ENDROOT
BRANCH   7  10
HETATM   10  N3  UNL     1     -13.203  26.305  -4.060  1.00  0.00    -0.192 N 
ATOM     11  H3  UNL     1     -12.358  26.585  -3.562  1.00  0.00     0.184 HD
BRANCH  10  12
HETATM   12  C5  UNL     1     -14.472  26.483  -3.444  1.00  0.00     0.049 A 
HETATM   13  C6  UNL     1     -15.503  27.140  -4.083  1.00  0.00     0.031 A 
HETATM   14  C7  UNL     1     -16.735  27.310  -3.481  1.00  0.00     0.027 A 
HETATM   15  C8  UNL     1     -16.996  26.828  -2.206  1.00  0.00     0.079 A 
HETATM   16  C9  UNL     1     -15.963  26.172  -1.570  1.00  0.00     0.027 A 
HETATM   17  C10 UNL     1     -14.734  26.003  -2.171  1.00  0.00     0.031 A 
BRANCH  15  18
HETATM   18  S1  UNL     1     -18.551  27.037  -1.431  1.00  0.00     0.256 S 
HETATM   19  O1  UNL     1     -18.627  26.208  -0.166  1.00  0.00    -0.201 OA
HETATM   20  O2  UNL     1     -18.786  28.461  -1.034  1.00  0.00    -0.201 OA
BRANCH  18  21
HETATM   21  N4  UNL     1     -19.843  26.483  -2.452  1.00  0.00    -0.324 N 
ATOM     22  H42 UNL     1     -19.773  25.661  -3.053  1.00  0.00     0.169 HD
ATOM     23  H41 UNL     1     -20.665  27.081  -2.367  1.00  0.00     0.169 HD
ENDBRANCH  18  21
ENDBRANCH  15  18
ENDBRANCH  10  12
ENDBRANCH   7  10
TORSDOF 4
ENDMDL
MODEL 3
REMARK VINA RESULT: -6.496119835      6.415      9.304
REMARK  4 active torsions:
REMARK  status: ('A' for Active; 'I' for Inactive)
REMARK    1  A    between atoms: C4_7  and  N3_8 
REMARK    2  A    between atoms: N3_8  and  C5_10 
REMARK    3  A    between atoms: C8_13  and  S1_14 
REMARK    4  A    between atoms: S1_14  and  N4_15 
ROOT
HETATM    1  N1  UNL     1     -22.899  17.942   0.820  1.00  0.00    -0.190 NA
HETATM    2  C1  UNL     1     -22.361  18.779   1.389  1.00  0.00     0.119 C 
HETATM    3  C2  UNL     1     -21.706  19.829   2.106  1.00  0.00     0.145 A 
HETATM    4  C3  UNL     1     -21.950  20.274   3.386  1.00  0.00     0.147 A 
HETATM    5  N2  UNL     1     -21.111  21.281   3.680  1.00  0.00    -0.199 N 
ATOM      6  H2  UNL     1     -21.066  21.798   4.558  1.00  0.00     0.183 HD
HETATM    7  C4  UNL     1     -20.344  21.474   2.600  1.00  0.00     0.683 A 
HETATM    8  N5  UNL     1     -20.705  20.591   1.641  1.00  0.00    -0.180 N 
ATOM      9  H5  UNL     1     -20.284  20.516   0.715  1.00  0.00     0.185 HD
ENDROOT
BRANCH   7  10
HETATM   10  N3  UNL     1     -19.421  22.357   2.509  1.00  0.00    -0.192 N 
ATOM     11  H3  UNL     1     -18.604  22.296   3.116  1.00  0.00     0.184 HD
BRANCH  10  12
HETATM   12  C5  UNL     1     -19.522  23.422   1.572  1.00  0.00     0.049 A 
HETATM   13  C6  UNL     1     -20.203  24.586   1.866  1.00  0.00     0.031 A 
HETATM   14  C7  UNL     1     -20.298  25.618   0.953  1.00  0.00     0.027 A 
HETATM   15  C8  UNL     1     -19.713  25.536  -0.304  1.00  0.00     0.079 A 
HETATM   16  C9  UNL     1     -19.033  24.372  -0.594  1.00  0.00     0.027 A 
HETATM   17  C10 UNL     1     -18.939  23.342   0.317  1.00  0.00     0.031 A 
BRANCH  15  18
HETATM   18  S1  UNL     1     -19.826  26.835  -1.470  1.00  0.00     0.256 S 
HETATM   19  O1  UNL     1     -21.253  27.333  -1.571  1.00  0.00    -0.201 OA
HETATM   20  O2  UNL     1     -18.982  28.007  -1.079  1.00  0.00    -0.201 OA
BRANCH  18  21
HETATM   21  N4  UNL     1     -19.390  26.293  -3.062  1.00  0.00    -0.324 N 
ATOM     22  H42 UNL     1     -19.560  26.836  -3.909  1.00  0.00     0.169 HD
ATOM     23  H41 UNL     1     -18.949  25.373  -3.032  1.00  0.00     0.169 HD
ENDBRANCH  18  21
ENDBRANCH  15  18
ENDBRANCH  10  12
ENDBRANCH   7  10
TORSDOF 4
ENDMDL
MODEL 4
REMARK VINA RESULT: -6.417544115      6.262      9.166
REMARK  4 active torsions:
REMARK  status: ('A' for Active; 'I' for Inactive)
REMARK    1  A    between atoms: C4_7  and  N3_8 
REMARK    2  A    between atoms: N3_8  and  C5_10 
REMARK    3  A    between atoms: C8_13  and  S1_14 
REMARK    4  A    between atoms: S1_14  and  N4_15 
ROOT
HETATM    1  N1  UNL     1     -22.635  18.021   0.864  1.00  0.00    -0.190 NA
HETATM    2  C1  UNL     1     -22.123  18.883   1.420  1.00  0.00     0.119 C 
HETATM    3  C2  UNL     1     -21.502  19.963   2.121  1.00  0.00     0.145 A 
HETATM    4  C3  UNL     1     -21.775  20.433   3.387  1.00  0.00     0.147 A 
HETATM    5  N2  UNL     1     -20.961  21.464   3.670  1.00  0.00    -0.199 N 
ATOM      6  H2  UNL     1     -20.941  22.003   4.535  1.00  0.00     0.183 HD
HETATM    7  C4  UNL     1     -20.182  21.648   2.596  1.00  0.00     0.683 A 
HETATM    8  N5  UNL     1     -20.510  20.735   1.654  1.00  0.00    -0.180 N 
ATOM      9  H5  UNL     1     -20.073  20.648   0.736  1.00  0.00     0.185 HD
ENDROOT
BRANCH   7  10
HETATM   10  N3  UNL     1     -19.277  22.548   2.498  1.00  0.00    -0.192 N 
ATOM     11  H3  UNL     1     -18.473  22.524   3.125  1.00  0.00     0.184 HD
BRANCH  10  12
HETATM   12  C5  UNL     1     -19.379  23.581   1.526  1.00  0.00     0.049 A 
HETATM   13  C6  UNL     1     -18.652  23.549   0.354  1.00  0.00     0.031 A 
HETATM   14  C7  UNL     1     -18.755  24.555  -0.588  1.00  0.00     0.027 A 
HETATM   15  C8  UNL     1     -19.593  25.646  -0.401  1.00  0.00     0.079 A 
HETATM   16  C9  UNL     1     -20.317  25.675   0.772  1.00  0.00     0.027 A 
HETATM   17  C10 UNL     1     -20.214  24.671   1.711  1.00  0.00     0.031 A 
BRANCH  15  18
HETATM   18  S1  UNL     1     -19.732  26.927  -1.585  1.00  0.00     0.256 S 
HETATM   19  O1  UNL     1     -21.162  27.419  -1.666  1.00  0.00    -0.201 OA
HETATM   20  O2  UNL     1     -18.884  28.107  -1.226  1.00  0.00    -0.201 OA
BRANCH  18  21
HETATM   21  N4  UNL     1     -19.323  26.362  -3.176  1.00  0.00    -0.324 N 
ATOM     22  H42 UNL     1     -18.364  26.260  -3.509  1.00  0.00     0.169 HD
ATOM     23  H41 UNL     1     -20.160  26.149  -3.720  1.00  0.00     0.169 HD
ENDBRANCH  18  21
ENDBRANCH  15  18
ENDBRANCH  10  12
ENDBRANCH   7  10
TORSDOF 4
ENDMDL
MODEL 5
REMARK VINA RESULT: -6.309379212      1.344      1.994
REMARK  4 active torsions:
REMARK  status: ('A' for Active; 'I' for Inactive)
REMARK    1  A    between atoms: C4_7  and  N3_8 
REMARK    2  A    between atoms: N3_8  and  C5_10 
REMARK    3  A    between atoms: C8_13  and  S1_14 
REMARK    4  A    between atoms: S1_14  and  N4_15 
ROOT
HETATM    1  N1  UNL     1     -10.693  27.000  -9.269  1.00  0.00    -0.190 NA
HETATM    2  C1  UNL     1     -11.318  26.734  -8.345  1.00  0.00     0.119 C 
HETATM    3  C2  UNL     1     -12.113  26.398  -7.205  1.00  0.00     0.145 A 
HETATM    4  C3  UNL     1     -13.025  25.377  -7.068  1.00  0.00     0.147 A 
HETATM    5  N2  UNL     1     -13.555  25.409  -5.833  1.00  0.00    -0.199 N 
ATOM      6  H2  UNL     1     -14.255  24.771  -5.455  1.00  0.00     0.183 HD
HETATM    7  C4  UNL     1     -12.985  26.439  -5.195  1.00  0.00     0.683 A 
HETATM    8  N5  UNL     1     -12.108  27.042  -6.028  1.00  0.00    -0.180 N 
ATOM      9  H5  UNL     1     -11.535  27.854  -5.799  1.00  0.00     0.185 HD
ENDROOT
BRANCH   7  10
HETATM   10  N3  UNL     1     -13.244  26.782  -3.989  1.00  0.00    -0.192 N 
ATOM     11  H3  UNL     1     -12.488  27.101  -3.383  1.00  0.00     0.184 HD
BRANCH  10  12
HETATM   12  C5  UNL     1     -14.572  26.723  -3.483  1.00  0.00     0.049 A 
HETATM   13  C6  UNL     1     -14.884  26.012  -2.343  1.00  0.00     0.031 A 
HETATM   14  C7  UNL     1     -16.176  25.958  -1.856  1.00  0.00     0.027 A 
HETATM   15  C8  UNL     1     -17.221  26.617  -2.488  1.00  0.00     0.079 A 
HETATM   16  C9  UNL     1     -16.906  27.327  -3.627  1.00  0.00     0.027 A 
HETATM   17  C10 UNL     1     -15.617  27.380  -4.113  1.00  0.00     0.031 A 
BRANCH  15  18
HETATM   18  S1  UNL     1     -18.862  26.556  -1.882  1.00  0.00     0.256 S 
HETATM   19  O1  UNL     1     -18.877  26.735  -0.378  1.00  0.00    -0.201 OA
HETATM   20  O2  UNL     1     -19.707  27.649  -2.459  1.00  0.00    -0.201 OA
BRANCH  18  21
HETATM   21  N4  UNL     1     -19.592  25.011  -2.193  1.00  0.00    -0.324 N 
ATOM     22  H42 UNL     1     -20.154  24.809  -3.021  1.00  0.00     0.169 HD
ATOM     23  H41 UNL     1     -19.385  24.346  -1.447  1.00  0.00     0.169 HD
ENDBRANCH  18  21
ENDBRANCH  15  18
ENDBRANCH  10  12
ENDBRANCH   7  10
TORSDOF 4
ENDMDL
