MODEL 1
REMARK VINA RESULT: -6.687966693      0.000      0.000
REMARK  4 active torsions:
REMARK  status: ('A' for Active; 'I' for Inactive)
REMARK    1  A    between atoms: C5_6  and  N2_7 
REMARK    2  A    between atoms: N2_7  and  C6_9 
REMARK    3  A    between atoms: C9_12  and  S1_13 
REMARK    4  A    between atoms: S1_13  and  N3_14 
ROOT
HETATM    1  C6  UNL     1     -18.279  25.905  -2.327  1.00  0.00     0.105 A 
HETATM    2  C7  UNL     1     -18.088  26.726  -1.248  1.00  0.00     0.050 A 
HETATM    3  C8  UNL     1     -18.657  26.434  -0.021  1.00  0.00     0.030 A 
HETATM    4  C9  UNL     1     -19.425  25.298   0.107  1.00  0.00     0.094 A 
HETATM    5  C10 UNL     1     -19.607  24.481  -0.994  1.00  0.00     0.115 A 
HETATM    6  N4  UNL     1     -19.027  24.808  -2.182  1.00  0.00    -0.351 N 
ATOM      7  H4  UNL     1     -19.169  24.196  -2.986  1.00  0.00     0.166 HD
ENDROOT
BRANCH   1   8
HETATM    8  N2  UNL     1     -17.755  26.181  -3.443  1.00  0.00    -0.342 N 
ATOM      9  H2  UNL     1     -18.389  26.467  -4.188  1.00  0.00     0.167 HD
BRANCH   8  10
HETATM   10  C5  UNL     1     -16.390  26.133  -3.761  1.00  0.00     0.035 A 
HETATM   11  C4  UNL     1     -15.684  27.296  -3.992  1.00  0.00     0.029 A 
HETATM   12  C3  UNL     1     -14.325  27.264  -4.310  1.00  0.00     0.004 A 
HETATM   13  C2  UNL     1     -13.653  26.060  -4.400  1.00  0.00     0.027 A 
HETATM   14  C1  UNL     1     -14.351  24.896  -4.171  1.00  0.00     0.048 A 
HETATM   15  N1  UNL     1     -13.671  23.631  -4.259  1.00  0.00    -0.102 NA
HETATM   16  C11 UNL     1     -15.692  24.941  -3.859  1.00  0.00     0.056 A 
ENDBRANCH   8  10
ENDBRANCH   1   8
BRANCH   4  17
HETATM   17  S1  UNL     1     -20.178  24.863   1.631  1.00  0.00     0.258 S 
HETATM   18  O1  UNL     1     -19.175  24.895   2.748  1.00  0.00    -0.201 OA
HETATM   19  O2  UNL     1     -20.664  23.447   1.505  1.00  0.00    -0.201 OA
BRANCH  17  20
HETATM   20  N3  UNL     1     -21.505  25.920   1.924  1.00  0.00    -0.324 N 
ATOM     21  H32 UNL     1     -21.422  26.925   2.079  1.00  0.00     0.169 HD
ATOM     22  H31 UNL     1     -22.370  25.379   1.917  1.00  0.00     0.169 HD
ENDBRANCH  17  20
ENDBRANCH   4  17
TORSDOF 4
ENDMDL
MODEL 2
REMARK VINA RESULT: -6.619795183      4.341      7.835
REMARK  4 active torsions:
REMARK  status: ('A' for Active; 'I' for Inactive)
REMARK    1  A    between atoms: C5_6  and  N2_7 
REMARK    2  A    between atoms: N2_7  and  C6_9 
REMARK    3  A    between atoms: C9_12  and  S1_13 
REMARK    4  A    between atoms: S1_13  and  N3_14 
ROOT
HETATM    1  C6  UNL     1     -19.699  24.260   2.174  1.00  0.00     0.105 A 
HETATM    2  C7  UNL     1     -18.686  24.182   1.256  1.00  0.00     0.050 A 
HETATM    3  C8  UNL     1     -18.683  24.984   0.129  1.00  0.00     0.030 A 
HETATM    4  C9  UNL     1     -19.720  25.870  -0.064  1.00  0.00     0.094 A 
HETATM    5  C10 UNL     1     -20.734  25.934   0.873  1.00  0.00     0.115 A 
HETATM    6  N4  UNL     1     -20.695  25.125   1.969  1.00  0.00    -0.351 N 
ATOM      7  H4  UNL     1     -21.449  25.182   2.652  1.00  0.00     0.166 HD
ENDROOT
BRANCH   1   8
HETATM    8  N2  UNL     1     -19.692  23.522   3.200  1.00  0.00    -0.342 N 
ATOM      9  H2  UNL     1     -19.021  23.759   3.930  1.00  0.00     0.167 HD
BRANCH   8  10
HETATM   10  C5  UNL     1     -20.514  22.411   3.437  1.00  0.00     0.035 A 
HETATM   11  C4  UNL     1     -21.017  22.168   4.698  1.00  0.00     0.029 A 
HETATM   12  C3  UNL     1     -21.837  21.065   4.948  1.00  0.00     0.004 A 
HETATM   13  C2  UNL     1     -22.163  20.189   3.932  1.00  0.00     0.027 A 
HETATM   14  C1  UNL     1     -21.665  20.424   2.671  1.00  0.00     0.048 A 
HETATM   15  N1  UNL     1     -21.993  19.524   1.597  1.00  0.00    -0.102 NA
HETATM   16  C11 UNL     1     -20.857  21.515   2.437  1.00  0.00     0.056 A 
ENDBRANCH   8  10
ENDBRANCH   1   8
BRANCH   4  17
HETATM   17  S1  UNL     1     -19.784  26.919  -1.469  1.00  0.00     0.258 S 
HETATM   18  O1  UNL     1     -18.932  28.138  -1.263  1.00  0.00    -0.201 OA
HETATM   19  O2  UNL     1     -21.205  27.385  -1.619  1.00  0.00    -0.201 OA
BRANCH  17  20
HETATM   20  N3  UNL     1     -19.305  26.025  -2.860  1.00  0.00    -0.324 N 
ATOM     21  H32 UNL     1     -18.344  25.761  -3.077  1.00  0.00     0.169 HD
ATOM     22  H31 UNL     1     -20.131  25.809  -3.418  1.00  0.00     0.169 HD
ENDBRANCH  17  20
ENDBRANCH   4  17
TORSDOF 4
ENDMDL
MODEL 3
REMARK VINA RESULT: -6.567128892      2.813      3.904
REMARK  4 active torsions:
REMARK  status: ('A' for Active; 'I' for Inactive)
REMARK    1  A    between atoms: C5_6  and  N2_7 
REMARK    2  A    between atoms: N2_7  and  C6_9 
REMARK    3  A    between atoms: C9_12  and  S1_13 
REMARK    4  A    between atoms: S1_13  and  N3_14 
ROOT
HETATM    1  C6  UNL     1     -14.725  26.635  -3.230  1.00  0.00     0.105 A 
HETATM    2  C7  UNL     1     -15.711  27.287  -3.921  1.00  0.00     0.050 A 
HETATM    3  C8  UNL     1     -17.027  27.240  -3.498  1.00  0.00     0.030 A 
HETATM    4  C9  UNL     1     -17.340  26.523  -2.364  1.00  0.00     0.094 A 
HETATM    5  C10 UNL     1     -16.331  25.870  -1.681  1.00  0.00     0.115 A 
HETATM    6  N4  UNL     1     -15.049  25.944  -2.134  1.00  0.00    -0.351 N 
ATOM      7  H4  UNL     1     -14.314  25.458  -1.620  1.00  0.00     0.166 HD
ENDROOT
BRANCH   1   8
HETATM    8  N2  UNL     1     -13.526  26.684  -3.626  1.00  0.00    -0.342 N 
ATOM      9  H2  UNL     1     -12.808  26.745  -2.904  1.00  0.00     0.167 HD
BRANCH   8  10
HETATM   10  C5  UNL     1     -13.082  26.662  -4.956  1.00  0.00     0.035 A 
HETATM   11  C4  UNL     1     -12.467  27.767  -5.507  1.00  0.00     0.029 A 
HETATM   12  C3  UNL     1     -12.020  27.760  -6.830  1.00  0.00     0.004 A 
HETATM   13  C2  UNL     1     -12.185  26.639  -7.620  1.00  0.00     0.027 A 
HETATM   14  C1  UNL     1     -12.797  25.533  -7.078  1.00  0.00     0.048 A 
HETATM   15  N1  UNL     1     -12.979  24.354  -7.883  1.00  0.00    -0.102 NA
HETATM   16  C11 UNL     1     -13.234  25.552  -5.771  1.00  0.00     0.056 A 
ENDBRANCH   8  10
ENDBRANCH   1   8
BRANCH   4  17
HETATM   17  S1  UNL     1     -18.987  26.418  -1.768  1.00  0.00     0.258 S 
HETATM   18  O1  UNL     1     -19.821  27.543  -2.309  1.00  0.00    -0.201 OA
HETATM   19  O2  UNL     1     -18.936  26.576  -0.274  1.00  0.00    -0.201 OA
BRANCH  17  20
HETATM   20  N3  UNL     1     -19.637  24.878  -2.178  1.00  0.00    -0.324 N 
ATOM     21  H32 UNL     1     -19.533  24.428  -3.088  1.00  0.00     0.169 HD
ATOM     22  H31 UNL     1     -20.133  24.500  -1.371  1.00  0.00     0.169 HD
ENDBRANCH  17  20
ENDBRANCH   4  17
TORSDOF 4
ENDMDL
MODEL 4
REMARK VINA RESULT: -6.562179077      3.348      4.609
REMARK  4 active torsions:
REMARK  status: ('A' for Active; 'I' for Inactive)
REMARK    1  A    between atoms: C5_6  and  N2_7 
REMARK    2  A    between atoms: N2_7  and  C6_9 
REMARK    3  A    between atoms: C9_12  and  S1_13 
REMARK    4  A    between atoms: S1_13  and  N3_14 
ROOT
HETATM    1  C6  UNL     1     -14.566  25.583  -4.273  1.00  0.00     0.105 A 
HETATM    2  C7  UNL     1     -14.871  26.916  -4.216  1.00  0.00     0.050 A 
HETATM    3  C8  UNL     1     -16.066  27.352  -3.671  1.00  0.00     0.030 A 
HETATM    4  C9  UNL     1     -16.957  26.421  -3.183  1.00  0.00     0.094 A 
HETATM    5  C10 UNL     1     -16.632  25.079  -3.250  1.00  0.00     0.115 A 
HETATM    6  N4  UNL     1     -15.444  24.696  -3.794  1.00  0.00    -0.351 N 
ATOM      7  H4  UNL     1     -15.216  23.703  -3.836  1.00  0.00     0.166 HD
ENDROOT
BRANCH   1   8
HETATM    8  N2  UNL     1     -13.472  25.195  -4.772  1.00  0.00    -0.342 N 
ATOM      9  H2  UNL     1     -12.679  25.119  -4.135  1.00  0.00     0.167 HD
BRANCH   8  10
HETATM   10  C5  UNL     1     -13.237  24.861  -6.113  1.00  0.00     0.035 A 
HETATM   11  C4  UNL     1     -12.986  25.844  -7.047  1.00  0.00     0.029 A 
HETATM   12  C3  UNL     1     -12.750  25.526  -8.386  1.00  0.00     0.004 A 
HETATM   13  C2  UNL     1     -12.762  24.211  -8.807  1.00  0.00     0.027 A 
HETATM   14  C1  UNL     1     -13.012  23.224  -7.882  1.00  0.00     0.048 A 
HETATM   15  N1  UNL     1     -13.030  21.846  -8.298  1.00  0.00    -0.102 NA
HETATM   16  C11 UNL     1     -13.244  23.550  -6.563  1.00  0.00     0.056 A 
ENDBRANCH   8  10
ENDBRANCH   1   8
BRANCH   4  17
HETATM   17  S1  UNL     1     -18.492  26.899  -2.480  1.00  0.00     0.258 S 
HETATM   18  O1  UNL     1     -19.056  28.092  -3.195  1.00  0.00    -0.201 OA
HETATM   19  O2  UNL     1     -18.226  27.311  -1.059  1.00  0.00    -0.201 OA
BRANCH  17  20
HETATM   20  N3  UNL     1     -19.568  25.556  -2.514  1.00  0.00    -0.324 N 
ATOM     21  H32 UNL     1     -19.693  24.934  -3.313  1.00  0.00     0.169 HD
ATOM     22  H31 UNL     1     -20.049  25.491  -1.617  1.00  0.00     0.169 HD
ENDBRANCH  17  20
ENDBRANCH   4  17
TORSDOF 4
ENDMDL
MODEL 5
REMARK VINA RESULT: -6.477238004      2.737      3.866
REMARK  4 active torsions:
REMARK  status: ('A' for Active; 'I' for Inactive)
REMARK    1  A    between atoms: C5_6  and  N2_7 
REMARK    2  A    between atoms: N2_7  and  C6_9 
REMARK    3  A    between atoms: C9_12  and  S1_13 
REMARK    4  A    between atoms: S1_13  and  N3_14 
ROOT
HETATM    1  C6  UNL     1     -19.463  25.633   0.385  1.00  0.00     0.105 A 
HETATM    2  C7  UNL     1     -19.217  24.429  -0.219  1.00  0.00     0.050 A 
HETATM    3  C8  UNL     1     -19.570  23.240   0.394  1.00  0.00     0.030 A 
HETATM    4  C9  UNL     1     -20.176  23.279   1.630  1.00  0.00     0.094 A 
HETATM    5  C10 UNL     1     -20.415  24.504   2.224  1.00  0.00     0.115 A 
HETATM    6  N4  UNL     1     -20.052  25.649   1.584  1.00  0.00    -0.351 N 
ATOM      7  H4  UNL     1     -20.234  26.547   2.033  1.00  0.00     0.166 HD
ENDROOT
BRANCH   1   8
HETATM    8  N2  UNL     1     -19.137  26.714  -0.184  1.00  0.00    -0.342 N 
ATOM      9  H2  UNL     1     -19.402  27.578   0.288  1.00  0.00     0.167 HD
BRANCH   8  10
HETATM   10  C5  UNL     1     -18.447  26.845  -1.397  1.00  0.00     0.035 A 
HETATM   11  C4  UNL     1     -17.084  26.645  -1.454  1.00  0.00     0.029 A 
HETATM   12  C3  UNL     1     -16.384  26.773  -2.655  1.00  0.00     0.004 A 
HETATM   13  C2  UNL     1     -17.046  27.104  -3.821  1.00  0.00     0.027 A 
HETATM   14  C1  UNL     1     -18.407  27.305  -3.773  1.00  0.00     0.048 A 
HETATM   15  N1  UNL     1     -19.117  27.650  -4.977  1.00  0.00    -0.102 NA
HETATM   16  C11 UNL     1     -19.086  27.177  -2.582  1.00  0.00     0.056 A 
ENDBRANCH   8  10
ENDBRANCH   1   8
BRANCH   4  17
HETATM   17  S1  UNL     1     -20.650  21.812   2.468  1.00  0.00     0.258 S 
HETATM   18  O1  UNL     1     -21.234  20.816   1.508  1.00  0.00    -0.201 OA
HETATM   19  O2  UNL     1     -21.733  22.181   3.444  1.00  0.00    -0.201 OA
BRANCH  17  20
HETATM   20  N3  UNL     1     -19.288  21.178   3.308  1.00  0.00    -0.324 N 
ATOM     21  H32 UNL     1     -19.212  20.220   3.650  1.00  0.00     0.169 HD
ATOM     22  H31 UNL     1     -18.585  21.911   3.403  1.00  0.00     0.169 HD
ENDBRANCH  17  20
ENDBRANCH   4  17
TORSDOF 4
ENDMDL
