MODEL 1
REMARK VINA RESULT: -7.808626371      0.000      0.000
REMARK  2 active torsions:
REMARK  status: ('A' for Active; 'I' for Inactive)
REMARK    1  A    between atoms: C6_7  and  C7_8 
REMARK    2  A    between atoms: N4_22  and  O2_23 
ROOT
HETATM    1  C7  UNL     1     -19.016  26.016  -0.484  1.00  0.00     0.060 A 
HETATM    2  C8  UNL     1     -18.720  25.259   0.418  1.00  0.00     0.037 A 
HETATM    3  C9  UNL     1     -17.986  24.366   1.287  1.00  0.00     0.041 C 
HETATM    4  C10 UNL     1     -18.197  23.098   1.508  1.00  0.00     0.045 C 
HETATM    5  C11 UNL     1     -17.254  22.836   2.624  1.00  0.00     0.059 C 
HETATM    6  C12 UNL     1     -18.017  23.303   3.975  1.00  0.00     0.037 C 
HETATM    7  C13 UNL     1     -19.228  23.941   3.363  1.00  0.00     0.031 C 
HETATM    8  C14 UNL     1     -20.119  23.574   2.503  1.00  0.00     0.164 C 
HETATM    9  N2  UNL     1     -20.794  24.868   2.297  1.00  0.00    -0.321 N 
ATOM     10  H2  UNL     1     -21.478  25.262   2.944  1.00  0.00     0.169 HD
HETATM   11  C15 UNL     1     -20.336  25.571   0.961  1.00  0.00     0.120 A 
HETATM   12  N3  UNL     1     -20.336  26.251  -0.017  1.00  0.00    -0.340 N 
ATOM     13  H3  UNL     1     -21.074  26.836  -0.408  1.00  0.00     0.167 HD
HETATM   14  O1  UNL     1     -20.288  22.289   1.960  1.00  0.00    -0.214 OA
HETATM   15  N4  UNL     1     -19.099  22.044   1.020  1.00  0.00    -0.031 NA
ENDROOT
BRANCH   1  16
HETATM   16  C6  UNL     1     -17.989  26.364  -1.483  1.00  0.00     0.016 A 
HETATM   17  C1  UNL     1     -18.373  27.173  -2.486  1.00  0.00     0.059 A 
HETATM   18  N1  UNL     1     -19.717  27.667  -2.588  1.00  0.00    -0.102 NA
HETATM   19  C2  UNL     1     -17.432  27.527  -3.430  1.00  0.00     0.027 A 
HETATM   20  C3  UNL     1     -16.130  27.082  -3.380  1.00  0.00     0.002 A 
HETATM   21  C4  UNL     1     -15.752  26.248  -2.338  1.00  0.00     0.001 A 
HETATM   22  C5  UNL     1     -16.699  25.901  -1.400  1.00  0.00     0.015 A 
ENDBRANCH   1  16
BRANCH  15  23
HETATM   23  O2  UNL     1     -18.779  20.825   1.087  1.00  0.00    -0.284 OA
ATOM     24  H2  UNL     1     -19.048  20.207   0.417  1.00  0.00     0.240 HD
ENDBRANCH  15  23
TORSDOF 2
ENDMDL
MODEL 2
REMARK VINA RESULT: -7.398637909      2.057      2.893
REMARK  2 active torsions:
REMARK  status: ('A' for Active; 'I' for Inactive)
REMARK    1  A    between atoms: C6_7  and  C7_8 
REMARK    2  A    between atoms: N4_22  and  O2_23 
ROOT
HETATM    1  C7  UNL     1     -20.258  24.759   1.622  1.00  0.00     0.060 A 
HETATM    2  C8  UNL     1     -20.012  23.628   1.989  1.00  0.00     0.037 A 
HETATM    3  C9  UNL     1     -19.470  22.289   2.072  1.00  0.00     0.041 C 
HETATM    4  C10 UNL     1     -20.103  21.153   1.982  1.00  0.00     0.045 C 
HETATM    5  C11 UNL     1     -19.032  20.193   2.349  1.00  0.00     0.059 C 
HETATM    6  C12 UNL     1     -18.994  20.162   3.969  1.00  0.00     0.037 C 
HETATM    7  C13 UNL     1     -19.951  21.279   4.257  1.00  0.00     0.031 C 
HETATM    8  C14 UNL     1     -21.154  21.571   3.888  1.00  0.00     0.164 C 
HETATM    9  N2  UNL     1     -21.243  22.936   4.437  1.00  0.00    -0.321 N 
ATOM     10  H2  UNL     1     -21.417  23.144   5.421  1.00  0.00     0.169 HD
HETATM   11  C15 UNL     1     -21.036  24.038   3.326  1.00  0.00     0.120 A 
HETATM   12  N3  UNL     1     -21.094  25.066   2.728  1.00  0.00    -0.340 N 
ATOM     13  H3  UNL     1     -21.602  25.923   2.947  1.00  0.00     0.167 HD
HETATM   14  O1  UNL     1     -22.031  20.758   3.150  1.00  0.00    -0.214 OA
HETATM   15  N4  UNL     1     -21.475  20.690   1.720  1.00  0.00    -0.031 NA
ENDROOT
BRANCH   1  16
HETATM   16  C6  UNL     1     -19.607  25.265   0.399  1.00  0.00     0.016 A 
HETATM   17  C1  UNL     1     -20.282  26.192  -0.303  1.00  0.00     0.059 A 
HETATM   18  N1  UNL     1     -21.576  26.659   0.107  1.00  0.00    -0.102 NA
HETATM   19  C2  UNL     1     -19.695  26.694  -1.445  1.00  0.00     0.027 A 
HETATM   20  C3  UNL     1     -18.458  26.281  -1.884  1.00  0.00     0.002 A 
HETATM   21  C4  UNL     1     -17.776  25.324  -1.147  1.00  0.00     0.001 A 
HETATM   22  C5  UNL     1     -18.371  24.829  -0.007  1.00  0.00     0.015 A 
ENDBRANCH   1  16
BRANCH  15  23
HETATM   23  O2  UNL     1     -21.699  19.538   1.256  1.00  0.00    -0.284 OA
ATOM     24  H2  UNL     1     -20.999  18.904   1.150  1.00  0.00     0.240 HD
ENDBRANCH  15  23
TORSDOF 2
ENDMDL
MODEL 3
REMARK VINA RESULT: -7.091788105      1.377      1.619
REMARK  2 active torsions:
REMARK  status: ('A' for Active; 'I' for Inactive)
REMARK    1  A    between atoms: C6_7  and  C7_8 
REMARK    2  A    between atoms: N4_22  and  O2_23 
ROOT
HETATM    1  C7  UNL     1     -18.265  25.561  -1.921  1.00  0.00     0.060 A 
HETATM    2  C8  UNL     1     -18.194  25.105  -0.798  1.00  0.00     0.037 A 
HETATM    3  C9  UNL     1     -17.702  24.486   0.413  1.00  0.00     0.041 C 
HETATM    4  C10 UNL     1     -18.080  23.363   0.958  1.00  0.00     0.045 C 
HETATM    5  C11 UNL     1     -17.352  23.408   2.251  1.00  0.00     0.059 C 
HETATM    6  C12 UNL     1     -18.257  24.314   3.245  1.00  0.00     0.037 C 
HETATM    7  C13 UNL     1     -19.284  24.797   2.265  1.00  0.00     0.031 C 
HETATM    8  C14 UNL     1     -20.068  24.233   1.409  1.00  0.00     0.164 C 
HETATM    9  N2  UNL     1     -20.559  25.436   0.713  1.00  0.00    -0.321 N 
ATOM     10  H2  UNL     1     -21.286  26.050   1.081  1.00  0.00     0.169 HD
HETATM   11  C15 UNL     1     -19.830  25.663  -0.668  1.00  0.00     0.120 A 
HETATM   12  N3  UNL     1     -19.607  26.004  -1.787  1.00  0.00    -0.340 N 
ATOM     13  H3  UNL     1     -20.210  26.480  -2.459  1.00  0.00     0.167 HD
HETATM   14  O1  UNL     1     -20.292  22.855   1.250  1.00  0.00    -0.214 OA
HETATM   15  N4  UNL     1     -19.007  22.263   0.652  1.00  0.00    -0.031 NA
ENDROOT
BRANCH   1  16
HETATM   16  C6  UNL     1     -17.066  25.522  -2.779  1.00  0.00     0.016 A 
HETATM   17  C1  UNL     1     -16.717  26.674  -3.379  1.00  0.00     0.059 A 
HETATM   18  N1  UNL     1     -17.477  27.880  -3.205  1.00  0.00    -0.102 NA
HETATM   19  C2  UNL     1     -15.593  26.673  -4.178  1.00  0.00     0.027 A 
HETATM   20  C3  UNL     1     -14.830  25.546  -4.380  1.00  0.00     0.002 A 
HETATM   21  C4  UNL     1     -15.205  24.367  -3.753  1.00  0.00     0.001 A 
HETATM   22  C5  UNL     1     -16.328  24.379  -2.956  1.00  0.00     0.015 A 
ENDBRANCH   1  16
BRANCH  15  23
HETATM   23  O2  UNL     1     -18.835  21.109   1.133  1.00  0.00    -0.284 OA
ATOM     24  H2  UNL     1     -18.820  20.340   0.575  1.00  0.00     0.240 HD
ENDBRANCH  15  23
TORSDOF 2
ENDMDL
MODEL 4
REMARK VINA RESULT: -7.081103073      2.634      6.211
REMARK  2 active torsions:
REMARK  status: ('A' for Active; 'I' for Inactive)
REMARK    1  A    between atoms: C6_7  and  C7_8 
REMARK    2  A    between atoms: N4_22  and  O2_23 
ROOT
HETATM    1  C7  UNL     1     -19.064  22.658   1.071  1.00  0.00     0.060 A 
HETATM    2  C8  UNL     1     -18.569  23.607   0.500  1.00  0.00     0.037 A 
HETATM    3  C9  UNL     1     -18.255  24.952   0.072  1.00  0.00     0.041 C 
HETATM    4  C10 UNL     1     -18.424  25.487  -1.105  1.00  0.00     0.045 C 
HETATM    5  C11 UNL     1     -17.728  26.787  -0.937  1.00  0.00     0.059 C 
HETATM    6  C12 UNL     1     -16.154  26.488  -1.187  1.00  0.00     0.037 C 
HETATM    7  C13 UNL     1     -16.202  24.992  -1.274  1.00  0.00     0.031 C 
HETATM    8  C14 UNL     1     -16.888  24.137  -1.957  1.00  0.00     0.164 C 
HETATM    9  N2  UNL     1     -16.478  22.901  -1.266  1.00  0.00    -0.321 N 
ATOM     10  H2  UNL     1     -15.589  22.426  -1.428  1.00  0.00     0.169 HD
HETATM   11  C15 UNL     1     -17.573  22.400  -0.246  1.00  0.00     0.120 A 
HETATM   12  N3  UNL     1     -18.236  21.691   0.443  1.00  0.00    -0.340 N 
ATOM     13  H3  UNL     1     -18.216  20.677   0.550  1.00  0.00     0.167 HD
HETATM   14  O1  UNL     1     -17.768  24.415  -3.016  1.00  0.00    -0.214 OA
HETATM   15  N4  UNL     1     -18.998  25.101  -2.403  1.00  0.00    -0.031 NA
ENDROOT
BRANCH   1  16
HETATM   16  C6  UNL     1     -20.111  22.905   2.080  1.00  0.00     0.016 A 
HETATM   17  C1  UNL     1     -20.724  21.823   2.592  1.00  0.00     0.059 A 
HETATM   18  N1  UNL     1     -20.387  20.492   2.171  1.00  0.00    -0.102 NA
HETATM   19  C2  UNL     1     -21.698  22.022   3.547  1.00  0.00     0.027 A 
HETATM   20  C3  UNL     1     -22.061  23.274   3.986  1.00  0.00     0.002 A 
HETATM   21  C4  UNL     1     -21.418  24.379   3.447  1.00  0.00     0.001 A 
HETATM   22  C5  UNL     1     -20.445  24.171   2.494  1.00  0.00     0.015 A 
ENDBRANCH   1  16
BRANCH  15  23
HETATM   23  O2  UNL     1     -19.422  25.968  -3.216  1.00  0.00    -0.284 OA
ATOM     24  H2  UNL     1     -18.855  26.659  -3.539  1.00  0.00     0.240 HD
ENDBRANCH  15  23
TORSDOF 2
ENDMDL
MODEL 5
REMARK VINA RESULT: -7.066755656      1.276      1.642
REMARK  2 active torsions:
REMARK  status: ('A' for Active; 'I' for Inactive)
REMARK    1  A    between atoms: C6_7  and  C7_8 
REMARK    2  A    between atoms: N4_22  and  O2_23 
ROOT
HETATM    1  C7  UNL     1     -18.611  25.735  -0.226  1.00  0.00     0.060 A 
HETATM    2  C8  UNL     1     -17.905  24.891   0.289  1.00  0.00     0.037 A 
HETATM    3  C9  UNL     1     -16.838  23.948   0.540  1.00  0.00     0.041 C 
HETATM    4  C10 UNL     1     -16.914  22.650   0.650  1.00  0.00     0.045 C 
HETATM    5  C11 UNL     1     -15.540  22.315   1.098  1.00  0.00     0.059 C 
HETATM    6  C12 UNL     1     -15.522  22.552   2.702  1.00  0.00     0.037 C 
HETATM    7  C13 UNL     1     -16.875  23.176   2.871  1.00  0.00     0.031 C 
HETATM    8  C14 UNL     1     -18.077  22.861   2.524  1.00  0.00     0.164 C 
HETATM    9  N2  UNL     1     -18.760  24.121   2.871  1.00  0.00    -0.321 N 
ATOM     10  H2  UNL     1     -19.026  24.381   3.821  1.00  0.00     0.169 HD
HETATM   11  C15 UNL     1     -19.031  25.019   1.602  1.00  0.00     0.120 A 
HETATM   12  N3  UNL     1     -19.518  25.816   0.863  1.00  0.00    -0.340 N 
ATOM     13  H3  UNL     1     -20.351  26.393   0.980  1.00  0.00     0.167 HD
HETATM   14  O1  UNL     1     -18.501  21.648   1.957  1.00  0.00    -0.214 OA
HETATM   15  N4  UNL     1     -17.944  21.607   0.526  1.00  0.00    -0.031 NA
ENDROOT
BRANCH   1  16
HETATM   16  C6  UNL     1     -18.221  26.277  -1.540  1.00  0.00     0.016 A 
HETATM   17  C1  UNL     1     -19.159  26.975  -2.207  1.00  0.00     0.059 A 
HETATM   18  N1  UNL     1     -20.477  27.173  -1.673  1.00  0.00    -0.102 NA
HETATM   19  C2  UNL     1     -18.821  27.506  -3.433  1.00  0.00     0.027 A 
HETATM   20  C3  UNL     1     -17.574  27.346  -3.991  1.00  0.00     0.002 A 
HETATM   21  C4  UNL     1     -16.619  26.624  -3.290  1.00  0.00     0.001 A 
HETATM   22  C5  UNL     1     -16.966  26.098  -2.065  1.00  0.00     0.015 A 
ENDBRANCH   1  16
BRANCH  15  23
HETATM   23  O2  UNL     1     -17.638  20.415   0.248  1.00  0.00    -0.284 OA
ATOM     24  H2  UNL     1     -16.801  20.200  -0.149  1.00  0.00     0.240 HD
ENDBRANCH  15  23
TORSDOF 2
ENDMDL
