MODEL 1
REMARK VINA RESULT: -6.652353828      0.000      0.000
REMARK  4 active torsions:
REMARK  status: ('A' for Active; 'I' for Inactive)
REMARK    1  A    between atoms: N1_1  and  S1_4 
REMARK    2  A    between atoms: S1_4  and  C1_7 
REMARK    3  A    between atoms: C4_10  and  N2_11 
REMARK    4  A    between atoms: N2_11  and  C5_13 
ROOT
HETATM    1  C1  UNL     1      84.457  95.614  16.464  1.00  0.00     0.094 A 
HETATM    2  C2  UNL     1      83.159  95.966  16.756  1.00  0.00     0.030 A 
HETATM    3  C3  UNL     1      82.903  96.605  17.939  1.00  0.00     0.050 A 
HETATM    4  C4  UNL     1      83.939  96.890  18.824  1.00  0.00     0.106 A 
HETATM    5  N5  UNL     1      85.200  96.528  18.498  1.00  0.00    -0.351 N 
ATOM      6  H5  UNL     1      85.961  96.736  19.145  1.00  0.00     0.166 HD
HETATM    7  C8  UNL     1      85.474  95.902  17.344  1.00  0.00     0.115 A 
ENDROOT
BRANCH   4   8
HETATM    8  N2  UNL     1      83.643  97.553  20.041  1.00  0.00    -0.328 N 
ATOM      9  H2  UNL     1      82.675  97.610  20.359  1.00  0.00     0.169 HD
BRANCH   8  10
HETATM   10  C5  UNL     1      84.575  98.084  20.750  1.00  0.00     0.122 A 
HETATM   11  C6  UNL     1      84.830  97.747  22.063  1.00  0.00     0.068 A 
HETATM   12  C7  UNL     1      85.898  98.525  22.481  1.00  0.00     0.111 A 
HETATM   13  N3  UNL     1      86.237  99.286  21.423  1.00  0.00    -0.310 N 
HETATM   14  N4  UNL     1      85.462  99.034  20.393  1.00  0.00    -0.286 N 
ATOM     15  H3  UNL     1      86.996  99.967  21.422  1.00  0.00     0.186 HD
ATOM     16  H4  UNL     1      85.521  99.482  19.478  1.00  0.00     0.188 HD
ENDBRANCH   8  10
ENDBRANCH   4   8
BRANCH   1  17
HETATM   17  S1  UNL     1      84.830  94.797  14.963  1.00  0.00     0.258 S 
HETATM   18  O1  UNL     1      86.234  95.122  14.545  1.00  0.00    -0.201 OA
HETATM   19  O2  UNL     1      84.763  93.290  15.156  1.00  0.00    -0.201 OA
BRANCH  17  20
HETATM   20  N1  UNL     1      83.693  95.261  13.740  1.00  0.00    -0.324 N 
ATOM     21  H12 UNL     1      82.932  95.922  13.896  1.00  0.00     0.169 HD
ATOM     22  H11 UNL     1      83.890  94.787  12.858  1.00  0.00     0.169 HD
ENDBRANCH  17  20
ENDBRANCH   1  17
TORSDOF 4
ENDMDL
MODEL 2
REMARK VINA RESULT: -6.200260187      1.042      1.110
REMARK  4 active torsions:
REMARK  status: ('A' for Active; 'I' for Inactive)
REMARK    1  A    between atoms: N1_1  and  S1_4 
REMARK    2  A    between atoms: S1_4  and  C1_7 
REMARK    3  A    between atoms: C4_10  and  N2_11 
REMARK    4  A    between atoms: N2_11  and  C5_13 
ROOT
HETATM    1  C1  UNL     1      84.216  95.477  16.598  1.00  0.00     0.094 A 
HETATM    2  C2  UNL     1      82.931  95.954  16.725  1.00  0.00     0.030 A 
HETATM    3  C3  UNL     1      82.629  96.746  17.799  1.00  0.00     0.050 A 
HETATM    4  C4  UNL     1      83.606  97.059  18.740  1.00  0.00     0.106 A 
HETATM    5  N5  UNL     1      84.855  96.571  18.577  1.00  0.00    -0.351 N 
ATOM      6  H5  UNL     1      85.573  96.800  19.265  1.00  0.00     0.166 HD
HETATM    7  C8  UNL     1      85.174  95.793  17.532  1.00  0.00     0.115 A 
ENDROOT
BRANCH   4   8
HETATM    8  N2  UNL     1      83.263  97.883  19.841  1.00  0.00    -0.328 N 
ATOM      9  H2  UNL     1      82.388  98.408  19.822  1.00  0.00     0.169 HD
BRANCH   8  10
HETATM   10  C5  UNL     1      84.036  97.977  20.864  1.00  0.00     0.122 A 
HETATM   11  C6  UNL     1      85.273  98.587  20.841  1.00  0.00     0.068 A 
HETATM   12  C7  UNL     1      85.797  98.489  22.120  1.00  0.00     0.111 A 
HETATM   13  N3  UNL     1      84.872  97.838  22.850  1.00  0.00    -0.310 N 
HETATM   14  N4  UNL     1      83.826  97.529  22.118  1.00  0.00    -0.286 N 
ATOM     15  H3  UNL     1      84.971  97.613  23.840  1.00  0.00     0.186 HD
ATOM     16  H4  UNL     1      82.995  97.034  22.444  1.00  0.00     0.188 HD
ENDBRANCH   8  10
ENDBRANCH   4   8
BRANCH   1  17
HETATM   17  S1  UNL     1      84.646  94.461  15.240  1.00  0.00     0.258 S 
HETATM   18  O1  UNL     1      86.139  94.318  15.169  1.00  0.00    -0.201 OA
HETATM   19  O2  UNL     1      84.076  93.063  15.429  1.00  0.00    -0.201 OA
BRANCH  17  20
HETATM   20  N1  UNL     1      84.015  95.136  13.774  1.00  0.00    -0.324 N 
ATOM     21  H12 UNL     1      83.582  96.058  13.716  1.00  0.00     0.169 HD
ATOM     22  H11 UNL     1      84.134  94.491  12.992  1.00  0.00     0.169 HD
ENDBRANCH  17  20
ENDBRANCH   1  17
TORSDOF 4
ENDMDL
MODEL 3
REMARK VINA RESULT: -6.152006167      1.862      2.041
REMARK  4 active torsions:
REMARK  status: ('A' for Active; 'I' for Inactive)
REMARK    1  A    between atoms: N1_1  and  S1_4 
REMARK    2  A    between atoms: S1_4  and  C1_7 
REMARK    3  A    between atoms: C4_10  and  N2_11 
REMARK    4  A    between atoms: N2_11  and  C5_13 
ROOT
HETATM    1  C1  UNL     1      84.514  95.502  16.201  1.00  0.00     0.094 A 
HETATM    2  C2  UNL     1      83.184  95.703  15.912  1.00  0.00     0.030 A 
HETATM    3  C3  UNL     1      82.358  96.158  16.904  1.00  0.00     0.050 A 
HETATM    4  C4  UNL     1      82.861  96.410  18.177  1.00  0.00     0.106 A 
HETATM    5  N5  UNL     1      84.174  96.201  18.419  1.00  0.00    -0.351 N 
ATOM      6  H5  UNL     1      84.545  96.386  19.351  1.00  0.00     0.166 HD
HETATM    7  C8  UNL     1      85.001  95.756  17.462  1.00  0.00     0.115 A 
ENDROOT
BRANCH   4   8
HETATM    8  N2  UNL     1      81.981  96.882  19.183  1.00  0.00    -0.328 N 
ATOM      9  H2  UNL     1      80.988  96.984  18.975  1.00  0.00     0.169 HD
BRANCH   8  10
HETATM   10  C5  UNL     1      82.416  97.182  20.356  1.00  0.00     0.122 A 
HETATM   11  C6  UNL     1      82.959  98.406  20.687  1.00  0.00     0.068 A 
HETATM   12  C7  UNL     1      83.307  98.346  22.026  1.00  0.00     0.111 A 
HETATM   13  N3  UNL     1      82.967  97.112  22.443  1.00  0.00    -0.310 N 
HETATM   14  N4  UNL     1      82.438  96.413  21.464  1.00  0.00    -0.286 N 
ATOM     15  H3  UNL     1      83.101  96.765  23.392  1.00  0.00     0.186 HD
ATOM     16  H4  UNL     1      82.103  95.451  21.530  1.00  0.00     0.188 HD
ENDBRANCH   8  10
ENDBRANCH   4   8
BRANCH   1  17
HETATM   17  S1  UNL     1      85.606  94.921  14.963  1.00  0.00     0.258 S 
HETATM   18  O1  UNL     1      86.788  95.841  14.859  1.00  0.00    -0.201 OA
HETATM   19  O2  UNL     1      86.143  93.549  15.339  1.00  0.00    -0.201 OA
BRANCH  17  20
HETATM   20  N1  UNL     1      84.772  94.806  13.448  1.00  0.00    -0.324 N 
ATOM     21  H12 UNL     1      83.863  95.235  13.268  1.00  0.00     0.169 HD
ATOM     22  H11 UNL     1      85.309  94.259  12.775  1.00  0.00     0.169 HD
ENDBRANCH  17  20
ENDBRANCH   1  17
TORSDOF 4
ENDMDL
MODEL 4
REMARK VINA RESULT: -6.078077471      1.768      2.020
REMARK  4 active torsions:
REMARK  status: ('A' for Active; 'I' for Inactive)
REMARK    1  A    between atoms: N1_1  and  S1_4 
REMARK    2  A    between atoms: S1_4  and  C1_7 
REMARK    3  A    between atoms: C4_10  and  N2_11 
REMARK    4  A    between atoms: N2_11  and  C5_13 
ROOT
HETATM    1  C1  UNL     1      83.550  94.620  15.682  1.00  0.00     0.094 A 
HETATM    2  C2  UNL     1      82.460  95.357  16.085  1.00  0.00     0.030 A 
HETATM    3  C3  UNL     1      82.415  95.812  17.375  1.00  0.00     0.050 A 
HETATM    4  C4  UNL     1      83.455  95.531  18.257  1.00  0.00     0.106 A 
HETATM    5  N5  UNL     1      84.508  94.805  17.821  1.00  0.00    -0.351 N 
ATOM      6  H5  UNL     1      85.271  94.598  18.465  1.00  0.00     0.166 HD
HETATM    7  C8  UNL     1      84.572  94.350  16.561  1.00  0.00     0.115 A 
ENDROOT
BRANCH   4   8
HETATM    8  N2  UNL     1      83.381  96.016  19.586  1.00  0.00    -0.328 N 
ATOM      9  H2  UNL     1      82.870  95.481  20.289  1.00  0.00     0.169 HD
BRANCH   8  10
HETATM   10  C5  UNL     1      83.947  97.121  19.921  1.00  0.00     0.122 A 
HETATM   11  C6  UNL     1      83.275  98.202  20.453  1.00  0.00     0.068 A 
HETATM   12  C7  UNL     1      84.217  99.193  20.681  1.00  0.00     0.111 A 
HETATM   13  N3  UNL     1      85.396  98.680  20.284  1.00  0.00    -0.310 N 
HETATM   14  N4  UNL     1      85.251  97.455  19.832  1.00  0.00    -0.286 N 
ATOM     15  H3  UNL     1      86.286  99.177  20.328  1.00  0.00     0.186 HD
ATOM     16  H4  UNL     1      85.997  96.858  19.474  1.00  0.00     0.188 HD
ENDBRANCH   8  10
ENDBRANCH   4   8
BRANCH   1  17
HETATM   17  S1  UNL     1      83.648  94.020  14.043  1.00  0.00     0.258 S 
HETATM   18  O1  UNL     1      83.749  92.522  14.058  1.00  0.00    -0.201 OA
HETATM   19  O2  UNL     1      82.382  94.370  13.278  1.00  0.00    -0.201 OA
BRANCH  17  20
HETATM   20  N1  UNL     1      85.010  94.727  13.236  1.00  0.00    -0.324 N 
ATOM     21  H12 UNL     1      85.272  94.511  12.273  1.00  0.00     0.169 HD
ATOM     22  H11 UNL     1      85.503  95.376  13.849  1.00  0.00     0.169 HD
ENDBRANCH  17  20
ENDBRANCH   1  17
TORSDOF 4
ENDMDL
MODEL 5
REMARK VINA RESULT: -6.073152583      1.957      2.029
REMARK  4 active torsions:
REMARK  status: ('A' for Active; 'I' for Inactive)
REMARK    1  A    between atoms: N1_1  and  S1_4 
REMARK    2  A    between atoms: S1_4  and  C1_7 
REMARK    3  A    between atoms: C4_10  and  N2_11 
REMARK    4  A    between atoms: N2_11  and  C5_13 
ROOT
HETATM    1  C1  UNL     1      84.617  95.192  16.591  1.00  0.00     0.094 A 
HETATM    2  C2  UNL     1      83.383  94.600  16.735  1.00  0.00     0.030 A 
HETATM    3  C3  UNL     1      82.668  94.839  17.877  1.00  0.00     0.050 A 
HETATM    4  C4  UNL     1      83.185  95.667  18.869  1.00  0.00     0.106 A 
HETATM    5  N5  UNL     1      84.400  96.230  18.689  1.00  0.00    -0.351 N 
ATOM      6  H5  UNL     1      84.780  96.837  19.415  1.00  0.00     0.166 HD
HETATM    7  C8  UNL     1      85.117  96.009  17.578  1.00  0.00     0.115 A 
ENDROOT
BRANCH   4   8
HETATM    8  N2  UNL     1      82.421  95.897  20.040  1.00  0.00    -0.328 N 
ATOM      9  H2  UNL     1      81.855  95.141  20.428  1.00  0.00     0.169 HD
BRANCH   8  10
HETATM   10  C5  UNL     1      82.430  97.043  20.623  1.00  0.00     0.122 A 
HETATM   11  C6  UNL     1      82.850  97.245  21.921  1.00  0.00     0.068 A 
HETATM   12  C7  UNL     1      82.712  98.598  22.186  1.00  0.00     0.111 A 
HETATM   13  N3  UNL     1      82.225  99.148  21.059  1.00  0.00    -0.310 N 
HETATM   14  N4  UNL     1      82.053  98.239  20.126  1.00  0.00    -0.286 N 
ATOM     15  H3  UNL     1      82.016 100.140  20.944  1.00  0.00     0.186 HD
ATOM     16  H4  UNL     1      81.694  98.409  19.186  1.00  0.00     0.188 HD
ENDBRANCH   8  10
ENDBRANCH   4   8
BRANCH   1  17
HETATM   17  S1  UNL     1      85.565  94.914  15.148  1.00  0.00     0.258 S 
HETATM   18  O1  UNL     1      86.687  95.908  15.080  1.00  0.00    -0.201 OA
HETATM   19  O2  UNL     1      86.199  93.532  15.194  1.00  0.00    -0.201 OA
BRANCH  17  20
HETATM   20  N1  UNL     1      84.551  95.023  13.746  1.00  0.00    -0.324 N 
ATOM     21  H12 UNL     1      84.370  95.894  13.245  1.00  0.00     0.169 HD
ATOM     22  H11 UNL     1      84.168  94.111  13.498  1.00  0.00     0.169 HD
ENDBRANCH  17  20
ENDBRANCH   1  17
TORSDOF 4
ENDMDL
