MODEL 1
REMARK VINA RESULT: -9.597604885      0.000      0.000
REMARK  10 active torsions:
REMARK  status: ('A' for Active; 'I' for Inactive)
REMARK    1  A    between atoms: N3_5  and  C3_6 
REMARK    2  A    between atoms: C4_9  and  N5_10 
REMARK    3  A    between atoms: N5_10  and  C5_12 
REMARK    4  A    between atoms: C5_12  and  O1_13 
REMARK    5  A    between atoms: C5_12  and  N6_15 
REMARK    6  A    between atoms: N6_15  and  N7_16 
REMARK    7  A    between atoms: N7_16  and  C6_18 
REMARK    8  A    between atoms: N8_22  and  O2_23 
REMARK    9  A    between atoms: C11_30  and  N11_31 
REMARK   10  A    between atoms: C12_36  and  N13_37 
ROOT
HETATM    1  C5  UNL     1      16.422  -6.477   6.463  1.00  0.00     0.353 C 
ENDROOT
BRANCH   1   2
HETATM    2  N5  UNL     1      16.026  -7.450   5.500  1.00  0.00    -0.182 N 
ATOM      3  H5  UNL     1      16.401  -7.294   4.564  1.00  0.00     0.181 HD
BRANCH   2   4
HETATM    4  C4  UNL     1      15.296  -8.466   5.604  1.00  0.00     0.710 A 
HETATM    5  N4  UNL     1      15.472  -9.437   4.657  1.00  0.00    -0.020 N 
HETATM    6  C3  UNL     1      14.769 -10.578   4.637  1.00  0.00     0.726 A 
ATOM      7  H4  UNL     1      16.172  -9.286   3.931  1.00  0.00     0.203 HD
HETATM    8  N14 UNL     1      13.847 -10.733   5.625  1.00  0.00    -0.020 N 
HETATM    9  C12 UNL     1      13.647  -9.799   6.572  1.00  0.00     0.705 A 
ATOM     10  H14 UNL     1      13.289 -11.586   5.649  1.00  0.00     0.203 HD
HETATM   11  N12 UNL     1      14.373  -8.669   6.558  1.00  0.00    -0.022 N 
ATOM     12  H12 UNL     1      14.222  -7.961   7.276  1.00  0.00     0.203 HD
BRANCH   6  13
HETATM   13  N3  UNL     1      14.959 -11.578   3.644  1.00  0.00    -0.097 N 
HETATM   14  N2  UNL     1      14.055 -12.577   3.348  1.00  0.00    -0.092 NA
HETATM   15  C2  UNL     1      14.636 -13.371   2.290  1.00  0.00     0.409 C 
HETATM   16  N1  UNL     1      16.044 -13.034   2.213  1.00  0.00     0.119 N 
HETATM   17  C1  UNL     1      16.876 -13.960   2.960  1.00  0.00     0.314 C 
HETATM   18  C13 UNL     1      16.127 -11.703   2.794  1.00  0.00     0.436 C 
ENDBRANCH   6  13
BRANCH   9  19
HETATM   19  N13 UNL     1      12.773  -9.965   7.496  1.00  0.00    -0.234 N 
ATOM     20 2H13 UNL     1      12.455  -9.184   8.071  1.00  0.00     0.174 HD
ATOM     21 1H13 UNL     1      12.391 -10.898   7.655  1.00  0.00     0.174 HD
ENDBRANCH   9  19
ENDBRANCH   2   4
ENDBRANCH   1   2
BRANCH   1  22
HETATM   22  O1  UNL     1      15.370  -6.274   7.358  1.00  0.00    -0.361 OA
ATOM     23  H1  UNL     1      14.597  -6.017   6.870  1.00  0.00     0.213 HD
ENDBRANCH   1  22
BRANCH   1  24
HETATM   24  N6  UNL     1      16.828  -5.275   5.805  1.00  0.00    -0.087 NA
BRANCH  24  25
HETATM   25  N7  UNL     1      18.174  -5.193   5.553  1.00  0.00    -0.296 N 
ATOM     26  H7  UNL     1      18.823  -5.444   6.300  1.00  0.00     0.182 HD
BRANCH  25  27
HETATM   27  C6  UNL     1      18.708  -4.782   4.315  1.00  0.00     0.096 A 
HETATM   28  C7  UNL     1      18.852  -3.434   4.016  1.00  0.00     0.051 A 
HETATM   29  C8  UNL     1      19.387  -3.101   2.785  1.00  0.00     0.031 A 
HETATM   30  C9  UNL     1      19.676  -1.906   2.156  1.00  0.00     0.158 A 
HETATM   31  C10 UNL     1      19.746  -4.117   1.928  1.00  0.00     0.135 A 
HETATM   32  N8  UNL     1      20.194  -2.191   0.953  1.00  0.00    -0.172 N 
HETATM   33  N9  UNL     1      20.237  -3.516   0.815  1.00  0.00    -0.259 N 
ATOM     34  H9  UNL     1      20.589  -4.006  -0.007  1.00  0.00     0.191 HD
HETATM   35  N10 UNL     1      19.597  -5.419   2.237  1.00  0.00    -0.320 N 
HETATM   36  C11 UNL     1      19.079  -5.789   3.429  1.00  0.00     0.203 A 
ATOM     37  H10 UNL     1      19.877  -6.133   1.564  1.00  0.00     0.169 HD
BRANCH  32  38
HETATM   38  O2  UNL     1      20.632  -1.342  -0.020  1.00  0.00    -0.268 OA
ATOM     39  H2  UNL     1      21.444  -1.360  -0.512  1.00  0.00     0.247 HD
ENDBRANCH  32  38
BRANCH  36  40
HETATM   40  N11 UNL     1      18.921  -7.172   3.748  1.00  0.00    -0.095 N 
HETATM   41  O3  UNL     1      19.706  -7.707   4.553  1.00  0.00    -0.530 OA
HETATM   42  O4  UNL     1      17.935  -7.955   3.208  1.00  0.00    -0.530 OA
ENDBRANCH  36  40
ENDBRANCH  25  27
ENDBRANCH  24  25
ENDBRANCH   1  24
TORSDOF 10
ENDMDL
MODEL 2
REMARK VINA RESULT: -9.434875061      5.355      8.826
REMARK  10 active torsions:
REMARK  status: ('A' for Active; 'I' for Inactive)
REMARK    1  A    between atoms: N3_5  and  C3_6 
REMARK    2  A    between atoms: C4_9  and  N5_10 
REMARK    3  A    between atoms: N5_10  and  C5_12 
REMARK    4  A    between atoms: C5_12  and  O1_13 
REMARK    5  A    between atoms: C5_12  and  N6_15 
REMARK    6  A    between atoms: N6_15  and  N7_16 
REMARK    7  A    between atoms: N7_16  and  C6_18 
REMARK    8  A    between atoms: N8_22  and  O2_23 
REMARK    9  A    between atoms: C11_30  and  N11_31 
REMARK   10  A    between atoms: C12_36  and  N13_37 
ROOT
HETATM    1  C5  UNL     1      20.456  -8.390   4.610  1.00  0.00     0.353 C 
ENDROOT
BRANCH   1   2
HETATM    2  N5  UNL     1      21.012  -9.689   4.794  1.00  0.00    -0.182 N 
ATOM      3  H5  UNL     1      20.371 -10.455   4.588  1.00  0.00     0.181 HD
BRANCH   2   4
HETATM    4  C4  UNL     1      22.154 -10.053   5.167  1.00  0.00     0.710 A 
HETATM    5  N4  UNL     1      22.403  -9.984   6.511  1.00  0.00    -0.020 N 
HETATM    6  C3  UNL     1      23.572 -10.340   7.059  1.00  0.00     0.726 A 
ATOM      7  H4  UNL     1      21.661  -9.646   7.125  1.00  0.00     0.203 HD
HETATM    8  N14 UNL     1      24.529 -10.783   6.200  1.00  0.00    -0.020 N 
HETATM    9  C12 UNL     1      24.321 -10.863   4.874  1.00  0.00     0.705 A 
ATOM     10  H14 UNL     1      25.435 -11.063   6.574  1.00  0.00     0.203 HD
HETATM   11  N12 UNL     1      23.133 -10.497   4.363  1.00  0.00    -0.022 N 
ATOM     12  H12 UNL     1      22.974 -10.558   3.357  1.00  0.00     0.203 HD
BRANCH   6  13
HETATM   13  N3  UNL     1      23.818 -10.260   8.457  1.00  0.00    -0.097 N 
HETATM   14  N2  UNL     1      23.555  -9.157   9.243  1.00  0.00    -0.092 NA
HETATM   15  C2  UNL     1      23.951  -9.495  10.590  1.00  0.00     0.409 C 
HETATM   16  N1  UNL     1      24.776 -10.685  10.519  1.00  0.00     0.119 N 
HETATM   17  C1  UNL     1      26.194 -10.375  10.497  1.00  0.00     0.314 C 
HETATM   18  C13 UNL     1      24.382 -11.321   9.271  1.00  0.00     0.436 C 
ENDBRANCH   6  13
BRANCH   9  19
HETATM   19  N13 UNL     1      25.236 -11.284   4.080  1.00  0.00    -0.234 N 
ATOM     20 2H13 UNL     1      25.396 -10.843   3.174  1.00  0.00     0.174 HD
ATOM     21 1H13 UNL     1      25.814 -12.074   4.366  1.00  0.00     0.174 HD
ENDBRANCH   9  19
ENDBRANCH   2   4
ENDBRANCH   1   2
BRANCH   1  22
HETATM   22  O1  UNL     1      20.404  -7.741   5.844  1.00  0.00    -0.361 OA
ATOM     23  H1  UNL     1      20.156  -6.835   5.705  1.00  0.00     0.213 HD
ENDBRANCH   1  22
BRANCH   1  24
HETATM   24  N6  UNL     1      19.175  -8.490   3.983  1.00  0.00    -0.087 NA
BRANCH  24  25
HETATM   25  N7  UNL     1      18.315  -7.464   4.283  1.00  0.00    -0.296 N 
ATOM     26  H7  UNL     1      18.537  -6.530   3.939  1.00  0.00     0.182 HD
BRANCH  25  27
HETATM   27  C6  UNL     1      17.140  -7.635   5.042  1.00  0.00     0.096 A 
HETATM   28  C7  UNL     1      16.441  -8.834   5.010  1.00  0.00     0.051 A 
HETATM   29  C8  UNL     1      15.299  -8.936   5.784  1.00  0.00     0.031 A 
HETATM   30  C9  UNL     1      14.376  -9.938   6.005  1.00  0.00     0.158 A 
HETATM   31  C10 UNL     1      14.919  -7.849   6.539  1.00  0.00     0.135 A 
HETATM   32  N8  UNL     1      13.464  -9.471   6.869  1.00  0.00    -0.172 N 
HETATM   33  N9  UNL     1      13.788  -8.220   7.191  1.00  0.00    -0.259 N 
ATOM     34  H9  UNL     1      13.263  -7.626   7.833  1.00  0.00     0.191 HD
HETATM   35  N10 UNL     1      15.611  -6.694   6.556  1.00  0.00    -0.320 N 
HETATM   36  C11 UNL     1      16.733  -6.552   5.816  1.00  0.00     0.203 A 
ATOM     37  H10 UNL     1      15.284  -5.918   7.132  1.00  0.00     0.169 HD
BRANCH  32  38
HETATM   38  O2  UNL     1      12.367 -10.096   7.387  1.00  0.00    -0.268 OA
ATOM     39  H2  UNL     1      11.888  -9.905   8.184  1.00  0.00     0.247 HD
ENDBRANCH  32  38
BRANCH  36  40
HETATM   40  N11 UNL     1      17.459  -5.322   5.835  1.00  0.00    -0.095 N 
HETATM   41  O3  UNL     1      16.915  -4.285   5.413  1.00  0.00    -0.530 OA
HETATM   42  O4  UNL     1      18.744  -5.221   6.301  1.00  0.00    -0.530 OA
ENDBRANCH  36  40
ENDBRANCH  25  27
ENDBRANCH  24  25
ENDBRANCH   1  24
TORSDOF 10
ENDMDL
MODEL 3
REMARK VINA RESULT: -9.423618021      1.208      1.458
REMARK  10 active torsions:
REMARK  status: ('A' for Active; 'I' for Inactive)
REMARK    1  A    between atoms: N3_5  and  C3_6 
REMARK    2  A    between atoms: C4_9  and  N5_10 
REMARK    3  A    between atoms: N5_10  and  C5_12 
REMARK    4  A    between atoms: C5_12  and  O1_13 
REMARK    5  A    between atoms: C5_12  and  N6_15 
REMARK    6  A    between atoms: N6_15  and  N7_16 
REMARK    7  A    between atoms: N7_16  and  C6_18 
REMARK    8  A    between atoms: N8_22  and  O2_23 
REMARK    9  A    between atoms: C11_30  and  N11_31 
REMARK   10  A    between atoms: C12_36  and  N13_37 
ROOT
HETATM    1  C5  UNL     1      17.022  -6.068   6.707  1.00  0.00     0.353 C 
ENDROOT
BRANCH   1   2
HETATM    2  N5  UNL     1      17.179  -7.342   6.088  1.00  0.00    -0.182 N 
ATOM      3  H5  UNL     1      18.143  -7.671   6.040  1.00  0.00     0.181 HD
BRANCH   2   4
HETATM    4  C4  UNL     1      16.336  -8.128   5.591  1.00  0.00     0.710 A 
HETATM    5  N4  UNL     1      16.805  -9.003   4.650  1.00  0.00    -0.020 N 
HETATM    6  C3  UNL     1      16.027  -9.902   4.033  1.00  0.00     0.726 A 
ATOM      7  H4  UNL     1      17.795  -8.968   4.406  1.00  0.00     0.203 HD
HETATM    8  N14 UNL     1      14.714  -9.908   4.391  1.00  0.00    -0.020 N 
HETATM    9  C12 UNL     1      14.218  -9.063   5.312  1.00  0.00     0.705 A 
ATOM     10  H14 UNL     1      14.086 -10.577   3.946  1.00  0.00     0.203 HD
HETATM   11  N12 UNL     1      15.032  -8.176   5.908  1.00  0.00    -0.022 N 
ATOM     12  H12 UNL     1      14.656  -7.535   6.607  1.00  0.00     0.203 HD
BRANCH   6  13
HETATM   13  N3  UNL     1      16.527 -10.804   3.053  1.00  0.00    -0.097 N 
HETATM   14  N2  UNL     1      16.110 -12.110   2.899  1.00  0.00    -0.092 NA
HETATM   15  C2  UNL     1      16.867 -12.666   1.800  1.00  0.00     0.409 C 
HETATM   16  N1  UNL     1      17.982 -11.776   1.542  1.00  0.00     0.119 N 
HETATM   17  C1  UNL     1      19.198 -12.206   2.208  1.00  0.00     0.314 C 
HETATM   18  C13 UNL     1      17.546 -10.492   2.071  1.00  0.00     0.436 C 
ENDBRANCH   6  13
BRANCH   9  19
HETATM   19  N13 UNL     1      12.977  -9.086   5.635  1.00  0.00    -0.234 N 
ATOM     20 2H13 UNL     1      12.586  -8.398   6.280  1.00  0.00     0.174 HD
ATOM     21 1H13 UNL     1      12.375  -9.806   5.238  1.00  0.00     0.174 HD
ENDBRANCH   9  19
ENDBRANCH   2   4
ENDBRANCH   1   2
BRANCH   1  22
HETATM   22  O1  UNL     1      15.768  -6.013   7.316  1.00  0.00    -0.361 OA
ATOM     23  H1  UNL     1      15.518  -5.102   7.422  1.00  0.00     0.213 HD
ENDBRANCH   1  22
BRANCH   1  24
HETATM   24  N6  UNL     1      17.217  -5.029   5.745  1.00  0.00    -0.087 NA
BRANCH  24  25
HETATM   25  N7  UNL     1      18.531  -4.765   5.454  1.00  0.00    -0.296 N 
ATOM     26  H7  UNL     1      19.226  -4.895   6.189  1.00  0.00     0.182 HD
BRANCH  25  27
HETATM   27  C6  UNL     1      18.971  -4.323   4.189  1.00  0.00     0.096 A 
HETATM   28  C7  UNL     1      19.115  -2.969   3.920  1.00  0.00     0.051 A 
HETATM   29  C8  UNL     1      19.557  -2.605   2.660  1.00  0.00     0.031 A 
HETATM   30  C9  UNL     1      19.815  -1.396   2.046  1.00  0.00     0.158 A 
HETATM   31  C10 UNL     1      19.827  -3.599   1.747  1.00  0.00     0.135 A 
HETATM   32  N8  UNL     1      20.231  -1.652   0.798  1.00  0.00    -0.172 N 
HETATM   33  N9  UNL     1      20.238  -2.971   0.617  1.00  0.00    -0.259 N 
ATOM     34  H9  UNL     1      20.514  -3.442  -0.246  1.00  0.00     0.191 HD
HETATM   35  N10 UNL     1      19.680  -4.908   2.027  1.00  0.00    -0.320 N 
HETATM   36  C11 UNL     1      19.252  -5.307   3.246  1.00  0.00     0.203 A 
ATOM     37  H10 UNL     1      19.892  -5.605   1.313  1.00  0.00     0.169 HD
BRANCH  32  38
HETATM   38  O2  UNL     1      20.604  -0.779  -0.182  1.00  0.00    -0.268 OA
ATOM     39  H2  UNL     1      20.356   0.129  -0.303  1.00  0.00     0.247 HD
ENDBRANCH  32  38
BRANCH  36  40
HETATM   40  N11 UNL     1      19.095  -6.698   3.535  1.00  0.00    -0.095 N 
HETATM   41  O3  UNL     1      18.282  -7.370   2.875  1.00  0.00    -0.530 OA
HETATM   42  O4  UNL     1      19.802  -7.341   4.517  1.00  0.00    -0.530 OA
ENDBRANCH  36  40
ENDBRANCH  25  27
ENDBRANCH  24  25
ENDBRANCH   1  24
TORSDOF 10
ENDMDL
MODEL 4
REMARK VINA RESULT: -9.359619927      1.479      2.118
REMARK  10 active torsions:
REMARK  status: ('A' for Active; 'I' for Inactive)
REMARK    1  A    between atoms: N3_5  and  C3_6 
REMARK    2  A    between atoms: C4_9  and  N5_10 
REMARK    3  A    between atoms: N5_10  and  C5_12 
REMARK    4  A    between atoms: C5_12  and  O1_13 
REMARK    5  A    between atoms: C5_12  and  N6_15 
REMARK    6  A    between atoms: N6_15  and  N7_16 
REMARK    7  A    between atoms: N7_16  and  C6_18 
REMARK    8  A    between atoms: N8_22  and  O2_23 
REMARK    9  A    between atoms: C11_30  and  N11_31 
REMARK   10  A    between atoms: C12_36  and  N13_37 
ROOT
HETATM    1  C5  UNL     1      18.105  -8.406   4.564  1.00  0.00     0.353 C 
ENDROOT
BRANCH   1   2
HETATM    2  N5  UNL     1      16.695  -8.309   4.385  1.00  0.00    -0.182 N 
ATOM      3  H5  UNL     1      16.382  -7.432   3.969  1.00  0.00     0.181 HD
BRANCH   2   4
HETATM    4  C4  UNL     1      15.771  -9.115   4.653  1.00  0.00     0.710 A 
HETATM    5  N4  UNL     1      15.733 -10.261   3.907  1.00  0.00    -0.020 N 
HETATM    6  C3  UNL     1      14.808 -11.216   4.076  1.00  0.00     0.726 A 
ATOM      7  H4  UNL     1      16.443 -10.395   3.186  1.00  0.00     0.203 HD
HETATM    8  N14 UNL     1      13.883 -10.991   5.047  1.00  0.00    -0.020 N 
HETATM    9  C12 UNL     1      13.889  -9.876   5.800  1.00  0.00     0.705 A 
ATOM     10  H14 UNL     1      13.160 -11.691   5.210  1.00  0.00     0.203 HD
HETATM   11  N12 UNL     1      14.834  -8.943   5.599  1.00  0.00    -0.022 N 
ATOM     12  H12 UNL     1      14.840  -8.097   6.169  1.00  0.00     0.203 HD
BRANCH   6  13
HETATM   13  N3  UNL     1      14.778 -12.401   3.291  1.00  0.00    -0.097 N 
HETATM   14  N2  UNL     1      13.629 -13.051   2.888  1.00  0.00    -0.092 NA
HETATM   15  C2  UNL     1      14.044 -14.200   2.117  1.00  0.00     0.409 C 
HETATM   16  N1  UNL     1      15.456 -14.411   2.370  1.00  0.00     0.119 N 
HETATM   17  C1  UNL     1      15.691 -15.396   3.410  1.00  0.00     0.314 C 
HETATM   18  C13 UNL     1      15.943 -13.107   2.794  1.00  0.00     0.436 C 
ENDBRANCH   6  13
BRANCH   9  19
HETATM   19  N13 UNL     1      13.008  -9.684   6.711  1.00  0.00    -0.234 N 
ATOM     20 2H13 UNL     1      13.248  -9.231   7.593  1.00  0.00     0.174 HD
ATOM     21 1H13 UNL     1      12.049  -9.991   6.546  1.00  0.00     0.174 HD
ENDBRANCH   9  19
ENDBRANCH   2   4
ENDBRANCH   1   2
BRANCH   1  22
HETATM   22  O1  UNL     1      18.435  -7.927   5.832  1.00  0.00    -0.361 OA
ATOM     23  H1  UNL     1      18.909  -8.603   6.303  1.00  0.00     0.213 HD
ENDBRANCH   1  22
BRANCH   1  24
HETATM   24  N6  UNL     1      18.781  -7.708   3.515  1.00  0.00    -0.087 NA
BRANCH  24  25
HETATM   25  N7  UNL     1      19.504  -6.620   3.933  1.00  0.00    -0.296 N 
ATOM     26  H7  UNL     1      20.177  -6.746   4.689  1.00  0.00     0.182 HD
BRANCH  25  27
HETATM   27  C6  UNL     1      19.364  -5.334   3.371  1.00  0.00     0.096 A 
HETATM   28  C7  UNL     1      19.926  -5.032   2.138  1.00  0.00     0.051 A 
HETATM   29  C8  UNL     1      19.745  -3.754   1.643  1.00  0.00     0.031 A 
HETATM   30  C9  UNL     1      20.140  -3.107   0.489  1.00  0.00     0.158 A 
HETATM   31  C10 UNL     1      19.022  -2.855   2.394  1.00  0.00     0.135 A 
HETATM   32  N8  UNL     1      19.669  -1.853   0.540  1.00  0.00    -0.172 N 
HETATM   33  N9  UNL     1      18.998  -1.701   1.681  1.00  0.00    -0.259 N 
ATOM     34  H9  UNL     1      18.534  -0.841   1.976  1.00  0.00     0.191 HD
HETATM   35  N10 UNL     1      18.484  -3.167   3.588  1.00  0.00    -0.320 N 
HETATM   36  C11 UNL     1      18.636  -4.405   4.109  1.00  0.00     0.203 A 
ATOM     37  H10 UNL     1      17.958  -2.462   4.106  1.00  0.00     0.169 HD
BRANCH  32  38
HETATM   38  O2  UNL     1      19.799  -0.845  -0.369  1.00  0.00    -0.268 OA
ATOM     39  H2  UNL     1      19.137  -0.258  -0.714  1.00  0.00     0.247 HD
ENDBRANCH  32  38
BRANCH  36  40
HETATM   40  N11 UNL     1      18.066  -4.729   5.379  1.00  0.00    -0.095 N 
HETATM   41  O3  UNL     1      18.817  -5.036   6.323  1.00  0.00    -0.530 OA
HETATM   42  O4  UNL     1      16.717  -4.719   5.616  1.00  0.00    -0.530 OA
ENDBRANCH  36  40
ENDBRANCH  25  27
ENDBRANCH  24  25
ENDBRANCH   1  24
TORSDOF 10
ENDMDL
MODEL 5
REMARK VINA RESULT: -9.271657650      5.212      8.598
REMARK  10 active torsions:
REMARK  status: ('A' for Active; 'I' for Inactive)
REMARK    1  A    between atoms: N3_5  and  C3_6 
REMARK    2  A    between atoms: C4_9  and  N5_10 
REMARK    3  A    between atoms: N5_10  and  C5_12 
REMARK    4  A    between atoms: C5_12  and  O1_13 
REMARK    5  A    between atoms: C5_12  and  N6_15 
REMARK    6  A    between atoms: N6_15  and  N7_16 
REMARK    7  A    between atoms: N7_16  and  C6_18 
REMARK    8  A    between atoms: N8_22  and  O2_23 
REMARK    9  A    between atoms: C11_30  and  N11_31 
REMARK   10  A    between atoms: C12_36  and  N13_37 
ROOT
HETATM    1  C5  UNL     1      20.284  -8.160   4.623  1.00  0.00     0.353 C 
ENDROOT
BRANCH   1   2
HETATM    2  N5  UNL     1      20.809  -9.475   4.790  1.00  0.00    -0.182 N 
ATOM      3  H5  UNL     1      20.100 -10.201   4.892  1.00  0.00     0.181 HD
BRANCH   2   4
HETATM    4  C4  UNL     1      21.992  -9.893   4.833  1.00  0.00     0.710 A 
HETATM    5  N4  UNL     1      22.412 -10.396   6.034  1.00  0.00    -0.020 N 
HETATM    6  C3  UNL     1      23.645 -10.881   6.235  1.00  0.00     0.726 A 
ATOM      7  H4  UNL     1      21.754 -10.403   6.814  1.00  0.00     0.203 HD
HETATM    8  N14 UNL     1      24.484 -10.850   5.165  1.00  0.00    -0.020 N 
HETATM    9  C12 UNL     1      24.106 -10.362   3.970  1.00  0.00     0.705 A 
ATOM     10  H14 UNL     1      25.433 -11.208   5.273  1.00  0.00     0.203 HD
HETATM   11  N12 UNL     1      22.860  -9.886   3.810  1.00  0.00    -0.022 N 
ATOM     12  H12 UNL     1      22.572  -9.516   2.904  1.00  0.00     0.203 HD
BRANCH   6  13
HETATM   13  N3  UNL     1      24.070 -11.398   7.489  1.00  0.00    -0.097 N 
HETATM   14  N2  UNL     1      23.717 -12.633   7.994  1.00  0.00    -0.092 NA
HETATM   15  C2  UNL     1      24.357 -12.760   9.282  1.00  0.00     0.409 C 
HETATM   16  N1  UNL     1      24.804 -11.440   9.681  1.00  0.00     0.119 N 
HETATM   17  C1  UNL     1      23.853 -10.774  10.552  1.00  0.00     0.314 C 
HETATM   18  C13 UNL     1      24.935 -10.711   8.429  1.00  0.00     0.436 C 
ENDBRANCH   6  13
BRANCH   9  19
HETATM   19  N13 UNL     1      24.913 -10.342   2.974  1.00  0.00    -0.234 N 
ATOM     20 2H13 UNL     1      25.869 -10.689   3.059  1.00  0.00     0.174 HD
ATOM     21 1H13 UNL     1      24.588  -9.972   2.081  1.00  0.00     0.174 HD
ENDBRANCH   9  19
ENDBRANCH   2   4
ENDBRANCH   1   2
BRANCH   1  22
HETATM   22  O1  UNL     1      20.136  -7.570   5.879  1.00  0.00    -0.361 OA
ATOM     23  H1  UNL     1      19.514  -8.079   6.386  1.00  0.00     0.213 HD
ENDBRANCH   1  22
BRANCH   1  24
HETATM   24  N6  UNL     1      19.061  -8.211   3.887  1.00  0.00    -0.087 NA
BRANCH  24  25
HETATM   25  N7  UNL     1      18.153  -7.241   4.228  1.00  0.00    -0.296 N 
ATOM     26  H7  UNL     1      18.306  -6.292   3.886  1.00  0.00     0.182 HD
BRANCH  25  27
HETATM   27  C6  UNL     1      17.018  -7.488   5.028  1.00  0.00     0.096 A 
HETATM   28  C7  UNL     1      16.344  -8.698   4.950  1.00  0.00     0.051 A 
HETATM   29  C8  UNL     1      15.242  -8.876   5.767  1.00  0.00     0.031 A 
HETATM   30  C9  UNL     1      14.350  -9.912   5.965  1.00  0.00     0.158 A 
HETATM   31  C10 UNL     1      14.876  -7.849   6.608  1.00  0.00     0.135 A 
HETATM   32  N8  UNL     1      13.471  -9.523   6.898  1.00  0.00    -0.172 N 
HETATM   33  N9  UNL     1      13.784  -8.287   7.285  1.00  0.00    -0.259 N 
ATOM     34  H9  UNL     1      13.278  -7.749   7.988  1.00  0.00     0.191 HD
HETATM   35  N10 UNL     1      15.543  -6.681   6.668  1.00  0.00    -0.320 N 
HETATM   36  C11 UNL     1      16.626  -6.466   5.888  1.00  0.00     0.203 A 
ATOM     37  H10 UNL     1      15.229  -5.952   7.308  1.00  0.00     0.169 HD
BRANCH  32  38
HETATM   38  O2  UNL     1      12.413 -10.205   7.423  1.00  0.00    -0.268 OA
ATOM     39  H2  UNL     1      11.555 -10.363   7.049  1.00  0.00     0.247 HD
ENDBRANCH  32  38
BRANCH  36  40
HETATM   40  N11 UNL     1      17.327  -5.223   5.954  1.00  0.00    -0.095 N 
HETATM   41  O3  UNL     1      16.908  -4.251   5.301  1.00  0.00    -0.530 OA
HETATM   42  O4  UNL     1      18.455  -5.042   6.711  1.00  0.00    -0.530 OA
ENDBRANCH  36  40
ENDBRANCH  25  27
ENDBRANCH  24  25
ENDBRANCH   1  24
TORSDOF 10
ENDMDL
