MODEL 1
REMARK VINA RESULT: -9.408107521      0.000      0.000
REMARK  9 active torsions:
REMARK  status: ('A' for Active; 'I' for Inactive)
REMARK       I    between atoms: N1_2  and  C2_4 
REMARK    1  A    between atoms: C2_4  and  C3_6 
REMARK    2  A    between atoms: C4_10  and  C5_11 
REMARK    3  A    between atoms: C5_11  and  N3_12 
REMARK    4  A    between atoms: N3_12  and  C6_13 
REMARK    5  A    between atoms: N3_12  and  N6_25 
REMARK    6  A    between atoms: C7_16  and  O3_17 
REMARK    7  A    between atoms: C9_22  and  O4_23 
REMARK    8  A    between atoms: C10_26  and  N7_27 
REMARK    9  A    between atoms: C12_39  and  N12_40 
ROOT
HETATM    1  N3  UNL     1      18.722  -6.304   5.403  1.00  0.00    -0.230 N 
ENDROOT
BRANCH   1   2
HETATM    2  C5  UNL     1      19.924  -6.920   5.976  1.00  0.00     0.239 C 
BRANCH   2   3
HETATM    3  C4  UNL     1      20.232  -6.334   7.316  1.00  0.00     0.168 A 
HETATM    4  O2  UNL     1      19.873  -5.167   7.821  1.00  0.00    -0.221 OA
HETATM    5  N2  UNL     1      20.329  -5.013   9.006  1.00  0.00    -0.238 N 
HETATM    6  C3  UNL     1      21.035  -6.107   9.348  1.00  0.00     0.196 A 
ATOM      7  H2  UNL     1      20.182  -4.194   9.596  1.00  0.00     0.196 HD
HETATM    8  N14 UNL     1      20.959  -6.915   8.278  1.00  0.00    -0.317 N 
ATOM      9  H14 UNL     1      21.391  -7.836   8.209  1.00  0.00     0.169 HD
BRANCH   6  10
HETATM   10  C2  UNL     1      21.718  -6.336  10.610  1.00  0.00     0.287 C 
HETATM   11  N1  UNL     1      21.414  -5.563  11.757  1.00  0.00    -0.359 N 
HETATM   12  C1  UNL     1      22.070  -5.766  13.011  1.00  0.00     0.149 C 
ATOM     13  H1  UNL     1      20.702  -4.837  11.685  1.00  0.00     0.162 HD
HETATM   14  O1  UNL     1      22.597  -7.228  10.708  1.00  0.00    -0.264 OA
ENDBRANCH   6  10
ENDBRANCH   2   3
ENDBRANCH   1   2
BRANCH   1  15
HETATM   15  C6  UNL     1      19.027  -5.374   4.358  1.00  0.00     0.162 A 
HETATM   16  N4  UNL     1      19.313  -4.069   4.615  1.00  0.00    -0.305 N 
HETATM   17  C7  UNL     1      19.562  -3.161   3.676  1.00  0.00     0.222 A 
ATOM     18  H4  UNL     1      19.338  -3.768   5.590  1.00  0.00     0.171 HD
HETATM   19  N5  UNL     1      19.525  -3.568   2.396  1.00  0.00    -0.330 N 
HETATM   20  C8  UNL     1      19.251  -4.836   2.043  1.00  0.00     0.132 A 
ATOM     21  H5  UNL     1      19.712  -2.886   1.661  1.00  0.00     0.168 HD
HETATM   22  C9  UNL     1      18.996  -5.762   3.041  1.00  0.00     0.127 A 
BRANCH  17  23
HETATM   23  O3  UNL     1      19.852  -1.834   3.956  1.00  0.00    -0.332 OA
ATOM     24  H3  UNL     1      19.791  -1.139   3.313  1.00  0.00     0.220 HD
ENDBRANCH  17  23
BRANCH  22  25
HETATM   25  O4  UNL     1      18.720  -7.057   2.635  1.00  0.00    -0.356 OA
ATOM     26  H4  UNL     1      19.099  -7.453   1.859  1.00  0.00     0.218 HD
ENDBRANCH  22  25
ENDBRANCH   1  15
BRANCH   1  27
HETATM   27  N6  UNL     1      17.434  -6.619   5.801  1.00  0.00     0.098 N 
HETATM   28  C10 UNL     1      16.668  -5.938   6.655  1.00  0.00     0.728 A 
HETATM   29  N8  UNL     1      15.474  -6.604   6.701  1.00  0.00    -0.094 N 
HETATM   30  N9  UNL     1      15.516  -7.643   5.911  1.00  0.00     0.107 N 
ATOM     31  H8  UNL     1      14.672  -6.331   7.268  1.00  0.00     0.207 HD
HETATM   32  C11 UNL     1      14.570  -8.589   5.632  1.00  0.00     0.727 A 
HETATM   33  C13 UNL     1      16.727  -7.679   5.335  1.00  0.00     0.770 A 
HETATM   34  N10 UNL     1      13.418  -8.527   6.201  1.00  0.00    -0.232 N 
HETATM   35  N11 UNL     1      14.849  -9.568   4.771  1.00  0.00    -0.020 N 
ATOM     36 2H10 UNL     1      13.205  -7.778   6.860  1.00  0.00     0.174 HD
ATOM     37 1H10 UNL     1      12.712  -9.233   5.993  1.00  0.00     0.174 HD
HETATM   38  C12 UNL     1      16.050  -9.636   4.176  1.00  0.00     0.705 A 
ATOM     39  H11 UNL     1      14.142 -10.273   4.562  1.00  0.00     0.203 HD
HETATM   40  N13 UNL     1      16.951  -8.695   4.473  1.00  0.00    -0.017 N 
ATOM     41  H13 UNL     1      17.864  -8.746   4.020  1.00  0.00     0.203 HD
BRANCH  28  42
HETATM   42  N7  UNL     1      16.846  -4.891   7.367  1.00  0.00    -0.231 N 
ATOM     43  H72 UNL     1      17.459  -4.925   8.182  1.00  0.00     0.174 HD
ATOM     44  H71 UNL     1      16.502  -3.933   7.316  1.00  0.00     0.174 HD
ENDBRANCH  28  42
BRANCH  38  45
HETATM   45  N12 UNL     1      16.273 -10.600   3.353  1.00  0.00    -0.234 N 
ATOM     46 2H12 UNL     1      16.206 -11.586   3.607  1.00  0.00     0.174 HD
ATOM     47 1H12 UNL     1      16.531 -10.370   2.394  1.00  0.00     0.174 HD
ENDBRANCH  38  45
ENDBRANCH   1  27
TORSDOF 9
ENDMDL
MODEL 2
REMARK VINA RESULT: -8.805802686      3.121      6.409
REMARK  9 active torsions:
REMARK  status: ('A' for Active; 'I' for Inactive)
REMARK       I    between atoms: N1_2  and  C2_4 
REMARK    1  A    between atoms: C2_4  and  C3_6 
REMARK    2  A    between atoms: C4_10  and  C5_11 
REMARK    3  A    between atoms: C5_11  and  N3_12 
REMARK    4  A    between atoms: N3_12  and  C6_13 
REMARK    5  A    between atoms: N3_12  and  N6_25 
REMARK    6  A    between atoms: C7_16  and  O3_17 
REMARK    7  A    between atoms: C9_22  and  O4_23 
REMARK    8  A    between atoms: C10_26  and  N7_27 
REMARK    9  A    between atoms: C12_39  and  N12_40 
ROOT
HETATM    1  N3  UNL     1      18.496  -7.877   4.076  1.00  0.00    -0.230 N 
ENDROOT
BRANCH   1   2
HETATM    2  C5  UNL     1      18.458  -6.951   2.940  1.00  0.00     0.239 C 
BRANCH   2   3
HETATM    3  C4  UNL     1      18.831  -5.569   3.370  1.00  0.00     0.168 A 
HETATM    4  O2  UNL     1      19.097  -5.114   4.582  1.00  0.00    -0.221 OA
HETATM    5  N2  UNL     1      19.377  -3.866   4.559  1.00  0.00    -0.238 N 
HETATM    6  C3  UNL     1      19.306  -3.426   3.289  1.00  0.00     0.196 A 
ATOM      7  H2  UNL     1      19.616  -3.297   5.371  1.00  0.00     0.196 HD
HETATM    8  N14 UNL     1      18.964  -4.507   2.568  1.00  0.00    -0.317 N 
ATOM      9  H14 UNL     1      18.827  -4.516   1.557  1.00  0.00     0.169 HD
BRANCH   6  10
HETATM   10  C2  UNL     1      19.553  -2.070   2.828  1.00  0.00     0.287 C 
HETATM   11  N1  UNL     1      20.657  -1.325   3.307  1.00  0.00    -0.359 N 
HETATM   12  C1  UNL     1      20.925   0.011   2.872  1.00  0.00     0.149 C 
ATOM     13  H1  UNL     1      21.284  -1.756   3.987  1.00  0.00     0.162 HD
HETATM   14  O1  UNL     1      18.787  -1.530   1.991  1.00  0.00    -0.264 OA
ENDBRANCH   6  10
ENDBRANCH   2   3
ENDBRANCH   1   2
BRANCH   1  15
HETATM   15  C6  UNL     1      17.217  -8.031   4.701  1.00  0.00     0.162 A 
HETATM   16  N4  UNL     1      16.792  -7.197   5.688  1.00  0.00    -0.305 N 
HETATM   17  C7  UNL     1      15.631  -7.324   6.325  1.00  0.00     0.222 A 
ATOM     18  H4  UNL     1      17.402  -6.424   5.956  1.00  0.00     0.171 HD
HETATM   19  N5  UNL     1      14.836  -8.346   5.964  1.00  0.00    -0.330 N 
HETATM   20  C8  UNL     1      15.170  -9.222   5.001  1.00  0.00     0.132 A 
ATOM     21  H5  UNL     1      13.943  -8.462   6.441  1.00  0.00     0.168 HD
HETATM   22  C9  UNL     1      16.384  -9.066   4.353  1.00  0.00     0.127 A 
BRANCH  17  23
HETATM   23  O3  UNL     1      15.213  -6.464   7.328  1.00  0.00    -0.332 OA
ATOM     24  H3  UNL     1      14.685  -5.691   7.167  1.00  0.00     0.220 HD
ENDBRANCH  17  23
BRANCH  22  25
HETATM   25  O4  UNL     1      16.688  -9.990   3.367  1.00  0.00    -0.356 OA
ATOM     26  H4  UNL     1      17.234 -10.752   3.516  1.00  0.00     0.218 HD
ENDBRANCH  22  25
ENDBRANCH   1  15
BRANCH   1  27
HETATM   27  N6  UNL     1      19.633  -8.560   4.474  1.00  0.00     0.098 N 
HETATM   28  C10 UNL     1      20.430  -8.262   5.501  1.00  0.00     0.728 A 
HETATM   29  N8  UNL     1      21.391  -9.235   5.525  1.00  0.00    -0.094 N 
HETATM   30  N9  UNL     1      21.185 -10.085   4.555  1.00  0.00     0.107 N 
ATOM     31  H8  UNL     1      22.154  -9.290   6.199  1.00  0.00     0.207 HD
HETATM   32  C11 UNL     1      21.874 -11.208   4.192  1.00  0.00     0.727 A 
HETATM   33  C13 UNL     1      20.093  -9.690   3.880  1.00  0.00     0.770 A 
HETATM   34  N10 UNL     1      22.916 -11.560   4.858  1.00  0.00    -0.232 N 
HETATM   35  N11 UNL     1      21.458 -11.929   3.150  1.00  0.00    -0.020 N 
ATOM     36 2H10 UNL     1      23.234 -11.008   5.654  1.00  0.00     0.174 HD
ATOM     37 1H10 UNL     1      23.431 -12.398   4.587  1.00  0.00     0.174 HD
HETATM   38  C12 UNL     1      20.372 -11.565   2.453  1.00  0.00     0.705 A 
ATOM     39  H11 UNL     1      21.972 -12.769   2.881  1.00  0.00     0.203 HD
HETATM   40  N13 UNL     1      19.723 -10.461   2.835  1.00  0.00    -0.017 N 
ATOM     41  H13 UNL     1      18.897 -10.183   2.305  1.00  0.00     0.203 HD
BRANCH  28  42
HETATM   42  N7  UNL     1      20.453  -7.317   6.362  1.00  0.00    -0.231 N 
ATOM     43  H72 UNL     1      21.333  -6.852   6.588  1.00  0.00     0.174 HD
ATOM     44  H71 UNL     1      19.741  -6.860   6.931  1.00  0.00     0.174 HD
ENDBRANCH  28  42
BRANCH  38  45
HETATM   45  N12 UNL     1      20.011 -12.293   1.455  1.00  0.00    -0.234 N 
ATOM     46 2H12 UNL     1      19.241 -12.961   1.493  1.00  0.00     0.174 HD
ATOM     47 1H12 UNL     1      20.520 -12.199   0.576  1.00  0.00     0.174 HD
ENDBRANCH  38  45
ENDBRANCH   1  27
TORSDOF 9
ENDMDL
MODEL 3
REMARK VINA RESULT: -8.768714127      2.798      3.896
REMARK  9 active torsions:
REMARK  status: ('A' for Active; 'I' for Inactive)
REMARK       I    between atoms: N1_2  and  C2_4 
REMARK    1  A    between atoms: C2_4  and  C3_6 
REMARK    2  A    between atoms: C4_10  and  C5_11 
REMARK    3  A    between atoms: C5_11  and  N3_12 
REMARK    4  A    between atoms: N3_12  and  C6_13 
REMARK    5  A    between atoms: N3_12  and  N6_25 
REMARK    6  A    between atoms: C7_16  and  O3_17 
REMARK    7  A    between atoms: C9_22  and  O4_23 
REMARK    8  A    between atoms: C10_26  and  N7_27 
REMARK    9  A    between atoms: C12_39  and  N12_40 
ROOT
HETATM    1  N3  UNL     1      18.769  -6.309   5.374  1.00  0.00    -0.230 N 
ENDROOT
BRANCH   1   2
HETATM    2  C5  UNL     1      19.978  -6.926   5.931  1.00  0.00     0.239 C 
BRANCH   2   3
HETATM    3  C4  UNL     1      20.326  -8.175   5.186  1.00  0.00     0.168 A 
HETATM    4  O2  UNL     1      19.681  -8.765   4.196  1.00  0.00    -0.221 OA
HETATM    5  N2  UNL     1      20.287  -9.824   3.812  1.00  0.00    -0.238 N 
HETATM    6  C3  UNL     1      21.397  -9.986   4.556  1.00  0.00     0.196 A 
ATOM      7  H2  UNL     1      19.980 -10.444   3.062  1.00  0.00     0.196 HD
HETATM    8  N14 UNL     1      21.398  -8.945   5.405  1.00  0.00    -0.317 N 
ATOM      9  H14 UNL     1      22.112  -8.768   6.112  1.00  0.00     0.169 HD
BRANCH   6  10
HETATM   10  C2  UNL     1      22.366 -11.063   4.441  1.00  0.00     0.287 C 
HETATM   11  N1  UNL     1      23.747 -10.791   4.298  1.00  0.00    -0.359 N 
HETATM   12  C1  UNL     1      24.724 -11.831   4.184  1.00  0.00     0.149 C 
ATOM     13  H1  UNL     1      24.058  -9.820   4.276  1.00  0.00     0.162 HD
HETATM   14  O1  UNL     1      21.993 -12.263   4.468  1.00  0.00    -0.264 OA
ENDBRANCH   6  10
ENDBRANCH   2   3
ENDBRANCH   1   2
BRANCH   1  15
HETATM   15  C6  UNL     1      19.060  -5.384   4.321  1.00  0.00     0.162 A 
HETATM   16  N4  UNL     1      19.403  -4.092   4.570  1.00  0.00    -0.305 N 
HETATM   17  C7  UNL     1      19.642  -3.187   3.625  1.00  0.00     0.222 A 
ATOM     18  H4  UNL     1      19.482  -3.798   5.544  1.00  0.00     0.171 HD
HETATM   19  N5  UNL     1      19.533  -3.585   2.346  1.00  0.00    -0.330 N 
HETATM   20  C8  UNL     1      19.199  -4.840   2.000  1.00  0.00     0.132 A 
ATOM     21  H5  UNL     1      19.711  -2.906   1.607  1.00  0.00     0.168 HD
HETATM   22  C9  UNL     1      18.956  -5.763   3.004  1.00  0.00     0.127 A 
BRANCH  17  23
HETATM   23  O3  UNL     1      19.992  -1.874   3.898  1.00  0.00    -0.332 OA
ATOM     24  H3  UNL     1      20.155  -1.548   4.775  1.00  0.00     0.220 HD
ENDBRANCH  17  23
BRANCH  22  25
HETATM   25  O4  UNL     1      18.617  -7.045   2.605  1.00  0.00    -0.356 OA
ATOM     26  H4  UNL     1      19.213  -7.624   2.144  1.00  0.00     0.218 HD
ENDBRANCH  22  25
ENDBRANCH   1  15
BRANCH   1  27
HETATM   27  N6  UNL     1      17.486  -6.620   5.793  1.00  0.00     0.098 N 
HETATM   28  C10 UNL     1      16.741  -5.943   6.668  1.00  0.00     0.728 A 
HETATM   29  N8  UNL     1      15.543  -6.602   6.730  1.00  0.00    -0.094 N 
HETATM   30  N9  UNL     1      15.563  -7.632   5.928  1.00  0.00     0.107 N 
ATOM     31  H8  UNL     1      14.754  -6.329   7.314  1.00  0.00     0.207 HD
HETATM   32  C11 UNL     1      14.606  -8.569   5.657  1.00  0.00     0.727 A 
HETATM   33  C13 UNL     1      16.764  -7.670   5.329  1.00  0.00     0.770 A 
HETATM   34  N10 UNL     1      13.465  -8.506   6.249  1.00  0.00    -0.232 N 
HETATM   35  N11 UNL     1      14.862  -9.540   4.781  1.00  0.00    -0.020 N 
ATOM     36 2H10 UNL     1      13.270  -7.762   6.919  1.00  0.00     0.174 HD
ATOM     37 1H10 UNL     1      12.750  -9.204   6.047  1.00  0.00     0.174 HD
HETATM   38  C12 UNL     1      16.051  -9.610   4.162  1.00  0.00     0.705 A 
ATOM     39  H11 UNL     1      14.146 -10.239   4.577  1.00  0.00     0.203 HD
HETATM   40  N13 UNL     1      16.964  -8.678   4.452  1.00  0.00    -0.017 N 
ATOM     41  H13 UNL     1      17.867  -8.731   3.982  1.00  0.00     0.203 HD
BRANCH  28  42
HETATM   42  N7  UNL     1      16.940  -4.905   7.388  1.00  0.00    -0.231 N 
ATOM     43  H72 UNL     1      17.429  -4.099   6.999  1.00  0.00     0.174 HD
ATOM     44  H71 UNL     1      16.700  -4.651   8.346  1.00  0.00     0.174 HD
ENDBRANCH  28  42
BRANCH  38  45
HETATM   45  N12 UNL     1      16.251 -10.567   3.325  1.00  0.00    -0.234 N 
ATOM     46 2H12 UNL     1      15.603 -10.805   2.575  1.00  0.00     0.174 HD
ATOM     47 1H12 UNL     1      17.104 -11.119   3.414  1.00  0.00     0.174 HD
ENDBRANCH  38  45
ENDBRANCH   1  27
TORSDOF 9
ENDMDL
MODEL 4
REMARK VINA RESULT: -8.630150598      1.399      1.766
REMARK  9 active torsions:
REMARK  status: ('A' for Active; 'I' for Inactive)
REMARK       I    between atoms: N1_2  and  C2_4 
REMARK    1  A    between atoms: C2_4  and  C3_6 
REMARK    2  A    between atoms: C4_10  and  C5_11 
REMARK    3  A    between atoms: C5_11  and  N3_12 
REMARK    4  A    between atoms: N3_12  and  C6_13 
REMARK    5  A    between atoms: N3_12  and  N6_25 
REMARK    6  A    between atoms: C7_16  and  O3_17 
REMARK    7  A    between atoms: C9_22  and  O4_23 
REMARK    8  A    between atoms: C10_26  and  N7_27 
REMARK    9  A    between atoms: C12_39  and  N12_40 
ROOT
HETATM    1  N3  UNL     1      18.429  -6.867   5.219  1.00  0.00    -0.230 N 
ENDROOT
BRANCH   1   2
HETATM    2  C5  UNL     1      19.663  -7.306   5.878  1.00  0.00     0.239 C 
BRANCH   2   3
HETATM    3  C4  UNL     1      19.832  -6.622   7.197  1.00  0.00     0.168 A 
HETATM    4  O2  UNL     1      19.035  -5.756   7.797  1.00  0.00    -0.221 OA
HETATM    5  N2  UNL     1      19.516  -5.385   8.923  1.00  0.00    -0.238 N 
HETATM    6  C3  UNL     1      20.692  -6.009   9.122  1.00  0.00     0.196 A 
ATOM      7  H2  UNL     1      19.079  -4.724   9.565  1.00  0.00     0.196 HD
HETATM    8  N14 UNL     1      20.866  -6.774   8.032  1.00  0.00    -0.317 N 
ATOM      9  H14 UNL     1      21.668  -7.382   7.866  1.00  0.00     0.169 HD
BRANCH   6  10
HETATM   10  C2  UNL     1      21.562  -5.866  10.278  1.00  0.00     0.287 C 
HETATM   11  N1  UNL     1      21.508  -6.787  11.351  1.00  0.00    -0.359 N 
HETATM   12  C1  UNL     1      22.352  -6.672  12.501  1.00  0.00     0.149 C 
ATOM     13  H1  UNL     1      20.845  -7.560  11.303  1.00  0.00     0.162 HD
HETATM   14  O1  UNL     1      22.383  -4.917  10.346  1.00  0.00    -0.264 OA
ENDBRANCH   6  10
ENDBRANCH   2   3
ENDBRANCH   1   2
BRANCH   1  15
HETATM   15  C6  UNL     1      18.644  -5.766   4.330  1.00  0.00     0.162 A 
HETATM   16  N4  UNL     1      19.311  -5.908   3.154  1.00  0.00    -0.305 N 
HETATM   17  C7  UNL     1      19.569  -4.907   2.316  1.00  0.00     0.222 A 
ATOM     18  H4  UNL     1      19.634  -6.841   2.897  1.00  0.00     0.171 HD
HETATM   19  N5  UNL     1      19.141  -3.683   2.664  1.00  0.00    -0.330 N 
HETATM   20  C8  UNL     1      18.474  -3.443   3.806  1.00  0.00     0.132 A 
ATOM     21  H5  UNL     1      19.330  -2.902   2.036  1.00  0.00     0.168 HD
HETATM   22  C9  UNL     1      18.217  -4.502   4.660  1.00  0.00     0.127 A 
BRANCH  17  23
HETATM   23  O3  UNL     1      20.251  -5.072   1.120  1.00  0.00    -0.332 OA
ATOM     24  H3  UNL     1      20.996  -5.652   1.019  1.00  0.00     0.220 HD
ENDBRANCH  17  23
BRANCH  22  25
HETATM   25  O4  UNL     1      17.526  -4.212   5.825  1.00  0.00    -0.356 OA
ATOM     26  H4  UNL     1      17.936  -4.176   6.681  1.00  0.00     0.218 HD
ENDBRANCH  22  25
ENDBRANCH   1  15
BRANCH   1  27
HETATM   27  N6  UNL     1      17.200  -7.478   5.405  1.00  0.00     0.098 N 
HETATM   28  C10 UNL     1      16.229  -7.092   6.233  1.00  0.00     0.728 A 
HETATM   29  N8  UNL     1      15.199  -7.972   6.040  1.00  0.00    -0.094 N 
HETATM   30  N9  UNL     1      15.533  -8.853   5.136  1.00  0.00     0.107 N 
ATOM     31  H8  UNL     1      14.305  -7.945   6.530  1.00  0.00     0.207 HD
HETATM   32  C11 UNL     1      14.836  -9.908   4.619  1.00  0.00     0.727 A 
HETATM   33  C13 UNL     1      16.778  -8.570   4.720  1.00  0.00     0.770 A 
HETATM   34  N10 UNL     1      13.645 -10.153   5.039  1.00  0.00    -0.232 N 
HETATM   35  N11 UNL     1      15.396 -10.674   3.683  1.00  0.00    -0.020 N 
ATOM     36 2H10 UNL     1      13.217  -9.566   5.756  1.00  0.00     0.174 HD
ATOM     37 1H10 UNL     1      13.124 -10.940   4.654  1.00  0.00     0.174 HD
HETATM   38  C12 UNL     1      16.638 -10.422   3.243  1.00  0.00     0.705 A 
ATOM     39  H11 UNL     1      14.874 -11.461   3.296  1.00  0.00     0.203 HD
HETATM   40  N13 UNL     1      17.291  -9.382   3.771  1.00  0.00    -0.017 N 
ATOM     41  H13 UNL     1      18.235  -9.191   3.436  1.00  0.00     0.203 HD
BRANCH  28  42
HETATM   42  N7  UNL     1      16.115  -6.150   7.091  1.00  0.00    -0.231 N 
ATOM     43  H72 UNL     1      16.520  -5.234   6.901  1.00  0.00     0.174 HD
ATOM     44  H71 UNL     1      15.668  -6.075   8.004  1.00  0.00     0.174 HD
ENDBRANCH  28  42
BRANCH  38  45
HETATM   45  N12 UNL     1      17.136 -11.191   2.339  1.00  0.00    -0.234 N 
ATOM     46 2H12 UNL     1      16.587 -11.868   1.809  1.00  0.00     0.174 HD
ATOM     47 1H12 UNL     1      18.134 -11.122   2.138  1.00  0.00     0.174 HD
ENDBRANCH  38  45
ENDBRANCH   1  27
TORSDOF 9
ENDMDL
MODEL 5
REMARK VINA RESULT: -8.444745431      1.922      5.802
REMARK  9 active torsions:
REMARK  status: ('A' for Active; 'I' for Inactive)
REMARK       I    between atoms: N1_2  and  C2_4 
REMARK    1  A    between atoms: C2_4  and  C3_6 
REMARK    2  A    between atoms: C4_10  and  C5_11 
REMARK    3  A    between atoms: C5_11  and  N3_12 
REMARK    4  A    between atoms: N3_12  and  C6_13 
REMARK    5  A    between atoms: N3_12  and  N6_25 
REMARK    6  A    between atoms: C7_16  and  O3_17 
REMARK    7  A    between atoms: C9_22  and  O4_23 
REMARK    8  A    between atoms: C10_26  and  N7_27 
REMARK    9  A    between atoms: C12_39  and  N12_40 
ROOT
HETATM    1  N3  UNL     1      17.565  -6.016   6.256  1.00  0.00    -0.230 N 
ENDROOT
BRANCH   1   2
HETATM    2  C5  UNL     1      17.536  -4.693   5.625  1.00  0.00     0.239 C 
BRANCH   2   3
HETATM    3  C4  UNL     1      18.292  -4.705   4.335  1.00  0.00     0.168 A 
HETATM    4  O2  UNL     1      19.023  -5.670   3.803  1.00  0.00    -0.221 OA
HETATM    5  N2  UNL     1      19.520  -5.311   2.681  1.00  0.00    -0.238 N 
HETATM    6  C3  UNL     1      19.129  -4.052   2.412  1.00  0.00     0.196 A 
ATOM      7  H2  UNL     1      20.117  -5.887   2.086  1.00  0.00     0.196 HD
HETATM    8  N14 UNL     1      18.364  -3.697   3.458  1.00  0.00    -0.317 N 
ATOM      9  H14 UNL     1      17.906  -2.793   3.568  1.00  0.00     0.169 HD
BRANCH   6  10
HETATM   10  C2  UNL     1      19.474  -3.271   1.236  1.00  0.00     0.287 C 
HETATM   11  N1  UNL     1      18.567  -2.331   0.691  1.00  0.00    -0.359 N 
HETATM   12  C1  UNL     1      18.879  -1.548  -0.465  1.00  0.00     0.149 C 
ATOM     13  H1  UNL     1      17.659  -2.207   1.139  1.00  0.00     0.162 HD
HETATM   14  O1  UNL     1      20.590  -3.416   0.677  1.00  0.00    -0.264 OA
ENDBRANCH   6  10
ENDBRANCH   2   3
ENDBRANCH   1   2
BRANCH   1  15
HETATM   15  C6  UNL     1      18.618  -6.142   7.219  1.00  0.00     0.162 A 
HETATM   16  N4  UNL     1      18.521  -5.611   8.467  1.00  0.00    -0.305 N 
HETATM   17  C7  UNL     1      19.488  -5.667   9.379  1.00  0.00     0.222 A 
ATOM     18  H4  UNL     1      17.653  -5.139   8.720  1.00  0.00     0.171 HD
HETATM   19  N5  UNL     1      20.628  -6.289   9.034  1.00  0.00    -0.330 N 
HETATM   20  C8  UNL     1      20.818  -6.844   7.825  1.00  0.00     0.132 A 
ATOM     21  H5  UNL     1      21.382  -6.341   9.719  1.00  0.00     0.168 HD
HETATM   22  C9  UNL     1      19.795  -6.772   6.894  1.00  0.00     0.127 A 
BRANCH  17  23
HETATM   23  O3  UNL     1      19.372  -5.120  10.647  1.00  0.00    -0.332 OA
ATOM     24  H3  UNL     1      19.875  -5.422  11.394  1.00  0.00     0.220 HD
ENDBRANCH  17  23
BRANCH  22  25
HETATM   25  O4  UNL     1      20.031  -7.358   5.661  1.00  0.00    -0.356 OA
ATOM     26  H4  UNL     1      20.276  -8.269   5.554  1.00  0.00     0.218 HD
ENDBRANCH  22  25
ENDBRANCH   1  15
BRANCH   1  27
HETATM   27  N6  UNL     1      16.649  -7.018   5.984  1.00  0.00     0.098 N 
HETATM   28  C10 UNL     1      15.447  -7.179   6.539  1.00  0.00     0.728 A 
HETATM   29  N8  UNL     1      14.895  -8.272   5.928  1.00  0.00    -0.094 N 
HETATM   30  N9  UNL     1      15.726  -8.751   5.042  1.00  0.00     0.107 N 
ATOM     31  H8  UNL     1      13.972  -8.654   6.133  1.00  0.00     0.207 HD
HETATM   32  C11 UNL     1      15.610  -9.817   4.196  1.00  0.00     0.727 A 
HETATM   33  C13 UNL     1      16.831  -7.989   5.054  1.00  0.00     0.770 A 
HETATM   34  N10 UNL     1      14.538 -10.529   4.209  1.00  0.00    -0.232 N 
HETATM   35  N11 UNL     1      16.608 -10.111   3.363  1.00  0.00    -0.020 N 
ATOM     36 2H10 UNL     1      13.774 -10.304   4.847  1.00  0.00     0.174 HD
ATOM     37 1H10 UNL     1      14.451 -11.325   3.578  1.00  0.00     0.174 HD
HETATM   38  C12 UNL     1      17.728  -9.372   3.347  1.00  0.00     0.705 A 
ATOM     39  H11 UNL     1      16.520 -10.907   2.730  1.00  0.00     0.203 HD
HETATM   40  N13 UNL     1      17.808  -8.336   4.188  1.00  0.00    -0.017 N 
ATOM     41  H13 UNL     1      18.658  -7.774   4.176  1.00  0.00     0.203 HD
BRANCH  28  42
HETATM   42  N7  UNL     1      14.801  -6.562   7.454  1.00  0.00    -0.231 N 
ATOM     43  H72 UNL     1      14.818  -6.907   8.414  1.00  0.00     0.174 HD
ATOM     44  H71 UNL     1      14.223  -5.722   7.469  1.00  0.00     0.174 HD
ENDBRANCH  28  42
BRANCH  38  45
HETATM   45  N12 UNL     1      18.665  -9.695   2.526  1.00  0.00    -0.234 N 
ATOM     46 2H12 UNL     1      18.503  -9.907   1.541  1.00  0.00     0.174 HD
ATOM     47 1H12 UNL     1      19.621  -9.744   2.875  1.00  0.00     0.174 HD
ENDBRANCH  38  45
ENDBRANCH   1  27
TORSDOF 9
ENDMDL
