MODEL 1
REMARK VINA RESULT: -8.332008670      0.000      0.000
REMARK  10 active torsions:
REMARK  status: ('A' for Active; 'I' for Inactive)
REMARK    1  A    between atoms: C2_2  and  O1_3 
REMARK    2  A    between atoms: O1_3  and  C3_4 
REMARK    3  A    between atoms: C3_4  and  C4_6 
REMARK    4  A    between atoms: C4_6  and  N1_7 
REMARK    5  A    between atoms: N1_7  and  C5_10 
REMARK    6  A    between atoms: C7_14  and  N3_15 
REMARK    7  A    between atoms: C10_22  and  N6_23 
REMARK    8  A    between atoms: N7_25  and  N8_27 
REMARK    9  A    between atoms: C11_34  and  N12_35 
REMARK   10  A    between atoms: N14_40  and  N15_41 
REMARK       I    between atoms: N15_41  and  C12_43 
ROOT
HETATM    1  N3  UNL     1      19.476  -8.567   3.840  1.00  0.00    -0.021 N 
ATOM      2  H3  UNL     1      18.883  -8.691   3.020  1.00  0.00     0.203 HD
HETATM    3  C8  UNL     1      20.345  -9.476   4.103  1.00  0.00     0.699 A 
HETATM    4  N4  UNL     1      20.463 -10.576   3.299  1.00  0.00    -0.176 N 
ATOM      5  H4  UNL     1      19.859 -10.678   2.483  1.00  0.00     0.185 HD
HETATM    6  C9  UNL     1      21.373 -11.523   3.585  1.00  0.00     0.163 A 
HETATM    7  N5  UNL     1      21.521 -12.671   2.774  1.00  0.00    -0.080 NA
HETATM    8  C10 UNL     1      22.170 -11.338   4.708  1.00  0.00     0.135 A 
HETATM    9  C11 UNL     1      22.055 -10.237   5.516  1.00  0.00     0.146 A 
HETATM   10  N13 UNL     1      21.122  -9.311   5.184  1.00  0.00    -0.174 N 
ATOM     11  H13 UNL     1      21.009  -8.480   5.764  1.00  0.00     0.186 HD
ENDROOT
BRANCH   1  12
HETATM   12  C7  UNL     1      19.295  -7.399   4.626  1.00  0.00     0.711 C 
HETATM   13  N2  UNL     1      19.759  -6.224   4.291  1.00  0.00    -0.220 N 
HETATM   14  C6  UNL     1      19.403  -5.238   5.316  1.00  0.00     0.195 C 
ATOM     15  H2  UNL     1      20.290  -6.023   3.443  1.00  0.00     0.177 HD
HETATM   16  C5  UNL     1      19.247  -6.140   6.535  1.00  0.00     0.343 C 
HETATM   17  N14 UNL     1      18.611  -7.275   5.880  1.00  0.00    -0.087 N 
BRANCH  16  18
HETATM   18  N1  UNL     1      18.459  -5.564   7.563  1.00  0.00    -0.041 N 
ATOM     19  H12 UNL     1      17.554  -6.029   7.642  1.00  0.00     0.280 HD
ATOM     20  H11 UNL     1      18.137  -4.631   7.305  1.00  0.00     0.280 HD
BRANCH  18  21
HETATM   21  C4  UNL     1      19.152  -5.550   8.821  1.00  0.00     0.345 C 
BRANCH  21  22
HETATM   22  C3  UNL     1      20.568  -5.192   8.757  1.00  0.00     0.284 C 
HETATM   23  O2  UNL     1      20.966  -4.034   8.477  1.00  0.00    -0.263 OA
BRANCH  22  24
HETATM   24  O1  UNL     1      21.575  -6.120   9.003  1.00  0.00    -0.321 OA
BRANCH  24  25
HETATM   25  C2  UNL     1      21.741  -6.733  10.263  1.00  0.00     0.174 C 
HETATM   26  C1  UNL     1      22.061  -5.764  11.361  1.00  0.00     0.034 C 
ENDBRANCH  24  25
ENDBRANCH  22  24
ENDBRANCH  21  22
ENDBRANCH  18  21
ENDBRANCH  16  18
BRANCH  17  27
HETATM   27  N15 UNL     1      17.592  -8.102   6.272  1.00  0.00    -0.252 N 
HETATM   28  C12 UNL     1      16.259  -7.640   6.291  1.00  0.00     0.232 C 
HETATM   29  C13 UNL     1      15.135  -8.534   6.719  1.00  0.00     0.119 C 
HETATM   30  O3  UNL     1      15.926  -6.472   5.956  1.00  0.00    -0.272 OA
ATOM     31  H15 UNL     1      17.799  -9.060   6.553  1.00  0.00     0.190 HD
ENDBRANCH  17  27
ENDBRANCH   1  12
BRANCH   9  32
HETATM   32  N12 UNL     1      22.819 -10.115   6.544  1.00  0.00    -0.383 N 
ATOM     33 2H12 UNL     1      23.021  -9.214   6.977  1.00  0.00     0.157 HD
ATOM     34 1H12 UNL     1      23.249 -10.944   6.956  1.00  0.00     0.157 HD
ENDBRANCH   9  32
BRANCH   8  35
HETATM   35  N6  UNL     1      23.127 -12.347   4.994  1.00  0.00    -0.277 N 
HETATM   36  N7  UNL     1      24.299 -12.198   4.545  1.00  0.00    -0.203 N 
ATOM     37  H7  UNL     1      24.992 -12.919   4.748  1.00  0.00     0.212 HD
ATOM     38  H6  UNL     1      22.876 -13.167   5.545  1.00  0.00     0.189 HD
BRANCH  36  39
HETATM   39  N8  UNL     1      24.691 -11.093   3.786  1.00  0.00    -0.084 N 
HETATM   40  N9  UNL     1      24.606 -10.671   2.537  1.00  0.00    -0.188 N 
HETATM   41  N10 UNL     1      25.256  -9.567   2.826  1.00  0.00    -0.208 N 
ATOM     42  H9  UNL     1      24.196 -11.053   1.685  1.00  0.00     0.213 HD
HETATM   43  N11 UNL     1      25.347  -9.977   4.077  1.00  0.00    -0.188 N 
ATOM     44  H10 UNL     1      25.560  -8.744   2.306  1.00  0.00     0.211 HD
ATOM     45  H11 UNL     1      25.758  -9.591   4.927  1.00  0.00     0.213 HD
ENDBRANCH  36  39
ENDBRANCH   8  35
TORSDOF 10
ENDMDL
MODEL 2
REMARK VINA RESULT: -8.127702732      2.702      3.678
REMARK  10 active torsions:
REMARK  status: ('A' for Active; 'I' for Inactive)
REMARK    1  A    between atoms: C2_2  and  O1_3 
REMARK    2  A    between atoms: O1_3  and  C3_4 
REMARK    3  A    between atoms: C3_4  and  C4_6 
REMARK    4  A    between atoms: C4_6  and  N1_7 
REMARK    5  A    between atoms: N1_7  and  C5_10 
REMARK    6  A    between atoms: C7_14  and  N3_15 
REMARK    7  A    between atoms: C10_22  and  N6_23 
REMARK    8  A    between atoms: N7_25  and  N8_27 
REMARK    9  A    between atoms: C11_34  and  N12_35 
REMARK   10  A    between atoms: N14_40  and  N15_41 
REMARK       I    between atoms: N15_41  and  C12_43 
ROOT
HETATM    1  N3  UNL     1      17.254  -9.159   2.908  1.00  0.00    -0.021 N 
ATOM      2  H3  UNL     1      16.274  -9.075   2.638  1.00  0.00     0.203 HD
HETATM    3  C8  UNL     1      17.950 -10.101   2.379  1.00  0.00     0.699 A 
HETATM    4  N4  UNL     1      17.383 -10.961   1.479  1.00  0.00    -0.176 N 
ATOM      5  H4  UNL     1      16.401 -10.856   1.222  1.00  0.00     0.185 HD
HETATM    6  C9  UNL     1      18.120 -11.945   0.934  1.00  0.00     0.163 A 
HETATM    7  N5  UNL     1      17.565 -12.849   0.001  1.00  0.00    -0.080 NA
HETATM    8  C10 UNL     1      19.452 -12.046   1.317  1.00  0.00     0.135 A 
HETATM    9  C11 UNL     1      20.023 -11.185   2.218  1.00  0.00     0.146 A 
HETATM   10  N13 UNL     1      19.238 -10.211   2.739  1.00  0.00    -0.174 N 
ATOM     11  H13 UNL     1      19.631  -9.554   3.413  1.00  0.00     0.186 HD
ENDROOT
BRANCH   1  12
HETATM   12  C7  UNL     1      17.772  -8.230   3.847  1.00  0.00     0.711 C 
HETATM   13  N2  UNL     1      18.634  -7.297   3.540  1.00  0.00    -0.220 N 
HETATM   14  C6  UNL     1      18.964  -6.513   4.734  1.00  0.00     0.195 C 
ATOM     15  H2  UNL     1      19.020  -7.139   2.608  1.00  0.00     0.177 HD
HETATM   16  C5  UNL     1      18.667  -7.528   5.832  1.00  0.00     0.343 C 
HETATM   17  N14 UNL     1      17.476  -8.131   5.247  1.00  0.00    -0.087 N 
BRANCH  16  18
HETATM   18  N1  UNL     1      18.437  -6.934   7.098  1.00  0.00    -0.041 N 
ATOM     19  H12 UNL     1      18.361  -7.640   7.831  1.00  0.00     0.280 HD
ATOM     20  H11 UNL     1      17.499  -6.539   7.159  1.00  0.00     0.280 HD
BRANCH  18  21
HETATM   21  C4  UNL     1      19.439  -5.955   7.418  1.00  0.00     0.345 C 
BRANCH  21  22
HETATM   22  C3  UNL     1      19.815  -5.875   8.829  1.00  0.00     0.284 C 
HETATM   23  O2  UNL     1      19.080  -5.347   9.700  1.00  0.00    -0.263 OA
BRANCH  22  24
HETATM   24  O1  UNL     1      21.022  -6.382   9.301  1.00  0.00    -0.321 OA
BRANCH  24  25
HETATM   25  C2  UNL     1      21.600  -5.944  10.510  1.00  0.00     0.174 C 
HETATM   26  C1  UNL     1      22.249  -7.044  11.295  1.00  0.00     0.034 C 
ENDBRANCH  24  25
ENDBRANCH  22  24
ENDBRANCH  21  22
ENDBRANCH  18  21
ENDBRANCH  16  18
BRANCH  17  27
HETATM   27  N15 UNL     1      16.295  -8.545   5.803  1.00  0.00    -0.252 N 
HETATM   28  C12 UNL     1      15.389  -7.609   6.343  1.00  0.00     0.232 C 
HETATM   29  C13 UNL     1      14.094  -8.048   6.956  1.00  0.00     0.119 C 
HETATM   30  O3  UNL     1      15.597  -6.366   6.349  1.00  0.00    -0.272 OA
ATOM     31  H15 UNL     1      16.070  -9.539   5.827  1.00  0.00     0.190 HD
ENDBRANCH  17  27
ENDBRANCH   1  12
BRANCH   9  32
HETATM   32  N12 UNL     1      21.262 -11.324   2.537  1.00  0.00    -0.383 N 
ATOM     33 2H12 UNL     1      21.709 -12.236   2.623  1.00  0.00     0.157 HD
ATOM     34 1H12 UNL     1      21.834 -10.499   2.715  1.00  0.00     0.157 HD
ENDBRANCH   9  32
BRANCH   8  35
HETATM   35  N6  UNL     1      20.215 -13.089   0.731  1.00  0.00    -0.277 N 
HETATM   36  N7  UNL     1      20.673 -12.907  -0.434  1.00  0.00    -0.203 N 
ATOM     37  H7  UNL     1      21.223 -13.653  -0.861  1.00  0.00     0.212 HD
ATOM     38  H6  UNL     1      20.388 -13.959   1.233  1.00  0.00     0.189 HD
BRANCH  36  39
HETATM   39  N8  UNL     1      20.463 -11.734  -1.162  1.00  0.00    -0.084 N 
HETATM   40  N9  UNL     1      19.615 -11.268  -2.061  1.00  0.00    -0.188 N 
HETATM   41  N10 UNL     1      20.245 -10.116  -2.112  1.00  0.00    -0.208 N 
ATOM     42  H9  UNL     1      18.795 -11.651  -2.531  1.00  0.00     0.213 HD
HETATM   43  N11 UNL     1      21.098 -10.571  -1.214  1.00  0.00    -0.188 N 
ATOM     44  H10 UNL     1      20.126  -9.243  -2.625  1.00  0.00     0.211 HD
ATOM     45  H11 UNL     1      21.918 -10.183  -0.747  1.00  0.00     0.213 HD
ENDBRANCH  36  39
ENDBRANCH   8  35
TORSDOF 10
ENDMDL
MODEL 3
REMARK VINA RESULT: -8.016436923      1.269      1.429
REMARK  10 active torsions:
REMARK  status: ('A' for Active; 'I' for Inactive)
REMARK    1  A    between atoms: C2_2  and  O1_3 
REMARK    2  A    between atoms: O1_3  and  C3_4 
REMARK    3  A    between atoms: C3_4  and  C4_6 
REMARK    4  A    between atoms: C4_6  and  N1_7 
REMARK    5  A    between atoms: N1_7  and  C5_10 
REMARK    6  A    between atoms: C7_14  and  N3_15 
REMARK    7  A    between atoms: C10_22  and  N6_23 
REMARK    8  A    between atoms: N7_25  and  N8_27 
REMARK    9  A    between atoms: C11_34  and  N12_35 
REMARK   10  A    between atoms: N14_40  and  N15_41 
REMARK       I    between atoms: N15_41  and  C12_43 
ROOT
HETATM    1  N3  UNL     1      19.539  -9.159   3.659  1.00  0.00    -0.021 N 
ATOM      2  H3  UNL     1      19.028  -9.407   2.812  1.00  0.00     0.203 HD
HETATM    3  C8  UNL     1      20.496  -9.928   4.036  1.00  0.00     0.699 A 
HETATM    4  N4  UNL     1      20.812 -11.047   3.316  1.00  0.00    -0.176 N 
ATOM      5  H4  UNL     1      20.288 -11.275   2.471  1.00  0.00     0.185 HD
HETATM    6  C9  UNL     1      21.814 -11.847   3.722  1.00  0.00     0.163 A 
HETATM    7  N5  UNL     1      22.166 -13.010   3.001  1.00  0.00    -0.080 NA
HETATM    8  C10 UNL     1      22.496 -11.495   4.880  1.00  0.00     0.135 A 
HETATM    9  C11 UNL     1      22.182 -10.374   5.604  1.00  0.00     0.146 A 
HETATM   10  N13 UNL     1      21.165  -9.601   5.153  1.00  0.00    -0.174 N 
ATOM     11  H13 UNL     1      20.905  -8.760   5.668  1.00  0.00     0.186 HD
ENDROOT
BRANCH   1  12
HETATM   12  C7  UNL     1      19.154  -7.982   4.352  1.00  0.00     0.711 C 
HETATM   13  N2  UNL     1      19.690  -6.810   4.139  1.00  0.00    -0.220 N 
HETATM   14  C6  UNL     1      19.071  -5.813   5.018  1.00  0.00     0.195 C 
ATOM     15  H2  UNL     1      20.429  -6.617   3.462  1.00  0.00     0.177 HD
HETATM   16  C5  UNL     1      18.594  -6.701   6.162  1.00  0.00     0.343 C 
HETATM   17  N14 UNL     1      18.157  -7.846   5.375  1.00  0.00    -0.087 N 
BRANCH  16  18
HETATM   18  N1  UNL     1      17.558  -6.115   6.933  1.00  0.00    -0.041 N 
ATOM     19  H12 UNL     1      17.202  -6.767   7.632  1.00  0.00     0.280 HD
ATOM     20  H11 UNL     1      16.709  -5.993   6.382  1.00  0.00     0.280 HD
BRANCH  18  21
HETATM   21  C4  UNL     1      17.976  -4.879   7.535  1.00  0.00     0.345 C 
BRANCH  21  22
HETATM   22  C3  UNL     1      18.946  -5.003   8.622  1.00  0.00     0.284 C 
HETATM   23  O2  UNL     1      18.648  -5.462   9.752  1.00  0.00    -0.263 OA
BRANCH  22  24
HETATM   24  O1  UNL     1      20.274  -4.616   8.473  1.00  0.00    -0.321 OA
BRANCH  24  25
HETATM   25  C2  UNL     1      21.311  -5.169   9.253  1.00  0.00     0.174 C 
HETATM   26  C1  UNL     1      21.416  -6.660   9.138  1.00  0.00     0.034 C 
ENDBRANCH  24  25
ENDBRANCH  22  24
ENDBRANCH  21  22
ENDBRANCH  18  21
ENDBRANCH  16  18
BRANCH  17  27
HETATM   27  N15 UNL     1      17.071  -8.672   5.490  1.00  0.00    -0.252 N 
HETATM   28  C12 UNL     1      16.302  -9.008   4.356  1.00  0.00     0.232 C 
HETATM   29  C13 UNL     1      15.111  -9.910   4.467  1.00  0.00     0.119 C 
HETATM   30  O3  UNL     1      16.556  -8.586   3.196  1.00  0.00    -0.272 OA
ATOM     31  H15 UNL     1      16.816  -9.047   6.403  1.00  0.00     0.190 HD
ENDBRANCH  17  27
ENDBRANCH   1  12
BRANCH   9  32
HETATM   32  N12 UNL     1      22.848 -10.094   6.669  1.00  0.00    -0.383 N 
ATOM     33 2H12 UNL     1      22.898 -10.724   7.469  1.00  0.00     0.157 HD
ATOM     34 1H12 UNL     1      23.353  -9.210   6.732  1.00  0.00     0.157 HD
ENDBRANCH   9  32
BRANCH   8  35
HETATM   35  N6  UNL     1      23.551 -12.349   5.293  1.00  0.00    -0.277 N 
HETATM   36  N7  UNL     1      24.718 -12.097   4.877  1.00  0.00    -0.203 N 
ATOM     37  H7  UNL     1      25.481 -12.707   5.171  1.00  0.00     0.212 HD
ATOM     38  H6  UNL     1      23.373 -13.143   5.908  1.00  0.00     0.189 HD
BRANCH  36  39
HETATM   39  N8  UNL     1      25.012 -11.022   4.035  1.00  0.00    -0.084 N 
HETATM   40  N9  UNL     1      25.034 -10.758   2.741  1.00  0.00    -0.188 N 
HETATM   41  N10 UNL     1      25.428  -9.524   2.962  1.00  0.00    -0.208 N 
ATOM     42  H9  UNL     1      24.826 -11.298   1.901  1.00  0.00     0.213 HD
HETATM   43  N11 UNL     1      25.410  -9.776   4.257  1.00  0.00    -0.188 N 
ATOM     44  H10 UNL     1      25.652  -8.716   2.381  1.00  0.00     0.211 HD
ATOM     45  H11 UNL     1      25.618  -9.231   5.094  1.00  0.00     0.213 HD
ENDBRANCH  36  39
ENDBRANCH   8  35
TORSDOF 10
ENDMDL
MODEL 4
REMARK VINA RESULT: -7.874373173      2.757      4.479
REMARK  10 active torsions:
REMARK  status: ('A' for Active; 'I' for Inactive)
REMARK    1  A    between atoms: C2_2  and  O1_3 
REMARK    2  A    between atoms: O1_3  and  C3_4 
REMARK    3  A    between atoms: C3_4  and  C4_6 
REMARK    4  A    between atoms: C4_6  and  N1_7 
REMARK    5  A    between atoms: N1_7  and  C5_10 
REMARK    6  A    between atoms: C7_14  and  N3_15 
REMARK    7  A    between atoms: C10_22  and  N6_23 
REMARK    8  A    between atoms: N7_25  and  N8_27 
REMARK    9  A    between atoms: C11_34  and  N12_35 
REMARK   10  A    between atoms: N14_40  and  N15_41 
REMARK       I    between atoms: N15_41  and  C12_43 
ROOT
HETATM    1  N3  UNL     1      20.630  -8.060   5.649  1.00  0.00    -0.021 N 
ATOM      2  H3  UNL     1      20.903  -7.755   6.583  1.00  0.00     0.203 HD
HETATM    3  C8  UNL     1      21.084  -9.182   5.220  1.00  0.00     0.699 A 
HETATM    4  N4  UNL     1      21.912  -9.940   6.002  1.00  0.00    -0.176 N 
ATOM      5  H4  UNL     1      22.171  -9.616   6.934  1.00  0.00     0.185 HD
HETATM    6  C9  UNL     1      22.385 -11.112   5.542  1.00  0.00     0.163 A 
HETATM    7  N5  UNL     1      23.241 -11.919   6.324  1.00  0.00    -0.080 NA
HETATM    8  C10 UNL     1      22.004 -11.508   4.266  1.00  0.00     0.135 A 
HETATM    9  C11 UNL     1      21.174 -10.751   3.480  1.00  0.00     0.146 A 
HETATM   10  N13 UNL     1      20.725  -9.579   3.989  1.00  0.00    -0.174 N 
ATOM     11  H13 UNL     1      20.107  -8.991   3.431  1.00  0.00     0.186 HD
ENDROOT
BRANCH   1  12
HETATM   12  C7  UNL     1      19.768  -7.220   4.897  1.00  0.00     0.711 C 
HETATM   13  N2  UNL     1      19.085  -7.629   3.861  1.00  0.00    -0.220 N 
HETATM   14  C6  UNL     1      18.300  -6.518   3.313  1.00  0.00     0.195 C 
ATOM     15  H2  UNL     1      19.096  -8.579   3.488  1.00  0.00     0.177 HD
HETATM   16  C5  UNL     1      19.126  -5.327   3.785  1.00  0.00     0.343 C 
HETATM   17  N14 UNL     1      19.488  -5.829   5.104  1.00  0.00    -0.087 N 
BRANCH  16  18
HETATM   18  N1  UNL     1      18.393  -4.114   3.822  1.00  0.00    -0.041 N 
ATOM     19  H12 UNL     1      17.945  -3.978   4.728  1.00  0.00     0.280 HD
ATOM     20  H11 UNL     1      17.558  -4.167   3.238  1.00  0.00     0.280 HD
BRANCH  18  21
HETATM   21  C4  UNL     1      19.210  -2.987   3.467  1.00  0.00     0.345 C 
BRANCH  21  22
HETATM   22  C3  UNL     1      18.796  -2.262   2.266  1.00  0.00     0.284 C 
HETATM   23  O2  UNL     1      18.344  -2.837   1.245  1.00  0.00    -0.263 OA
BRANCH  22  24
HETATM   24  O1  UNL     1      18.878  -0.876   2.176  1.00  0.00    -0.321 OA
BRANCH  24  25
HETATM   25  C2  UNL     1      19.666  -0.110   3.060  1.00  0.00     0.174 C 
HETATM   26  C1  UNL     1      21.085   0.055   2.605  1.00  0.00     0.034 C 
ENDBRANCH  24  25
ENDBRANCH  22  24
ENDBRANCH  21  22
ENDBRANCH  18  21
ENDBRANCH  16  18
BRANCH  17  27
HETATM   27  N15 UNL     1      19.575  -5.212   6.323  1.00  0.00    -0.252 N 
HETATM   28  C12 UNL     1      18.858  -5.709   7.432  1.00  0.00     0.232 C 
HETATM   29  C13 UNL     1      18.943  -5.043   8.772  1.00  0.00     0.119 C 
HETATM   30  O3  UNL     1      18.114  -6.725   7.378  1.00  0.00    -0.272 OA
ATOM     31  H15 UNL     1      20.162  -4.385   6.431  1.00  0.00     0.190 HD
ENDBRANCH  17  27
ENDBRANCH   1  12
BRANCH   9  32
HETATM   32  N12 UNL     1      20.852 -11.167   2.305  1.00  0.00    -0.383 N 
ATOM     33 2H12 UNL     1      21.421 -10.980   1.480  1.00  0.00     0.157 HD
ATOM     34 1H12 UNL     1      19.997 -11.707   2.176  1.00  0.00     0.157 HD
ENDBRANCH   9  32
BRANCH   8  35
HETATM   35  N6  UNL     1      22.511 -12.748   3.796  1.00  0.00    -0.277 N 
HETATM   36  N7  UNL     1      23.672 -12.765   3.298  1.00  0.00    -0.203 N 
ATOM     37  H7  UNL     1      24.043 -13.653   2.959  1.00  0.00     0.212 HD
ATOM     38  H6  UNL     1      21.954 -13.600   3.859  1.00  0.00     0.189 HD
BRANCH  36  39
HETATM   39  N8  UNL     1      24.473 -11.625   3.190  1.00  0.00    -0.084 N 
HETATM   40  N9  UNL     1      25.436 -11.027   3.868  1.00  0.00    -0.188 N 
HETATM   41  N10 UNL     1      25.515 -10.065   2.976  1.00  0.00    -0.208 N 
ATOM     42  H9  UNL     1      25.926 -11.231   4.739  1.00  0.00     0.213 HD
HETATM   43  N11 UNL     1      24.554 -10.653   2.291  1.00  0.00    -0.188 N 
ATOM     44  H10 UNL     1      26.080  -9.223   2.862  1.00  0.00     0.211 HD
ATOM     45  H11 UNL     1      24.068 -10.445   1.419  1.00  0.00     0.213 HD
ENDBRANCH  36  39
ENDBRANCH   8  35
TORSDOF 10
ENDMDL
MODEL 5
REMARK VINA RESULT: -7.685860027      4.949      8.048
REMARK  10 active torsions:
REMARK  status: ('A' for Active; 'I' for Inactive)
REMARK    1  A    between atoms: C2_2  and  O1_3 
REMARK    2  A    between atoms: O1_3  and  C3_4 
REMARK    3  A    between atoms: C3_4  and  C4_6 
REMARK    4  A    between atoms: C4_6  and  N1_7 
REMARK    5  A    between atoms: N1_7  and  C5_10 
REMARK    6  A    between atoms: C7_14  and  N3_15 
REMARK    7  A    between atoms: C10_22  and  N6_23 
REMARK    8  A    between atoms: N7_25  and  N8_27 
REMARK    9  A    between atoms: C11_34  and  N12_35 
REMARK   10  A    between atoms: N14_40  and  N15_41 
REMARK       I    between atoms: N15_41  and  C12_43 
ROOT
HETATM    1  N3  UNL     1      19.123  -5.752   2.691  1.00  0.00    -0.021 N 
ATOM      2  H3  UNL     1      19.240  -6.592   2.125  1.00  0.00     0.203 HD
HETATM    3  C8  UNL     1      19.574  -4.641   2.228  1.00  0.00     0.699 A 
HETATM    4  N4  UNL     1      20.190  -4.598   1.008  1.00  0.00    -0.176 N 
ATOM      5  H4  UNL     1      20.294  -5.451   0.458  1.00  0.00     0.185 HD
HETATM    6  C9  UNL     1      20.660  -3.431   0.533  1.00  0.00     0.163 A 
HETATM    7  N5  UNL     1      21.301  -3.352  -0.724  1.00  0.00    -0.080 NA
HETATM    8  C10 UNL     1      20.497  -2.298   1.321  1.00  0.00     0.135 A 
HETATM    9  C11 UNL     1      19.879  -2.338   2.544  1.00  0.00     0.146 A 
HETATM   10  N13 UNL     1      19.423  -3.538   2.977  1.00  0.00    -0.174 N 
ATOM     11  H13 UNL     1      18.959  -3.604   3.882  1.00  0.00     0.186 HD
ENDROOT
BRANCH   1  12
HETATM   12  C7  UNL     1      18.474  -5.876   3.947  1.00  0.00     0.711 C 
HETATM   13  N2  UNL     1      18.342  -4.887   4.792  1.00  0.00    -0.220 N 
HETATM   14  C6  UNL     1      17.629  -5.348   5.987  1.00  0.00     0.195 C 
ATOM     15  H2  UNL     1      18.685  -3.938   4.642  1.00  0.00     0.177 HD
HETATM   16  C5  UNL     1      17.954  -6.837   5.956  1.00  0.00     0.343 C 
HETATM   17  N14 UNL     1      17.867  -7.043   4.517  1.00  0.00    -0.087 N 
BRANCH  16  18
HETATM   18  N1  UNL     1      17.040  -7.627   6.698  1.00  0.00    -0.041 N 
ATOM     19  H12 UNL     1      17.309  -7.682   7.680  1.00  0.00     0.280 HD
ATOM     20  H11 UNL     1      17.121  -8.614   6.455  1.00  0.00     0.280 HD
BRANCH  18  21
HETATM   21  C4  UNL     1      15.690  -7.161   6.550  1.00  0.00     0.345 C 
BRANCH  21  22
HETATM   22  C3  UNL     1      14.687  -8.198   6.312  1.00  0.00     0.284 C 
HETATM   23  O2  UNL     1      13.552  -8.184   6.850  1.00  0.00    -0.263 OA
BRANCH  22  24
HETATM   24  O1  UNL     1      14.928  -9.278   5.469  1.00  0.00    -0.321 OA
BRANCH  24  25
HETATM   25  C2  UNL     1      13.959 -10.274   5.225  1.00  0.00     0.174 C 
HETATM   26  C1  UNL     1      14.384 -11.281   4.199  1.00  0.00     0.034 C 
ENDBRANCH  24  25
ENDBRANCH  22  24
ENDBRANCH  21  22
ENDBRANCH  18  21
ENDBRANCH  16  18
BRANCH  17  27
HETATM   27  N15 UNL     1      17.350  -8.069   3.771  1.00  0.00    -0.252 N 
HETATM   28  C12 UNL     1      18.157  -9.163   3.397  1.00  0.00     0.232 C 
HETATM   29  C13 UNL     1      17.605 -10.291   2.580  1.00  0.00     0.119 C 
HETATM   30  O3  UNL     1      19.372  -9.269   3.716  1.00  0.00    -0.272 OA
ATOM     31  H15 UNL     1      16.372  -8.041   3.483  1.00  0.00     0.190 HD
ENDBRANCH  17  27
ENDBRANCH   1  12
BRANCH   9  32
HETATM   32  N12 UNL     1      19.753  -1.258   3.231  1.00  0.00    -0.383 N 
ATOM     33 2H12 UNL     1      19.663  -1.259   4.247  1.00  0.00     0.157 HD
ATOM     34 1H12 UNL     1      19.741  -0.354   2.758  1.00  0.00     0.157 HD
ENDBRANCH   9  32
BRANCH   8  35
HETATM   35  N6  UNL     1      20.997  -1.075   0.804  1.00  0.00    -0.277 N 
HETATM   36  N7  UNL     1      20.359  -0.521  -0.137  1.00  0.00    -0.203 N 
ATOM     37  H7  UNL     1      20.714   0.358  -0.513  1.00  0.00     0.212 HD
ATOM     38  H6  UNL     1      21.847  -0.655   1.180  1.00  0.00     0.189 HD
BRANCH  36  39
HETATM   39  N8  UNL     1      19.192  -1.057  -0.685  1.00  0.00    -0.084 N 
HETATM   40  N9  UNL     1      17.934  -1.254  -0.332  1.00  0.00    -0.188 N 
HETATM   41  N10 UNL     1      17.655  -1.801  -1.494  1.00  0.00    -0.208 N 
ATOM     42  H9  UNL     1      17.393  -1.059   0.510  1.00  0.00     0.213 HD
HETATM   43  N11 UNL     1      18.909  -1.609  -1.858  1.00  0.00    -0.188 N 
ATOM     44  H10 UNL     1      16.824  -2.202  -1.930  1.00  0.00     0.211 HD
ATOM     45  H11 UNL     1      19.446  -1.807  -2.702  1.00  0.00     0.213 HD
ENDBRANCH  36  39
ENDBRANCH   8  35
TORSDOF 10
ENDMDL
