MODEL 1
REMARK VINA RESULT: -7.446267011      0.000      0.000
REMARK  12 active torsions:
REMARK  status: ('A' for Active; 'I' for Inactive)
REMARK       I    between atoms: C2_2  and  N1_4 
REMARK    1  A    between atoms: N1_4  and  C3_6 
REMARK    2  A    between atoms: C4_9  and  C5_10 
REMARK    3  A    between atoms: C5_10  and  O2_11 
REMARK    4  A    between atoms: C5_10  and  O3_13 
REMARK    5  A    between atoms: C6_16  and  N3_17 
REMARK       I    between atoms: N3_17  and  C7_19 
REMARK       I    between atoms: C7_19  and  N6_25 
REMARK    6  A    between atoms: N4_20  and  N5_22 
REMARK    7  A    between atoms: N6_25  and  N7_27 
REMARK    8  A    between atoms: C8_29  and  N8_30 
REMARK    9  A    between atoms: C8_29  and  O6_35 
REMARK   10  A    between atoms: N8_30  and  N9_32 
REMARK   11  A    between atoms: O6_35  and  N10_36 
REMARK   12  A    between atoms: C9_39  and  N11_40 
ROOT
HETATM    1  N3  UNL     1      17.887  -6.841   4.663  1.00  0.00    -0.180 N 
ATOM      2  H3  UNL     1      16.969  -7.043   5.061  1.00  0.00     0.185 HD
HETATM    3  C7  UNL     1      18.192  -5.499   4.448  1.00  0.00     0.712 C 
HETATM    4  N4  UNL     1      17.811  -4.602   5.263  1.00  0.00    -0.137 N 
ATOM      5  H4  UNL     1      18.067  -3.639   5.048  1.00  0.00     0.205 HD
HETATM    6  N6  UNL     1      18.940  -5.103   3.307  1.00  0.00    -0.128 N 
ATOM      7  H6  UNL     1      18.961  -5.701   2.481  1.00  0.00     0.205 HD
ENDROOT
BRANCH   1   8
HETATM    8  C6  UNL     1      18.643  -7.855   4.412  1.00  0.00     0.129 A 
HETATM    9  S1  UNL     1      20.240  -8.057   4.974  1.00  0.00    -0.051 SA
HETATM   10  C4  UNL     1      20.963  -9.510   4.461  1.00  0.00     0.110 A 
HETATM   11  N2  UNL     1      20.176 -10.269   3.699  1.00  0.00    -0.334 N 
HETATM   12  C3  UNL     1      18.932 -10.017   3.313  1.00  0.00     0.145 A 
ATOM     13  H2  UNL     1      20.578 -11.147   3.373  1.00  0.00     0.168 HD
HETATM   14  C9  UNL     1      18.189  -8.898   3.631  1.00  0.00     0.181 A 
BRANCH  10  15
HETATM   15  C5  UNL     1      22.364  -9.938   4.812  1.00  0.00     0.312 C 
BRANCH  15  16
HETATM   16  O2  UNL     1      22.477 -10.088   6.201  1.00  0.00    -0.365 OA
ATOM     17  H2  UNL     1      23.074  -9.434   6.546  1.00  0.00     0.213 HD
ENDBRANCH  15  16
BRANCH  15  18
HETATM   18  O3  UNL     1      22.653 -11.183   4.253  1.00  0.00    -0.365 OA
ATOM     19  H3  UNL     1      22.042 -11.388   3.555  1.00  0.00     0.213 HD
ENDBRANCH  15  18
ENDBRANCH  10  15
BRANCH  12  20
HETATM   20  N1  UNL     1      18.277 -10.996   2.484  1.00  0.00    -0.311 N 
HETATM   21  C2  UNL     1      18.837 -11.464   1.269  1.00  0.00     0.219 C 
HETATM   22  C1  UNL     1      18.138 -12.485   0.419  1.00  0.00     0.117 C 
HETATM   23  O1  UNL     1      19.951 -10.993   0.922  1.00  0.00    -0.274 OA
ATOM     24  H1  UNL     1      17.374 -11.366   2.781  1.00  0.00     0.170 HD
ENDBRANCH  12  20
BRANCH  14  25
HETATM   25  N11 UNL     1      16.835  -8.758   3.135  1.00  0.00    -0.109 N 
HETATM   26  O7  UNL     1      16.575  -8.226   2.066  1.00  0.00    -0.532 OA
HETATM   27  O8  UNL     1      15.835  -9.258   3.927  1.00  0.00    -0.532 OA
ENDBRANCH  14  25
ENDBRANCH   1   8
BRANCH   4  28
HETATM   28  N5  UNL     1      17.079  -4.820   6.418  1.00  0.00    -0.331 N 
ATOM     29  H52 UNL     1      17.581  -5.257   7.192  1.00  0.00     0.177 HD
ATOM     30  H51 UNL     1      16.096  -4.583   6.552  1.00  0.00     0.177 HD
ENDBRANCH   4  28
BRANCH   6  31
HETATM   31  N7  UNL     1      19.642  -3.907   3.309  1.00  0.00    -0.248 N 
HETATM   32  C8  UNL     1      19.474  -2.941   2.502  1.00  0.00     0.281 C 
ATOM     33  H7  UNL     1      20.360  -3.792   4.025  1.00  0.00     0.191 HD
BRANCH  32  34
HETATM   34  N8  UNL     1      20.271  -1.761   2.617  1.00  0.00    -0.202 N 
ATOM     35  H8  UNL     1      21.258  -1.783   2.361  1.00  0.00     0.197 HD
BRANCH  34  36
HETATM   36  N9  UNL     1      19.695  -0.584   3.080  1.00  0.00    -0.036 N 
HETATM   37  O4  UNL     1      20.071  -0.174   4.208  1.00  0.00    -0.516 OA
HETATM   38  O5  UNL     1      18.764   0.144   2.404  1.00  0.00    -0.516 OA
ENDBRANCH  34  36
ENDBRANCH  32  34
BRANCH  32  39
HETATM   39  O6  UNL     1      18.516  -3.026   1.504  1.00  0.00    -0.205 OA
BRANCH  39  40
HETATM   40  N10 UNL     1      18.586  -2.288   0.371  1.00  0.00    -0.302 N 
ATOM     41 2H10 UNL     1      17.891  -1.554   0.237  1.00  0.00     0.184 HD
ATOM     42 1H10 UNL     1      19.303  -2.446  -0.338  1.00  0.00     0.184 HD
ENDBRANCH  39  40
ENDBRANCH  32  39
ENDBRANCH   6  31
TORSDOF 12
ENDMDL
MODEL 2
REMARK VINA RESULT: -7.417116578      4.257      9.430
REMARK  12 active torsions:
REMARK  status: ('A' for Active; 'I' for Inactive)
REMARK       I    between atoms: C2_2  and  N1_4 
REMARK    1  A    between atoms: N1_4  and  C3_6 
REMARK    2  A    between atoms: C4_9  and  C5_10 
REMARK    3  A    between atoms: C5_10  and  O2_11 
REMARK    4  A    between atoms: C5_10  and  O3_13 
REMARK    5  A    between atoms: C6_16  and  N3_17 
REMARK       I    between atoms: N3_17  and  C7_19 
REMARK       I    between atoms: C7_19  and  N6_25 
REMARK    6  A    between atoms: N4_20  and  N5_22 
REMARK    7  A    between atoms: N6_25  and  N7_27 
REMARK    8  A    between atoms: C8_29  and  N8_30 
REMARK    9  A    between atoms: C8_29  and  O6_35 
REMARK   10  A    between atoms: N8_30  and  N9_32 
REMARK   11  A    between atoms: O6_35  and  N10_36 
REMARK   12  A    between atoms: C9_39  and  N11_40 
ROOT
HETATM    1  N3  UNL     1      17.346  -9.764   2.629  1.00  0.00    -0.180 N 
ATOM      2  H3  UNL     1      17.663  -9.052   1.971  1.00  0.00     0.185 HD
HETATM    3  C7  UNL     1      17.522 -11.092   2.247  1.00  0.00     0.712 C 
HETATM    4  N4  UNL     1      18.555 -11.456   1.604  1.00  0.00    -0.137 N 
ATOM      5  H4  UNL     1      18.624 -12.442   1.353  1.00  0.00     0.205 HD
HETATM    6  N6  UNL     1      16.545 -12.071   2.569  1.00  0.00    -0.128 N 
ATOM      7  H6  UNL     1      15.583 -11.786   2.756  1.00  0.00     0.205 HD
ENDROOT
BRANCH   1   8
HETATM    8  C6  UNL     1      16.822  -9.340   3.729  1.00  0.00     0.129 A 
HETATM    9  S1  UNL     1      15.224  -9.640   4.241  1.00  0.00    -0.051 SA
HETATM   10  C4  UNL     1      14.848  -8.936   5.744  1.00  0.00     0.110 A 
HETATM   11  N2  UNL     1      15.855  -8.257   6.293  1.00  0.00    -0.334 N 
HETATM   12  C3  UNL     1      17.076  -8.080   5.807  1.00  0.00     0.145 A 
ATOM     13  H2  UNL     1      15.663  -7.821   7.195  1.00  0.00     0.168 HD
HETATM   14  C9  UNL     1      17.558  -8.575   4.611  1.00  0.00     0.181 A 
BRANCH  10  15
HETATM   15  C5  UNL     1      13.510  -9.044   6.427  1.00  0.00     0.312 C 
BRANCH  15  16
HETATM   16  O2  UNL     1      12.485  -8.873   5.487  1.00  0.00    -0.365 OA
ATOM     17  H2  UNL     1      11.705  -9.330   5.778  1.00  0.00     0.213 HD
ENDBRANCH  15  16
BRANCH  15  18
HETATM   18  O3  UNL     1      13.338 -10.315   6.977  1.00  0.00    -0.365 OA
ATOM     19  H3  UNL     1      12.795 -10.854   6.413  1.00  0.00     0.213 HD
ENDBRANCH  15  18
ENDBRANCH  10  15
BRANCH  12  20
HETATM   20  N1  UNL     1      18.003  -7.302   6.588  1.00  0.00    -0.311 N 
HETATM   21  C2  UNL     1      17.708  -5.990   7.035  1.00  0.00     0.219 C 
HETATM   22  C1  UNL     1      18.688  -5.195   7.849  1.00  0.00     0.117 C 
HETATM   23  O1  UNL     1      16.589  -5.506   6.726  1.00  0.00    -0.274 OA
ATOM     24  H1  UNL     1      18.906  -7.711   6.828  1.00  0.00     0.170 HD
ENDBRANCH  12  20
BRANCH  14  25
HETATM   25  N11 UNL     1      18.921  -8.299   4.207  1.00  0.00    -0.109 N 
HETATM   26  O7  UNL     1      19.847  -9.060   4.447  1.00  0.00    -0.532 OA
HETATM   27  O8  UNL     1      19.138  -7.128   3.531  1.00  0.00    -0.532 OA
ENDBRANCH  14  25
ENDBRANCH   1   8
BRANCH   4  28
HETATM   28  N5  UNL     1      19.596 -10.630   1.215  1.00  0.00    -0.331 N 
ATOM     29  H52 UNL     1      19.782 -10.585   0.212  1.00  0.00     0.177 HD
ATOM     30  H51 UNL     1      20.180 -10.074   1.841  1.00  0.00     0.177 HD
ENDBRANCH   4  28
BRANCH   6  31
HETATM   31  N7  UNL     1      16.891 -13.413   2.630  1.00  0.00    -0.248 N 
HETATM   32  C8  UNL     1      16.127 -14.365   2.979  1.00  0.00     0.281 C 
ATOM     33  H7  UNL     1      17.847 -13.658   2.372  1.00  0.00     0.191 HD
BRANCH  32  34
HETATM   34  N8  UNL     1      16.615 -15.708   2.999  1.00  0.00    -0.202 N 
ATOM     35  H8  UNL     1      16.995 -16.128   2.151  1.00  0.00     0.197 HD
BRANCH  34  36
HETATM   36  N9  UNL     1      16.568 -16.439   4.181  1.00  0.00    -0.036 N 
HETATM   37  O4  UNL     1      15.566 -17.180   4.349  1.00  0.00    -0.516 OA
HETATM   38  O5  UNL     1      17.521 -16.406   5.154  1.00  0.00    -0.516 OA
ENDBRANCH  34  36
ENDBRANCH  32  34
BRANCH  32  39
HETATM   39  O6  UNL     1      14.814 -14.108   3.343  1.00  0.00    -0.205 OA
BRANCH  39  40
HETATM   40  N10 UNL     1      13.794 -14.923   2.988  1.00  0.00    -0.302 N 
ATOM     41 2H10 UNL     1      13.705 -15.174   2.003  1.00  0.00     0.184 HD
ATOM     42 1H10 UNL     1      13.124 -15.286   3.667  1.00  0.00     0.184 HD
ENDBRANCH  39  40
ENDBRANCH  32  39
ENDBRANCH   6  31
TORSDOF 12
ENDMDL
MODEL 3
REMARK VINA RESULT: -7.333512626      3.697      5.710
REMARK  12 active torsions:
REMARK  status: ('A' for Active; 'I' for Inactive)
REMARK       I    between atoms: C2_2  and  N1_4 
REMARK    1  A    between atoms: N1_4  and  C3_6 
REMARK    2  A    between atoms: C4_9  and  C5_10 
REMARK    3  A    between atoms: C5_10  and  O2_11 
REMARK    4  A    between atoms: C5_10  and  O3_13 
REMARK    5  A    between atoms: C6_16  and  N3_17 
REMARK       I    between atoms: N3_17  and  C7_19 
REMARK       I    between atoms: C7_19  and  N6_25 
REMARK    6  A    between atoms: N4_20  and  N5_22 
REMARK    7  A    between atoms: N6_25  and  N7_27 
REMARK    8  A    between atoms: C8_29  and  N8_30 
REMARK    9  A    between atoms: C8_29  and  O6_35 
REMARK   10  A    between atoms: N8_30  and  N9_32 
REMARK   11  A    between atoms: O6_35  and  N10_36 
REMARK   12  A    between atoms: C9_39  and  N11_40 
ROOT
HETATM    1  N3  UNL     1      18.185  -7.977   3.505  1.00  0.00    -0.180 N 
ATOM      2  H3  UNL     1      18.370  -7.921   2.504  1.00  0.00     0.185 HD
HETATM    3  C7  UNL     1      19.037  -7.255   4.338  1.00  0.00     0.712 C 
HETATM    4  N4  UNL     1      19.481  -6.117   3.993  1.00  0.00    -0.137 N 
ATOM      5  H4  UNL     1      20.101  -5.640   4.647  1.00  0.00     0.205 HD
HETATM    6  N6  UNL     1      19.430  -7.780   5.599  1.00  0.00    -0.128 N 
ATOM      7  H6  UNL     1      19.396  -8.787   5.762  1.00  0.00     0.205 HD
ENDROOT
BRANCH   1   8
HETATM    8  C6  UNL     1      17.187  -8.709   3.868  1.00  0.00     0.129 A 
HETATM    9  S1  UNL     1      16.011  -8.270   5.021  1.00  0.00    -0.051 SA
HETATM   10  C4  UNL     1      14.825  -9.466   5.271  1.00  0.00     0.110 A 
HETATM   11  N2  UNL     1      14.994 -10.562   4.533  1.00  0.00    -0.334 N 
HETATM   12  C3  UNL     1      15.957 -10.809   3.653  1.00  0.00     0.145 A 
ATOM     13  H2  UNL     1      14.302 -11.299   4.659  1.00  0.00     0.168 HD
HETATM   14  C9  UNL     1      16.996  -9.961   3.321  1.00  0.00     0.181 A 
BRANCH  10  15
HETATM   15  C5  UNL     1      13.673  -9.338   6.233  1.00  0.00     0.312 C 
BRANCH  15  16
HETATM   16  O2  UNL     1      12.558  -8.813   5.566  1.00  0.00    -0.365 OA
ATOM     17  H2  UNL     1      12.098  -8.210   6.138  1.00  0.00     0.213 HD
ENDBRANCH  15  16
BRANCH  15  18
HETATM   18  O3  UNL     1      13.294 -10.591   6.717  1.00  0.00    -0.365 OA
ATOM     19  H3  UNL     1      12.392 -10.577   7.015  1.00  0.00     0.213 HD
ENDBRANCH  15  18
ENDBRANCH  10  15
BRANCH  12  20
HETATM   20  N1  UNL     1      15.931 -12.075   2.969  1.00  0.00    -0.311 N 
HETATM   21  C2  UNL     1      14.750 -12.847   2.838  1.00  0.00     0.219 C 
HETATM   22  C1  UNL     1      14.744 -14.166   2.120  1.00  0.00     0.117 C 
HETATM   23  O1  UNL     1      13.695 -12.388   3.347  1.00  0.00    -0.274 OA
ATOM     24  H1  UNL     1      16.797 -12.431   2.563  1.00  0.00     0.170 HD
ENDBRANCH  12  20
BRANCH  14  25
HETATM   25  N11 UNL     1      17.979 -10.367   2.338  1.00  0.00    -0.109 N 
HETATM   26  O7  UNL     1      17.686 -10.626   1.180  1.00  0.00    -0.532 OA
HETATM   27  O8  UNL     1      19.277 -10.451   2.765  1.00  0.00    -0.532 OA
ENDBRANCH  14  25
ENDBRANCH   1   8
BRANCH   4  28
HETATM   28  N5  UNL     1      19.196  -5.467   2.804  1.00  0.00    -0.331 N 
ATOM     29  H52 UNL     1      19.790  -4.670   2.574  1.00  0.00     0.177 HD
ATOM     30  H51 UNL     1      18.451  -5.718   2.153  1.00  0.00     0.177 HD
ENDBRANCH   4  28
BRANCH   6  31
HETATM   31  N7  UNL     1      19.859  -6.933   6.609  1.00  0.00    -0.248 N 
HETATM   32  C8  UNL     1      19.113  -6.298   7.417  1.00  0.00     0.281 C 
ATOM     33  H7  UNL     1      20.866  -6.807   6.713  1.00  0.00     0.191 HD
BRANCH  32  34
HETATM   34  N8  UNL     1      19.690  -5.453   8.414  1.00  0.00    -0.202 N 
ATOM     35  H8  UNL     1      19.130  -4.722   8.852  1.00  0.00     0.197 HD
BRANCH  34  36
HETATM   36  N9  UNL     1      21.018  -5.632   8.784  1.00  0.00    -0.036 N 
HETATM   37  O4  UNL     1      21.702  -4.592   8.963  1.00  0.00    -0.516 OA
HETATM   38  O5  UNL     1      21.619  -6.841   8.962  1.00  0.00    -0.516 OA
ENDBRANCH  34  36
ENDBRANCH  32  34
BRANCH  32  39
HETATM   39  O6  UNL     1      17.735  -6.420   7.337  1.00  0.00    -0.205 OA
BRANCH  39  40
HETATM   40  N10 UNL     1      16.930  -5.366   7.068  1.00  0.00    -0.302 N 
ATOM     41 2H10 UNL     1      16.097  -5.244   7.643  1.00  0.00     0.184 HD
ATOM     42 1H10 UNL     1      17.133  -4.704   6.318  1.00  0.00     0.184 HD
ENDBRANCH  39  40
ENDBRANCH  32  39
ENDBRANCH   6  31
TORSDOF 12
ENDMDL
MODEL 4
REMARK VINA RESULT: -7.194126487      3.980      5.066
REMARK  12 active torsions:
REMARK  status: ('A' for Active; 'I' for Inactive)
REMARK       I    between atoms: C2_2  and  N1_4 
REMARK    1  A    between atoms: N1_4  and  C3_6 
REMARK    2  A    between atoms: C4_9  and  C5_10 
REMARK    3  A    between atoms: C5_10  and  O2_11 
REMARK    4  A    between atoms: C5_10  and  O3_13 
REMARK    5  A    between atoms: C6_16  and  N3_17 
REMARK       I    between atoms: N3_17  and  C7_19 
REMARK       I    between atoms: C7_19  and  N6_25 
REMARK    6  A    between atoms: N4_20  and  N5_22 
REMARK    7  A    between atoms: N6_25  and  N7_27 
REMARK    8  A    between atoms: C8_29  and  N8_30 
REMARK    9  A    between atoms: C8_29  and  O6_35 
REMARK   10  A    between atoms: N8_30  and  N9_32 
REMARK   11  A    between atoms: O6_35  and  N10_36 
REMARK   12  A    between atoms: C9_39  and  N11_40 
ROOT
HETATM    1  N3  UNL     1      15.709  -8.722   4.326  1.00  0.00    -0.180 N 
ATOM      2  H3  UNL     1      14.781  -8.369   4.091  1.00  0.00     0.185 HD
HETATM    3  C7  UNL     1      16.418  -8.016   5.295  1.00  0.00     0.712 C 
HETATM    4  N4  UNL     1      15.828  -7.507   6.297  1.00  0.00    -0.137 N 
ATOM      5  H4  UNL     1      16.404  -7.002   6.971  1.00  0.00     0.205 HD
HETATM    6  N6  UNL     1      17.825  -7.850   5.182  1.00  0.00    -0.128 N 
ATOM      7  H6  UNL     1      18.272  -7.923   4.268  1.00  0.00     0.205 HD
ENDROOT
BRANCH   1   8
HETATM    8  C6  UNL     1      16.103  -9.775   3.694  1.00  0.00     0.129 A 
HETATM    9  S1  UNL     1      17.475  -9.865   2.687  1.00  0.00    -0.051 SA
HETATM   10  C4  UNL     1      17.715 -11.405   2.002  1.00  0.00     0.110 A 
HETATM   11  N2  UNL     1      16.798 -12.306   2.354  1.00  0.00    -0.334 N 
HETATM   12  C3  UNL     1      15.754 -12.132   3.154  1.00  0.00     0.145 A 
ATOM     13  H2  UNL     1      16.912 -13.240   1.961  1.00  0.00     0.168 HD
HETATM   14  C9  UNL     1      15.404 -10.961   3.796  1.00  0.00     0.181 A 
BRANCH  10  15
HETATM   15  C5  UNL     1      18.848 -11.761   1.076  1.00  0.00     0.312 C 
BRANCH  15  16
HETATM   16  O2  UNL     1      18.708 -11.061  -0.131  1.00  0.00    -0.365 OA
ATOM     17  H2  UNL     1      18.435 -11.659  -0.817  1.00  0.00     0.213 HD
ENDBRANCH  15  16
BRANCH  15  18
HETATM   18  O3  UNL     1      20.072 -11.371   1.622  1.00  0.00    -0.365 OA
ATOM     19  H3  UNL     1      20.547 -10.813   1.017  1.00  0.00     0.213 HD
ENDBRANCH  15  18
ENDBRANCH  10  15
BRANCH  12  20
HETATM   20  N1  UNL     1      14.895 -13.263   3.390  1.00  0.00    -0.311 N 
HETATM   21  C2  UNL     1      14.393 -14.071   2.339  1.00  0.00     0.219 C 
HETATM   22  C1  UNL     1      13.498 -15.246   2.605  1.00  0.00     0.117 C 
HETATM   23  O1  UNL     1      14.725 -13.770   1.163  1.00  0.00    -0.274 OA
ATOM     24  H1  UNL     1      14.636 -13.492   4.349  1.00  0.00     0.170 HD
ENDBRANCH  12  20
BRANCH  14  25
HETATM   25  N11 UNL     1      14.231 -10.920   4.645  1.00  0.00    -0.109 N 
HETATM   26  O7  UNL     1      13.124 -11.268   4.259  1.00  0.00    -0.532 OA
HETATM   27  O8  UNL     1      14.412 -10.465   5.924  1.00  0.00    -0.532 OA
ENDBRANCH  14  25
ENDBRANCH   1   8
BRANCH   4  28
HETATM   28  N5  UNL     1      14.469  -7.579   6.556  1.00  0.00    -0.331 N 
ATOM     29  H52 UNL     1      14.005  -8.445   6.281  1.00  0.00     0.177 HD
ATOM     30  H51 UNL     1      13.907  -6.846   6.991  1.00  0.00     0.177 HD
ENDBRANCH   4  28
BRANCH   6  31
HETATM   31  N7  UNL     1      18.593  -7.590   6.307  1.00  0.00    -0.248 N 
HETATM   32  C8  UNL     1      18.854  -6.442   6.783  1.00  0.00     0.281 C 
ATOM     33  H7  UNL     1      18.984  -8.394   6.798  1.00  0.00     0.191 HD
BRANCH  32  34
HETATM   34  N8  UNL     1      19.664  -6.316   7.953  1.00  0.00    -0.202 N 
ATOM     35  H8  UNL     1      20.116  -7.138   8.354  1.00  0.00     0.197 HD
BRANCH  34  36
HETATM   36  N9  UNL     1      19.832  -5.068   8.543  1.00  0.00    -0.036 N 
HETATM   37  O4  UNL     1      18.889  -4.651   9.263  1.00  0.00    -0.516 OA
HETATM   38  O5  UNL     1      20.932  -4.280   8.394  1.00  0.00    -0.516 OA
ENDBRANCH  34  36
ENDBRANCH  32  34
BRANCH  32  39
HETATM   39  O6  UNL     1      18.355  -5.303   6.170  1.00  0.00    -0.205 OA
BRANCH  39  40
HETATM   40  N10 UNL     1      17.236  -4.679   6.606  1.00  0.00    -0.302 N 
ATOM     41 2H10 UNL     1      16.850  -3.934   6.026  1.00  0.00     0.184 HD
ATOM     42 1H10 UNL     1      16.779  -4.930   7.483  1.00  0.00     0.184 HD
ENDBRANCH  39  40
ENDBRANCH  32  39
ENDBRANCH   6  31
TORSDOF 12
ENDMDL
MODEL 5
REMARK VINA RESULT: -7.187013699      2.347      3.797
REMARK  12 active torsions:
REMARK  status: ('A' for Active; 'I' for Inactive)
REMARK       I    between atoms: C2_2  and  N1_4 
REMARK    1  A    between atoms: N1_4  and  C3_6 
REMARK    2  A    between atoms: C4_9  and  C5_10 
REMARK    3  A    between atoms: C5_10  and  O2_11 
REMARK    4  A    between atoms: C5_10  and  O3_13 
REMARK    5  A    between atoms: C6_16  and  N3_17 
REMARK       I    between atoms: N3_17  and  C7_19 
REMARK       I    between atoms: C7_19  and  N6_25 
REMARK    6  A    between atoms: N4_20  and  N5_22 
REMARK    7  A    between atoms: N6_25  and  N7_27 
REMARK    8  A    between atoms: C8_29  and  N8_30 
REMARK    9  A    between atoms: C8_29  and  O6_35 
REMARK   10  A    between atoms: N8_30  and  N9_32 
REMARK   11  A    between atoms: O6_35  and  N10_36 
REMARK   12  A    between atoms: C9_39  and  N11_40 
ROOT
HETATM    1  N3  UNL     1      18.028  -9.950   2.763  1.00  0.00    -0.180 N 
ATOM      2  H3  UNL     1      17.253 -10.573   2.536  1.00  0.00     0.185 HD
HETATM    3  C7  UNL     1      17.699  -8.632   3.072  1.00  0.00     0.712 C 
HETATM    4  N4  UNL     1      16.650  -8.358   3.733  1.00  0.00    -0.137 N 
ATOM      5  H4  UNL     1      16.465  -7.374   3.927  1.00  0.00     0.205 HD
HETATM    6  N6  UNL     1      18.534  -7.562   2.654  1.00  0.00    -0.128 N 
ATOM      7  H6  UNL     1      19.160  -7.688   1.859  1.00  0.00     0.205 HD
ENDROOT
BRANCH   1   8
HETATM    8  C6  UNL     1      19.211 -10.464   2.732  1.00  0.00     0.129 A 
HETATM    9  S1  UNL     1      20.460 -10.127   3.842  1.00  0.00    -0.051 SA
HETATM   10  C4  UNL     1      21.902 -10.973   3.519  1.00  0.00     0.110 A 
HETATM   11  N2  UNL     1      21.838 -11.768   2.451  1.00  0.00    -0.334 N 
HETATM   12  C3  UNL     1      20.804 -11.961   1.643  1.00  0.00     0.145 A 
ATOM     13  H2  UNL     1      22.686 -12.289   2.229  1.00  0.00     0.168 HD
HETATM   14  C9  UNL     1      19.563 -11.366   1.750  1.00  0.00     0.181 A 
BRANCH  10  15
HETATM   15  C5  UNL     1      23.160 -10.861   4.340  1.00  0.00     0.312 C 
BRANCH  15  16
HETATM   16  O2  UNL     1      24.169 -10.258   3.576  1.00  0.00    -0.365 OA
ATOM     17  H2  UNL     1      25.019 -10.559   3.876  1.00  0.00     0.213 HD
ENDBRANCH  15  16
BRANCH  15  18
HETATM   18  O3  UNL     1      22.954 -10.038   5.448  1.00  0.00    -0.365 OA
ATOM     19  H3  UNL     1      23.031 -10.536   6.254  1.00  0.00     0.213 HD
ENDBRANCH  15  18
ENDBRANCH  10  15
BRANCH  12  20
HETATM   20  N1  UNL     1      20.974 -12.877   0.545  1.00  0.00    -0.311 N 
HETATM   21  C2  UNL     1      21.823 -12.600  -0.555  1.00  0.00     0.219 C 
HETATM   22  C1  UNL     1      21.986 -13.569  -1.690  1.00  0.00     0.117 C 
HETATM   23  O1  UNL     1      22.442 -11.505  -0.552  1.00  0.00    -0.274 OA
ATOM     24  H1  UNL     1      20.463 -13.760   0.559  1.00  0.00     0.170 HD
ENDBRANCH  12  20
BRANCH  14  25
HETATM   25  N11 UNL     1      18.524 -11.675   0.789  1.00  0.00    -0.109 N 
HETATM   26  O7  UNL     1      18.545 -11.263  -0.362  1.00  0.00    -0.532 OA
HETATM   27  O8  UNL     1      17.493 -12.463   1.229  1.00  0.00    -0.532 OA
ENDBRANCH  14  25
ENDBRANCH   1   8
BRANCH   4  28
HETATM   28  N5  UNL     1      15.735  -9.280   4.214  1.00  0.00    -0.331 N 
ATOM     29  H52 UNL     1      14.880  -9.391   3.667  1.00  0.00     0.177 HD
ATOM     30  H51 UNL     1      15.847  -9.845   5.056  1.00  0.00     0.177 HD
ENDBRANCH   4  28
BRANCH   6  31
HETATM   31  N7  UNL     1      18.502  -6.346   3.320  1.00  0.00    -0.248 N 
HETATM   32  C8  UNL     1      19.164  -6.049   4.362  1.00  0.00     0.281 C 
ATOM     33  H7  UNL     1      17.892  -5.623   2.938  1.00  0.00     0.191 HD
BRANCH  32  34
HETATM   34  N8  UNL     1      19.036  -4.753   4.950  1.00  0.00    -0.202 N 
ATOM     35  H8  UNL     1      18.924  -4.657   5.959  1.00  0.00     0.197 HD
BRANCH  34  36
HETATM   36  N9  UNL     1      19.064  -3.624   4.139  1.00  0.00    -0.036 N 
HETATM   37  O4  UNL     1      18.111  -3.483   3.330  1.00  0.00    -0.516 OA
HETATM   38  O5  UNL     1      20.040  -2.675   4.162  1.00  0.00    -0.516 OA
ENDBRANCH  34  36
ENDBRANCH  32  34
BRANCH  32  39
HETATM   39  O6  UNL     1      20.015  -6.980   4.937  1.00  0.00    -0.205 OA
BRANCH  39  40
HETATM   40  N10 UNL     1      19.952  -7.302   6.250  1.00  0.00    -0.302 N 
ATOM     41 2H10 UNL     1      19.102  -7.062   6.759  1.00  0.00     0.184 HD
ATOM     42 1H10 UNL     1      20.719  -7.771   6.733  1.00  0.00     0.184 HD
ENDBRANCH  39  40
ENDBRANCH  32  39
ENDBRANCH   6  31
TORSDOF 12
ENDMDL
