MODEL 1
REMARK VINA RESULT: -10.345396394      0.000      0.000
REMARK  8 active torsions:
REMARK  status: ('A' for Active; 'I' for Inactive)
REMARK       I    between atoms: N1_2  and  C2_4 
REMARK       I    between atoms: C2_4  and  N2_6 
REMARK    1  A    between atoms: N2_6  and  N3_8 
REMARK    2  A    between atoms: N4_10  and  C3_12 
REMARK    3  A    between atoms: C6_19  and  N7_20 
REMARK    4  A    between atoms: N7_20  and  N8_22 
REMARK    5  A    between atoms: N8_22  and  C7_24 
REMARK    6  A    between atoms: C8_27  and  N10_28 
REMARK    7  A    between atoms: N10_28  and  N11_30 
REMARK    8  A    between atoms: N12_33  and  O5_34 
ROOT
HETATM    1  C3  UNL     1      16.374  -8.282   4.711  1.00  0.00     0.169 A 
HETATM    2  N5  UNL     1      15.902  -7.636   5.769  1.00  0.00    -0.301 N 
ATOM      3  H5  UNL     1      15.066  -8.028   6.203  1.00  0.00     0.171 HD
HETATM    4  C4  UNL     1      16.388  -6.546   6.323  1.00  0.00     0.274 A 
HETATM    5  O2  UNL     1      15.733  -6.121   7.350  1.00  0.00    -0.266 OA
HETATM    6  C5  UNL     1      17.489  -5.811   5.951  1.00  0.00     0.149 A 
HETATM    7  N6  UNL     1      17.821  -4.628   6.738  1.00  0.00    -0.093 NA
HETATM    8  C6  UNL     1      18.271  -6.154   4.878  1.00  0.00     0.122 A 
HETATM    9  S1  UNL     1      17.765  -7.565   4.043  1.00  0.00    -0.031 SA
ENDROOT
BRANCH   8  10
HETATM   10  N7  UNL     1      19.402  -5.418   4.479  1.00  0.00    -0.278 N 
ATOM     11  H7  UNL     1      20.246  -5.934   4.231  1.00  0.00     0.188 HD
BRANCH  10  12
HETATM   12  N8  UNL     1      19.439  -4.058   4.405  1.00  0.00    -0.132 N 
ATOM     13  H8  UNL     1      19.493  -3.537   5.280  1.00  0.00     0.205 HD
BRANCH  12  14
HETATM   14  C7  UNL     1      19.407  -3.312   3.186  1.00  0.00     0.691 C 
HETATM   15  N9  UNL     1      19.238  -2.031   3.297  1.00  0.00    -0.188 N 
HETATM   16  C8  UNL     1      19.161  -0.998   2.262  1.00  0.00     0.324 C 
ATOM     17  H9  UNL     1      19.145  -1.690   4.254  1.00  0.00     0.181 HD
HETATM   18  N12 UNL     1      20.167  -1.337   1.277  1.00  0.00    -0.154 NA
HETATM   19  C9  UNL     1      19.635  -2.232   0.281  1.00  0.00     0.145 C 
HETATM   20  C10 UNL     1      19.983  -3.659   0.651  1.00  0.00     0.155 C 
HETATM   21  N13 UNL     1      19.556  -4.008   1.969  1.00  0.00    -0.224 N 
ATOM     22  H13 UNL     1      19.301  -4.992   2.048  1.00  0.00     0.177 HD
BRANCH  16  23
HETATM   23  N10 UNL     1      19.421   0.298   2.806  1.00  0.00    -0.238 N 
ATOM     24  H10 UNL     1      18.924   1.111   2.444  1.00  0.00     0.190 HD
BRANCH  23  25
HETATM   25  N11 UNL     1      20.343   0.450   3.818  1.00  0.00    -0.041 N 
HETATM   26  O3  UNL     1      21.558   0.306   3.552  1.00  0.00    -0.517 OA
HETATM   27  O4  UNL     1      19.907   0.753   5.088  1.00  0.00    -0.517 OA
ENDBRANCH  23  25
ENDBRANCH  16  23
BRANCH  18  28
HETATM   28  O5  UNL     1      20.816  -0.286   0.784  1.00  0.00    -0.309 OA
ATOM     29  H5  UNL     1      21.162  -0.423  -0.091  1.00  0.00     0.237 HD
ENDBRANCH  18  28
ENDBRANCH  12  14
ENDBRANCH  10  12
ENDBRANCH   8  10
BRANCH   1  30
HETATM   30  N4  UNL     1      15.734  -9.467   4.216  1.00  0.00    -0.265 N 
HETATM   31  N3  UNL     1      14.758  -9.907   4.885  1.00  0.00    -0.237 N 
ATOM     32  H3  UNL     1      14.480  -9.405   5.728  1.00  0.00     0.208 HD
ATOM     33  H4  UNL     1      16.052  -9.932   3.366  1.00  0.00     0.190 HD
BRANCH  31  34
HETATM   34  N2  UNL     1      14.042 -11.049   4.524  1.00  0.00    -0.237 N 
HETATM   35  C2  UNL     1      14.654 -12.037   3.709  1.00  0.00     0.335 C 
HETATM   36  N1  UNL     1      13.919 -13.206   3.341  1.00  0.00    -0.346 N 
HETATM   37  O1  UNL     1      15.843 -11.865   3.319  1.00  0.00    -0.246 OA
HETATM   38  C1  UNL     1      14.499 -14.233   2.514  1.00  0.00     0.151 C 
ATOM     39  H1  UNL     1      12.960 -13.315   3.671  1.00  0.00     0.163 HD
ATOM     40  H2  UNL     1      13.083 -11.173   4.846  1.00  0.00     0.193 HD
ENDBRANCH  31  34
ENDBRANCH   1  30
TORSDOF 8
ENDMDL
MODEL 2
REMARK VINA RESULT: -10.005368970      3.649      4.464
REMARK  8 active torsions:
REMARK  status: ('A' for Active; 'I' for Inactive)
REMARK       I    between atoms: N1_2  and  C2_4 
REMARK       I    between atoms: C2_4  and  N2_6 
REMARK    1  A    between atoms: N2_6  and  N3_8 
REMARK    2  A    between atoms: N4_10  and  C3_12 
REMARK    3  A    between atoms: C6_19  and  N7_20 
REMARK    4  A    between atoms: N7_20  and  N8_22 
REMARK    5  A    between atoms: N8_22  and  C7_24 
REMARK    6  A    between atoms: C8_27  and  N10_28 
REMARK    7  A    between atoms: N10_28  and  N11_30 
REMARK    8  A    between atoms: N12_33  and  O5_34 
ROOT
HETATM    1  C3  UNL     1      19.424  -8.379   4.833  1.00  0.00     0.169 A 
HETATM    2  N5  UNL     1      18.362  -8.600   5.598  1.00  0.00    -0.301 N 
ATOM      3  H5  UNL     1      18.229  -9.559   5.919  1.00  0.00     0.171 HD
HETATM    4  C4  UNL     1      17.462  -7.724   5.989  1.00  0.00     0.274 A 
HETATM    5  O2  UNL     1      16.526  -8.205   6.734  1.00  0.00    -0.266 OA
HETATM    6  C5  UNL     1      17.393  -6.379   5.708  1.00  0.00     0.149 A 
HETATM    7  N6  UNL     1      16.281  -5.619   6.268  1.00  0.00    -0.093 NA
HETATM    8  C6  UNL     1      18.325  -5.744   4.928  1.00  0.00     0.122 A 
HETATM    9  S1  UNL     1      19.577  -6.759   4.336  1.00  0.00    -0.031 SA
ENDROOT
BRANCH   8  10
HETATM   10  N7  UNL     1      18.275  -4.371   4.627  1.00  0.00    -0.278 N 
ATOM     11  H7  UNL     1      17.373  -3.898   4.694  1.00  0.00     0.188 HD
BRANCH  10  12
HETATM   12  N8  UNL     1      19.357  -3.634   4.252  1.00  0.00    -0.132 N 
ATOM     13  H8  UNL     1      20.177  -3.654   4.857  1.00  0.00     0.205 HD
BRANCH  12  14
HETATM   14  C7  UNL     1      19.422  -2.834   3.068  1.00  0.00     0.691 C 
HETATM   15  N9  UNL     1      19.254  -1.558   3.223  1.00  0.00    -0.188 N 
HETATM   16  C8  UNL     1      19.262  -0.480   2.231  1.00  0.00     0.324 C 
ATOM     17  H9  UNL     1      19.091  -1.258   4.185  1.00  0.00     0.181 HD
HETATM   18  N12 UNL     1      20.337  -0.786   1.311  1.00  0.00    -0.154 NA
HETATM   19  C9  UNL     1      19.875  -1.631   0.239  1.00  0.00     0.145 C 
HETATM   20  C10 UNL     1      20.185  -3.076   0.571  1.00  0.00     0.155 C 
HETATM   21  N13 UNL     1      19.658  -3.478   1.836  1.00  0.00    -0.224 N 
ATOM     22  H13 UNL     1      19.390  -4.462   1.852  1.00  0.00     0.177 HD
BRANCH  16  23
HETATM   23  N10 UNL     1      19.490   0.788   2.850  1.00  0.00    -0.238 N 
ATOM     24  H10 UNL     1      19.139   1.639   2.411  1.00  0.00     0.190 HD
BRANCH  23  25
HETATM   25  N11 UNL     1      20.181   0.863   4.039  1.00  0.00    -0.041 N 
HETATM   26  O3  UNL     1      21.421   0.684   4.026  1.00  0.00    -0.517 OA
HETATM   27  O4  UNL     1      19.497   1.130   5.203  1.00  0.00    -0.517 OA
ENDBRANCH  23  25
ENDBRANCH  16  23
BRANCH  18  28
HETATM   28  O5  UNL     1      21.029   0.279   0.914  1.00  0.00    -0.309 OA
ATOM     29  H5  UNL     1      21.276   0.259  -0.003  1.00  0.00     0.237 HD
ENDBRANCH  18  28
ENDBRANCH  12  14
ENDBRANCH  10  12
ENDBRANCH   8  10
BRANCH   1  30
HETATM   30  N4  UNL     1      20.326  -9.440   4.487  1.00  0.00    -0.265 N 
HETATM   31  N3  UNL     1      21.288  -9.648   5.276  1.00  0.00    -0.237 N 
ATOM     32  H3  UNL     1      21.373  -9.061   6.105  1.00  0.00     0.208 HD
ATOM     33  H4  UNL     1      20.195  -9.998   3.644  1.00  0.00     0.190 HD
BRANCH  31  34
HETATM   34  N2  UNL     1      22.241 -10.644   5.067  1.00  0.00    -0.237 N 
HETATM   35  C2  UNL     1      23.267 -10.852   6.025  1.00  0.00     0.335 C 
HETATM   36  N1  UNL     1      24.243 -11.873   5.809  1.00  0.00    -0.346 N 
HETATM   37  O1  UNL     1      23.302 -10.126   7.058  1.00  0.00    -0.246 OA
HETATM   38  C1  UNL     1      25.303 -12.119   6.754  1.00  0.00     0.151 C 
ATOM     39  H1  UNL     1      24.188 -12.443   4.965  1.00  0.00     0.163 HD
ATOM     40  H2  UNL     1      22.201 -11.222   4.227  1.00  0.00     0.193 HD
ENDBRANCH  31  34
ENDBRANCH   1  30
TORSDOF 8
ENDMDL
MODEL 3
REMARK VINA RESULT: -9.960870418      2.088      2.333
REMARK  8 active torsions:
REMARK  status: ('A' for Active; 'I' for Inactive)
REMARK       I    between atoms: N1_2  and  C2_4 
REMARK       I    between atoms: C2_4  and  N2_6 
REMARK    1  A    between atoms: N2_6  and  N3_8 
REMARK    2  A    between atoms: N4_10  and  C3_12 
REMARK    3  A    between atoms: C6_19  and  N7_20 
REMARK    4  A    between atoms: N7_20  and  N8_22 
REMARK    5  A    between atoms: N8_22  and  C7_24 
REMARK    6  A    between atoms: C8_27  and  N10_28 
REMARK    7  A    between atoms: N10_28  and  N11_30 
REMARK    8  A    between atoms: N12_33  and  O5_34 
ROOT
HETATM    1  C3  UNL     1      17.448  -8.233   3.539  1.00  0.00     0.169 A 
HETATM    2  N5  UNL     1      16.623  -8.379   4.567  1.00  0.00    -0.301 N 
ATOM      3  H5  UNL     1      16.055  -9.226   4.574  1.00  0.00     0.171 HD
HETATM    4  C4  UNL     1      16.454  -7.555   5.579  1.00  0.00     0.274 A 
HETATM    5  O2  UNL     1      15.583  -7.939   6.450  1.00  0.00    -0.266 OA
HETATM    6  C5  UNL     1      17.077  -6.354   5.823  1.00  0.00     0.149 A 
HETATM    7  N6  UNL     1      16.707  -5.623   7.030  1.00  0.00    -0.093 NA
HETATM    8  C6  UNL     1      18.022  -5.833   4.977  1.00  0.00     0.122 A 
HETATM    9  S1  UNL     1      18.359  -6.797   3.597  1.00  0.00    -0.031 SA
ENDROOT
BRANCH   8  10
HETATM   10  N7  UNL     1      18.672  -4.607   5.205  1.00  0.00    -0.278 N 
ATOM     11  H7  UNL     1      18.375  -4.049   6.005  1.00  0.00     0.188 HD
BRANCH  10  12
HETATM   12  N8  UNL     1      19.674  -4.119   4.422  1.00  0.00    -0.132 N 
ATOM     13  H8  UNL     1      20.611  -4.499   4.559  1.00  0.00     0.205 HD
BRANCH  12  14
HETATM   14  C7  UNL     1      19.504  -3.113   3.421  1.00  0.00     0.691 C 
HETATM   15  N9  UNL     1      19.979  -1.938   3.696  1.00  0.00    -0.188 N 
HETATM   16  C8  UNL     1      19.971  -0.709   2.899  1.00  0.00     0.324 C 
ATOM     17  H9  UNL     1      20.428  -1.857   4.608  1.00  0.00     0.181 HD
HETATM   18  N12 UNL     1      20.249  -1.110   1.535  1.00  0.00    -0.154 NA
HETATM   19  C9  UNL     1      19.034  -1.449   0.839  1.00  0.00     0.145 C 
HETATM   20  C10 UNL     1      18.827  -2.949   0.892  1.00  0.00     0.155 C 
HETATM   21  N13 UNL     1      18.842  -3.462   2.225  1.00  0.00    -0.224 N 
ATOM     22  H13 UNL     1      18.230  -4.270   2.339  1.00  0.00     0.177 HD
BRANCH  16  23
HETATM   23  N10 UNL     1      20.967   0.208   3.356  1.00  0.00    -0.238 N 
ATOM     24  H10 UNL     1      21.942   0.076   3.088  1.00  0.00     0.190 HD
BRANCH  23  25
HETATM   25  N11 UNL     1      20.613   1.271   4.158  1.00  0.00    -0.041 N 
HETATM   26  O3  UNL     1      20.226   1.039   5.327  1.00  0.00    -0.517 OA
HETATM   27  O4  UNL     1      20.690   2.550   3.657  1.00  0.00    -0.517 OA
ENDBRANCH  23  25
ENDBRANCH  16  23
BRANCH  18  28
HETATM   28  O5  UNL     1      21.045  -0.272   0.878  1.00  0.00    -0.309 OA
ATOM     29  H5  UNL     1      21.002   0.625   1.188  1.00  0.00     0.237 HD
ENDBRANCH  18  28
ENDBRANCH  12  14
ENDBRANCH  10  12
ENDBRANCH   8  10
BRANCH   1  30
HETATM   30  N4  UNL     1      17.527  -9.222   2.502  1.00  0.00    -0.265 N 
HETATM   31  N3  UNL     1      18.623  -9.837   2.384  1.00  0.00    -0.237 N 
ATOM     32  H3  UNL     1      19.383  -9.602   3.022  1.00  0.00     0.208 HD
ATOM     33  H4  UNL     1      16.735  -9.419   1.890  1.00  0.00     0.190 HD
BRANCH  31  34
HETATM   34  N2  UNL     1      18.843 -10.822   1.422  1.00  0.00    -0.237 N 
HETATM   35  C2  UNL     1      17.904 -11.875   1.262  1.00  0.00     0.335 C 
HETATM   36  N1  UNL     1      18.130 -12.883   0.276  1.00  0.00    -0.346 N 
HETATM   37  O1  UNL     1      16.879 -11.904   2.000  1.00  0.00    -0.246 OA
HETATM   38  C1  UNL     1      17.206 -13.970   0.080  1.00  0.00     0.151 C 
ATOM     39  H1  UNL     1      18.968 -12.832  -0.304  1.00  0.00     0.163 HD
ATOM     40  H2  UNL     1      19.675 -10.786   0.834  1.00  0.00     0.193 HD
ENDBRANCH  31  34
ENDBRANCH   1  30
TORSDOF 8
ENDMDL
MODEL 4
REMARK VINA RESULT: -9.716394627      3.287      3.774
REMARK  8 active torsions:
REMARK  status: ('A' for Active; 'I' for Inactive)
REMARK       I    between atoms: N1_2  and  C2_4 
REMARK       I    between atoms: C2_4  and  N2_6 
REMARK    1  A    between atoms: N2_6  and  N3_8 
REMARK    2  A    between atoms: N4_10  and  C3_12 
REMARK    3  A    between atoms: C6_19  and  N7_20 
REMARK    4  A    between atoms: N7_20  and  N8_22 
REMARK    5  A    between atoms: N8_22  and  C7_24 
REMARK    6  A    between atoms: C8_27  and  N10_28 
REMARK    7  A    between atoms: N10_28  and  N11_30 
REMARK    8  A    between atoms: N12_33  and  O5_34 
ROOT
HETATM    1  C3  UNL     1      19.459  -8.342   4.836  1.00  0.00     0.169 A 
HETATM    2  N5  UNL     1      18.399  -8.574   5.600  1.00  0.00    -0.301 N 
ATOM      3  H5  UNL     1      18.281  -9.532   5.930  1.00  0.00     0.171 HD
HETATM    4  C4  UNL     1      17.483  -7.709   5.980  1.00  0.00     0.274 A 
HETATM    5  O2  UNL     1      16.553  -8.199   6.727  1.00  0.00    -0.266 OA
HETATM    6  C5  UNL     1      17.392  -6.369   5.686  1.00  0.00     0.149 A 
HETATM    7  N6  UNL     1      16.266  -5.622   6.235  1.00  0.00    -0.093 NA
HETATM    8  C6  UNL     1      18.315  -5.725   4.904  1.00  0.00     0.122 A 
HETATM    9  S1  UNL     1      19.586  -6.724   4.324  1.00  0.00    -0.031 SA
ENDROOT
BRANCH   8  10
HETATM   10  N7  UNL     1      18.243  -4.356   4.589  1.00  0.00    -0.278 N 
ATOM     11  H7  UNL     1      17.328  -3.906   4.619  1.00  0.00     0.188 HD
BRANCH  10  12
HETATM   12  N8  UNL     1      19.320  -3.595   4.247  1.00  0.00    -0.132 N 
ATOM     13  H8  UNL     1      20.122  -3.598   4.877  1.00  0.00     0.205 HD
BRANCH  12  14
HETATM   14  C7  UNL     1      19.403  -2.794   3.066  1.00  0.00     0.691 C 
HETATM   15  N9  UNL     1      19.238  -1.517   3.221  1.00  0.00    -0.188 N 
HETATM   16  C8  UNL     1      19.264  -0.437   2.232  1.00  0.00     0.324 C 
ATOM     17  H9  UNL     1      19.064  -1.219   4.181  1.00  0.00     0.181 HD
HETATM   18  N12 UNL     1      20.350  -0.745   1.325  1.00  0.00    -0.154 NA
HETATM   19  C9  UNL     1      19.899  -1.586   0.246  1.00  0.00     0.145 C 
HETATM   20  C10 UNL     1      20.199  -3.034   0.578  1.00  0.00     0.155 C 
HETATM   21  N13 UNL     1      19.654  -3.436   1.836  1.00  0.00    -0.224 N 
ATOM     22  H13 UNL     1      19.382  -4.419   1.846  1.00  0.00     0.177 HD
BRANCH  16  23
HETATM   23  N10 UNL     1      19.487   0.829   2.857  1.00  0.00    -0.238 N 
ATOM     24  H10 UNL     1      19.154   1.683   2.410  1.00  0.00     0.190 HD
BRANCH  23  25
HETATM   25  N11 UNL     1      20.153   0.898   4.061  1.00  0.00    -0.041 N 
HETATM   26  O3  UNL     1      21.393   0.718   4.074  1.00  0.00    -0.517 OA
HETATM   27  O4  UNL     1      19.444   1.159   5.211  1.00  0.00    -0.517 OA
ENDBRANCH  23  25
ENDBRANCH  16  23
BRANCH  18  28
HETATM   28  O5  UNL     1      21.050   0.318   0.940  1.00  0.00    -0.309 OA
ATOM     29  H5  UNL     1      20.910   0.564   0.033  1.00  0.00     0.237 HD
ENDBRANCH  18  28
ENDBRANCH  12  14
ENDBRANCH  10  12
ENDBRANCH   8  10
BRANCH   1  30
HETATM   30  N4  UNL     1      20.380  -9.391   4.503  1.00  0.00    -0.265 N 
HETATM   31  N3  UNL     1      21.392  -9.516   5.246  1.00  0.00    -0.237 N 
ATOM     32  H3  UNL     1      21.501  -8.876   6.032  1.00  0.00     0.208 HD
ATOM     33  H4  UNL     1      20.224 -10.005   3.704  1.00  0.00     0.190 HD
BRANCH  31  34
HETATM   34  N2  UNL     1      22.369 -10.490   5.042  1.00  0.00    -0.237 N 
HETATM   35  C2  UNL     1      22.084 -11.616   4.226  1.00  0.00     0.335 C 
HETATM   36  N1  UNL     1      23.086 -12.613   4.018  1.00  0.00    -0.346 N 
HETATM   37  O1  UNL     1      20.942 -11.721   3.697  1.00  0.00    -0.246 OA
HETATM   38  C1  UNL     1      22.840 -13.773   3.200  1.00  0.00     0.151 C 
ATOM     39  H1  UNL     1      23.999 -12.500   4.460  1.00  0.00     0.163 HD
ATOM     40  H2  UNL     1      23.287 -10.393   5.476  1.00  0.00     0.193 HD
ENDBRANCH  31  34
ENDBRANCH   1  30
TORSDOF 8
ENDMDL
MODEL 5
REMARK VINA RESULT: -9.378004032      1.742      2.761
REMARK  8 active torsions:
REMARK  status: ('A' for Active; 'I' for Inactive)
REMARK       I    between atoms: N1_2  and  C2_4 
REMARK       I    between atoms: C2_4  and  N2_6 
REMARK    1  A    between atoms: N2_6  and  N3_8 
REMARK    2  A    between atoms: N4_10  and  C3_12 
REMARK    3  A    between atoms: C6_19  and  N7_20 
REMARK    4  A    between atoms: N7_20  and  N8_22 
REMARK    5  A    between atoms: N8_22  and  C7_24 
REMARK    6  A    between atoms: C8_27  and  N10_28 
REMARK    7  A    between atoms: N10_28  and  N11_30 
REMARK    8  A    between atoms: N12_33  and  O5_34 
ROOT
HETATM    1  C3  UNL     1      16.879  -8.294   4.788  1.00  0.00     0.169 A 
HETATM    2  N5  UNL     1      16.515  -7.362   5.660  1.00  0.00    -0.301 N 
ATOM      3  H5  UNL     1      15.757  -7.609   6.296  1.00  0.00     0.171 HD
HETATM    4  C4  UNL     1      17.020  -6.155   5.796  1.00  0.00     0.274 A 
HETATM    5  O2  UNL     1      16.481  -5.444   6.728  1.00  0.00    -0.266 OA
HETATM    6  C5  UNL     1      18.034  -5.562   5.082  1.00  0.00     0.149 A 
HETATM    7  N6  UNL     1      18.412  -4.197   5.432  1.00  0.00    -0.093 NA
HETATM    8  C6  UNL     1      18.691  -6.208   4.066  1.00  0.00     0.122 A 
HETATM    9  S1  UNL     1      18.145  -7.806   3.761  1.00  0.00    -0.031 SA
ENDROOT
BRANCH   8  10
HETATM   10  N7  UNL     1      19.731  -5.622   3.322  1.00  0.00    -0.278 N 
ATOM     11  H7  UNL     1      20.681  -5.696   3.686  1.00  0.00     0.188 HD
BRANCH  10  12
HETATM   12  N8  UNL     1      19.547  -4.961   2.146  1.00  0.00    -0.132 N 
ATOM     13  H8  UNL     1      19.406  -5.519   1.305  1.00  0.00     0.205 HD
BRANCH  12  14
HETATM   14  C7  UNL     1      19.537  -3.537   2.009  1.00  0.00     0.691 C 
HETATM   15  N9  UNL     1      19.049  -3.066   0.905  1.00  0.00    -0.188 N 
HETATM   16  C8  UNL     1      18.895  -1.679   0.458  1.00  0.00     0.324 C 
ATOM     17  H9  UNL     1      18.721  -3.771   0.243  1.00  0.00     0.181 HD
HETATM   18  N12 UNL     1      18.459  -0.928   1.617  1.00  0.00    -0.154 NA
HETATM   19  C9  UNL     1      19.586  -0.452   2.378  1.00  0.00     0.145 C 
HETATM   20  C10 UNL     1      19.868  -1.414   3.514  1.00  0.00     0.155 C 
HETATM   21  N13 UNL     1      20.052  -2.758   3.067  1.00  0.00    -0.224 N 
ATOM     22  H13 UNL     1      20.710  -3.276   3.648  1.00  0.00     0.177 HD
BRANCH  16  23
HETATM   23  N10 UNL     1      17.926  -1.578  -0.587  1.00  0.00    -0.238 N 
ATOM     24  H10 UNL     1      17.041  -2.079  -0.511  1.00  0.00     0.190 HD
BRANCH  23  25
HETATM   25  N11 UNL     1      18.186  -0.806  -1.698  1.00  0.00    -0.041 N 
HETATM   26  O3  UNL     1      18.261  -1.365  -2.816  1.00  0.00    -0.517 OA
HETATM   27  O4  UNL     1      18.355   0.552  -1.551  1.00  0.00    -0.517 OA
ENDBRANCH  23  25
ENDBRANCH  16  23
BRANCH  18  28
HETATM   28  O5  UNL     1      17.545  -0.001   1.347  1.00  0.00    -0.309 OA
ATOM     29  H5  UNL     1      16.829   0.027   1.971  1.00  0.00     0.237 HD
ENDBRANCH  18  28
ENDBRANCH  12  14
ENDBRANCH  10  12
ENDBRANCH   8  10
BRANCH   1  30
HETATM   30  N4  UNL     1      16.233  -9.575   4.756  1.00  0.00    -0.265 N 
HETATM   31  N3  UNL     1      15.011  -9.588   4.440  1.00  0.00    -0.237 N 
ATOM     32  H3  UNL     1      14.555  -8.701   4.226  1.00  0.00     0.208 HD
ATOM     33  H4  UNL     1      16.737 -10.433   4.978  1.00  0.00     0.190 HD
BRANCH  31  34
HETATM   34  N2  UNL     1      14.257 -10.758   4.368  1.00  0.00    -0.237 N 
HETATM   35  C2  UNL     1      14.749 -11.872   3.638  1.00  0.00     0.335 C 
HETATM   36  N1  UNL     1      13.975 -13.071   3.566  1.00  0.00    -0.346 N 
HETATM   37  O1  UNL     1      15.869 -11.785   3.061  1.00  0.00    -0.246 OA
HETATM   38  C1  UNL     1      14.435 -14.225   2.837  1.00  0.00     0.151 C 
ATOM     39  H1  UNL     1      13.074 -13.110   4.043  1.00  0.00     0.163 HD
ATOM     40  H2  UNL     1      13.354 -10.814   4.838  1.00  0.00     0.193 HD
ENDBRANCH  31  34
ENDBRANCH   1  30
TORSDOF 8
ENDMDL
