MODEL 1
REMARK VINA RESULT: -8.406593796      0.000      0.000
REMARK  11 active torsions:
REMARK  status: ('A' for Active; 'I' for Inactive)
REMARK    1  A    between atoms: N1_2  and  N2_3 
REMARK    2  A    between atoms: N3_6  and  C4_7 
REMARK    3  A    between atoms: C6_12  and  N5_13 
REMARK    4  A    between atoms: N5_13  and  C7_15 
REMARK    5  A    between atoms: N7_19  and  C9_20 
REMARK    6  A    between atoms: C9_20  and  O1_21 
REMARK    7  A    between atoms: C9_20  and  N8_23 
REMARK       I    between atoms: N8_23  and  C10_25 
REMARK    8  A    between atoms: C10_25  and  C11_27 
REMARK    9  A    between atoms: C11_27  and  O3_28 
REMARK   10  A    between atoms: C11_27  and  C12_30 
REMARK   11  A    between atoms: C12_30  and  O4_32 
ROOT
HETATM    1  C7  UNL     1      19.016  -4.379   4.543  1.00  0.00     0.695 C 
HETATM    2  N6  UNL     1      17.819  -4.424   5.019  1.00  0.00    -0.211 N 
ATOM      3  H6  UNL     1      17.265  -3.575   5.131  1.00  0.00     0.179 HD
HETATM    4  C8  UNL     1      17.283  -5.720   5.388  1.00  0.00     0.259 C 
HETATM    5  N7  UNL     1      18.278  -6.569   6.000  1.00  0.00    -0.151 NA
HETATM    6  N9  UNL     1      19.462  -6.620   5.313  1.00  0.00    -0.243 N 
ATOM      7  H9  UNL     1      20.129  -7.378   5.458  1.00  0.00     0.203 HD
HETATM    8  N10 UNL     1      19.711  -5.608   4.420  1.00  0.00    -0.122 N 
ATOM      9  H10 UNL     1      20.392  -5.739   3.673  1.00  0.00     0.206 HD
ENDROOT
BRANCH   1  10
HETATM   10  N5  UNL     1      19.631  -3.133   4.149  1.00  0.00    -0.181 N 
ATOM     11  H5  UNL     1      19.993  -2.482   4.846  1.00  0.00     0.185 HD
BRANCH  10  12
HETATM   12  C6  UNL     1      19.716  -2.836   2.743  1.00  0.00     0.134 A 
HETATM   13  C4  UNL     1      19.903  -1.675   2.058  1.00  0.00     0.083 A 
HETATM   14  C5  UNL     1      19.970  -1.787   0.694  1.00  0.00     0.128 A 
HETATM   15  N4  UNL     1      19.849  -2.991   0.166  1.00  0.00    -0.333 N 
HETATM   16  S1  UNL     1      19.643  -4.009   1.465  1.00  0.00     0.006 SA
ATOM     17  H4  UNL     1      19.876  -3.241  -0.823  1.00  0.00     0.173 HD
BRANCH  13  18
HETATM   18  N3  UNL     1      19.985  -0.364   2.688  1.00  0.00    -0.363 N 
HETATM   19  C3  UNL     1      21.199   0.382   2.993  1.00  0.00     0.140 C 
HETATM   20  C2  UNL     1      20.743   1.802   2.640  1.00  0.00     0.131 C 
HETATM   21  N2  UNL     1      19.373   1.859   3.069  1.00  0.00    -0.216 NA
HETATM   22  C14 UNL     1      18.892   0.464   3.082  1.00  0.00     0.233 C 
BRANCH  21  23
HETATM   23  N1  UNL     1      18.558   2.637   2.273  1.00  0.00    -0.168 NA
HETATM   24  C1  UNL     1      19.152   3.882   1.881  1.00  0.00     0.152 C 
ENDBRANCH  21  23
ENDBRANCH  13  18
ENDBRANCH  10  12
ENDBRANCH   1  10
BRANCH   5  25
HETATM   25  C9  UNL     1      18.382  -6.227   7.384  1.00  0.00     0.324 C 
BRANCH  25  26
HETATM   26  O1  UNL     1      17.848  -4.994   7.673  1.00  0.00    -0.362 OA
ATOM     27  H1  UNL     1      17.323  -4.994   8.464  1.00  0.00     0.213 HD
ENDBRANCH  25  26
BRANCH  25  28
HETATM   28  N8  UNL     1      19.748  -6.280   7.861  1.00  0.00    -0.319 N 
HETATM   29  C10 UNL     1      20.075  -5.931   9.178  1.00  0.00     0.252 C 
HETATM   30  O2  UNL     1      19.147  -5.561   9.963  1.00  0.00    -0.270 OA
ATOM     31  H8  UNL     1      20.488  -6.579   7.226  1.00  0.00     0.166 HD
BRANCH  29  32
HETATM   32  C11 UNL     1      21.481  -5.997   9.630  1.00  0.00     0.238 C 
BRANCH  32  33
HETATM   33  O3  UNL     1      22.099  -7.119   9.116  1.00  0.00    -0.384 OA
ATOM     34  H3  UNL     1      22.832  -7.374   9.665  1.00  0.00     0.210 HD
ENDBRANCH  32  33
BRANCH  32  35
HETATM   35  C12 UNL     1      21.592  -5.974  11.152  1.00  0.00     0.152 C 
HETATM   36  C13 UNL     1      22.769  -5.107  11.526  1.00  0.00     0.042 C 
BRANCH  35  37
HETATM   37  O4  UNL     1      21.767  -7.272  11.621  1.00  0.00    -0.393 OA
ATOM     38  H4  UNL     1      21.173  -7.427  12.347  1.00  0.00     0.210 HD
ENDBRANCH  35  37
ENDBRANCH  32  35
ENDBRANCH  29  32
ENDBRANCH  25  28
ENDBRANCH   5  25
TORSDOF 11
ENDMDL
MODEL 2
REMARK VINA RESULT: -8.351467726      4.640      9.074
REMARK  11 active torsions:
REMARK  status: ('A' for Active; 'I' for Inactive)
REMARK    1  A    between atoms: N1_2  and  N2_3 
REMARK    2  A    between atoms: N3_6  and  C4_7 
REMARK    3  A    between atoms: C6_12  and  N5_13 
REMARK    4  A    between atoms: N5_13  and  C7_15 
REMARK    5  A    between atoms: N7_19  and  C9_20 
REMARK    6  A    between atoms: C9_20  and  O1_21 
REMARK    7  A    between atoms: C9_20  and  N8_23 
REMARK       I    between atoms: N8_23  and  C10_25 
REMARK    8  A    between atoms: C10_25  and  C11_27 
REMARK    9  A    between atoms: C11_27  and  O3_28 
REMARK   10  A    between atoms: C11_27  and  C12_30 
REMARK   11  A    between atoms: C12_30  and  O4_32 
ROOT
HETATM    1  C7  UNL     1      17.858  -6.876   6.004  1.00  0.00     0.695 C 
HETATM    2  N6  UNL     1      16.967  -6.065   5.543  1.00  0.00    -0.211 N 
ATOM      3  H6  UNL     1      16.100  -6.414   5.133  1.00  0.00     0.179 HD
HETATM    4  C8  UNL     1      17.236  -4.643   5.626  1.00  0.00     0.259 C 
HETATM    5  N7  UNL     1      18.622  -4.332   5.365  1.00  0.00    -0.151 NA
HETATM    6  N9  UNL     1      19.506  -5.116   6.057  1.00  0.00    -0.243 N 
ATOM      7  H9  UNL     1      20.475  -4.830   6.195  1.00  0.00     0.203 HD
HETATM    8  N10 UNL     1      19.031  -6.303   6.556  1.00  0.00    -0.122 N 
ATOM      9  H10 UNL     1      19.519  -6.771   7.320  1.00  0.00     0.206 HD
ENDROOT
BRANCH   1  10
HETATM   10  N5  UNL     1      17.676  -8.308   5.963  1.00  0.00    -0.181 N 
ATOM     11  H5  UNL     1      18.413  -8.941   6.274  1.00  0.00     0.185 HD
BRANCH  10  12
HETATM   12  C6  UNL     1      16.422  -8.816   5.473  1.00  0.00     0.134 A 
HETATM   13  C4  UNL     1      16.091  -9.532   4.363  1.00  0.00     0.083 A 
HETATM   14  C5  UNL     1      14.771  -9.879   4.245  1.00  0.00     0.128 A 
HETATM   15  N4  UNL     1      13.942  -9.494   5.198  1.00  0.00    -0.333 N 
HETATM   16  S1  UNL     1      14.892  -8.662   6.280  1.00  0.00     0.006 SA
ATOM     17  H4  UNL     1      12.938  -9.669   5.257  1.00  0.00     0.173 HD
BRANCH  13  18
HETATM   18  N3  UNL     1      17.037  -9.893   3.317  1.00  0.00    -0.363 N 
HETATM   19  C3  UNL     1      18.227  -9.149   2.922  1.00  0.00     0.140 C 
HETATM   20  C2  UNL     1      19.202 -10.304   2.672  1.00  0.00     0.131 C 
HETATM   21  N2  UNL     1      18.396 -11.335   2.077  1.00  0.00    -0.216 NA
HETATM   22  C14 UNL     1      17.010 -11.069   2.509  1.00  0.00     0.233 C 
BRANCH  21  23
HETATM   23  N1  UNL     1      18.765 -12.618   2.422  1.00  0.00    -0.168 NA
HETATM   24  C1  UNL     1      19.572 -13.273   1.433  1.00  0.00     0.152 C 
ENDBRANCH  21  23
ENDBRANCH  13  18
ENDBRANCH  10  12
ENDBRANCH   1  10
BRANCH   5  25
HETATM   25  C9  UNL     1      18.820  -4.279   3.950  1.00  0.00     0.324 C 
BRANCH  25  26
HETATM   26  O1  UNL     1      19.542  -5.346   3.470  1.00  0.00    -0.362 OA
ATOM     27  H1  UNL     1      20.477  -5.181   3.453  1.00  0.00     0.213 HD
ENDBRANCH  25  26
BRANCH  25  28
HETATM   28  N8  UNL     1      19.451  -3.045   3.531  1.00  0.00    -0.319 N 
HETATM   29  C10 UNL     1      19.244  -2.519   2.249  1.00  0.00     0.252 C 
HETATM   30  O2  UNL     1      18.485  -3.144   1.444  1.00  0.00    -0.270 OA
ATOM     31  H8  UNL     1      20.059  -2.549   4.182  1.00  0.00     0.166 HD
BRANCH  29  32
HETATM   32  C11 UNL     1      19.906  -1.257   1.856  1.00  0.00     0.238 C 
BRANCH  32  33
HETATM   33  O3  UNL     1      20.819  -1.486   0.846  1.00  0.00    -0.384 OA
ATOM     34  H3  UNL     1      21.049  -0.670   0.417  1.00  0.00     0.210 HD
ENDBRANCH  32  33
BRANCH  32  35
HETATM   35  C12 UNL     1      20.582  -0.575   3.043  1.00  0.00     0.152 C 
HETATM   36  C13 UNL     1      19.733   0.602   3.456  1.00  0.00     0.042 C 
BRANCH  35  37
HETATM   37  O4  UNL     1      21.856  -0.157   2.670  1.00  0.00    -0.393 OA
ATOM     38  H4  UNL     1      22.255   0.316   3.391  1.00  0.00     0.210 HD
ENDBRANCH  35  37
ENDBRANCH  32  35
ENDBRANCH  29  32
ENDBRANCH  25  28
ENDBRANCH   5  25
TORSDOF 11
ENDMDL
MODEL 3
REMARK VINA RESULT: -8.307153942      2.646      4.435
REMARK  11 active torsions:
REMARK  status: ('A' for Active; 'I' for Inactive)
REMARK    1  A    between atoms: N1_2  and  N2_3 
REMARK    2  A    between atoms: N3_6  and  C4_7 
REMARK    3  A    between atoms: C6_12  and  N5_13 
REMARK    4  A    between atoms: N5_13  and  C7_15 
REMARK    5  A    between atoms: N7_19  and  C9_20 
REMARK    6  A    between atoms: C9_20  and  O1_21 
REMARK    7  A    between atoms: C9_20  and  N8_23 
REMARK       I    between atoms: N8_23  and  C10_25 
REMARK    8  A    between atoms: C10_25  and  C11_27 
REMARK    9  A    between atoms: C11_27  and  O3_28 
REMARK   10  A    between atoms: C11_27  and  C12_30 
REMARK   11  A    between atoms: C12_30  and  O4_32 
ROOT
HETATM    1  C7  UNL     1      18.902  -4.051   3.902  1.00  0.00     0.695 C 
HETATM    2  N6  UNL     1      18.517  -5.261   3.681  1.00  0.00    -0.211 N 
ATOM      3  H6  UNL     1      17.887  -5.481   2.908  1.00  0.00     0.179 HD
HETATM    4  C8  UNL     1      19.007  -6.301   4.564  1.00  0.00     0.259 C 
HETATM    5  N7  UNL     1      19.079  -5.862   5.938  1.00  0.00    -0.151 NA
HETATM    6  N9  UNL     1      19.690  -4.647   6.101  1.00  0.00    -0.243 N 
ATOM      7  H9  UNL     1      20.063  -4.357   7.005  1.00  0.00     0.203 HD
HETATM    8  N10 UNL     1      19.777  -3.839   4.996  1.00  0.00    -0.122 N 
ATOM      9  H10 UNL     1      20.468  -3.089   4.962  1.00  0.00     0.206 HD
ENDROOT
BRANCH   1  10
HETATM   10  N5  UNL     1      18.464  -2.951   3.074  1.00  0.00    -0.181 N 
ATOM     11  H5  UNL     1      17.574  -2.484   3.248  1.00  0.00     0.185 HD
BRANCH  10  12
HETATM   12  C6  UNL     1      19.320  -2.535   1.995  1.00  0.00     0.134 A 
HETATM   13  C4  UNL     1      19.959  -1.363   1.726  1.00  0.00     0.083 A 
HETATM   14  C5  UNL     1      20.737  -1.348   0.600  1.00  0.00     0.128 A 
HETATM   15  N4  UNL     1      20.802  -2.452  -0.123  1.00  0.00    -0.333 N 
HETATM   16  S1  UNL     1      19.831  -3.542   0.675  1.00  0.00     0.006 SA
ATOM     17  H4  UNL     1      21.332  -2.602  -0.982  1.00  0.00     0.173 HD
BRANCH  13  18
HETATM   18  N3  UNL     1      19.817  -0.158   2.533  1.00  0.00    -0.363 N 
HETATM   19  C3  UNL     1      20.873   0.529   3.266  1.00  0.00     0.140 C 
HETATM   20  C2  UNL     1      20.482   1.988   3.004  1.00  0.00     0.131 C 
HETATM   21  N2  UNL     1      19.045   1.990   3.038  1.00  0.00    -0.216 NA
HETATM   22  C14 UNL     1      18.629   0.610   2.720  1.00  0.00     0.233 C 
BRANCH  21  23
HETATM   23  N1  UNL     1      18.455   2.879   2.163  1.00  0.00    -0.168 NA
HETATM   24  C1  UNL     1      19.294   3.989   1.816  1.00  0.00     0.152 C 
ENDBRANCH  21  23
ENDBRANCH  13  18
ENDBRANCH  10  12
ENDBRANCH   1  10
BRANCH   5  25
HETATM   25  C9  UNL     1      17.782  -5.986   6.526  1.00  0.00     0.324 C 
BRANCH  25  26
HETATM   26  O1  UNL     1      17.811  -5.935   7.900  1.00  0.00    -0.362 OA
ATOM     27  H1  UNL     1      17.482  -5.114   8.246  1.00  0.00     0.213 HD
ENDBRANCH  25  26
BRANCH  25  28
HETATM   28  N8  UNL     1      17.102  -7.193   6.106  1.00  0.00    -0.319 N 
HETATM   29  C10 UNL     1      15.766  -7.435   6.452  1.00  0.00     0.252 C 
HETATM   30  O2  UNL     1      15.146  -6.572   7.148  1.00  0.00    -0.270 OA
ATOM     31  H8  UNL     1      17.605  -7.881   5.546  1.00  0.00     0.166 HD
BRANCH  29  32
HETATM   32  C11 UNL     1      15.104  -8.679   6.004  1.00  0.00     0.238 C 
BRANCH  32  33
HETATM   33  O3  UNL     1      15.283  -8.859   4.648  1.00  0.00    -0.384 OA
ATOM     34  H3  UNL     1      14.543  -8.509   4.166  1.00  0.00     0.210 HD
ENDBRANCH  32  33
BRANCH  32  35
HETATM   35  C12 UNL     1      13.618  -8.691   6.354  1.00  0.00     0.152 C 
HETATM   36  C13 UNL     1      13.311  -9.985   7.066  1.00  0.00     0.042 C 
BRANCH  35  37
HETATM   37  O4  UNL     1      12.869  -8.581   5.186  1.00  0.00    -0.393 OA
ATOM     38  H4  UNL     1      12.003  -8.945   5.332  1.00  0.00     0.210 HD
ENDBRANCH  35  37
ENDBRANCH  32  35
ENDBRANCH  29  32
ENDBRANCH  25  28
ENDBRANCH   5  25
TORSDOF 11
ENDMDL
MODEL 4
REMARK VINA RESULT: -8.300460927      4.208      8.771
REMARK  11 active torsions:
REMARK  status: ('A' for Active; 'I' for Inactive)
REMARK    1  A    between atoms: N1_2  and  N2_3 
REMARK    2  A    between atoms: N3_6  and  C4_7 
REMARK    3  A    between atoms: C6_12  and  N5_13 
REMARK    4  A    between atoms: N5_13  and  C7_15 
REMARK    5  A    between atoms: N7_19  and  C9_20 
REMARK    6  A    between atoms: C9_20  and  O1_21 
REMARK    7  A    between atoms: C9_20  and  N8_23 
REMARK       I    between atoms: N8_23  and  C10_25 
REMARK    8  A    between atoms: C10_25  and  C11_27 
REMARK    9  A    between atoms: C11_27  and  O3_28 
REMARK   10  A    between atoms: C11_27  and  C12_30 
REMARK   11  A    between atoms: C12_30  and  O4_32 
ROOT
HETATM    1  C7  UNL     1      17.842  -6.896   5.954  1.00  0.00     0.695 C 
HETATM    2  N6  UNL     1      16.938  -6.078   5.536  1.00  0.00    -0.211 N 
ATOM      3  H6  UNL     1      16.060  -6.420   5.142  1.00  0.00     0.179 HD
HETATM    4  C8  UNL     1      17.206  -4.657   5.642  1.00  0.00     0.259 C 
HETATM    5  N7  UNL     1      18.584  -4.338   5.350  1.00  0.00    -0.151 NA
HETATM    6  N9  UNL     1      19.488  -5.135   6.000  1.00  0.00    -0.243 N 
ATOM      7  H9  UNL     1      20.460  -4.850   6.118  1.00  0.00     0.203 HD
HETATM    8  N10 UNL     1      19.029  -6.334   6.486  1.00  0.00    -0.122 N 
ATOM      9  H10 UNL     1      19.538  -6.817   7.226  1.00  0.00     0.206 HD
ENDROOT
BRANCH   1  10
HETATM   10  N5  UNL     1      17.661  -8.328   5.888  1.00  0.00    -0.181 N 
ATOM     11  H5  UNL     1      17.475  -8.874   6.729  1.00  0.00     0.185 HD
BRANCH  10  12
HETATM   12  C6  UNL     1      17.750  -8.961   4.599  1.00  0.00     0.134 A 
HETATM   13  C4  UNL     1      16.827  -9.580   3.812  1.00  0.00     0.083 A 
HETATM   14  C5  UNL     1      17.279 -10.039   2.603  1.00  0.00     0.128 A 
HETATM   15  N4  UNL     1      18.552  -9.849   2.306  1.00  0.00    -0.333 N 
HETATM   16  S1  UNL     1      19.184  -9.054   3.623  1.00  0.00     0.006 SA
ATOM     17  H4  UNL     1      19.040 -10.129   1.455  1.00  0.00     0.173 HD
BRANCH  13  18
HETATM   18  N3  UNL     1      15.443  -9.805   4.207  1.00  0.00    -0.363 N 
HETATM   19  C3  UNL     1      14.703 -11.057   4.116  1.00  0.00     0.140 C 
HETATM   20  C2  UNL     1      13.911 -11.003   5.427  1.00  0.00     0.131 C 
HETATM   21  N2  UNL     1      13.562  -9.618   5.582  1.00  0.00    -0.216 NA
HETATM   22  C14 UNL     1      14.561  -8.857   4.806  1.00  0.00     0.233 C 
BRANCH  21  23
HETATM   23  N1  UNL     1      13.538  -9.177   6.889  1.00  0.00    -0.168 NA
HETATM   24  C1  UNL     1      13.987  -7.825   7.050  1.00  0.00     0.152 C 
ENDBRANCH  21  23
ENDBRANCH  13  18
ENDBRANCH  10  12
ENDBRANCH   1  10
BRANCH   5  25
HETATM   25  C9  UNL     1      18.743  -4.254   3.931  1.00  0.00     0.324 C 
BRANCH  25  26
HETATM   26  O1  UNL     1      19.414  -5.331   3.403  1.00  0.00    -0.362 OA
ATOM     27  H1  UNL     1      19.185  -6.151   3.822  1.00  0.00     0.213 HD
ENDBRANCH  25  26
BRANCH  25  28
HETATM   28  N8  UNL     1      19.404  -3.031   3.526  1.00  0.00    -0.319 N 
HETATM   29  C10 UNL     1      19.206  -2.483   2.251  1.00  0.00     0.252 C 
HETATM   30  O2  UNL     1      18.428  -3.078   1.442  1.00  0.00    -0.270 OA
ATOM     31  H8  UNL     1      20.027  -2.558   4.181  1.00  0.00     0.166 HD
BRANCH  29  32
HETATM   32  C11 UNL     1      19.898  -1.233   1.872  1.00  0.00     0.238 C 
BRANCH  32  33
HETATM   33  O3  UNL     1      20.819  -1.477   0.873  1.00  0.00    -0.384 OA
ATOM     34  H3  UNL     1      20.864  -0.738   0.278  1.00  0.00     0.210 HD
ENDBRANCH  32  33
BRANCH  32  35
HETATM   35  C12 UNL     1      20.572  -0.569   3.070  1.00  0.00     0.152 C 
HETATM   36  C13 UNL     1      19.730   0.609   3.492  1.00  0.00     0.042 C 
BRANCH  35  37
HETATM   37  O4  UNL     1      21.852  -0.158   2.710  1.00  0.00    -0.393 OA
ATOM     38  H4  UNL     1      22.492  -0.741   3.101  1.00  0.00     0.210 HD
ENDBRANCH  35  37
ENDBRANCH  32  35
ENDBRANCH  29  32
ENDBRANCH  25  28
ENDBRANCH   5  25
TORSDOF 11
ENDMDL
MODEL 5
REMARK VINA RESULT: -8.294195077      5.981      7.661
REMARK  11 active torsions:
REMARK  status: ('A' for Active; 'I' for Inactive)
REMARK    1  A    between atoms: N1_2  and  N2_3 
REMARK    2  A    between atoms: N3_6  and  C4_7 
REMARK    3  A    between atoms: C6_12  and  N5_13 
REMARK    4  A    between atoms: N5_13  and  C7_15 
REMARK    5  A    between atoms: N7_19  and  C9_20 
REMARK    6  A    between atoms: C9_20  and  O1_21 
REMARK    7  A    between atoms: C9_20  and  N8_23 
REMARK       I    between atoms: N8_23  and  C10_25 
REMARK    8  A    between atoms: C10_25  and  C11_27 
REMARK    9  A    between atoms: C11_27  and  O3_28 
REMARK   10  A    between atoms: C11_27  and  C12_30 
REMARK   11  A    between atoms: C12_30  and  O4_32 
ROOT
HETATM    1  C7  UNL     1      21.820  -9.760   4.837  1.00  0.00     0.695 C 
HETATM    2  N6  UNL     1      21.917 -10.522   5.873  1.00  0.00    -0.211 N 
ATOM      3  H6  UNL     1      21.293 -10.405   6.672  1.00  0.00     0.179 HD
HETATM    4  C8  UNL     1      22.939 -11.550   5.867  1.00  0.00     0.259 C 
HETATM    5  N7  UNL     1      24.165 -11.097   5.253  1.00  0.00    -0.151 NA
HETATM    6  N9  UNL     1      23.985 -10.472   4.048  1.00  0.00    -0.243 N 
ATOM      7  H9  UNL     1      24.751 -10.366   3.384  1.00  0.00     0.203 HD
HETATM    8  N10 UNL     1      22.728  -9.995   3.774  1.00  0.00    -0.122 N 
ATOM      9  H10 UNL     1      22.447  -9.810   2.811  1.00  0.00     0.206 HD
ENDROOT
BRANCH   1  10
HETATM   10  N5  UNL     1      20.831  -8.711   4.755  1.00  0.00    -0.181 N 
ATOM     11  H5  UNL     1      21.017  -7.782   5.135  1.00  0.00     0.185 HD
BRANCH  10  12
HETATM   12  C6  UNL     1      19.575  -9.014   4.122  1.00  0.00     0.134 A 
HETATM   13  C4  UNL     1      18.313  -8.541   4.310  1.00  0.00     0.083 A 
HETATM   14  C5  UNL     1      17.352  -9.046   3.474  1.00  0.00     0.128 A 
HETATM   15  N4  UNL     1      17.722  -9.937   2.573  1.00  0.00    -0.333 N 
HETATM   16  S1  UNL     1      19.358 -10.128   2.808  1.00  0.00     0.006 SA
ATOM     17  H4  UNL     1      17.134 -10.405   1.883  1.00  0.00     0.173 HD
BRANCH  13  18
HETATM   18  N3  UNL     1      17.948  -7.590   5.351  1.00  0.00    -0.363 N 
HETATM   19  C3  UNL     1      18.297  -6.176   5.402  1.00  0.00     0.140 C 
HETATM   20  C2  UNL     1      16.990  -5.590   5.948  1.00  0.00     0.131 C 
HETATM   21  N2  UNL     1      16.527  -6.564   6.898  1.00  0.00    -0.216 NA
HETATM   22  C14 UNL     1      17.137  -7.847   6.496  1.00  0.00     0.233 C 
BRANCH  21  23
HETATM   23  N1  UNL     1      15.155  -6.689   6.964  1.00  0.00    -0.168 NA
HETATM   24  C1  UNL     1      14.669  -7.961   6.513  1.00  0.00     0.152 C 
ENDBRANCH  21  23
ENDBRANCH  13  18
ENDBRANCH  10  12
ENDBRANCH   1  10
BRANCH   5  25
HETATM   25  C9  UNL     1      24.919 -10.364   6.222  1.00  0.00     0.324 C 
BRANCH  25  26
HETATM   26  O1  UNL     1      26.175 -10.024   5.778  1.00  0.00    -0.362 OA
ATOM     27  H1  UNL     1      26.628  -9.434   6.367  1.00  0.00     0.213 HD
ENDBRANCH  25  26
BRANCH  25  28
HETATM   28  N8  UNL     1      25.031 -11.073   7.479  1.00  0.00    -0.319 N 
HETATM   29  C10 UNL     1      24.380 -10.617   8.634  1.00  0.00     0.252 C 
HETATM   30  O2  UNL     1      23.679  -9.560   8.566  1.00  0.00    -0.270 OA
ATOM     31  H8  UNL     1      25.596 -11.921   7.527  1.00  0.00     0.166 HD
BRANCH  29  32
HETATM   32  C11 UNL     1      24.518 -11.366   9.901  1.00  0.00     0.238 C 
BRANCH  32  33
HETATM   33  O3  UNL     1      23.311 -11.414  10.566  1.00  0.00    -0.384 OA
ATOM     34  H3  UNL     1      23.056 -12.315  10.728  1.00  0.00     0.210 HD
ENDBRANCH  32  33
BRANCH  32  35
HETATM   35  C12 UNL     1      25.602 -10.774  10.798  1.00  0.00     0.152 C 
HETATM   36  C13 UNL     1      24.946  -9.811  11.757  1.00  0.00     0.042 C 
BRANCH  35  37
HETATM   37  O4  UNL     1      26.546 -10.121  10.011  1.00  0.00    -0.393 OA
ATOM     38  H4  UNL     1      27.046  -9.520  10.553  1.00  0.00     0.210 HD
ENDBRANCH  35  37
ENDBRANCH  32  35
ENDBRANCH  29  32
ENDBRANCH  25  28
ENDBRANCH   5  25
TORSDOF 11
ENDMDL
