MODEL 1
REMARK VINA RESULT: -8.058782811      0.000      0.000
REMARK  9 active torsions:
REMARK  status: ('A' for Active; 'I' for Inactive)
REMARK    1  A    between atoms: C2_2  and  C3_3 
REMARK    2  A    between atoms: C3_3  and  C4_4 
REMARK    3  A    between atoms: C10_11  and  N1_12 
REMARK       I    between atoms: N1_12  and  C11_13 
REMARK    4  A    between atoms: C11_13  and  C12_15 
REMARK    5  A    between atoms: C12_15  and  S1_16 
REMARK    6  A    between atoms: S1_16  and  C13_17 
REMARK    7  A    between atoms: C16_22  and  C17_23 
REMARK    8  A    between atoms: C17_23  and  O3_25 
REMARK    9  A    between atoms: O3_25  and  C18_26 
ROOT
HETATM    1  S1  UNL     1     -10.644   9.675  19.390  1.00  0.00    -0.101 SA
ENDROOT
BRANCH   1   2
HETATM    2  C12 UNL     1     -12.190  10.440  19.002  1.00  0.00     0.200 C 
BRANCH   2   3
HETATM    3  C11 UNL     1     -12.557  10.056  17.526  1.00  0.00     0.301 C 
HETATM    4  N1  UNL     1     -12.001  10.979  16.608  1.00  0.00    -0.368 NA
HETATM    5  O1  UNL     1     -13.220   9.099  17.345  1.00  0.00    -0.256 OA
BRANCH   4   6
HETATM    6  C10 UNL     1     -11.493  11.828  15.738  1.00  0.00     0.139 A 
HETATM    7  C4  UNL     1     -11.635  13.204  15.700  1.00  0.00    -0.015 A 
HETATM    8  C5  UNL     1     -10.886  14.019  14.848  1.00  0.00     0.017 A 
HETATM    9  C6  UNL     1      -9.985  13.467  14.003  1.00  0.00    -0.060 A 
HETATM   10  C7  UNL     1      -9.228  14.392  13.102  1.00  0.00     0.048 C 
HETATM   11  C8  UNL     1      -9.826  12.102  14.010  1.00  0.00     0.034 A 
HETATM   12  C9  UNL     1     -10.518  11.271  14.819  1.00  0.00     0.075 A 
HETATM   13 CL1  UNL     1     -10.283   9.560  14.725  1.00  0.00    -0.081 Cl
BRANCH   7  14
HETATM   14  C3  UNL     1     -12.729  13.955  16.372  1.00  0.00     0.042 C 
BRANCH  14  15
HETATM   15  C2  UNL     1     -13.951  14.130  15.565  1.00  0.00     0.000 C 
HETATM   16  C1  UNL     1     -15.189  13.439  16.021  1.00  0.00     0.005 C 
ENDBRANCH  14  15
ENDBRANCH   7  14
ENDBRANCH   4   6
ENDBRANCH   2   3
ENDBRANCH   1   2
BRANCH   1  17
HETATM   17  C13 UNL     1      -9.549   9.180  18.096  1.00  0.00     0.078 A 
HETATM   18  N2  UNL     1      -9.414   7.890  17.687  1.00  0.00    -0.353 N 
HETATM   19  C14 UNL     1      -8.378   7.438  16.958  1.00  0.00     0.024 A 
ATOM     20  H2  UNL     1     -10.142   7.225  17.949  1.00  0.00     0.166 HD
HETATM   21  C15 UNL     1      -8.349   6.068  16.396  1.00  0.00     0.069 C 
HETATM   22  C16 UNL     1      -7.351   8.303  16.577  1.00  0.00     0.086 A 
HETATM   23  C20 UNL     1      -7.451   9.620  16.932  1.00  0.00     0.073 A 
HETATM   24  N3  UNL     1      -6.458  10.551  16.487  1.00  0.00    -0.101 NA
HETATM   25  C21 UNL     1      -8.555  10.086  17.704  1.00  0.00    -0.003 A 
HETATM   26  C22 UNL     1      -8.690  11.497  18.097  1.00  0.00     0.053 C 
BRANCH  22  27
HETATM   27  C17 UNL     1      -6.101   7.684  16.121  1.00  0.00     0.297 C 
HETATM   28  O2  UNL     1      -5.243   7.181  16.826  1.00  0.00    -0.259 OA
BRANCH  27  29
HETATM   29  O3  UNL     1      -5.753   7.656  14.710  1.00  0.00    -0.318 OA
BRANCH  29  30
HETATM   30  C18 UNL     1      -4.807   6.781  14.237  1.00  0.00     0.174 C 
HETATM   31  C19 UNL     1      -3.614   7.132  13.503  1.00  0.00     0.034 C 
ENDBRANCH  29  30
ENDBRANCH  27  29
ENDBRANCH  22  27
ENDBRANCH   1  17
TORSDOF 9
ENDMDL
MODEL 2
REMARK VINA RESULT: -8.003248172      2.665      4.509
REMARK  9 active torsions:
REMARK  status: ('A' for Active; 'I' for Inactive)
REMARK    1  A    between atoms: C2_2  and  C3_3 
REMARK    2  A    between atoms: C3_3  and  C4_4 
REMARK    3  A    between atoms: C10_11  and  N1_12 
REMARK       I    between atoms: N1_12  and  C11_13 
REMARK    4  A    between atoms: C11_13  and  C12_15 
REMARK    5  A    between atoms: C12_15  and  S1_16 
REMARK    6  A    between atoms: S1_16  and  C13_17 
REMARK    7  A    between atoms: C16_22  and  C17_23 
REMARK    8  A    between atoms: C17_23  and  O3_25 
REMARK    9  A    between atoms: O3_25  and  C18_26 
ROOT
HETATM    1  S1  UNL     1      -7.805   9.355  15.067  1.00  0.00    -0.101 SA
ENDROOT
BRANCH   1   2
HETATM    2  C12 UNL     1      -8.110  10.684  16.192  1.00  0.00     0.200 C 
BRANCH   2   3
HETATM    3  C11 UNL     1      -9.356  10.298  17.063  1.00  0.00     0.301 C 
HETATM    4  N1  UNL     1     -10.418  11.212  16.864  1.00  0.00    -0.368 NA
HETATM    5  O1  UNL     1      -9.282   9.347  17.754  1.00  0.00    -0.256 OA
BRANCH   4   6
HETATM    6  C10 UNL     1     -11.417  12.052  16.692  1.00  0.00     0.139 A 
HETATM    7  C4  UNL     1     -11.450  13.198  15.916  1.00  0.00    -0.015 A 
HETATM    8  C5  UNL     1     -12.629  13.900  15.652  1.00  0.00     0.017 A 
HETATM    9  C6  UNL     1     -13.801  13.476  16.176  1.00  0.00    -0.060 A 
HETATM   10  C7  UNL     1     -15.025  14.283  15.873  1.00  0.00     0.048 C 
HETATM   11  C8  UNL     1     -13.801  12.345  16.959  1.00  0.00     0.034 A 
HETATM   12  C9  UNL     1     -12.693  11.626  17.237  1.00  0.00     0.075 A 
HETATM   13 CL1  UNL     1     -12.783  10.242  18.271  1.00  0.00    -0.081 Cl
BRANCH   7  14
HETATM   14  C3  UNL     1     -10.243  13.941  15.462  1.00  0.00     0.042 C 
BRANCH  14  15
HETATM   15  C2  UNL     1      -9.986  13.882  14.011  1.00  0.00     0.000 C 
HETATM   16  C1  UNL     1      -9.812  12.539  13.391  1.00  0.00     0.005 C 
ENDBRANCH  14  15
ENDBRANCH   7  14
ENDBRANCH   4   6
ENDBRANCH   2   3
ENDBRANCH   1   2
BRANCH   1  17
HETATM   17  C13 UNL     1      -7.581   7.712  15.673  1.00  0.00     0.078 A 
HETATM   18  N2  UNL     1      -8.598   6.817  15.793  1.00  0.00    -0.353 N 
HETATM   19  C14 UNL     1      -8.533   5.702  16.541  1.00  0.00     0.024 A 
ATOM     20  H2  UNL     1      -9.463   7.002  15.284  1.00  0.00     0.166 HD
HETATM   21  C15 UNL     1      -9.598   4.672  16.517  1.00  0.00     0.069 C 
HETATM   22  C16 UNL     1      -7.377   5.401  17.264  1.00  0.00     0.086 A 
HETATM   23  C20 UNL     1      -6.309   6.250  17.155  1.00  0.00     0.073 A 
HETATM   24  N3  UNL     1      -5.080   5.930  17.816  1.00  0.00    -0.101 NA
HETATM   25  C21 UNL     1      -6.392   7.428  16.356  1.00  0.00    -0.003 A 
HETATM   26  C22 UNL     1      -5.259   8.356  16.218  1.00  0.00     0.053 C 
BRANCH  22  27
HETATM   27  C17 UNL     1      -7.504   4.398  18.328  1.00  0.00     0.297 C 
HETATM   28  O2  UNL     1      -7.128   3.240  18.278  1.00  0.00    -0.259 OA
BRANCH  27  29
HETATM   29  O3  UNL     1      -8.161   4.721  19.583  1.00  0.00    -0.318 OA
BRANCH  29  30
HETATM   30  C18 UNL     1      -8.900   3.778  20.252  1.00  0.00     0.174 C 
HETATM   31  C19 UNL     1     -10.247   3.367  19.933  1.00  0.00     0.034 C 
ENDBRANCH  29  30
ENDBRANCH  27  29
ENDBRANCH  22  27
ENDBRANCH   1  17
TORSDOF 9
ENDMDL
MODEL 3
REMARK VINA RESULT: -7.928200139      2.214      3.385
REMARK  9 active torsions:
REMARK  status: ('A' for Active; 'I' for Inactive)
REMARK    1  A    between atoms: C2_2  and  C3_3 
REMARK    2  A    between atoms: C3_3  and  C4_4 
REMARK    3  A    between atoms: C10_11  and  N1_12 
REMARK       I    between atoms: N1_12  and  C11_13 
REMARK    4  A    between atoms: C11_13  and  C12_15 
REMARK    5  A    between atoms: C12_15  and  S1_16 
REMARK    6  A    between atoms: S1_16  and  C13_17 
REMARK    7  A    between atoms: C16_22  and  C17_23 
REMARK    8  A    between atoms: C17_23  and  O3_25 
REMARK    9  A    between atoms: O3_25  and  C18_26 
ROOT
HETATM    1  S1  UNL     1     -10.925   8.598  18.105  1.00  0.00    -0.101 SA
ENDROOT
BRANCH   1   2
HETATM    2  C12 UNL     1     -11.038   9.622  19.542  1.00  0.00     0.200 C 
BRANCH   2   3
HETATM    3  C11 UNL     1     -12.545  10.008  19.738  1.00  0.00     0.301 C 
HETATM    4  N1  UNL     1     -12.948  10.980  18.791  1.00  0.00    -0.368 NA
HETATM    5  O1  UNL     1     -13.150   9.483  20.602  1.00  0.00    -0.256 OA
BRANCH   4   6
HETATM    6  C10 UNL     1     -13.340  11.885  17.919  1.00  0.00     0.139 A 
HETATM    7  C4  UNL     1     -12.596  12.500  16.927  1.00  0.00    -0.015 A 
HETATM    8  C5  UNL     1     -13.170  13.296  15.933  1.00  0.00     0.017 A 
HETATM    9  C6  UNL     1     -14.506  13.506  15.921  1.00  0.00    -0.060 A 
HETATM   10  C7  UNL     1     -15.057  14.384  14.841  1.00  0.00     0.048 C 
HETATM   11  C8  UNL     1     -15.273  12.916  16.898  1.00  0.00     0.034 A 
HETATM   12  C9  UNL     1     -14.770  12.132  17.875  1.00  0.00     0.075 A 
HETATM   13 CL1  UNL     1     -15.809  11.471  19.089  1.00  0.00    -0.081 Cl
BRANCH   7  14
HETATM   14  C3  UNL     1     -11.110  12.581  16.920  1.00  0.00     0.042 C 
BRANCH  14  15
HETATM   15  C2  UNL     1     -10.531  13.285  15.760  1.00  0.00     0.000 C 
HETATM   16  C1  UNL     1      -9.088  13.063  15.464  1.00  0.00     0.005 C 
ENDBRANCH  14  15
ENDBRANCH   7  14
ENDBRANCH   4   6
ENDBRANCH   2   3
ENDBRANCH   1   2
BRANCH   1  17
HETATM   17  C13 UNL     1      -9.385   8.421  17.260  1.00  0.00     0.078 A 
HETATM   18  N2  UNL     1      -8.252   7.971  17.862  1.00  0.00    -0.353 N 
HETATM   19  C14 UNL     1      -7.017   8.135  17.356  1.00  0.00     0.024 A 
ATOM     20  H2  UNL     1      -8.345   7.480  18.752  1.00  0.00     0.166 HD
HETATM   21  C15 UNL     1      -5.827   7.490  17.958  1.00  0.00     0.069 C 
HETATM   22  C16 UNL     1      -6.831   8.805  16.146  1.00  0.00     0.086 A 
HETATM   23  C20 UNL     1      -7.939   9.250  15.478  1.00  0.00     0.073 A 
HETATM   24  N3  UNL     1      -7.792   9.867  14.195  1.00  0.00    -0.101 NA
HETATM   25  C21 UNL     1      -9.243   9.069  16.026  1.00  0.00    -0.003 A 
HETATM   26  C22 UNL     1     -10.452   9.534  15.328  1.00  0.00     0.053 C 
BRANCH  22  27
HETATM   27  C17 UNL     1      -5.471   9.267  15.848  1.00  0.00     0.297 C 
HETATM   28  O2  UNL     1      -4.957  10.302  16.238  1.00  0.00    -0.259 OA
BRANCH  27  29
HETATM   29  O3  UNL     1      -4.593   8.497  14.982  1.00  0.00    -0.318 OA
BRANCH  29  30
HETATM   30  C18 UNL     1      -5.084   7.466  14.222  1.00  0.00     0.174 C 
HETATM   31  C19 UNL     1      -4.390   6.244  13.894  1.00  0.00     0.034 C 
ENDBRANCH  29  30
ENDBRANCH  27  29
ENDBRANCH  22  27
ENDBRANCH   1  17
TORSDOF 9
ENDMDL
MODEL 4
REMARK VINA RESULT: -7.777486180      2.606      3.808
REMARK  9 active torsions:
REMARK  status: ('A' for Active; 'I' for Inactive)
REMARK    1  A    between atoms: C2_2  and  C3_3 
REMARK    2  A    between atoms: C3_3  and  C4_4 
REMARK    3  A    between atoms: C10_11  and  N1_12 
REMARK       I    between atoms: N1_12  and  C11_13 
REMARK    4  A    between atoms: C11_13  and  C12_15 
REMARK    5  A    between atoms: C12_15  and  S1_16 
REMARK    6  A    between atoms: S1_16  and  C13_17 
REMARK    7  A    between atoms: C16_22  and  C17_23 
REMARK    8  A    between atoms: C17_23  and  O3_25 
REMARK    9  A    between atoms: O3_25  and  C18_26 
ROOT
HETATM    1  S1  UNL     1     -11.769   6.878  20.590  1.00  0.00    -0.101 SA
ENDROOT
BRANCH   1   2
HETATM    2  C12 UNL     1     -13.497   7.221  20.438  1.00  0.00     0.200 C 
BRANCH   2   3
HETATM    3  C11 UNL     1     -13.827   7.347  18.911  1.00  0.00     0.301 C 
HETATM    4  N1  UNL     1     -13.707   8.688  18.474  1.00  0.00    -0.368 NA
HETATM    5  O1  UNL     1     -14.127   6.372  18.321  1.00  0.00    -0.256 OA
BRANCH   4   6
HETATM    6  C10 UNL     1     -13.602   9.930  18.049  1.00  0.00     0.139 A 
HETATM    7  C4  UNL     1     -12.788  10.426  17.045  1.00  0.00    -0.015 A 
HETATM    8  C5  UNL     1     -12.908  11.726  16.547  1.00  0.00     0.017 A 
HETATM    9  C6  UNL     1     -13.839  12.564  17.058  1.00  0.00    -0.060 A 
HETATM   10  C7  UNL     1     -13.903  13.949  16.495  1.00  0.00     0.048 C 
HETATM   11  C8  UNL     1     -14.657  12.104  18.062  1.00  0.00     0.034 A 
HETATM   12  C9  UNL     1     -14.589  10.856  18.573  1.00  0.00     0.075 A 
HETATM   13 CL1  UNL     1     -15.631  10.381  19.869  1.00  0.00    -0.081 Cl
BRANCH   7  14
HETATM   14  C3  UNL     1     -11.568   9.743  16.537  1.00  0.00     0.042 C 
BRANCH  14  15
HETATM   15  C2  UNL     1     -10.648  10.602  15.769  1.00  0.00     0.000 C 
HETATM   16  C1  UNL     1      -9.718   9.940  14.811  1.00  0.00     0.005 C 
ENDBRANCH  14  15
ENDBRANCH   7  14
ENDBRANCH   4   6
ENDBRANCH   2   3
ENDBRANCH   1   2
BRANCH   1  17
HETATM   17  C13 UNL     1     -10.732   6.893  19.162  1.00  0.00     0.078 A 
HETATM   18  N2  UNL     1     -10.509   5.795  18.391  1.00  0.00    -0.353 N 
HETATM   19  C14 UNL     1      -9.493   5.685  17.516  1.00  0.00     0.024 A 
ATOM     20  H2  UNL     1     -11.151   5.007  18.481  1.00  0.00     0.166 HD
HETATM   21  C15 UNL     1      -9.378   4.543  16.580  1.00  0.00     0.069 C 
HETATM   22  C16 UNL     1      -8.580   6.730  17.357  1.00  0.00     0.086 A 
HETATM   23  C20 UNL     1      -8.775   7.873  18.083  1.00  0.00     0.073 A 
HETATM   24  N3  UNL     1      -7.908   8.995  17.883  1.00  0.00    -0.101 NA
HETATM   25  C21 UNL     1      -9.858   7.976  19.005  1.00  0.00    -0.003 A 
HETATM   26  C22 UNL     1     -10.093   9.194  19.795  1.00  0.00     0.053 C 
BRANCH  22  27
HETATM   27  C17 UNL     1      -7.316   6.407  16.686  1.00  0.00     0.297 C 
HETATM   28  O2  UNL     1      -6.376   5.799  17.168  1.00  0.00    -0.259 OA
BRANCH  27  29
HETATM   29  O3  UNL     1      -7.059   6.848  15.325  1.00  0.00    -0.318 OA
BRANCH  29  30
HETATM   30  C18 UNL     1      -5.933   7.571  15.021  1.00  0.00     0.174 C 
HETATM   31  C19 UNL     1      -4.800   7.103  14.258  1.00  0.00     0.034 C 
ENDBRANCH  29  30
ENDBRANCH  27  29
ENDBRANCH  22  27
ENDBRANCH   1  17
TORSDOF 9
ENDMDL
MODEL 5
REMARK VINA RESULT: -7.765107430      3.029      5.393
REMARK  9 active torsions:
REMARK  status: ('A' for Active; 'I' for Inactive)
REMARK    1  A    between atoms: C2_2  and  C3_3 
REMARK    2  A    between atoms: C3_3  and  C4_4 
REMARK    3  A    between atoms: C10_11  and  N1_12 
REMARK       I    between atoms: N1_12  and  C11_13 
REMARK    4  A    between atoms: C11_13  and  C12_15 
REMARK    5  A    between atoms: C12_15  and  S1_16 
REMARK    6  A    between atoms: S1_16  and  C13_17 
REMARK    7  A    between atoms: C16_22  and  C17_23 
REMARK    8  A    between atoms: C17_23  and  O3_25 
REMARK    9  A    between atoms: O3_25  and  C18_26 
ROOT
HETATM    1  S1  UNL     1      -7.803   8.870  17.095  1.00  0.00    -0.101 SA
ENDROOT
BRANCH   1   2
HETATM    2  C12 UNL     1      -8.467   9.758  15.718  1.00  0.00     0.200 C 
BRANCH   2   3
HETATM    3  C11 UNL     1      -8.549  11.272  16.119  1.00  0.00     0.301 C 
HETATM    4  N1  UNL     1      -9.883  11.740  16.064  1.00  0.00    -0.368 NA
HETATM    5  O1  UNL     1      -7.551  11.830  16.404  1.00  0.00    -0.256 OA
BRANCH   4   6
HETATM    6  C10 UNL     1     -11.118  12.195  16.019  1.00  0.00     0.139 A 
HETATM    7  C4  UNL     1     -12.257  11.640  16.577  1.00  0.00    -0.015 A 
HETATM    8  C5  UNL     1     -13.478  12.316  16.633  1.00  0.00     0.017 A 
HETATM    9  C6  UNL     1     -13.589  13.560  16.116  1.00  0.00    -0.060 A 
HETATM   10  C7  UNL     1     -14.929  14.222  16.189  1.00  0.00     0.048 C 
HETATM   11  C8  UNL     1     -12.478  14.136  15.546  1.00  0.00     0.034 A 
HETATM   12  C9  UNL     1     -11.273  13.531  15.473  1.00  0.00     0.075 A 
HETATM   13 CL1  UNL     1      -9.943  14.316  14.695  1.00  0.00    -0.081 Cl
BRANCH   7  14
HETATM   14  C3  UNL     1     -12.389  10.212  16.972  1.00  0.00     0.042 C 
BRANCH  14  15
HETATM   15  C2  UNL     1     -13.776   9.729  17.107  1.00  0.00     0.000 C 
HETATM   16  C1  UNL     1     -14.168   9.096  18.397  1.00  0.00     0.005 C 
ENDBRANCH  14  15
ENDBRANCH   7  14
ENDBRANCH   4   6
ENDBRANCH   2   3
ENDBRANCH   1   2
BRANCH   1  17
HETATM   17  C13 UNL     1      -8.856   7.862  18.092  1.00  0.00     0.078 A 
HETATM   18  N2  UNL     1      -9.104   6.552  17.826  1.00  0.00    -0.353 N 
HETATM   19  C14 UNL     1     -10.132   5.861  18.351  1.00  0.00     0.024 A 
ATOM     20  H2  UNL     1      -8.474   6.064  17.189  1.00  0.00     0.166 HD
HETATM   21  C15 UNL     1     -10.275   4.399  18.165  1.00  0.00     0.069 C 
HETATM   22  C16 UNL     1     -11.029   6.480  19.223  1.00  0.00     0.086 A 
HETATM   23  C20 UNL     1     -10.808   7.789  19.553  1.00  0.00     0.073 A 
HETATM   24  N3  UNL     1     -11.659   8.432  20.509  1.00  0.00    -0.101 NA
HETATM   25  C21 UNL     1      -9.714   8.510  18.990  1.00  0.00    -0.003 A 
HETATM   26  C22 UNL     1      -9.450   9.916  19.331  1.00  0.00     0.053 C 
BRANCH  22  27
HETATM   27  C17 UNL     1     -12.306   5.795  19.454  1.00  0.00     0.297 C 
HETATM   28  O2  UNL     1     -13.210   5.659  18.648  1.00  0.00    -0.259 OA
BRANCH  27  29
HETATM   29  O3  UNL     1     -12.623   5.226  20.753  1.00  0.00    -0.318 OA
BRANCH  29  30
HETATM   30  C18 UNL     1     -11.627   4.796  21.594  1.00  0.00     0.174 C 
HETATM   31  C19 UNL     1     -11.190   5.454  22.803  1.00  0.00     0.034 C 
ENDBRANCH  29  30
ENDBRANCH  27  29
ENDBRANCH  22  27
ENDBRANCH   1  17
TORSDOF 9
ENDMDL
