MODEL 1
REMARK VINA RESULT: -6.546762494      0.000      0.000
REMARK  9 active torsions:
REMARK  status: ('A' for Active; 'I' for Inactive)
REMARK    1  A    between atoms: C8_10  and  C9_11 
REMARK    2  A    between atoms: C9_11  and  O2_13 
REMARK    3  A    between atoms: O2_13  and  C10_14 
REMARK    4  A    between atoms: C12_16  and  C13_17 
REMARK    5  A    between atoms: C15_21  and  S1_22 
REMARK    6  A    between atoms: S1_22  and  C16_23 
REMARK    7  A    between atoms: C16_23  and  C17_24 
REMARK    8  A    between atoms: C17_24  and  C18_25 
REMARK    9  A    between atoms: C21_29  and  O4_30 
ROOT
HETATM    1  C1  UNL     1      -9.446   4.962  16.535  1.00  0.00     0.016 C 
HETATM    2  C2  UNL     1      -8.647   5.535  17.446  1.00  0.00    -0.071 C 
HETATM    3  C3  UNL     1      -8.715   4.863  18.793  1.00  0.00     0.038 C 
HETATM    4  C4  UNL     1      -8.336   3.450  18.575  1.00  0.00     0.033 C 
HETATM    5  C5  UNL     1      -7.070   2.982  19.130  1.00  0.00    -0.002 C 
HETATM    6  C6  UNL     1      -5.847   3.453  18.920  1.00  0.00     0.002 C 
HETATM    7  C7  UNL     1      -4.758   2.693  19.675  1.00  0.00     0.068 C 
HETATM    8  N1  UNL     1      -5.460   4.538  18.111  1.00  0.00    -0.355 N 
ATOM      9  H1  UNL     1      -4.998   4.238  17.252  1.00  0.00     0.166 HD
HETATM   10  C8  UNL     1      -5.561   5.943  18.208  1.00  0.00     0.116 C 
HETATM   11  C12 UNL     1      -6.377   6.687  17.194  1.00  0.00    -0.005 C 
HETATM   12  C15 UNL     1      -7.815   6.705  17.252  1.00  0.00     0.110 C 
ENDROOT
BRANCH  12  13
HETATM   13  S1  UNL     1      -8.388   7.989  18.446  1.00  0.00    -0.155 SA
BRANCH  13  14
HETATM   14  C16 UNL     1      -9.847   8.837  17.835  1.00  0.00     0.080 C 
BRANCH  14  15
HETATM   15  C17 UNL     1      -9.577   9.245  16.398  1.00  0.00     0.054 C 
BRANCH  15  16
HETATM   16  C18 UNL     1      -9.432  10.717  16.270  1.00  0.00     0.003 A 
HETATM   17  C19 UNL     1     -10.431  11.633  16.012  1.00  0.00     0.036 A 
HETATM   18  C20 UNL     1      -9.817  12.861  15.985  1.00  0.00     0.145 A 
HETATM   19  O3  UNL     1      -8.542  12.682  16.212  1.00  0.00    -0.300 OA
HETATM   20  C21 UNL     1      -8.259  11.425  16.389  1.00  0.00     0.189 A 
BRANCH  20  21
HETATM   21  O4  UNL     1      -6.982  10.888  16.654  1.00  0.00    -0.340 OA
ATOM     22  H4  UNL     1      -6.151  11.340  16.561  1.00  0.00     0.220 HD
ENDBRANCH  20  21
ENDBRANCH  15  16
ENDBRANCH  14  15
ENDBRANCH  13  14
ENDBRANCH  12  13
BRANCH  11  23
HETATM   23  C13 UNL     1      -5.646   6.675  15.916  1.00  0.00     0.047 C 
HETATM   24  C14 UNL     1      -5.678   7.281  14.799  1.00  0.00     0.104 C 
HETATM   25 CL1  UNL     1      -6.721   8.551  14.214  1.00  0.00    -0.071 Cl
HETATM   26 CL2  UNL     1      -4.446   6.775  13.573  1.00  0.00    -0.071 Cl
ENDBRANCH  11  23
BRANCH  10  27
HETATM   27  C9  UNL     1      -5.514   6.550  19.559  1.00  0.00     0.310 C 
HETATM   28  O1  UNL     1      -6.321   6.255  20.478  1.00  0.00    -0.258 OA
BRANCH  27  29
HETATM   29  O2  UNL     1      -4.555   7.493  19.884  1.00  0.00    -0.317 OA
BRANCH  29  30
HETATM   30  C10 UNL     1      -3.542   7.206  20.867  1.00  0.00     0.175 C 
HETATM   31  C11 UNL     1      -2.659   6.111  20.323  1.00  0.00     0.034 C 
ENDBRANCH  29  30
ENDBRANCH  27  29
ENDBRANCH  10  27
TORSDOF 9
ENDMDL
MODEL 2
REMARK VINA RESULT: -6.534744960      6.237      8.254
REMARK  9 active torsions:
REMARK  status: ('A' for Active; 'I' for Inactive)
REMARK    1  A    between atoms: C8_10  and  C9_11 
REMARK    2  A    between atoms: C9_11  and  O2_13 
REMARK    3  A    between atoms: O2_13  and  C10_14 
REMARK    4  A    between atoms: C12_16  and  C13_17 
REMARK    5  A    between atoms: C15_21  and  S1_22 
REMARK    6  A    between atoms: S1_22  and  C16_23 
REMARK    7  A    between atoms: C16_23  and  C17_24 
REMARK    8  A    between atoms: C17_24  and  C18_25 
REMARK    9  A    between atoms: C21_29  and  O4_30 
ROOT
HETATM    1  C1  UNL     1     -11.999  11.720  19.711  1.00  0.00     0.016 C 
HETATM    2  C2  UNL     1     -12.384  10.515  19.268  1.00  0.00    -0.071 C 
HETATM    3  C3  UNL     1     -11.231   9.569  19.057  1.00  0.00     0.038 C 
HETATM    4  C4  UNL     1     -10.539   9.455  20.359  1.00  0.00     0.033 C 
HETATM    5  C5  UNL     1     -10.608   8.180  21.066  1.00  0.00    -0.002 C 
HETATM    6  C6  UNL     1     -11.681   7.504  21.458  1.00  0.00     0.002 C 
HETATM    7  C7  UNL     1     -11.356   6.202  22.185  1.00  0.00     0.068 C 
HETATM    8  N1  UNL     1     -13.035   7.844  21.277  1.00  0.00    -0.355 N 
ATOM      9  H1  UNL     1     -13.478   8.153  22.143  1.00  0.00     0.166 HD
HETATM   10  C8  UNL     1     -13.926   7.857  20.181  1.00  0.00     0.116 C 
HETATM   11  C12 UNL     1     -14.507   9.163  19.729  1.00  0.00    -0.005 C 
HETATM   12  C15 UNL     1     -13.737  10.102  18.956  1.00  0.00     0.110 C 
ENDROOT
BRANCH  12  13
HETATM   13  S1  UNL     1     -13.768   9.633  17.172  1.00  0.00    -0.155 SA
BRANCH  13  14
HETATM   14  C16 UNL     1     -14.750  10.792  16.215  1.00  0.00     0.080 C 
BRANCH  14  15
HETATM   15  C17 UNL     1     -14.718  12.129  16.933  1.00  0.00     0.054 C 
BRANCH  15  16
HETATM   16  C18 UNL     1     -13.813  13.089  16.252  1.00  0.00     0.003 A 
HETATM   17  C19 UNL     1     -12.434  13.082  16.257  1.00  0.00     0.036 A 
HETATM   18  C20 UNL     1     -12.049  14.158  15.496  1.00  0.00     0.145 A 
HETATM   19  O3  UNL     1     -13.129  14.759  15.068  1.00  0.00    -0.300 OA
HETATM   20  C21 UNL     1     -14.206  14.164  15.490  1.00  0.00     0.189 A 
BRANCH  20  21
HETATM   21  O4  UNL     1     -15.534  14.553  15.214  1.00  0.00    -0.340 OA
ATOM     22  H4  UNL     1     -16.067  14.258  14.484  1.00  0.00     0.220 HD
ENDBRANCH  20  21
ENDBRANCH  15  16
ENDBRANCH  14  15
ENDBRANCH  13  14
ENDBRANCH  12  13
BRANCH  11  23
HETATM   23  C13 UNL     1     -15.493   9.598  20.731  1.00  0.00     0.047 C 
HETATM   24  C14 UNL     1     -16.578  10.261  20.770  1.00  0.00     0.104 C 
HETATM   25 CL1  UNL     1     -17.490  11.039  19.502  1.00  0.00    -0.071 Cl
HETATM   26 CL2  UNL     1     -17.344  10.457  22.398  1.00  0.00    -0.071 Cl
ENDBRANCH  11  23
BRANCH  10  27
HETATM   27  C9  UNL     1     -13.730   6.844  19.117  1.00  0.00     0.310 C 
HETATM   28  O1  UNL     1     -14.678   6.335  18.464  1.00  0.00    -0.258 OA
BRANCH  27  29
HETATM   29  O2  UNL     1     -12.464   6.400  18.779  1.00  0.00    -0.317 OA
BRANCH  29  30
HETATM   30  C10 UNL     1     -12.105   5.013  18.925  1.00  0.00     0.175 C 
HETATM   31  C11 UNL     1     -10.632   4.878  18.627  1.00  0.00     0.034 C 
ENDBRANCH  29  30
ENDBRANCH  27  29
ENDBRANCH  10  27
TORSDOF 9
ENDMDL
MODEL 3
REMARK VINA RESULT: -6.492594482      0.824      1.263
REMARK  9 active torsions:
REMARK  status: ('A' for Active; 'I' for Inactive)
REMARK    1  A    between atoms: C8_10  and  C9_11 
REMARK    2  A    between atoms: C9_11  and  O2_13 
REMARK    3  A    between atoms: O2_13  and  C10_14 
REMARK    4  A    between atoms: C12_16  and  C13_17 
REMARK    5  A    between atoms: C15_21  and  S1_22 
REMARK    6  A    between atoms: S1_22  and  C16_23 
REMARK    7  A    between atoms: C16_23  and  C17_24 
REMARK    8  A    between atoms: C17_24  and  C18_25 
REMARK    9  A    between atoms: C21_29  and  O4_30 
ROOT
HETATM    1  C1  UNL     1      -9.419   5.015  16.385  1.00  0.00     0.016 C 
HETATM    2  C2  UNL     1      -8.652   5.583  17.325  1.00  0.00    -0.071 C 
HETATM    3  C3  UNL     1      -8.756   4.900  18.663  1.00  0.00     0.038 C 
HETATM    4  C4  UNL     1      -8.363   3.491  18.445  1.00  0.00     0.033 C 
HETATM    5  C5  UNL     1      -7.112   3.025  19.033  1.00  0.00    -0.002 C 
HETATM    6  C6  UNL     1      -5.885   3.503  18.864  1.00  0.00     0.002 C 
HETATM    7  C7  UNL     1      -4.816   2.742  19.644  1.00  0.00     0.068 C 
HETATM    8  N1  UNL     1      -5.481   4.597  18.076  1.00  0.00    -0.355 N 
ATOM      9  H1  UNL     1      -4.991   4.307  17.229  1.00  0.00     0.166 HD
HETATM   10  C8  UNL     1      -5.592   6.001  18.182  1.00  0.00     0.116 C 
HETATM   11  C12 UNL     1      -6.381   6.750  17.150  1.00  0.00    -0.005 C 
HETATM   12  C15 UNL     1      -7.820   6.760  17.166  1.00  0.00     0.110 C 
ENDROOT
BRANCH  12  13
HETATM   13  S1  UNL     1      -8.436   8.030  18.353  1.00  0.00    -0.155 SA
BRANCH  13  14
HETATM   14  C16 UNL     1      -9.880   8.877  17.705  1.00  0.00     0.080 C 
BRANCH  14  15
HETATM   15  C17 UNL     1      -9.567   9.303  16.283  1.00  0.00     0.054 C 
BRANCH  15  16
HETATM   16  C18 UNL     1      -9.427  10.777  16.176  1.00  0.00     0.003 A 
HETATM   17  C19 UNL     1     -10.425  11.692  15.913  1.00  0.00     0.036 A 
HETATM   18  C20 UNL     1      -9.816  12.923  15.912  1.00  0.00     0.145 A 
HETATM   19  O3  UNL     1      -8.544  12.747  16.159  1.00  0.00    -0.300 OA
HETATM   20  C21 UNL     1      -8.259  11.488  16.324  1.00  0.00     0.189 A 
BRANCH  20  21
HETATM   21  O4  UNL     1      -6.984  10.954  16.604  1.00  0.00    -0.340 OA
ATOM     22  H4  UNL     1      -6.475  10.386  16.038  1.00  0.00     0.220 HD
ENDBRANCH  20  21
ENDBRANCH  15  16
ENDBRANCH  14  15
ENDBRANCH  13  14
ENDBRANCH  12  13
BRANCH  11  23
HETATM   23  C13 UNL     1      -5.613   6.752  15.895  1.00  0.00     0.047 C 
HETATM   24  C14 UNL     1      -5.593   7.390  14.795  1.00  0.00     0.104 C 
HETATM   25 CL1  UNL     1      -6.584   8.704  14.216  1.00  0.00    -0.071 Cl
HETATM   26 CL2  UNL     1      -4.339   6.883  13.592  1.00  0.00    -0.071 Cl
ENDBRANCH  11  23
BRANCH  10  27
HETATM   27  C9  UNL     1      -5.589   6.597  19.539  1.00  0.00     0.310 C 
HETATM   28  O1  UNL     1      -4.759   7.467  19.911  1.00  0.00    -0.258 OA
BRANCH  27  29
HETATM   29  O2  UNL     1      -6.523   6.217  20.485  1.00  0.00    -0.317 OA
BRANCH  29  30
HETATM   30  C10 UNL     1      -6.110   5.716  21.771  1.00  0.00     0.175 C 
HETATM   31  C11 UNL     1      -7.200   4.811  22.292  1.00  0.00     0.034 C 
ENDBRANCH  29  30
ENDBRANCH  27  29
ENDBRANCH  10  27
TORSDOF 9
ENDMDL
MODEL 4
REMARK VINA RESULT: -6.465530777      1.227      1.287
REMARK  9 active torsions:
REMARK  status: ('A' for Active; 'I' for Inactive)
REMARK    1  A    between atoms: C8_10  and  C9_11 
REMARK    2  A    between atoms: C9_11  and  O2_13 
REMARK    3  A    between atoms: O2_13  and  C10_14 
REMARK    4  A    between atoms: C12_16  and  C13_17 
REMARK    5  A    between atoms: C15_21  and  S1_22 
REMARK    6  A    between atoms: S1_22  and  C16_23 
REMARK    7  A    between atoms: C16_23  and  C17_24 
REMARK    8  A    between atoms: C17_24  and  C18_25 
REMARK    9  A    between atoms: C21_29  and  O4_30 
ROOT
HETATM    1  C1  UNL     1      -9.529   4.877  16.543  1.00  0.00     0.016 C 
HETATM    2  C2  UNL     1      -8.733   5.493  17.428  1.00  0.00    -0.071 C 
HETATM    3  C3  UNL     1      -8.799   4.883  18.804  1.00  0.00     0.038 C 
HETATM    4  C4  UNL     1      -8.417   3.463  18.651  1.00  0.00     0.033 C 
HETATM    5  C5  UNL     1      -7.149   3.024  19.228  1.00  0.00    -0.002 C 
HETATM    6  C6  UNL     1      -5.927   3.488  18.997  1.00  0.00     0.002 C 
HETATM    7  C7  UNL     1      -4.838   2.766  19.786  1.00  0.00     0.068 C 
HETATM    8  N1  UNL     1      -5.543   4.536  18.139  1.00  0.00    -0.355 N 
ATOM      9  H1  UNL     1      -5.080   4.198  17.295  1.00  0.00     0.166 HD
HETATM   10  C8  UNL     1      -5.648   5.944  18.171  1.00  0.00     0.116 C 
HETATM   11  C12 UNL     1      -6.465   6.638  17.124  1.00  0.00    -0.005 C 
HETATM   12  C15 UNL     1      -7.903   6.655  17.181  1.00  0.00     0.110 C 
ENDROOT
BRANCH  12  13
HETATM   13  S1  UNL     1      -8.480   7.990  18.315  1.00  0.00    -0.155 SA
BRANCH  13  14
HETATM   14  C16 UNL     1      -8.613   9.559  17.453  1.00  0.00     0.080 C 
BRANCH  14  15
HETATM   15  C17 UNL     1      -9.383   9.318  16.168  1.00  0.00     0.054 C 
BRANCH  15  16
HETATM   16  C18 UNL     1      -9.397  10.528  15.308  1.00  0.00     0.003 A 
HETATM   17  C19 UNL     1      -9.193  11.834  15.702  1.00  0.00     0.036 A 
HETATM   18  C20 UNL     1      -9.302  12.592  14.564  1.00  0.00     0.145 A 
HETATM   19  O3  UNL     1      -9.554  11.789  13.563  1.00  0.00    -0.300 OA
HETATM   20  C21 UNL     1      -9.621  10.549  13.951  1.00  0.00     0.189 A 
BRANCH  20  21
HETATM   21  O4  UNL     1      -9.877   9.433  13.128  1.00  0.00    -0.340 OA
ATOM     22  H4  UNL     1      -9.980   9.441  12.183  1.00  0.00     0.220 HD
ENDBRANCH  20  21
ENDBRANCH  15  16
ENDBRANCH  14  15
ENDBRANCH  13  14
ENDBRANCH  12  13
BRANCH  11  23
HETATM   23  C13 UNL     1      -5.734   6.569  15.849  1.00  0.00     0.047 C 
HETATM   24  C14 UNL     1      -5.637   7.240  14.772  1.00  0.00     0.104 C 
HETATM   25 CL1  UNL     1      -6.419   8.716  14.269  1.00  0.00    -0.071 Cl
HETATM   26 CL2  UNL     1      -4.506   6.589  13.517  1.00  0.00    -0.071 Cl
ENDBRANCH  11  23
BRANCH  10  27
HETATM   27  C9  UNL     1      -5.603   6.612  19.493  1.00  0.00     0.310 C 
HETATM   28  O1  UNL     1      -6.454   6.411  20.399  1.00  0.00    -0.258 OA
BRANCH  27  29
HETATM   29  O2  UNL     1      -4.598   7.510  19.805  1.00  0.00    -0.317 OA
BRANCH  29  30
HETATM   30  C10 UNL     1      -3.626   7.206  20.823  1.00  0.00     0.175 C 
HETATM   31  C11 UNL     1      -2.769   6.068  20.327  1.00  0.00     0.034 C 
ENDBRANCH  29  30
ENDBRANCH  27  29
ENDBRANCH  10  27
TORSDOF 9
ENDMDL
MODEL 5
REMARK VINA RESULT: -6.463940793      3.923      8.124
REMARK  9 active torsions:
REMARK  status: ('A' for Active; 'I' for Inactive)
REMARK    1  A    between atoms: C8_10  and  C9_11 
REMARK    2  A    between atoms: C9_11  and  O2_13 
REMARK    3  A    between atoms: O2_13  and  C10_14 
REMARK    4  A    between atoms: C12_16  and  C13_17 
REMARK    5  A    between atoms: C15_21  and  S1_22 
REMARK    6  A    between atoms: S1_22  and  C16_23 
REMARK    7  A    between atoms: C16_23  and  C17_24 
REMARK    8  A    between atoms: C17_24  and  C18_25 
REMARK    9  A    between atoms: C21_29  and  O4_30 
ROOT
HETATM    1  C1  UNL     1     -10.256   9.709  12.566  1.00  0.00     0.016 C 
HETATM    2  C2  UNL     1      -9.710  10.073  13.734  1.00  0.00    -0.071 C 
HETATM    3  C3  UNL     1      -8.616  11.096  13.579  1.00  0.00     0.038 C 
HETATM    4  C4  UNL     1      -9.223  12.259  12.896  1.00  0.00     0.033 C 
HETATM    5  C5  UNL     1      -9.381  13.498  13.652  1.00  0.00    -0.002 C 
HETATM    6  C6  UNL     1     -10.027  13.696  14.794  1.00  0.00     0.002 C 
HETATM    7  C7  UNL     1      -9.982  15.143  15.281  1.00  0.00     0.068 C 
HETATM    8  N1  UNL     1     -10.719  12.753  15.576  1.00  0.00    -0.355 N 
ATOM      9  H1  UNL     1     -11.732  12.863  15.514  1.00  0.00     0.166 HD
HETATM   10  C8  UNL     1     -10.343  11.691  16.428  1.00  0.00     0.116 C 
HETATM   11  C12 UNL     1     -10.740  10.291  16.066  1.00  0.00    -0.005 C 
HETATM   12  C15 UNL     1     -10.046   9.553  15.044  1.00  0.00     0.110 C 
ENDROOT
BRANCH  12  13
HETATM   13  S1  UNL     1      -8.517   8.789  15.738  1.00  0.00    -0.155 SA
BRANCH  13  14
HETATM   14  C16 UNL     1      -8.916   7.444  16.858  1.00  0.00     0.080 C 
BRANCH  14  15
HETATM   15  C17 UNL     1      -8.396   6.159  16.242  1.00  0.00     0.054 C 
BRANCH  15  16
HETATM   16  C18 UNL     1      -8.100   5.140  17.280  1.00  0.00     0.003 A 
HETATM   17  C19 UNL     1      -9.008   4.355  17.961  1.00  0.00     0.036 A 
HETATM   18  C20 UNL     1      -8.266   3.574  18.812  1.00  0.00     0.145 A 
HETATM   19  O3  UNL     1      -7.005   3.876  18.644  1.00  0.00    -0.300 OA
HETATM   20  C21 UNL     1      -6.851   4.802  17.744  1.00  0.00     0.189 A 
BRANCH  20  21
HETATM   21  O4  UNL     1      -5.624   5.357  17.323  1.00  0.00    -0.340 OA
ATOM     22  H4  UNL     1      -5.417   6.282  17.255  1.00  0.00     0.220 HD
ENDBRANCH  20  21
ENDBRANCH  15  16
ENDBRANCH  14  15
ENDBRANCH  13  14
ENDBRANCH  12  13
BRANCH  11  23
HETATM   23  C13 UNL     1     -12.189  10.153  16.283  1.00  0.00     0.047 C 
HETATM   24  C14 UNL     1     -13.110  10.732  16.942  1.00  0.00     0.104 C 
HETATM   25 CL1  UNL     1     -13.061  12.113  18.006  1.00  0.00    -0.071 Cl
HETATM   26 CL2  UNL     1     -14.774  10.040  16.778  1.00  0.00    -0.071 Cl
ENDBRANCH  11  23
BRANCH  10  27
HETATM   27  C9  UNL     1      -9.071  11.820  17.177  1.00  0.00     0.310 C 
HETATM   28  O1  UNL     1      -7.981  12.147  16.638  1.00  0.00    -0.258 OA
BRANCH  27  29
HETATM   29  O2  UNL     1      -9.018  11.586  18.539  1.00  0.00    -0.317 OA
BRANCH  29  30
HETATM   30  C10 UNL     1      -9.304  10.279  19.075  1.00  0.00     0.175 C 
HETATM   31  C11 UNL     1     -10.588  10.367  19.862  1.00  0.00     0.034 C 
ENDBRANCH  29  30
ENDBRANCH  27  29
ENDBRANCH  10  27
TORSDOF 9
ENDMDL
