MODEL 1
REMARK VINA RESULT: -8.617242954      0.000      0.000
REMARK  8 active torsions:
REMARK  status: ('A' for Active; 'I' for Inactive)
REMARK    1  A    between atoms: C7_9  and  S1_10 
REMARK    2  A    between atoms: S1_10  and  C8_11 
REMARK    3  A    between atoms: C12_19  and  C13_20 
REMARK    4  A    between atoms: N5_29  and  C18_30 
REMARK    5  A    between atoms: C18_30  and  C19_31 
REMARK    6  A    between atoms: C19_31  and  C20_32 
REMARK    7  A    between atoms: C20_32  and  C21_33 
REMARK    8  A    between atoms: C21_33  and  O1_34 
ROOT
HETATM    1  C8  UNL     1      -9.512  10.561  17.575  1.00  0.00     0.090 A 
HETATM    2  N1  UNL     1      -9.759  10.978  18.853  1.00  0.00    -0.346 N 
ATOM      3  H1  UNL     1      -9.956  11.963  19.033  1.00  0.00     0.167 HD
HETATM    4  C9  UNL     1      -9.744  10.112  19.869  1.00  0.00     0.182 A 
HETATM    5  N2  UNL     1      -9.483   8.828  19.606  1.00  0.00    -0.338 N 
ATOM      6  H2  UNL     1      -9.473   8.167  20.382  1.00  0.00     0.168 HD
HETATM    7  C10 UNL     1      -9.235   8.370  18.379  1.00  0.00     0.122 A 
HETATM    8  C11 UNL     1      -9.238   9.232  17.298  1.00  0.00     0.055 A 
HETATM    9  C12 UNL     1      -8.968   8.506  16.167  1.00  0.00     0.010 A 
HETATM   10  C17 UNL     1      -8.806   7.178  16.593  1.00  0.00     0.106 A 
HETATM   11  N5  UNL     1      -8.969   7.117  17.919  1.00  0.00    -0.342 N 
ENDROOT
BRANCH   1  12
HETATM   12  S1  UNL     1      -9.595  11.718  16.232  1.00  0.00    -0.069 SA
BRANCH  12  13
HETATM   13  C7  UNL     1     -11.214  12.452  16.146  1.00  0.00     0.034 A 
HETATM   14  C2  UNL     1     -11.338  13.767  15.750  1.00  0.00    -0.042 A 
HETATM   15  C1  UNL     1     -10.145  14.604  15.379  1.00  0.00     0.049 C 
HETATM   16  C3  UNL     1     -12.618  14.307  15.697  1.00  0.00     0.032 A 
HETATM   17  C4  UNL     1     -13.748  13.607  16.016  1.00  0.00     0.036 A 
HETATM   18 CL1  UNL     1     -15.350  14.332  15.938  1.00  0.00    -0.084 Cl
HETATM   19  C5  UNL     1     -13.608  12.299  16.410  1.00  0.00     0.049 A 
HETATM   20  C6  UNL     1     -12.355  11.725  16.475  1.00  0.00     0.053 A 
HETATM   21 CL2  UNL     1     -12.219  10.035  16.988  1.00  0.00    -0.083 Cl
ENDBRANCH  12  13
ENDBRANCH   1  12
BRANCH   9  22
HETATM   22  C13 UNL     1      -8.796   8.988  14.816  1.00  0.00     0.017 A 
HETATM   23  C14 UNL     1      -9.732   9.460  13.908  1.00  0.00     0.121 A 
HETATM   24  N3  UNL     1      -9.144   9.881  12.797  1.00  0.00    -0.311 N 
HETATM   25  N4  UNL     1      -7.850   9.696  12.955  1.00  0.00    -0.305 N 
ATOM     26  H3  UNL     1      -9.606  10.273  11.977  1.00  0.00     0.186 HD
HETATM   27  C15 UNL     1      -7.577   9.163  14.144  1.00  0.00     0.034 A 
ATOM     28  H4  UNL     1      -7.147   9.932  12.254  1.00  0.00     0.186 HD
HETATM   29  C16 UNL     1      -6.216   8.806  14.682  1.00  0.00     0.070 C 
ENDBRANCH   9  22
BRANCH  11  30
HETATM   30  C18 UNL     1      -8.882   5.930  18.765  1.00  0.00     0.130 C 
BRANCH  30  31
HETATM   31  C19 UNL     1      -9.417   4.792  17.927  1.00  0.00     0.022 C 
BRANCH  31  32
HETATM   32  C20 UNL     1     -10.579   4.123  18.578  1.00  0.00     0.028 C 
BRANCH  32  33
HETATM   33  C21 UNL     1     -11.443   5.143  19.289  1.00  0.00     0.164 C 
BRANCH  33  34
HETATM   34  O1  UNL     1     -12.759   4.960  18.804  1.00  0.00    -0.401 OA
ATOM     35  H1  UNL     1     -12.881   5.597  18.110  1.00  0.00     0.209 HD
ENDBRANCH  33  34
ENDBRANCH  32  33
ENDBRANCH  31  32
ENDBRANCH  30  31
ENDBRANCH  11  30
TORSDOF 8
ENDMDL
MODEL 2
REMARK VINA RESULT: -8.565968744      2.717      5.210
REMARK  8 active torsions:
REMARK  status: ('A' for Active; 'I' for Inactive)
REMARK    1  A    between atoms: C7_9  and  S1_10 
REMARK    2  A    between atoms: S1_10  and  C8_11 
REMARK    3  A    between atoms: C12_19  and  C13_20 
REMARK    4  A    between atoms: N5_29  and  C18_30 
REMARK    5  A    between atoms: C18_30  and  C19_31 
REMARK    6  A    between atoms: C19_31  and  C20_32 
REMARK    7  A    between atoms: C20_32  and  C21_33 
REMARK    8  A    between atoms: C21_33  and  O1_34 
ROOT
HETATM    1  C8  UNL     1     -10.192   9.972  15.738  1.00  0.00     0.090 A 
HETATM    2  N1  UNL     1     -10.460  10.422  14.475  1.00  0.00    -0.346 N 
ATOM      3  H1  UNL     1     -11.358  10.864  14.278  1.00  0.00     0.167 HD
HETATM    4  C9  UNL     1      -9.561  10.290  13.498  1.00  0.00     0.182 A 
HETATM    5  N2  UNL     1      -8.393   9.708  13.784  1.00  0.00    -0.338 N 
ATOM      6  H2  UNL     1      -7.705   9.608  13.037  1.00  0.00     0.168 HD
HETATM    7  C10 UNL     1      -8.082   9.251  14.996  1.00  0.00     0.122 A 
HETATM    8  C11 UNL     1      -8.984   9.365  16.038  1.00  0.00     0.055 A 
HETATM    9  C12 UNL     1      -8.413   8.831  17.164  1.00  0.00     0.010 A 
HETATM   10  C17 UNL     1      -7.136   8.394  16.776  1.00  0.00     0.106 A 
HETATM   11  N5  UNL     1      -6.957   8.653  15.476  1.00  0.00    -0.342 N 
ENDROOT
BRANCH   1  12
HETATM   12  S1  UNL     1     -11.378  10.211  17.037  1.00  0.00    -0.069 SA
BRANCH  12  13
HETATM   13  C7  UNL     1     -12.498  11.530  16.618  1.00  0.00     0.034 A 
HETATM   14  C2  UNL     1     -13.854  11.286  16.611  1.00  0.00    -0.042 A 
HETATM   15  C1  UNL     1     -14.423   9.937  16.955  1.00  0.00     0.049 C 
HETATM   16  C3  UNL     1     -14.698  12.338  16.276  1.00  0.00     0.032 A 
HETATM   17  C4  UNL     1     -14.254  13.591  15.956  1.00  0.00     0.036 A 
HETATM   18 CL1  UNL     1     -15.358  14.896  15.535  1.00  0.00    -0.084 Cl
HETATM   19  C5  UNL     1     -12.899  13.818  15.966  1.00  0.00     0.049 A 
HETATM   20  C6  UNL     1     -12.029  12.800  16.293  1.00  0.00     0.053 A 
HETATM   21 CL2  UNL     1     -10.289  13.136  16.293  1.00  0.00    -0.083 Cl
ENDBRANCH  12  13
ENDBRANCH   1  12
BRANCH   9  22
HETATM   22  C13 UNL     1      -9.003   8.662  18.471  1.00  0.00     0.017 A 
HETATM   23  C14 UNL     1      -9.254   9.593  19.467  1.00  0.00     0.121 A 
HETATM   24  N3  UNL     1      -9.886   9.034  20.490  1.00  0.00    -0.311 N 
HETATM   25  N4  UNL     1     -10.055   7.764  20.188  1.00  0.00    -0.305 N 
ATOM     26  H3  UNL     1     -10.185   9.500  21.347  1.00  0.00     0.186 HD
HETATM   27  C15 UNL     1      -9.547   7.478  18.991  1.00  0.00     0.034 A 
ATOM     28  H4  UNL     1     -10.517   7.086  20.795  1.00  0.00     0.186 HD
HETATM   29  C16 UNL     1      -9.546   6.135  18.309  1.00  0.00     0.070 C 
ENDBRANCH   9  22
BRANCH  11  30
HETATM   30  C18 UNL     1      -5.774   8.360  14.673  1.00  0.00     0.130 C 
BRANCH  30  31
HETATM   31  C19 UNL     1      -5.457   6.905  14.930  1.00  0.00     0.022 C 
BRANCH  31  32
HETATM   32  C20 UNL     1      -4.614   6.322  13.848  1.00  0.00     0.028 C 
BRANCH  32  33
HETATM   33  C21 UNL     1      -3.466   7.253  13.515  1.00  0.00     0.164 C 
BRANCH  33  34
HETATM   34  O1  UNL     1      -3.606   7.586  12.147  1.00  0.00    -0.401 OA
ATOM     35  H1  UNL     1      -3.926   8.481  12.120  1.00  0.00     0.209 HD
ENDBRANCH  33  34
ENDBRANCH  32  33
ENDBRANCH  31  32
ENDBRANCH  30  31
ENDBRANCH  11  30
TORSDOF 8
ENDMDL
MODEL 3
REMARK VINA RESULT: -8.544708191      1.510      1.772
REMARK  8 active torsions:
REMARK  status: ('A' for Active; 'I' for Inactive)
REMARK    1  A    between atoms: C7_9  and  S1_10 
REMARK    2  A    between atoms: S1_10  and  C8_11 
REMARK    3  A    between atoms: C12_19  and  C13_20 
REMARK    4  A    between atoms: N5_29  and  C18_30 
REMARK    5  A    between atoms: C18_30  and  C19_31 
REMARK    6  A    between atoms: C19_31  and  C20_32 
REMARK    7  A    between atoms: C20_32  and  C21_33 
REMARK    8  A    between atoms: C21_33  and  O1_34 
ROOT
HETATM    1  C8  UNL     1      -9.503  10.536  17.541  1.00  0.00     0.090 A 
HETATM    2  N1  UNL     1      -9.769  10.952  18.815  1.00  0.00    -0.346 N 
ATOM      3  H1  UNL     1     -10.010  11.929  18.987  1.00  0.00     0.167 HD
HETATM    4  C9  UNL     1      -9.719  10.096  19.838  1.00  0.00     0.182 A 
HETATM    5  N2  UNL     1      -9.401   8.823  19.586  1.00  0.00    -0.338 N 
ATOM      6  H2  UNL     1      -9.364   8.169  20.367  1.00  0.00     0.168 HD
HETATM    7  C10 UNL     1      -9.132   8.366  18.364  1.00  0.00     0.122 A 
HETATM    8  C11 UNL     1      -9.170   9.218  17.276  1.00  0.00     0.055 A 
HETATM    9  C12 UNL     1      -8.867   8.495  16.150  1.00  0.00     0.010 A 
HETATM   10  C17 UNL     1      -8.648   7.179  16.588  1.00  0.00     0.106 A 
HETATM   11  N5  UNL     1      -8.810   7.122  17.914  1.00  0.00    -0.342 N 
ENDROOT
BRANCH   1  12
HETATM   12  S1  UNL     1      -9.634  11.677  16.188  1.00  0.00    -0.069 SA
BRANCH  12  13
HETATM   13  C7  UNL     1     -11.263  12.392  16.136  1.00  0.00     0.034 A 
HETATM   14  C2  UNL     1     -11.408  13.714  15.775  1.00  0.00    -0.042 A 
HETATM   15  C1  UNL     1     -10.230  14.576  15.413  1.00  0.00     0.049 C 
HETATM   16  C3  UNL     1     -12.695  14.239  15.748  1.00  0.00     0.032 A 
HETATM   17  C4  UNL     1     -13.813  13.517  16.061  1.00  0.00     0.036 A 
HETATM   18 CL1  UNL     1     -15.425  14.222  16.017  1.00  0.00    -0.084 Cl
HETATM   19  C5  UNL     1     -13.652  12.200  16.421  1.00  0.00     0.049 A 
HETATM   20  C6  UNL     1     -12.391  11.642  16.459  1.00  0.00     0.053 A 
HETATM   21 CL2  UNL     1     -12.229   9.942  16.928  1.00  0.00    -0.083 Cl
ENDBRANCH  12  13
ENDBRANCH   1  12
BRANCH   9  22
HETATM   22  C13 UNL     1      -8.714   8.973  14.796  1.00  0.00     0.017 A 
HETATM   23  C14 UNL     1      -9.663   9.443  13.900  1.00  0.00     0.121 A 
HETATM   24  N3  UNL     1      -9.091   9.860  12.780  1.00  0.00    -0.311 N 
HETATM   25  N4  UNL     1      -7.795   9.676  12.919  1.00  0.00    -0.305 N 
ATOM     26  H3  UNL     1      -9.564  10.250  11.965  1.00  0.00     0.186 HD
HETATM   27  C15 UNL     1      -7.505   9.146  14.106  1.00  0.00     0.034 A 
ATOM     28  H4  UNL     1      -7.102   9.909  12.208  1.00  0.00     0.186 HD
HETATM   29  C16 UNL     1      -6.137   8.790  14.626  1.00  0.00     0.070 C 
ENDBRANCH   9  22
BRANCH  11  30
HETATM   30  C18 UNL     1      -8.673   5.947  18.770  1.00  0.00     0.130 C 
BRANCH  30  31
HETATM   31  C19 UNL     1      -8.567   4.769  17.830  1.00  0.00     0.022 C 
BRANCH  31  32
HETATM   32  C20 UNL     1      -7.348   3.954  18.100  1.00  0.00     0.028 C 
BRANCH  32  33
HETATM   33  C21 UNL     1      -6.170   4.854  18.407  1.00  0.00     0.164 C 
BRANCH  33  34
HETATM   34  O1  UNL     1      -5.618   5.230  17.159  1.00  0.00    -0.401 OA
ATOM     35  H1  UNL     1      -5.638   6.179  17.131  1.00  0.00     0.209 HD
ENDBRANCH  33  34
ENDBRANCH  32  33
ENDBRANCH  31  32
ENDBRANCH  30  31
ENDBRANCH  11  30
TORSDOF 8
ENDMDL
MODEL 4
REMARK VINA RESULT: -8.431921012      3.573      7.221
REMARK  8 active torsions:
REMARK  status: ('A' for Active; 'I' for Inactive)
REMARK    1  A    between atoms: C7_9  and  S1_10 
REMARK    2  A    between atoms: S1_10  and  C8_11 
REMARK    3  A    between atoms: C12_19  and  C13_20 
REMARK    4  A    between atoms: N5_29  and  C18_30 
REMARK    5  A    between atoms: C18_30  and  C19_31 
REMARK    6  A    between atoms: C19_31  and  C20_32 
REMARK    7  A    between atoms: C20_32  and  C21_33 
REMARK    8  A    between atoms: C21_33  and  O1_34 
ROOT
HETATM    1  C8  UNL     1      -9.790   8.048  17.354  1.00  0.00     0.090 A 
HETATM    2  N1  UNL     1     -10.164   7.445  18.522  1.00  0.00    -0.346 N 
ATOM      3  H1  UNL     1      -9.719   6.571  18.803  1.00  0.00     0.167 HD
HETATM    4  C9  UNL     1     -11.104   7.986  19.299  1.00  0.00     0.182 A 
HETATM    5  N2  UNL     1     -11.671   9.131  18.908  1.00  0.00    -0.338 N 
ATOM      6  H2  UNL     1     -12.389   9.545  19.503  1.00  0.00     0.168 HD
HETATM    7  C10 UNL     1     -11.344   9.759  17.779  1.00  0.00     0.122 A 
HETATM    8  C11 UNL     1     -10.377   9.233  16.943  1.00  0.00     0.055 A 
HETATM    9  C12 UNL     1     -10.230  10.075  15.870  1.00  0.00     0.010 A 
HETATM   10  C17 UNL     1     -11.133  11.128  16.083  1.00  0.00     0.106 A 
HETATM   11  N5  UNL     1     -11.790  10.922  17.230  1.00  0.00    -0.342 N 
ENDROOT
BRANCH   1  12
HETATM   12  S1  UNL     1      -8.496   7.343  16.365  1.00  0.00    -0.069 SA
BRANCH  12  13
HETATM   13  C7  UNL     1      -7.720   5.995  17.230  1.00  0.00     0.034 A 
HETATM   14  C2  UNL     1      -8.345   4.767  17.265  1.00  0.00    -0.042 A 
HETATM   15  C1  UNL     1      -9.666   4.525  16.587  1.00  0.00     0.049 C 
HETATM   16  C3  UNL     1      -7.711   3.738  17.953  1.00  0.00     0.032 A 
HETATM   17  C4  UNL     1      -6.511   3.883  18.590  1.00  0.00     0.036 A 
HETATM   18 CL1  UNL     1      -5.743   2.554  19.452  1.00  0.00    -0.084 Cl
HETATM   19  C5  UNL     1      -5.900   5.113  18.547  1.00  0.00     0.049 A 
HETATM   20  C6  UNL     1      -6.497   6.159  17.875  1.00  0.00     0.053 A 
HETATM   21 CL2  UNL     1      -5.676   7.729  17.845  1.00  0.00    -0.083 Cl
ENDBRANCH  12  13
ENDBRANCH   1  12
BRANCH   9  22
HETATM   22  C13 UNL     1      -9.392   9.901  14.707  1.00  0.00     0.017 A 
HETATM   23  C14 UNL     1      -9.732   9.613  13.394  1.00  0.00     0.121 A 
HETATM   24  N3  UNL     1      -8.659   9.617  12.615  1.00  0.00    -0.311 N 
HETATM   25  N4  UNL     1      -7.628   9.900  13.383  1.00  0.00    -0.305 N 
ATOM     26  H3  UNL     1      -8.636   9.435  11.612  1.00  0.00     0.186 HD
HETATM   27  C15 UNL     1      -8.001  10.081  14.649  1.00  0.00     0.034 A 
ATOM     28  H4  UNL     1      -6.667   9.972  13.051  1.00  0.00     0.186 HD
HETATM   29  C16 UNL     1      -7.108  10.415  15.815  1.00  0.00     0.070 C 
ENDBRANCH   9  22
BRANCH  11  30
HETATM   30  C18 UNL     1     -12.818  11.771  17.822  1.00  0.00     0.130 C 
BRANCH  30  31
HETATM   31  C19 UNL     1     -13.670  12.247  16.669  1.00  0.00     0.022 C 
BRANCH  31  32
HETATM   32  C20 UNL     1     -13.824  13.730  16.669  1.00  0.00     0.028 C 
BRANCH  32  33
HETATM   33  C21 UNL     1     -14.886  14.149  15.674  1.00  0.00     0.164 C 
BRANCH  33  34
HETATM   34  O1  UNL     1     -16.032  13.371  15.963  1.00  0.00    -0.401 OA
ATOM     35  H1  UNL     1     -16.126  13.371  16.908  1.00  0.00     0.209 HD
ENDBRANCH  33  34
ENDBRANCH  32  33
ENDBRANCH  31  32
ENDBRANCH  30  31
ENDBRANCH  11  30
TORSDOF 8
ENDMDL
MODEL 5
REMARK VINA RESULT: -8.412106177      1.032      1.617
REMARK  8 active torsions:
REMARK  status: ('A' for Active; 'I' for Inactive)
REMARK    1  A    between atoms: C7_9  and  S1_10 
REMARK    2  A    between atoms: S1_10  and  C8_11 
REMARK    3  A    between atoms: C12_19  and  C13_20 
REMARK    4  A    between atoms: N5_29  and  C18_30 
REMARK    5  A    between atoms: C18_30  and  C19_31 
REMARK    6  A    between atoms: C19_31  and  C20_32 
REMARK    7  A    between atoms: C20_32  and  C21_33 
REMARK    8  A    between atoms: C21_33  and  O1_34 
ROOT
HETATM    1  C8  UNL     1      -9.544  10.525  17.644  1.00  0.00     0.090 A 
HETATM    2  N1  UNL     1      -9.796  10.948  18.920  1.00  0.00    -0.346 N 
ATOM      3  H1  UNL     1     -10.009  11.930  19.092  1.00  0.00     0.167 HD
HETATM    4  C9  UNL     1      -9.767  10.090  19.941  1.00  0.00     0.182 A 
HETATM    5  N2  UNL     1      -9.486   8.809  19.687  1.00  0.00    -0.338 N 
ATOM      6  H2  UNL     1      -9.464   8.153  20.468  1.00  0.00     0.168 HD
HETATM    7  C10 UNL     1      -9.232   8.345  18.464  1.00  0.00     0.122 A 
HETATM    8  C11 UNL     1      -9.249   9.199  17.377  1.00  0.00     0.055 A 
HETATM    9  C12 UNL     1      -8.968   8.469  16.250  1.00  0.00     0.010 A 
HETATM   10  C17 UNL     1      -8.785   7.147  16.686  1.00  0.00     0.106 A 
HETATM   11  N5  UNL     1      -8.946   7.093  18.013  1.00  0.00    -0.342 N 
ENDROOT
BRANCH   1  12
HETATM   12  S1  UNL     1      -9.647  11.671  16.293  1.00  0.00    -0.069 SA
BRANCH  12  13
HETATM   13  C7  UNL     1     -11.273  12.391  16.213  1.00  0.00     0.034 A 
HETATM   14  C2  UNL     1     -12.369  11.615  16.521  1.00  0.00    -0.042 A 
HETATM   15  C1  UNL     1     -12.237  10.174  16.931  1.00  0.00     0.049 C 
HETATM   16  C3  UNL     1     -13.623  12.210  16.445  1.00  0.00     0.032 A 
HETATM   17  C4  UNL     1     -13.821  13.513  16.083  1.00  0.00     0.036 A 
HETATM   18 CL1  UNL     1     -15.428  14.227  15.996  1.00  0.00    -0.084 Cl
HETATM   19  C5  UNL     1     -12.718  14.274  15.777  1.00  0.00     0.049 A 
HETATM   20  C6  UNL     1     -11.456  13.720  15.841  1.00  0.00     0.053 A 
HETATM   21 CL2  UNL     1     -10.061  14.735  15.439  1.00  0.00    -0.083 Cl
ENDBRANCH  12  13
ENDBRANCH   1  12
BRANCH   9  22
HETATM   22  C13 UNL     1      -8.805   8.943  14.896  1.00  0.00     0.017 A 
HETATM   23  C14 UNL     1      -9.748   9.411  13.992  1.00  0.00     0.121 A 
HETATM   24  N3  UNL     1      -9.167   9.826  12.875  1.00  0.00    -0.311 N 
HETATM   25  N4  UNL     1      -7.872   9.643  13.025  1.00  0.00    -0.305 N 
ATOM     26  H3  UNL     1      -9.634  10.213  12.055  1.00  0.00     0.186 HD
HETATM   27  C15 UNL     1      -7.591   9.116  14.216  1.00  0.00     0.034 A 
ATOM     28  H4  UNL     1      -7.173   9.875  12.319  1.00  0.00     0.186 HD
HETATM   29  C16 UNL     1      -6.227   8.762  14.747  1.00  0.00     0.070 C 
ENDBRANCH   9  22
BRANCH  11  30
HETATM   30  C18 UNL     1      -8.839   5.914  18.867  1.00  0.00     0.130 C 
BRANCH  30  31
HETATM   31  C19 UNL     1      -9.463   4.784  18.082  1.00  0.00     0.022 C 
BRANCH  31  32
HETATM   32  C20 UNL     1     -10.599   4.159  18.818  1.00  0.00     0.028 C 
BRANCH  32  33
HETATM   33  C21 UNL     1     -11.530   5.227  19.354  1.00  0.00     0.164 C 
BRANCH  33  34
HETATM   34  O1  UNL     1     -12.798   4.977  18.776  1.00  0.00    -0.401 OA
ATOM     35  H1  UNL     1     -12.661   4.931  17.837  1.00  0.00     0.209 HD
ENDBRANCH  33  34
ENDBRANCH  32  33
ENDBRANCH  31  32
ENDBRANCH  30  31
ENDBRANCH  11  30
TORSDOF 8
ENDMDL
