MODEL 1
REMARK VINA RESULT: -8.565417900      0.000      0.000
REMARK  10 active torsions:
REMARK  status: ('A' for Active; 'I' for Inactive)
REMARK    1  A    between atoms: O1_2  and  C2_3 
REMARK    2  A    between atoms: C4_5  and  C5_6 
REMARK    3  A    between atoms: C6_7  and  C7_8 
REMARK    4  A    between atoms: C7_8  and  C8_10 
REMARK    5  A    between atoms: C11_14  and  O4_15 
REMARK    6  A    between atoms: C12_17  and  C13_18 
REMARK    7  A    between atoms: C16_21  and  C17_22 
REMARK    8  A    between atoms: C19_27  and  C20_28 
REMARK    9  A    between atoms: C20_28  and  N1_29 
REMARK   10  A    between atoms: C25_34  and  O5_35 
ROOT
HETATM    1  C8  UNL     1      -8.975   9.633  15.443  1.00  0.00     0.135 A 
HETATM    2  O3  UNL     1      -7.871   9.019  15.135  1.00  0.00    -0.305 OA
HETATM    3  C9  UNL     1      -7.610   8.043  15.933  1.00  0.00     0.090 A 
HETATM    4  C10 UNL     1      -6.588   7.139  16.003  1.00  0.00     0.075 A 
HETATM    5  C11 UNL     1      -6.531   6.165  16.968  1.00  0.00     0.075 A 
HETATM    6  C12 UNL     1      -7.571   6.068  17.946  1.00  0.00    -0.005 A 
HETATM    7  C16 UNL     1      -8.596   6.975  17.848  1.00  0.00     0.070 A 
HETATM    8  C18 UNL     1      -8.658   7.995  16.877  1.00  0.00     0.024 A 
HETATM    9  C19 UNL     1      -9.536   9.005  16.603  1.00  0.00     0.011 A 
ENDROOT
BRANCH   1  10
HETATM   10  C7  UNL     1      -9.576  10.771  14.749  1.00  0.00     0.206 C 
HETATM   11  O2  UNL     1     -10.079  10.591  13.586  1.00  0.00    -0.285 OA
BRANCH  10  12
HETATM   12  C6  UNL     1      -9.622  12.056  15.315  1.00  0.00     0.058 C 
HETATM   13  C5  UNL     1     -10.217  13.100  15.676  1.00  0.00     0.015 C 
BRANCH  13  14
HETATM   14  C4  UNL     1     -11.625  13.492  15.603  1.00  0.00    -0.033 A 
HETATM   15  C3  UNL     1     -12.522  12.791  16.483  1.00  0.00     0.051 A 
HETATM   16  C2  UNL     1     -13.856  13.201  16.455  1.00  0.00     0.102 A 
HETATM   17  C25 UNL     1     -14.273  14.189  15.649  1.00  0.00     0.099 A 
HETATM   18  C24 UNL     1     -13.428  14.866  14.797  1.00  0.00     0.040 A 
HETATM   19  C23 UNL     1     -12.068  14.465  14.813  1.00  0.00     0.014 A 
BRANCH  16  20
HETATM   20  O1  UNL     1     -14.747  12.535  17.302  1.00  0.00    -0.353 OA
HETATM   21  C1  UNL     1     -15.014  11.161  17.266  1.00  0.00     0.210 C 
ENDBRANCH  16  20
BRANCH  17  22
HETATM   22  O5  UNL     1     -15.620  14.626  15.621  1.00  0.00    -0.358 OA
ATOM     23  H5  UNL     1     -15.855  15.543  15.544  1.00  0.00     0.217 HD
ENDBRANCH  17  22
ENDBRANCH  13  14
ENDBRANCH  10  12
ENDBRANCH   1  10
BRANCH   9  24
HETATM   24  C20 UNL     1     -10.768   9.437  17.210  1.00  0.00     0.158 C 
BRANCH  24  25
HETATM   25  N1  UNL     1     -10.511  10.399  18.257  1.00  0.00    -0.417 N 
HETATM   26  C21 UNL     1      -9.274  10.677  18.785  1.00  0.00     0.142 C 
HETATM   27  C22 UNL     1     -11.598  10.350  19.243  1.00  0.00     0.142 C 
ENDBRANCH  24  25
ENDBRANCH   9  24
BRANCH   7  28
HETATM   28  C17 UNL     1      -9.870   6.615  18.489  1.00  0.00     0.419 C 
HETATM   29  F1  UNL     1      -9.939   7.551  19.632  1.00  0.00    -0.166 F 
HETATM   30  F2  UNL     1      -9.527   5.630  19.582  1.00  0.00    -0.166 F 
HETATM   31  F3  UNL     1     -11.036   6.483  18.064  1.00  0.00    -0.166 F 
ENDBRANCH   7  28
BRANCH   5  32
HETATM   32  O4  UNL     1      -5.491   5.337  16.945  1.00  0.00    -0.360 OA
ATOM     33  H4  UNL     1      -5.352   4.828  16.154  1.00  0.00     0.217 HD
ENDBRANCH   5  32
BRANCH   6  34
HETATM   34  C13 UNL     1      -7.399   5.045  18.919  1.00  0.00     0.014 C 
HETATM   35  C14 UNL     1      -6.236   5.116  19.866  1.00  0.00     0.015 C 
HETATM   36  C15 UNL     1      -7.405   3.607  18.349  1.00  0.00     0.015 C 
ENDBRANCH   6  34
TORSDOF 10
ENDMDL
MODEL 2
REMARK VINA RESULT: -8.477202587      2.136      3.758
REMARK  10 active torsions:
REMARK  status: ('A' for Active; 'I' for Inactive)
REMARK    1  A    between atoms: O1_2  and  C2_3 
REMARK    2  A    between atoms: C4_5  and  C5_6 
REMARK    3  A    between atoms: C6_7  and  C7_8 
REMARK    4  A    between atoms: C7_8  and  C8_10 
REMARK    5  A    between atoms: C11_14  and  O4_15 
REMARK    6  A    between atoms: C12_17  and  C13_18 
REMARK    7  A    between atoms: C16_21  and  C17_22 
REMARK    8  A    between atoms: C19_27  and  C20_28 
REMARK    9  A    between atoms: C20_28  and  N1_29 
REMARK   10  A    between atoms: C25_34  and  O5_35 
ROOT
HETATM    1  C8  UNL     1     -11.963   9.468  17.166  1.00  0.00     0.135 A 
HETATM    2  O3  UNL     1     -11.556   9.917  16.015  1.00  0.00    -0.305 OA
HETATM    3  C9  UNL     1     -10.328   9.615  15.774  1.00  0.00     0.090 A 
HETATM    4  C10 UNL     1      -9.491   9.867  14.723  1.00  0.00     0.075 A 
HETATM    5  C11 UNL     1      -8.192   9.427  14.695  1.00  0.00     0.075 A 
HETATM    6  C12 UNL     1      -7.670   8.672  15.793  1.00  0.00    -0.005 A 
HETATM    7  C16 UNL     1      -8.532   8.418  16.830  1.00  0.00     0.070 A 
HETATM    8  C18 UNL     1      -9.862   8.880  16.885  1.00  0.00     0.024 A 
HETATM    9  C19 UNL     1     -10.875   8.782  17.797  1.00  0.00     0.011 A 
ENDROOT
BRANCH   1  10
HETATM   10  C7  UNL     1     -13.295   9.615  17.751  1.00  0.00     0.206 C 
HETATM   11  O2  UNL     1     -14.064   8.594  17.802  1.00  0.00    -0.285 OA
BRANCH  10  12
HETATM   12  C6  UNL     1     -13.759  10.840  18.260  1.00  0.00     0.058 C 
HETATM   13  C5  UNL     1     -14.050  12.056  18.158  1.00  0.00     0.015 C 
BRANCH  13  14
HETATM   14  C4  UNL     1     -13.980  12.983  17.028  1.00  0.00    -0.033 A 
HETATM   15  C3  UNL     1     -12.659  13.311  16.562  1.00  0.00     0.051 A 
HETATM   16  C2  UNL     1     -12.591  14.152  15.450  1.00  0.00     0.102 A 
HETATM   17  C25 UNL     1     -13.697  14.627  14.856  1.00  0.00     0.099 A 
HETATM   18  C24 UNL     1     -14.969  14.326  15.294  1.00  0.00     0.040 A 
HETATM   19  C23 UNL     1     -15.058  13.471  16.422  1.00  0.00     0.014 A 
BRANCH  16  20
HETATM   20  O1  UNL     1     -11.318  14.485  14.977  1.00  0.00    -0.353 OA
HETATM   21  C1  UNL     1     -10.125  13.887  15.399  1.00  0.00     0.210 C 
ENDBRANCH  16  20
BRANCH  17  22
HETATM   22  O5  UNL     1     -13.644  15.468  13.719  1.00  0.00    -0.358 OA
ATOM     23  H5  UNL     1     -14.328  15.476  13.060  1.00  0.00     0.217 HD
ENDBRANCH  17  22
ENDBRANCH  13  14
ENDBRANCH  10  12
ENDBRANCH   1  10
BRANCH   9  24
HETATM   24  C20 UNL     1     -10.984   8.158  19.089  1.00  0.00     0.158 C 
BRANCH  24  25
HETATM   25  N1  UNL     1     -10.684   9.103  20.140  1.00  0.00    -0.417 N 
HETATM   26  C21 UNL     1      -9.942  10.248  19.981  1.00  0.00     0.142 C 
HETATM   27  C22 UNL     1     -10.425   8.377  21.390  1.00  0.00     0.142 C 
ENDBRANCH  24  25
ENDBRANCH   9  24
BRANCH   7  28
HETATM   28  C17 UNL     1      -8.208   7.278  17.702  1.00  0.00     0.419 C 
HETATM   29  F1  UNL     1      -7.368   6.427  16.831  1.00  0.00    -0.166 F 
HETATM   30  F2  UNL     1      -9.236   6.213  17.404  1.00  0.00    -0.166 F 
HETATM   31  F3  UNL     1      -7.734   7.187  18.854  1.00  0.00    -0.166 F 
ENDBRANCH   7  28
BRANCH   5  32
HETATM   32  O4  UNL     1      -7.465   9.728  13.623  1.00  0.00    -0.360 OA
ATOM     33  H4  UNL     1      -6.883  10.477  13.684  1.00  0.00     0.217 HD
ENDBRANCH   5  32
BRANCH   6  34
HETATM   34  C13 UNL     1      -6.304   8.293  15.678  1.00  0.00     0.014 C 
HETATM   35  C14 UNL     1      -5.233   9.327  15.876  1.00  0.00     0.015 C 
HETATM   36  C15 UNL     1      -5.950   7.551  14.368  1.00  0.00     0.015 C 
ENDBRANCH   6  34
TORSDOF 10
ENDMDL
MODEL 3
REMARK VINA RESULT: -8.292822271      2.593      3.581
REMARK  10 active torsions:
REMARK  status: ('A' for Active; 'I' for Inactive)
REMARK    1  A    between atoms: O1_2  and  C2_3 
REMARK    2  A    between atoms: C4_5  and  C5_6 
REMARK    3  A    between atoms: C6_7  and  C7_8 
REMARK    4  A    between atoms: C7_8  and  C8_10 
REMARK    5  A    between atoms: C11_14  and  O4_15 
REMARK    6  A    between atoms: C12_17  and  C13_18 
REMARK    7  A    between atoms: C16_21  and  C17_22 
REMARK    8  A    between atoms: C19_27  and  C20_28 
REMARK    9  A    between atoms: C20_28  and  N1_29 
REMARK   10  A    between atoms: C25_34  and  O5_35 
ROOT
HETATM    1  C8  UNL     1      -9.335   9.973  18.087  1.00  0.00     0.135 A 
HETATM    2  O3  UNL     1      -9.810   9.576  19.231  1.00  0.00    -0.305 OA
HETATM    3  C9  UNL     1      -9.941   8.298  19.295  1.00  0.00     0.090 A 
HETATM    4  C10 UNL     1     -10.389   7.450  20.268  1.00  0.00     0.075 A 
HETATM    5  C11 UNL     1     -10.433   6.090  20.098  1.00  0.00     0.075 A 
HETATM    6  C12 UNL     1      -9.996   5.511  18.864  1.00  0.00    -0.005 A 
HETATM    7  C16 UNL     1      -9.535   6.379  17.906  1.00  0.00     0.070 A 
HETATM    8  C18 UNL     1      -9.503   7.779  18.057  1.00  0.00     0.024 A 
HETATM    9  C19 UNL     1      -9.126   8.822  17.259  1.00  0.00     0.011 A 
ENDROOT
BRANCH   1  10
HETATM   10  C7  UNL     1      -9.050  11.347  17.677  1.00  0.00     0.206 C 
HETATM   11  O2  UNL     1      -8.176  12.017  18.327  1.00  0.00    -0.285 OA
BRANCH  10  12
HETATM   12  C6  UNL     1      -9.702  11.957  16.592  1.00  0.00     0.058 C 
HETATM   13  C5  UNL     1     -10.722  12.364  15.984  1.00  0.00     0.015 C 
BRANCH  13  14
HETATM   14  C4  UNL     1     -12.141  12.333  16.335  1.00  0.00    -0.033 A 
HETATM   15  C3  UNL     1     -12.628  11.098  16.893  1.00  0.00     0.051 A 
HETATM   16  C2  UNL     1     -13.969  11.085  17.278  1.00  0.00     0.102 A 
HETATM   17  C25 UNL     1     -14.756  12.162  17.133  1.00  0.00     0.099 A 
HETATM   18  C24 UNL     1     -14.307  13.349  16.596  1.00  0.00     0.040 A 
HETATM   19  C23 UNL     1     -12.946  13.383  16.199  1.00  0.00     0.014 A 
BRANCH  16  20
HETATM   20  O1  UNL     1     -14.465   9.897  17.824  1.00  0.00    -0.353 OA
HETATM   21  C1  UNL     1     -13.676   8.838  18.289  1.00  0.00     0.210 C 
ENDBRANCH  16  20
BRANCH  17  22
HETATM   22  O5  UNL     1     -16.114  12.167  17.533  1.00  0.00    -0.358 OA
ATOM     23  H5  UNL     1     -16.793  12.587  17.019  1.00  0.00     0.217 HD
ENDBRANCH  17  22
ENDBRANCH  13  14
ENDBRANCH  10  12
ENDBRANCH   1  10
BRANCH   9  24
HETATM   24  C20 UNL     1      -8.603   8.903  15.920  1.00  0.00     0.158 C 
BRANCH  24  25
HETATM   25  N1  UNL     1      -7.162   8.799  15.929  1.00  0.00    -0.417 N 
HETATM   26  C21 UNL     1      -6.306   9.742  16.444  1.00  0.00     0.142 C 
HETATM   27  C22 UNL     1      -6.710   8.188  14.672  1.00  0.00     0.142 C 
ENDBRANCH  24  25
ENDBRANCH   9  24
BRANCH   7  28
HETATM   28  C17 UNL     1      -8.652   5.821  16.870  1.00  0.00     0.419 C 
HETATM   29  F1  UNL     1      -9.282   6.286  15.616  1.00  0.00    -0.166 F 
HETATM   30  F2  UNL     1      -9.269   4.508  16.452  1.00  0.00    -0.166 F 
HETATM   31  F3  UNL     1      -7.418   5.858  16.685  1.00  0.00    -0.166 F 
ENDBRANCH   7  28
BRANCH   5  32
HETATM   32  O4  UNL     1     -10.888   5.357  21.110  1.00  0.00    -0.360 OA
ATOM     33  H4  UNL     1     -11.749   5.568  21.452  1.00  0.00     0.217 HD
ENDBRANCH   5  32
BRANCH   6  34
HETATM   34  C13 UNL     1     -10.113   4.096  18.779  1.00  0.00     0.014 C 
HETATM   35  C14 UNL     1     -11.448   3.451  19.021  1.00  0.00     0.015 C 
HETATM   36  C15 UNL     1      -9.093   3.313  19.637  1.00  0.00     0.015 C 
ENDBRANCH   6  34
TORSDOF 10
ENDMDL
MODEL 4
REMARK VINA RESULT: -8.287349554      0.915      1.121
REMARK  10 active torsions:
REMARK  status: ('A' for Active; 'I' for Inactive)
REMARK    1  A    between atoms: O1_2  and  C2_3 
REMARK    2  A    between atoms: C4_5  and  C5_6 
REMARK    3  A    between atoms: C6_7  and  C7_8 
REMARK    4  A    between atoms: C7_8  and  C8_10 
REMARK    5  A    between atoms: C11_14  and  O4_15 
REMARK    6  A    between atoms: C12_17  and  C13_18 
REMARK    7  A    between atoms: C16_21  and  C17_22 
REMARK    8  A    between atoms: C19_27  and  C20_28 
REMARK    9  A    between atoms: C20_28  and  N1_29 
REMARK   10  A    between atoms: C25_34  and  O5_35 
ROOT
HETATM    1  C8  UNL     1      -8.507   9.986  16.077  1.00  0.00     0.135 A 
HETATM    2  O3  UNL     1      -7.269   9.593  16.017  1.00  0.00    -0.305 OA
HETATM    3  C9  UNL     1      -6.997   8.681  16.883  1.00  0.00     0.090 A 
HETATM    4  C10 UNL     1      -5.860   7.986  17.186  1.00  0.00     0.075 A 
HETATM    5  C11 UNL     1      -5.818   7.036  18.175  1.00  0.00     0.075 A 
HETATM    6  C12 UNL     1      -6.997   6.741  18.931  1.00  0.00    -0.005 A 
HETATM    7  C16 UNL     1      -8.132   7.439  18.600  1.00  0.00     0.070 A 
HETATM    8  C18 UNL     1      -8.186   8.432  17.602  1.00  0.00     0.024 A 
HETATM    9  C19 UNL     1      -9.163   9.259  17.124  1.00  0.00     0.011 A 
ENDROOT
BRANCH   1  10
HETATM   10  C7  UNL     1      -9.157  10.992  15.240  1.00  0.00     0.206 C 
HETATM   11  O2  UNL     1      -9.599  10.647  14.089  1.00  0.00    -0.285 OA
BRANCH  10  12
HETATM   12  C6  UNL     1      -9.315  12.325  15.654  1.00  0.00     0.058 C 
HETATM   13  C5  UNL     1      -9.995  13.357  15.870  1.00  0.00     0.015 C 
BRANCH  13  14
HETATM   14  C4  UNL     1     -11.421  13.637  15.698  1.00  0.00    -0.033 A 
HETATM   15  C3  UNL     1     -12.319  12.878  16.529  1.00  0.00     0.051 A 
HETATM   16  C2  UNL     1     -13.675  13.182  16.405  1.00  0.00     0.102 A 
HETATM   17  C25 UNL     1     -14.112  14.126  15.556  1.00  0.00     0.099 A 
HETATM   18  C24 UNL     1     -13.266  14.856  14.750  1.00  0.00     0.040 A 
HETATM   19  C23 UNL     1     -11.883  14.563  14.863  1.00  0.00     0.014 A 
BRANCH  16  20
HETATM   20  O1  UNL     1     -14.567  12.460  17.203  1.00  0.00    -0.353 OA
HETATM   21  C1  UNL     1     -15.024  11.166  16.925  1.00  0.00     0.210 C 
ENDBRANCH  16  20
BRANCH  17  22
HETATM   22  O5  UNL     1     -15.483  14.455  15.431  1.00  0.00    -0.358 OA
ATOM     23  H5  UNL     1     -16.174  13.864  15.706  1.00  0.00     0.217 HD
ENDBRANCH  17  22
ENDBRANCH  13  14
ENDBRANCH  10  12
ENDBRANCH   1  10
BRANCH   9  24
HETATM   24  C20 UNL     1     -10.550   9.448  17.460  1.00  0.00     0.158 C 
BRANCH  24  25
HETATM   25  N1  UNL     1     -10.687  10.370  18.564  1.00  0.00    -0.417 N 
HETATM   26  C21 UNL     1      -9.684  10.703  19.441  1.00  0.00     0.142 C 
HETATM   27  C22 UNL     1     -12.007  10.196  19.184  1.00  0.00     0.142 C 
ENDBRANCH  24  25
ENDBRANCH   9  24
BRANCH   7  28
HETATM   28  C17 UNL     1      -9.419   6.842  18.988  1.00  0.00     0.419 C 
HETATM   29  F1  UNL     1      -9.080   5.412  19.156  1.00  0.00    -0.166 F 
HETATM   30  F2  UNL     1     -10.048   6.330  17.714  1.00  0.00    -0.166 F 
HETATM   31  F3  UNL     1     -10.260   7.115  19.869  1.00  0.00    -0.166 F 
ENDBRANCH   7  28
BRANCH   5  32
HETATM   32  O4  UNL     1      -4.659   6.420  18.387  1.00  0.00    -0.360 OA
ATOM     33  H4  UNL     1      -4.265   6.511  19.247  1.00  0.00     0.217 HD
ENDBRANCH   5  32
BRANCH   6  34
HETATM   34  C13 UNL     1      -6.838   5.765  19.953  1.00  0.00     0.014 C 
HETATM   35  C14 UNL     1      -6.071   6.118  21.195  1.00  0.00     0.015 C 
HETATM   36  C15 UNL     1      -6.272   4.410  19.467  1.00  0.00     0.015 C 
ENDBRANCH   6  34
TORSDOF 10
ENDMDL
MODEL 5
REMARK VINA RESULT: -8.281147323      2.637      3.986
REMARK  10 active torsions:
REMARK  status: ('A' for Active; 'I' for Inactive)
REMARK    1  A    between atoms: O1_2  and  C2_3 
REMARK    2  A    between atoms: C4_5  and  C5_6 
REMARK    3  A    between atoms: C6_7  and  C7_8 
REMARK    4  A    between atoms: C7_8  and  C8_10 
REMARK    5  A    between atoms: C11_14  and  O4_15 
REMARK    6  A    between atoms: C12_17  and  C13_18 
REMARK    7  A    between atoms: C16_21  and  C17_22 
REMARK    8  A    between atoms: C19_27  and  C20_28 
REMARK    9  A    between atoms: C20_28  and  N1_29 
REMARK   10  A    between atoms: C25_34  and  O5_35 
ROOT
HETATM    1  C8  UNL     1     -10.172  11.438  16.587  1.00  0.00     0.135 A 
HETATM    2  O3  UNL     1     -10.681  10.740  17.559  1.00  0.00    -0.305 OA
HETATM    3  C9  UNL     1     -10.254   9.527  17.573  1.00  0.00     0.090 A 
HETATM    4  C10 UNL     1     -10.504   8.455  18.384  1.00  0.00     0.075 A 
HETATM    5  C11 UNL     1      -9.909   7.234  18.194  1.00  0.00     0.075 A 
HETATM    6  C12 UNL     1      -8.986   7.048  17.117  1.00  0.00    -0.005 A 
HETATM    7  C16 UNL     1      -8.737   8.142  16.325  1.00  0.00     0.070 A 
HETATM    8  C18 UNL     1      -9.355   9.397  16.492  1.00  0.00     0.024 A 
HETATM    9  C19 UNL     1      -9.293  10.592  15.834  1.00  0.00     0.011 A 
ENDROOT
BRANCH   1  10
HETATM   10  C7  UNL     1     -10.425  12.845  16.281  1.00  0.00     0.206 C 
HETATM   11  O2  UNL     1      -9.462  13.682  16.378  1.00  0.00    -0.285 OA
BRANCH  10  12
HETATM   12  C6  UNL     1     -11.690  13.310  15.883  1.00  0.00     0.058 C 
HETATM   13  C5  UNL     1     -12.940  13.364  15.969  1.00  0.00     0.015 C 
BRANCH  13  14
HETATM   14  C4  UNL     1     -13.884  12.701  16.869  1.00  0.00    -0.033 A 
HETATM   15  C3  UNL     1     -13.306  12.005  17.989  1.00  0.00     0.051 A 
HETATM   16  C2  UNL     1     -14.207  11.417  18.879  1.00  0.00     0.102 A 
HETATM   17  C25 UNL     1     -15.534  11.497  18.694  1.00  0.00     0.099 A 
HETATM   18  C24 UNL     1     -16.102  12.154  17.624  1.00  0.00     0.040 A 
HETATM   19  C23 UNL     1     -15.202  12.759  16.709  1.00  0.00     0.014 A 
BRANCH  16  20
HETATM   20  O1  UNL     1     -13.670  10.737  19.975  1.00  0.00    -0.353 OA
HETATM   21  C1  UNL     1     -13.565   9.346  20.083  1.00  0.00     0.210 C 
ENDBRANCH  16  20
BRANCH  17  22
HETATM   22  O5  UNL     1     -16.460  10.918  19.595  1.00  0.00    -0.358 OA
ATOM     23  H5  UNL     1     -16.937  10.123  19.392  1.00  0.00     0.217 HD
ENDBRANCH  17  22
ENDBRANCH  13  14
ENDBRANCH  10  12
ENDBRANCH   1  10
BRANCH   9  24
HETATM   24  C20 UNL     1      -8.558  11.050  14.684  1.00  0.00     0.158 C 
BRANCH  24  25
HETATM   25  N1  UNL     1      -9.412  11.101  13.519  1.00  0.00    -0.417 N 
HETATM   26  C21 UNL     1      -9.660  10.045  12.677  1.00  0.00     0.142 C 
HETATM   27  C22 UNL     1      -9.238  12.393  12.842  1.00  0.00     0.142 C 
ENDBRANCH  24  25
ENDBRANCH   9  24
BRANCH   7  28
HETATM   28  C17 UNL     1      -7.482   8.137  15.557  1.00  0.00     0.419 C 
HETATM   29  F1  UNL     1      -6.655   7.152  16.287  1.00  0.00    -0.166 F 
HETATM   30  F2  UNL     1      -6.561   9.114  16.248  1.00  0.00    -0.166 F 
HETATM   31  F3  UNL     1      -7.219   7.996  14.345  1.00  0.00    -0.166 F 
ENDBRANCH   7  28
BRANCH   5  32
HETATM   32  O4  UNL     1     -10.224   6.259  19.041  1.00  0.00    -0.360 OA
ATOM     33  H4  UNL     1     -11.129   5.967  19.059  1.00  0.00     0.217 HD
ENDBRANCH   5  32
BRANCH   6  34
HETATM   34  C13 UNL     1      -8.451   5.737  16.989  1.00  0.00     0.014 C 
HETATM   35  C14 UNL     1      -9.347   4.616  16.545  1.00  0.00     0.015 C 
HETATM   36  C15 UNL     1      -7.705   5.221  18.242  1.00  0.00     0.015 C 
ENDBRANCH   6  34
TORSDOF 10
ENDMDL
