MODEL 1
REMARK VINA RESULT: -8.544422569      0.000      0.000
REMARK  7 active torsions:
REMARK  status: ('A' for Active; 'I' for Inactive)
REMARK    1  A    between atoms: C2_2  and  C3_3 
REMARK    2  A    between atoms: C3_3  and  C4_4 
REMARK    3  A    between atoms: C4_4  and  N1_5 
REMARK    4  A    between atoms: C10_11  and  N2_12 
REMARK    5  A    between atoms: N2_12  and  C11_13 
REMARK    6  A    between atoms: N2_12  and  C13_15 
REMARK    7  A    between atoms: C13_15  and  C14_16 
ROOT
HETATM    1  N1  UNL     1     -10.571  10.665  16.228  1.00  0.00    -0.344 N 
HETATM    2  C5  UNL     1      -9.457   9.988  15.855  1.00  0.00     0.054 A 
HETATM    3  C6  UNL     1      -8.919  10.233  14.604  1.00  0.00    -0.034 A 
HETATM    4  C7  UNL     1      -9.591  11.061  13.595  1.00  0.00     0.050 C 
HETATM    5  C8  UNL     1      -7.782   9.496  14.210  1.00  0.00     0.011 A 
HETATM    6  C9  UNL     1      -7.259   8.581  15.034  1.00  0.00     0.031 A 
HETATM    7  C10 UNL     1      -7.794   8.288  16.325  1.00  0.00     0.043 A 
HETATM    8  C15 UNL     1      -8.888   8.989  16.728  1.00  0.00     0.030 A 
HETATM    9  C16 UNL     1      -9.472   8.679  17.997  1.00  0.00    -0.001 A 
HETATM   10  C17 UNL     1      -9.013   7.840  18.961  1.00  0.00     0.064 A 
HETATM   11  S1  UNL     1     -10.144   8.039  20.276  1.00  0.00    -0.096 SA
HETATM   12  C18 UNL     1     -11.149   9.173  19.564  1.00  0.00     0.061 A 
HETATM   13  C19 UNL     1     -12.237   9.822  20.197  1.00  0.00     0.118 C 
HETATM   14  N3  UNL     1     -12.672   9.207  21.206  1.00  0.00    -0.384 N 
ATOM     15  H31 UNL     1     -13.455   9.674  21.662  1.00  0.00     0.157 HD
ATOM     16  H32 UNL     1     -12.268   8.316  21.495  1.00  0.00     0.157 HD
HETATM   17  N4  UNL     1     -12.786  11.033  19.803  1.00  0.00    -0.326 N 
ATOM     18  H4  UNL     1     -12.899  11.788  20.479  1.00  0.00     0.169 HD
HETATM   19  C20 UNL     1     -13.176  11.212  18.501  1.00  0.00     0.135 A 
HETATM   20  N5  UNL     1     -14.336  11.628  17.997  1.00  0.00    -0.285 N 
ATOM     21  H5  UNL     1     -15.123  11.973  18.547  1.00  0.00     0.188 HD
HETATM   22  N6  UNL     1     -14.318  11.528  16.658  1.00  0.00    -0.309 N 
ATOM     23  H6  UNL     1     -15.084  11.782  16.035  1.00  0.00     0.186 HD
HETATM   24  C21 UNL     1     -13.112  11.031  16.266  1.00  0.00     0.124 A 
HETATM   25  C22 UNL     1     -12.399  10.837  17.362  1.00  0.00     0.054 A 
HETATM   26  C23 UNL     1     -11.093  10.315  17.417  1.00  0.00     0.063 A 
HETATM   27  C24 UNL     1     -10.596   9.375  18.311  1.00  0.00     0.024 A 
ENDROOT
BRANCH   7  28
HETATM   28  N2  UNL     1      -7.071   7.262  16.967  1.00  0.00    -0.375 N 
BRANCH  28  29
HETATM   29  C11 UNL     1      -6.008   7.650  17.886  1.00  0.00     0.119 C 
HETATM   30  C12 UNL     1      -5.425   6.517  18.660  1.00  0.00     0.026 C 
ENDBRANCH  28  29
BRANCH  28  31
HETATM   31  C13 UNL     1      -7.238   5.862  16.685  1.00  0.00     0.194 C 
BRANCH  31  32
HETATM   32  C14 UNL     1      -8.548   5.241  16.985  1.00  0.00     0.370 C 
HETATM   33  F1  UNL     1      -8.550   3.911  17.289  1.00  0.00    -0.213 F 
HETATM   34  F2  UNL     1      -9.342   5.365  15.830  1.00  0.00    -0.213 F 
ENDBRANCH  31  32
ENDBRANCH  28  31
ENDBRANCH   7  28
BRANCH   1  35
HETATM   35  C4  UNL     1     -10.838  11.840  15.556  1.00  0.00     0.129 C 
BRANCH  35  36
HETATM   36  C3  UNL     1     -10.008  13.070  16.163  1.00  0.00     0.020 C 
BRANCH  36  37
HETATM   37  C2  UNL     1     -10.310  14.348  15.403  1.00  0.00    -0.003 C 
HETATM   38  C1  UNL     1     -11.694  14.378  14.866  1.00  0.00     0.005 C 
ENDBRANCH  36  37
ENDBRANCH  35  36
ENDBRANCH   1  35
TORSDOF 7
ENDMDL
MODEL 2
REMARK VINA RESULT: -8.353903466      3.322      5.971
REMARK  7 active torsions:
REMARK  status: ('A' for Active; 'I' for Inactive)
REMARK    1  A    between atoms: C2_2  and  C3_3 
REMARK    2  A    between atoms: C3_3  and  C4_4 
REMARK    3  A    between atoms: C4_4  and  N1_5 
REMARK    4  A    between atoms: C10_11  and  N2_12 
REMARK    5  A    between atoms: N2_12  and  C11_13 
REMARK    6  A    between atoms: N2_12  and  C13_15 
REMARK    7  A    between atoms: C13_15  and  C14_16 
ROOT
HETATM    1  N1  UNL     1     -11.410   8.557  19.083  1.00  0.00    -0.344 N 
HETATM    2  C5  UNL     1     -10.437   8.905  18.205  1.00  0.00     0.054 A 
HETATM    3  C6  UNL     1      -9.215   8.258  18.277  1.00  0.00    -0.034 A 
HETATM    4  C7  UNL     1      -8.864   7.337  19.365  1.00  0.00     0.050 C 
HETATM    5  C8  UNL     1      -8.197   8.653  17.385  1.00  0.00     0.011 A 
HETATM    6  C9  UNL     1      -8.421   9.637  16.507  1.00  0.00     0.031 A 
HETATM    7  C10 UNL     1      -9.660  10.339  16.412  1.00  0.00     0.043 A 
HETATM    8  C15 UNL     1     -10.659   9.972  17.259  1.00  0.00     0.030 A 
HETATM    9  C16 UNL     1     -11.894  10.694  17.217  1.00  0.00    -0.001 A 
HETATM   10  C17 UNL     1     -12.288  11.653  16.340  1.00  0.00     0.064 A 
HETATM   11  S1  UNL     1     -13.937  12.000  16.798  1.00  0.00    -0.096 SA
HETATM   12  C18 UNL     1     -14.068  10.924  18.073  1.00  0.00     0.061 A 
HETATM   13  C19 UNL     1     -15.248  10.664  18.813  1.00  0.00     0.118 C 
HETATM   14  N3  UNL     1     -16.105  11.582  18.732  1.00  0.00    -0.384 N 
ATOM     15  H31 UNL     1     -16.954  11.395  19.265  1.00  0.00     0.157 HD
ATOM     16  H32 UNL     1     -15.922  12.429  18.195  1.00  0.00     0.157 HD
HETATM   17  N4  UNL     1     -15.496   9.512  19.544  1.00  0.00    -0.326 N 
ATOM     18  H4  UNL     1     -16.356   8.986  19.394  1.00  0.00     0.169 HD
HETATM   19  C20 UNL     1     -14.581   9.082  20.469  1.00  0.00     0.135 A 
HETATM   20  N5  UNL     1     -14.734   8.768  21.754  1.00  0.00    -0.285 N 
ATOM     21  H5  UNL     1     -15.629   8.722  22.243  1.00  0.00     0.188 HD
HETATM   22  N6  UNL     1     -13.538   8.522  22.313  1.00  0.00    -0.309 N 
ATOM     23  H6  UNL     1     -13.383   8.260  23.287  1.00  0.00     0.186 HD
HETATM   24  C21 UNL     1     -12.567   8.677  21.371  1.00  0.00     0.124 A 
HETATM   25  C22 UNL     1     -13.172   9.010  20.244  1.00  0.00     0.054 A 
HETATM   26  C23 UNL     1     -12.538   9.284  19.017  1.00  0.00     0.063 A 
HETATM   27  C24 UNL     1     -12.827  10.314  18.131  1.00  0.00     0.024 A 
ENDROOT
BRANCH   7  28
HETATM   28  N2  UNL     1      -9.614  11.346  15.427  1.00  0.00    -0.375 N 
BRANCH  28  29
HETATM   29  C11 UNL     1     -10.013  10.992  14.070  1.00  0.00     0.119 C 
HETATM   30  C12 UNL     1      -8.882  10.605  13.181  1.00  0.00     0.026 C 
ENDBRANCH  28  29
BRANCH  28  31
HETATM   31  C13 UNL     1      -9.087  12.666  15.649  1.00  0.00     0.194 C 
BRANCH  31  32
HETATM   32  C14 UNL     1      -9.677  13.790  14.885  1.00  0.00     0.370 C 
HETATM   33  F1  UNL     1      -8.876  14.406  13.969  1.00  0.00    -0.213 F 
HETATM   34  F2  UNL     1     -10.025  14.787  15.814  1.00  0.00    -0.213 F 
ENDBRANCH  31  32
ENDBRANCH  28  31
ENDBRANCH   7  28
BRANCH   1  35
HETATM   35  C4  UNL     1     -11.295   7.318  19.679  1.00  0.00     0.129 C 
BRANCH  35  36
HETATM   36  C3  UNL     1     -12.111   6.197  18.875  1.00  0.00     0.020 C 
BRANCH  36  37
HETATM   37  C2  UNL     1     -11.714   4.808  19.340  1.00  0.00    -0.003 C 
HETATM   38  C1  UNL     1     -10.662   4.200  18.488  1.00  0.00     0.005 C 
ENDBRANCH  36  37
ENDBRANCH  35  36
ENDBRANCH   1  35
TORSDOF 7
ENDMDL
MODEL 3
REMARK VINA RESULT: -8.239942352      1.349      1.765
REMARK  7 active torsions:
REMARK  status: ('A' for Active; 'I' for Inactive)
REMARK    1  A    between atoms: C2_2  and  C3_3 
REMARK    2  A    between atoms: C3_3  and  C4_4 
REMARK    3  A    between atoms: C4_4  and  N1_5 
REMARK    4  A    between atoms: C10_11  and  N2_12 
REMARK    5  A    between atoms: N2_12  and  C11_13 
REMARK    6  A    between atoms: N2_12  and  C13_15 
REMARK    7  A    between atoms: C13_15  and  C14_16 
ROOT
HETATM    1  N1  UNL     1     -11.047  10.894  16.164  1.00  0.00    -0.344 N 
HETATM    2  C5  UNL     1     -10.007  10.127  15.753  1.00  0.00     0.054 A 
HETATM    3  C6  UNL     1      -9.426  10.399  14.527  1.00  0.00    -0.034 A 
HETATM    4  C7  UNL     1      -9.989  11.363  13.574  1.00  0.00     0.050 C 
HETATM    5  C8  UNL     1      -8.370   9.571  14.090  1.00  0.00     0.011 A 
HETATM    6  C9  UNL     1      -7.962   8.550  14.851  1.00  0.00     0.031 A 
HETATM    7  C10 UNL     1      -8.545   8.227  16.113  1.00  0.00     0.043 A 
HETATM    8  C15 UNL     1      -9.562   9.014  16.557  1.00  0.00     0.030 A 
HETATM    9  C16 UNL     1     -10.196   8.682  17.797  1.00  0.00    -0.001 A 
HETATM   10  C17 UNL     1      -9.845   7.732  18.702  1.00  0.00     0.064 A 
HETATM   11  S1  UNL     1     -10.968   7.962  20.019  1.00  0.00    -0.096 SA
HETATM   12  C18 UNL     1     -11.833   9.245  19.382  1.00  0.00     0.061 A 
HETATM   13  C19 UNL     1     -12.855   9.963  20.051  1.00  0.00     0.118 C 
HETATM   14  N3  UNL     1     -13.369   9.330  21.010  1.00  0.00    -0.384 N 
ATOM     15  H31 UNL     1     -14.104   9.847  21.492  1.00  0.00     0.157 HD
ATOM     16  H32 UNL     1     -13.069   8.383  21.239  1.00  0.00     0.157 HD
HETATM   17  N4  UNL     1     -13.263  11.251  19.739  1.00  0.00    -0.326 N 
ATOM     18  H4  UNL     1     -13.304  11.965  20.466  1.00  0.00     0.169 HD
HETATM   19  C20 UNL     1     -13.612  11.562  18.451  1.00  0.00     0.135 A 
HETATM   20  N5  UNL     1     -14.712  12.136  17.969  1.00  0.00    -0.285 N 
ATOM     21  H5  UNL     1     -15.466  12.525  18.536  1.00  0.00     0.188 HD
HETATM   22  N6  UNL     1     -14.684  12.128  16.626  1.00  0.00    -0.309 N 
ATOM     23  H6  UNL     1     -15.409  12.507  16.017  1.00  0.00     0.186 HD
HETATM   24  C21 UNL     1     -13.533  11.531  16.209  1.00  0.00     0.124 A 
HETATM   25  C22 UNL     1     -12.863  11.185  17.294  1.00  0.00     0.054 A 
HETATM   26  C23 UNL     1     -11.621  10.521  17.321  1.00  0.00     0.063 A 
HETATM   27  C24 UNL     1     -11.243   9.473  18.151  1.00  0.00     0.024 A 
ENDROOT
BRANCH   7  28
HETATM   28  N2  UNL     1      -7.947   7.087  16.687  1.00  0.00    -0.375 N 
BRANCH  28  29
HETATM   29  C11 UNL     1      -8.582   5.794  16.456  1.00  0.00     0.119 C 
HETATM   30  C12 UNL     1      -8.134   4.718  17.384  1.00  0.00     0.026 C 
ENDBRANCH  28  29
BRANCH  28  31
HETATM   31  C13 UNL     1      -6.822   7.131  17.581  1.00  0.00     0.194 C 
BRANCH  31  32
HETATM   32  C14 UNL     1      -5.476   7.343  16.998  1.00  0.00     0.370 C 
HETATM   33  F1  UNL     1      -5.162   8.611  16.605  1.00  0.00    -0.213 F 
HETATM   34  F2  UNL     1      -5.399   6.557  15.834  1.00  0.00    -0.213 F 
ENDBRANCH  31  32
ENDBRANCH  28  31
ENDBRANCH   7  28
BRANCH   1  35
HETATM   35  C4  UNL     1     -11.175  12.135  15.575  1.00  0.00     0.129 C 
BRANCH  35  36
HETATM   36  C3  UNL     1     -10.169  13.202  16.221  1.00  0.00     0.020 C 
BRANCH  36  37
HETATM   37  C2  UNL     1     -10.243  14.525  15.482  1.00  0.00    -0.003 C 
HETATM   38  C1  UNL     1     -11.574  14.762  14.869  1.00  0.00     0.005 C 
ENDBRANCH  36  37
ENDBRANCH  35  36
ENDBRANCH   1  35
TORSDOF 7
ENDMDL
MODEL 4
REMARK VINA RESULT: -8.227660235      3.176      6.093
REMARK  7 active torsions:
REMARK  status: ('A' for Active; 'I' for Inactive)
REMARK    1  A    between atoms: C2_2  and  C3_3 
REMARK    2  A    between atoms: C3_3  and  C4_4 
REMARK    3  A    between atoms: C4_4  and  N1_5 
REMARK    4  A    between atoms: C10_11  and  N2_12 
REMARK    5  A    between atoms: N2_12  and  C11_13 
REMARK    6  A    between atoms: N2_12  and  C13_15 
REMARK    7  A    between atoms: C13_15  and  C14_16 
ROOT
HETATM    1  N1  UNL     1      -9.511   9.693  15.986  1.00  0.00    -0.344 N 
HETATM    2  C5  UNL     1     -10.109   8.983  16.974  1.00  0.00     0.054 A 
HETATM    3  C6  UNL     1      -9.594   7.741  17.305  1.00  0.00    -0.034 A 
HETATM    4  C7  UNL     1      -8.540   7.081  16.524  1.00  0.00     0.050 C 
HETATM    5  C8  UNL     1     -10.245   6.994  18.308  1.00  0.00     0.011 A 
HETATM    6  C9  UNL     1     -11.337   7.484  18.905  1.00  0.00     0.031 A 
HETATM    7  C10 UNL     1     -11.909   8.752  18.582  1.00  0.00     0.043 A 
HETATM    8  C15 UNL     1     -11.295   9.493  17.621  1.00  0.00     0.030 A 
HETATM    9  C16 UNL     1     -11.876  10.745  17.244  1.00  0.00    -0.001 A 
HETATM   10  C17 UNL     1     -12.925  11.398  17.807  1.00  0.00     0.064 A 
HETATM   11  S1  UNL     1     -13.009  12.907  16.933  1.00  0.00    -0.096 SA
HETATM   12  C18 UNL     1     -11.719  12.660  15.895  1.00  0.00     0.061 A 
HETATM   13  C19 UNL     1     -11.209  13.609  14.975  1.00  0.00     0.118 C 
HETATM   14  N3  UNL     1     -12.030  14.516  14.681  1.00  0.00    -0.384 N 
ATOM     15  H31 UNL     1     -11.663  15.200  14.019  1.00  0.00     0.157 HD
ATOM     16  H32 UNL     1     -12.973  14.522  15.071  1.00  0.00     0.157 HD
HETATM   17  N4  UNL     1      -9.927  13.600  14.444  1.00  0.00    -0.326 N 
ATOM     18  H4  UNL     1      -9.346  14.437  14.497  1.00  0.00     0.169 HD
HETATM   19  C20 UNL     1      -9.444  12.464  13.849  1.00  0.00     0.135 A 
HETATM   20  N5  UNL     1      -8.896  12.285  12.649  1.00  0.00    -0.285 N 
ATOM     21  H5  UNL     1      -8.670  13.031  11.991  1.00  0.00     0.188 HD
HETATM   22  N6  UNL     1      -8.686  10.976  12.431  1.00  0.00    -0.309 N 
ATOM     23  H6  UNL     1      -8.277  10.575  11.587  1.00  0.00     0.186 HD
HETATM   24  C21 UNL     1      -9.106  10.271  13.518  1.00  0.00     0.124 A 
HETATM   25  C22 UNL     1      -9.563  11.149  14.394  1.00  0.00     0.054 A 
HETATM   26  C23 UNL     1     -10.114  10.848  15.655  1.00  0.00     0.063 A 
HETATM   27  C24 UNL     1     -11.245  11.405  16.236  1.00  0.00     0.024 A 
ENDROOT
BRANCH   7  28
HETATM   28  N2  UNL     1     -13.071   9.007  19.337  1.00  0.00    -0.375 N 
BRANCH  28  29
HETATM   29  C11 UNL     1     -12.904   9.474  20.709  1.00  0.00     0.119 C 
HETATM   30  C12 UNL     1     -12.939   8.392  21.732  1.00  0.00     0.026 C 
ENDBRANCH  28  29
BRANCH  28  31
HETATM   31  C13 UNL     1     -14.405   8.725  18.882  1.00  0.00     0.194 C 
BRANCH  31  32
HETATM   32  C14 UNL     1     -15.532   9.413  19.553  1.00  0.00     0.370 C 
HETATM   33  F1  UNL     1     -16.735   8.770  19.566  1.00  0.00    -0.213 F 
HETATM   34  F2  UNL     1     -15.755  10.618  18.863  1.00  0.00    -0.213 F 
ENDBRANCH  31  32
ENDBRANCH  28  31
ENDBRANCH   7  28
BRANCH   1  35
HETATM   35  C4  UNL     1      -8.207   9.359  15.683  1.00  0.00     0.129 C 
BRANCH  35  36
HETATM   36  C3  UNL     1      -7.162  10.243  16.517  1.00  0.00     0.020 C 
BRANCH  36  37
HETATM   37  C2  UNL     1      -5.736   9.849  16.180  1.00  0.00    -0.003 C 
HETATM   38  C1  UNL     1      -5.669   8.704  15.237  1.00  0.00     0.005 C 
ENDBRANCH  36  37
ENDBRANCH  35  36
ENDBRANCH   1  35
TORSDOF 7
ENDMDL
MODEL 5
REMARK VINA RESULT: -8.189579332      2.831      5.782
REMARK  7 active torsions:
REMARK  status: ('A' for Active; 'I' for Inactive)
REMARK    1  A    between atoms: C2_2  and  C3_3 
REMARK    2  A    between atoms: C3_3  and  C4_4 
REMARK    3  A    between atoms: C4_4  and  N1_5 
REMARK    4  A    between atoms: C10_11  and  N2_12 
REMARK    5  A    between atoms: N2_12  and  C11_13 
REMARK    6  A    between atoms: N2_12  and  C13_15 
REMARK    7  A    between atoms: C13_15  and  C14_16 
ROOT
HETATM    1  N1  UNL     1     -11.572   8.637  19.195  1.00  0.00    -0.344 N 
HETATM    2  C5  UNL     1     -10.582   9.040  18.361  1.00  0.00     0.054 A 
HETATM    3  C6  UNL     1      -9.346   8.425  18.452  1.00  0.00    -0.034 A 
HETATM    4  C7  UNL     1      -9.003   7.478  19.520  1.00  0.00     0.050 C 
HETATM    5  C8  UNL     1      -8.311   8.877  17.606  1.00  0.00     0.011 A 
HETATM    6  C9  UNL     1      -8.536   9.882  16.753  1.00  0.00     0.031 A 
HETATM    7  C10 UNL     1      -9.790  10.553  16.640  1.00  0.00     0.043 A 
HETATM    8  C15 UNL     1     -10.805  10.132  17.442  1.00  0.00     0.030 A 
HETATM    9  C16 UNL     1     -12.058  10.820  17.383  1.00  0.00    -0.001 A 
HETATM   10  C17 UNL     1     -12.451  11.796  16.525  1.00  0.00     0.064 A 
HETATM   11  S1  UNL     1     -14.122  12.084  16.940  1.00  0.00    -0.096 SA
HETATM   12  C18 UNL     1     -14.263  10.963  18.175  1.00  0.00     0.061 A 
HETATM   13  C19 UNL     1     -15.458  10.647  18.868  1.00  0.00     0.118 C 
HETATM   14  N3  UNL     1     -16.337  11.544  18.790  1.00  0.00    -0.384 N 
ATOM     15  H31 UNL     1     -17.197  11.316  19.288  1.00  0.00     0.157 HD
ATOM     16  H32 UNL     1     -16.162  12.413  18.285  1.00  0.00     0.157 HD
HETATM   17  N4  UNL     1     -15.696   9.465  19.555  1.00  0.00    -0.326 N 
ATOM     18  H4  UNL     1     -16.536   8.921  19.360  1.00  0.00     0.169 HD
HETATM   19  C20 UNL     1     -14.799   9.031  20.495  1.00  0.00     0.135 A 
HETATM   20  N5  UNL     1     -14.983   8.671  21.763  1.00  0.00    -0.285 N 
ATOM     21  H5  UNL     1     -15.891   8.585  22.221  1.00  0.00     0.188 HD
HETATM   22  N6  UNL     1     -13.799   8.439  22.352  1.00  0.00    -0.309 N 
ATOM     23  H6  UNL     1     -13.666   8.150  23.321  1.00  0.00     0.186 HD
HETATM   24  C21 UNL     1     -12.803   8.651  21.448  1.00  0.00     0.124 A 
HETATM   25  C22 UNL     1     -13.381   9.004  20.313  1.00  0.00     0.054 A 
HETATM   26  C23 UNL     1     -12.718   9.336  19.116  1.00  0.00     0.063 A 
HETATM   27  C24 UNL     1     -13.007  10.386  18.254  1.00  0.00     0.024 A 
ENDROOT
BRANCH   7  28
HETATM   28  N2  UNL     1      -9.742  11.593  15.689  1.00  0.00    -0.375 N 
BRANCH  28  29
HETATM   29  C11 UNL     1      -9.368  12.924  16.152  1.00  0.00     0.119 C 
HETATM   30  C12 UNL     1      -9.840  14.032  15.275  1.00  0.00     0.026 C 
ENDBRANCH  28  29
BRANCH  28  31
HETATM   31  C13 UNL     1     -10.151  11.449  14.318  1.00  0.00     0.194 C 
BRANCH  31  32
HETATM   32  C14 UNL     1      -9.122  11.080  13.319  1.00  0.00     0.370 C 
HETATM   33  F1  UNL     1      -8.678  12.069  12.490  1.00  0.00    -0.213 F 
HETATM   34  F2  UNL     1      -9.690  10.108  12.476  1.00  0.00    -0.213 F 
ENDBRANCH  31  32
ENDBRANCH  28  31
ENDBRANCH   7  28
BRANCH   1  35
HETATM   35  C4  UNL     1     -11.441   7.383  19.755  1.00  0.00     0.129 C 
BRANCH  35  36
HETATM   36  C3  UNL     1     -12.179   6.264  18.877  1.00  0.00     0.020 C 
BRANCH  36  37
HETATM   37  C2  UNL     1     -11.782   4.873  19.336  1.00  0.00    -0.003 C 
HETATM   38  C1  UNL     1     -10.668   4.306  18.536  1.00  0.00     0.005 C 
ENDBRANCH  36  37
ENDBRANCH  35  36
ENDBRANCH   1  35
TORSDOF 7
ENDMDL
