MODEL 1
REMARK VINA RESULT: -7.192032758      0.000      0.000
REMARK  4 active torsions:
REMARK  status: ('A' for Active; 'I' for Inactive)
REMARK    1  A    between atoms: N1_1  and  S1_4 
REMARK    2  A    between atoms: S1_4  and  C1_7 
REMARK    3  A    between atoms: C5_11  and  N2_12 
REMARK    4  A    between atoms: N2_12  and  C6_14 
ROOT
HETATM    1  C1  UNL     1       4.265  -5.238 -41.453  1.00  0.00     0.081 A 
HETATM    2  C2  UNL     1       3.110  -5.595 -42.116  1.00  0.00     0.025 A 
HETATM    3  C3  UNL     1       2.827  -6.924 -42.414  1.00  0.00     0.004 A 
HETATM    4  C4  UNL     1       3.749  -7.891 -42.022  1.00  0.00     0.030 A 
HETATM    5  C5  UNL     1       4.912  -7.566 -41.360  1.00  0.00     0.050 A 
HETATM    6  C10 UNL     1       5.146  -6.236 -41.088  1.00  0.00     0.055 A 
ENDROOT
BRANCH   5   7
HETATM    7  N2  UNL     1       5.847  -8.556 -40.964  1.00  0.00    -0.192 N 
ATOM      8  H2  UNL     1       6.735  -8.609 -41.464  1.00  0.00     0.184 HD
BRANCH   7   9
HETATM    9  C6  UNL     1       5.638  -9.389 -40.008  1.00  0.00     0.685 A 
HETATM   10  N3  UNL     1       5.245 -10.636 -40.325  1.00  0.00    -0.201 N 
HETATM   11  C7  UNL     1       4.999 -11.582 -39.420  1.00  0.00     0.111 A 
ATOM     12  H3  UNL     1       5.128 -10.869 -41.312  1.00  0.00     0.183 HD
HETATM   13  C8  UNL     1       5.147 -11.302 -38.077  1.00  0.00     0.092 A 
HETATM   14  C9  UNL     1       5.550 -10.026 -37.742  1.00  0.00     0.260 A 
HETATM   15  O3  UNL     1       5.695  -9.738 -36.524  1.00  0.00    -0.268 OA
HETATM   16  N4  UNL     1       5.785  -9.105 -38.708  1.00  0.00    -0.156 N 
ATOM     17  H4  UNL     1       6.082  -8.168 -38.437  1.00  0.00     0.187 HD
ENDBRANCH   7   9
ENDBRANCH   5   7
BRANCH   1  18
HETATM   18  S1  UNL     1       4.594  -3.560 -41.092  1.00  0.00     0.256 S 
HETATM   19  O1  UNL     1       5.461  -3.519 -39.847  1.00  0.00    -0.201 OA
HETATM   20  O2  UNL     1       3.330  -2.827 -40.771  1.00  0.00    -0.201 OA
BRANCH  18  21
HETATM   21  N1  UNL     1       5.463  -2.799 -42.391  1.00  0.00    -0.324 N 
ATOM     22  H12 UNL     1       6.474  -2.842 -42.522  1.00  0.00     0.169 HD
ATOM     23  H11 UNL     1       4.792  -2.313 -42.985  1.00  0.00     0.169 HD
ENDBRANCH  18  21
ENDBRANCH   1  18
TORSDOF 4
ENDMDL
MODEL 2
REMARK VINA RESULT: -7.098343691      0.991      1.469
REMARK  4 active torsions:
REMARK  status: ('A' for Active; 'I' for Inactive)
REMARK    1  A    between atoms: N1_1  and  S1_4 
REMARK    2  A    between atoms: S1_4  and  C1_7 
REMARK    3  A    between atoms: C5_11  and  N2_12 
REMARK    4  A    between atoms: N2_12  and  C6_14 
ROOT
HETATM    1  C1  UNL     1       4.411  -5.312 -41.570  1.00  0.00     0.081 A 
HETATM    2  C2  UNL     1       3.442  -5.754 -42.445  1.00  0.00     0.025 A 
HETATM    3  C3  UNL     1       3.296  -7.104 -42.744  1.00  0.00     0.004 A 
HETATM    4  C4  UNL     1       4.162  -8.006 -42.130  1.00  0.00     0.030 A 
HETATM    5  C5  UNL     1       5.140  -7.596 -41.252  1.00  0.00     0.050 A 
HETATM    6  C10 UNL     1       5.244  -6.247 -40.989  1.00  0.00     0.055 A 
ENDROOT
BRANCH   5   7
HETATM    7  N2  UNL     1       6.020  -8.518 -40.630  1.00  0.00    -0.192 N 
ATOM      8  H2  UNL     1       6.976  -8.585 -40.979  1.00  0.00     0.184 HD
BRANCH   7   9
HETATM    9  C6  UNL     1       5.678  -9.275 -39.648  1.00  0.00     0.685 A 
HETATM   10  N3  UNL     1       5.584  -8.725 -38.424  1.00  0.00    -0.201 N 
HETATM   11  C7  UNL     1       5.238  -9.410 -37.335  1.00  0.00     0.111 A 
ATOM     12  H3  UNL     1       5.788  -7.730 -38.324  1.00  0.00     0.183 HD
HETATM   13  C8  UNL     1       4.955 -10.757 -37.433  1.00  0.00     0.092 A 
HETATM   14  C9  UNL     1       5.049 -11.330 -38.685  1.00  0.00     0.260 A 
HETATM   15  O3  UNL     1       4.797 -12.558 -38.808  1.00  0.00    -0.268 OA
HETATM   16  N4  UNL     1       5.406 -10.581 -39.756  1.00  0.00    -0.156 N 
ATOM     17  H4  UNL     1       5.469 -11.025 -40.672  1.00  0.00     0.187 HD
ENDBRANCH   7   9
ENDBRANCH   5   7
BRANCH   1  18
HETATM   18  S1  UNL     1       4.570  -3.608 -41.213  1.00  0.00     0.256 S 
HETATM   19  O1  UNL     1       5.370  -3.480 -39.931  1.00  0.00    -0.201 OA
HETATM   20  O2  UNL     1       3.232  -2.990 -40.960  1.00  0.00    -0.201 OA
BRANCH  18  21
HETATM   21  N1  UNL     1       5.429  -2.783 -42.480  1.00  0.00    -0.324 N 
ATOM     22  H12 UNL     1       6.414  -2.523 -42.445  1.00  0.00     0.169 HD
ATOM     23  H11 UNL     1       4.779  -2.608 -43.247  1.00  0.00     0.169 HD
ENDBRANCH  18  21
ENDBRANCH   1  18
TORSDOF 4
ENDMDL
MODEL 3
REMARK VINA RESULT: -7.068519616      4.915      8.807
REMARK  4 active torsions:
REMARK  status: ('A' for Active; 'I' for Inactive)
REMARK    1  A    between atoms: N1_1  and  S1_4 
REMARK    2  A    between atoms: S1_4  and  C1_7 
REMARK    3  A    between atoms: C5_11  and  N2_12 
REMARK    4  A    between atoms: N2_12  and  C6_14 
ROOT
HETATM    1  C1  UNL     1       5.120  -3.596 -42.258  1.00  0.00     0.081 A 
HETATM    2  C2  UNL     1       5.788  -4.675 -42.798  1.00  0.00     0.025 A 
HETATM    3  C3  UNL     1       6.398  -4.600 -44.045  1.00  0.00     0.004 A 
HETATM    4  C4  UNL     1       6.317  -3.395 -44.740  1.00  0.00     0.030 A 
HETATM    5  C5  UNL     1       5.658  -2.300 -44.228  1.00  0.00     0.050 A 
HETATM    6  C10 UNL     1       5.070  -2.425 -42.988  1.00  0.00     0.055 A 
ENDROOT
BRANCH   5   7
HETATM    7  N2  UNL     1       5.579  -1.076 -44.940  1.00  0.00    -0.192 N 
ATOM      8  H2  UNL     1       4.786  -0.932 -45.566  1.00  0.00     0.184 HD
BRANCH   7   9
HETATM    9  C6  UNL     1       6.452  -0.138 -44.840  1.00  0.00     0.685 A 
HETATM   10  N3  UNL     1       6.239   1.004 -45.519  1.00  0.00    -0.201 N 
HETATM   11  C7  UNL     1       7.074   2.042 -45.491  1.00  0.00     0.111 A 
ATOM     12  H3  UNL     1       5.394   1.079 -46.086  1.00  0.00     0.183 HD
HETATM   13  C8  UNL     1       8.226   1.976 -44.734  1.00  0.00     0.092 A 
HETATM   14  C9  UNL     1       8.452   0.809 -44.034  1.00  0.00     0.260 A 
HETATM   15  O3  UNL     1       9.495   0.717 -43.333  1.00  0.00    -0.268 OA
HETATM   16  N4  UNL     1       7.566  -0.214 -44.102  1.00  0.00    -0.156 N 
ATOM     17  H4  UNL     1       7.754  -1.067 -43.577  1.00  0.00     0.187 HD
ENDBRANCH   7   9
ENDBRANCH   5   7
BRANCH   1  18
HETATM   18  S1  UNL     1       4.363  -3.719 -40.688  1.00  0.00     0.256 S 
HETATM   19  O1  UNL     1       3.418  -2.542 -40.539  1.00  0.00    -0.201 OA
HETATM   20  O2  UNL     1       5.380  -3.607 -39.596  1.00  0.00    -0.201 OA
BRANCH  18  21
HETATM   21  N1  UNL     1       3.438  -5.185 -40.554  1.00  0.00    -0.324 N 
ATOM     22  H12 UNL     1       2.515  -5.333 -40.961  1.00  0.00     0.169 HD
ATOM     23  H11 UNL     1       3.976  -5.856 -40.005  1.00  0.00     0.169 HD
ENDBRANCH  18  21
ENDBRANCH   1  18
TORSDOF 4
ENDMDL
MODEL 4
REMARK VINA RESULT: -6.985299952      1.510      1.764
REMARK  4 active torsions:
REMARK  status: ('A' for Active; 'I' for Inactive)
REMARK    1  A    between atoms: N1_1  and  S1_4 
REMARK    2  A    between atoms: S1_4  and  C1_7 
REMARK    3  A    between atoms: C5_11  and  N2_12 
REMARK    4  A    between atoms: N2_12  and  C6_14 
ROOT
HETATM    1  C1  UNL     1       4.264  -5.210 -42.155  1.00  0.00     0.081 A 
HETATM    2  C2  UNL     1       3.693  -6.121 -43.020  1.00  0.00     0.025 A 
HETATM    3  C3  UNL     1       3.769  -7.489 -42.786  1.00  0.00     0.004 A 
HETATM    4  C4  UNL     1       4.443  -7.919 -41.645  1.00  0.00     0.030 A 
HETATM    5  C5  UNL     1       5.024  -7.036 -40.763  1.00  0.00     0.050 A 
HETATM    6  C10 UNL     1       4.921  -5.690 -41.040  1.00  0.00     0.055 A 
ENDROOT
BRANCH   5   7
HETATM    7  N2  UNL     1       5.710  -7.480 -39.604  1.00  0.00    -0.192 N 
ATOM      8  H2  UNL     1       6.619  -7.068 -39.393  1.00  0.00     0.184 HD
BRANCH   7   9
HETATM    9  C6  UNL     1       5.248  -8.374 -38.804  1.00  0.00     0.685 A 
HETATM   10  N3  UNL     1       5.974  -9.491 -38.611  1.00  0.00    -0.201 N 
HETATM   11  C7  UNL     1       5.596 -10.483 -37.806  1.00  0.00     0.111 A 
ATOM     12  H3  UNL     1       6.860  -9.582 -39.107  1.00  0.00     0.183 HD
HETATM   13  C8  UNL     1       4.402 -10.392 -37.118  1.00  0.00     0.092 A 
HETATM   14  C9  UNL     1       3.652  -9.250 -37.310  1.00  0.00     0.260 A 
HETATM   15  O3  UNL     1       2.557  -9.137 -36.697  1.00  0.00    -0.268 OA
HETATM   16  N4  UNL     1       4.089  -8.274 -38.143  1.00  0.00    -0.156 N 
ATOM     17  H4  UNL     1       3.517  -7.439 -38.270  1.00  0.00     0.187 HD
ENDBRANCH   7   9
ENDBRANCH   5   7
BRANCH   1  18
HETATM   18  S1  UNL     1       4.151  -3.496 -42.476  1.00  0.00     0.256 S 
HETATM   19  O1  UNL     1       3.683  -2.820 -41.201  1.00  0.00    -0.201 OA
HETATM   20  O2  UNL     1       3.122  -3.217 -43.525  1.00  0.00    -0.201 OA
BRANCH  18  21
HETATM   21  N1  UNL     1       5.701  -2.838 -42.907  1.00  0.00    -0.324 N 
ATOM     22  H12 UNL     1       6.331  -2.355 -42.266  1.00  0.00     0.169 HD
ATOM     23  H11 UNL     1       5.863  -3.019 -43.898  1.00  0.00     0.169 HD
ENDBRANCH  18  21
ENDBRANCH   1  18
TORSDOF 4
ENDMDL
MODEL 5
REMARK VINA RESULT: -6.965639794      1.754      2.035
REMARK  4 active torsions:
REMARK  status: ('A' for Active; 'I' for Inactive)
REMARK    1  A    between atoms: N1_1  and  S1_4 
REMARK    2  A    between atoms: S1_4  and  C1_7 
REMARK    3  A    between atoms: C5_11  and  N2_12 
REMARK    4  A    between atoms: N2_12  and  C6_14 
ROOT
HETATM    1  C1  UNL     1       4.658  -5.033 -42.726  1.00  0.00     0.081 A 
HETATM    2  C2  UNL     1       3.772  -5.857 -43.388  1.00  0.00     0.025 A 
HETATM    3  C3  UNL     1       3.609  -7.189 -43.024  1.00  0.00     0.004 A 
HETATM    4  C4  UNL     1       4.371  -7.672 -41.963  1.00  0.00     0.030 A 
HETATM    5  C5  UNL     1       5.264  -6.876 -41.281  1.00  0.00     0.050 A 
HETATM    6  C10 UNL     1       5.389  -5.563 -41.681  1.00  0.00     0.055 A 
ENDROOT
BRANCH   5   7
HETATM    7  N2  UNL     1       6.037  -7.374 -40.202  1.00  0.00    -0.192 N 
ATOM      8  H2  UNL     1       7.017  -7.099 -40.142  1.00  0.00     0.184 HD
BRANCH   7   9
HETATM    9  C6  UNL     1       5.569  -8.155 -39.294  1.00  0.00     0.685 A 
HETATM   10  N3  UNL     1       4.465  -7.768 -38.629  1.00  0.00    -0.201 N 
HETATM   11  C7  UNL     1       3.892  -8.493 -37.670  1.00  0.00     0.111 A 
ATOM     12  H3  UNL     1       4.045  -6.871 -38.872  1.00  0.00     0.183 HD
HETATM   13  C8  UNL     1       4.434  -9.712 -37.315  1.00  0.00     0.092 A 
HETATM   14  C9  UNL     1       5.566 -10.118 -37.992  1.00  0.00     0.260 A 
HETATM   15  O3  UNL     1       6.085 -11.226 -37.692  1.00  0.00    -0.268 OA
HETATM   16  N4  UNL     1       6.104  -9.335 -38.959  1.00  0.00    -0.156 N 
ATOM     17  H4  UNL     1       6.941  -9.655 -39.446  1.00  0.00     0.187 HD
ENDBRANCH   7   9
ENDBRANCH   5   7
BRANCH   1  18
HETATM   18  S1  UNL     1       4.841  -3.363 -43.206  1.00  0.00     0.256 S 
HETATM   19  O1  UNL     1       6.287  -3.158 -43.616  1.00  0.00    -0.201 OA
HETATM   20  O2  UNL     1       4.577  -2.446 -42.054  1.00  0.00    -0.201 OA
BRANCH  18  21
HETATM   21  N1  UNL     1       3.828  -2.990 -44.569  1.00  0.00    -0.324 N 
ATOM     22  H12 UNL     1       3.416  -3.680 -45.198  1.00  0.00     0.169 HD
ATOM     23  H11 UNL     1       3.723  -1.977 -44.623  1.00  0.00     0.169 HD
ENDBRANCH  18  21
ENDBRANCH   1  18
TORSDOF 4
ENDMDL
