MODEL 1
REMARK VINA RESULT: -7.344402823      0.000      0.000
REMARK  5 active torsions:
REMARK  status: ('A' for Active; 'I' for Inactive)
REMARK    1  A    between atoms: N1_1  and  C1_5 
REMARK    2  A    between atoms: C1_5  and  N2_6 
REMARK    3  A    between atoms: C1_5  and  C2_10 
REMARK    4  A    between atoms: C5_13  and  C6_14 
REMARK    5  A    between atoms: N3_19  and  O1_20 
ROOT
HETATM    1  C2  UNL     1       4.909 -10.130 -39.281  1.00  0.00    -0.001 A 
HETATM    2  C3  UNL     1       6.028  -9.549 -39.835  1.00  0.00     0.012 A 
HETATM    3  C4  UNL     1       5.885  -8.456 -40.665  1.00  0.00     0.014 A 
HETATM    4  C5  UNL     1       4.646  -7.890 -40.984  1.00  0.00    -0.007 A 
HETATM    5  C14 UNL     1       3.548  -8.482 -40.424  1.00  0.00     0.014 A 
HETATM    6  C15 UNL     1       3.689  -9.594 -39.579  1.00  0.00     0.012 A 
ENDROOT
BRANCH   4   7
HETATM    7  C6  UNL     1       4.592  -6.766 -41.880  1.00  0.00     0.073 A 
HETATM    8  C7  UNL     1       4.137  -7.028 -43.185  1.00  0.00     0.033 A 
HETATM    9  C8  UNL     1       4.084  -6.011 -44.079  1.00  0.00     0.011 A 
HETATM   10  C9  UNL     1       4.469  -4.735 -43.721  1.00  0.00    -0.030 A 
HETATM   11  C10 UNL     1       4.897  -4.549 -42.450  1.00  0.00     0.072 A 
HETATM   12  C13 UNL     1       4.383  -3.675 -44.749  1.00  0.00     0.068 C 
HETATM   13  N3  UNL     1       4.972  -5.538 -41.512  1.00  0.00    -0.226 N 
HETATM   14  C11 UNL     1       5.328  -3.182 -42.010  1.00  0.00     0.292 C 
HETATM   15  N4  UNL     1       5.802  -2.513 -43.226  1.00  0.00    -0.070 N 
HETATM   16  C12 UNL     1       4.656  -2.339 -44.111  1.00  0.00     0.237 C 
ATOM     17  H42 UNL     1       6.291  -1.639 -43.034  1.00  0.00     0.277 HD
ATOM     18  H41 UNL     1       6.577  -3.004 -43.672  1.00  0.00     0.277 HD
BRANCH  13  19
HETATM   19  O1  UNL     1       5.442  -5.246 -40.250  1.00  0.00    -0.282 OA
ATOM     20  H1  UNL     1       6.306  -4.884 -40.092  1.00  0.00     0.245 HD
ENDBRANCH  13  19
ENDBRANCH   4   7
BRANCH   1  21
HETATM   21  C1  UNL     1       5.065 -11.309 -38.387  1.00  0.00     0.411 C 
BRANCH  21  22
HETATM   22  N1  UNL     1       3.881 -11.477 -37.536  1.00  0.00    -0.046 N 
ATOM     23  H13 UNL     1       3.040 -11.648 -38.087  1.00  0.00     0.277 HD
ATOM     24  H12 UNL     1       3.907 -12.357 -37.021  1.00  0.00     0.277 HD
ATOM     25  H11 UNL     1       3.771 -10.676 -36.914  1.00  0.00     0.277 HD
ENDBRANCH  21  22
BRANCH  21  26
HETATM   26  N2  UNL     1       5.290 -12.497 -39.189  1.00  0.00    -0.046 N 
ATOM     27  H23 UNL     1       4.550 -13.187 -39.060  1.00  0.00     0.277 HD
ATOM     28  H22 UNL     1       5.154 -12.314 -40.184  1.00  0.00     0.277 HD
ATOM     29  H21 UNL     1       6.211 -12.890 -38.998  1.00  0.00     0.277 HD
ENDBRANCH  21  26
ENDBRANCH   1  21
TORSDOF 5
ENDMDL
MODEL 2
REMARK VINA RESULT: -7.294498956      1.878      7.285
REMARK  5 active torsions:
REMARK  status: ('A' for Active; 'I' for Inactive)
REMARK    1  A    between atoms: N1_1  and  C1_5 
REMARK    2  A    between atoms: C1_5  and  N2_6 
REMARK    3  A    between atoms: C1_5  and  C2_10 
REMARK    4  A    between atoms: C5_13  and  C6_14 
REMARK    5  A    between atoms: N3_19  and  O1_20 
ROOT
HETATM    1  C2  UNL     1       5.837  -2.186 -43.821  1.00  0.00    -0.001 A 
HETATM    2  C3  UNL     1       6.493  -3.366 -44.094  1.00  0.00     0.012 A 
HETATM    3  C4  UNL     1       6.168  -4.503 -43.383  1.00  0.00     0.014 A 
HETATM    4  C5  UNL     1       5.194  -4.530 -42.380  1.00  0.00    -0.007 A 
HETATM    5  C14 UNL     1       4.555  -3.347 -42.124  1.00  0.00     0.014 A 
HETATM    6  C15 UNL     1       4.882  -2.189 -42.845  1.00  0.00     0.012 A 
ENDROOT
BRANCH   4   7
HETATM    7  C6  UNL     1       4.941  -5.756 -41.673  1.00  0.00     0.073 A 
HETATM    8  C7  UNL     1       4.564  -6.864 -42.455  1.00  0.00     0.033 A 
HETATM    9  C8  UNL     1       4.293  -8.040 -41.841  1.00  0.00     0.011 A 
HETATM   10  C9  UNL     1       4.383  -8.158 -40.469  1.00  0.00    -0.030 A 
HETATM   11  C10 UNL     1       4.751  -7.057 -39.774  1.00  0.00     0.072 A 
HETATM   12  C13 UNL     1       4.074  -9.474 -39.869  1.00  0.00     0.068 C 
HETATM   13  N3  UNL     1       5.033  -5.848 -40.342  1.00  0.00    -0.226 N 
HETATM   14  C11 UNL     1       4.864  -7.132 -38.280  1.00  0.00     0.292 C 
HETATM   15  N4  UNL     1       3.926  -8.182 -37.871  1.00  0.00    -0.070 N 
HETATM   16  C12 UNL     1       4.419  -9.447 -38.404  1.00  0.00     0.237 C 
ATOM     17  H42 UNL     1       3.775  -8.209 -36.863  1.00  0.00     0.277 HD
ATOM     18  H41 UNL     1       2.964  -7.983 -38.146  1.00  0.00     0.277 HD
BRANCH  13  19
HETATM   19  O1  UNL     1       5.380  -4.783 -39.540  1.00  0.00    -0.282 OA
ATOM     20  H1  UNL     1       5.032  -3.907 -39.664  1.00  0.00     0.245 HD
ENDBRANCH  13  19
ENDBRANCH   4   7
BRANCH   1  21
HETATM   21  C1  UNL     1       6.189  -0.961 -44.589  1.00  0.00     0.411 C 
BRANCH  21  22
HETATM   22  N1  UNL     1       5.225   0.114 -44.325  1.00  0.00    -0.046 N 
ATOM     23  H13 UNL     1       5.254   0.835 -45.046  1.00  0.00     0.277 HD
ATOM     24  H12 UNL     1       4.264  -0.198 -44.459  1.00  0.00     0.277 HD
ATOM     25  H11 UNL     1       5.370   0.504 -43.393  1.00  0.00     0.277 HD
ENDBRANCH  21  22
BRANCH  21  26
HETATM   26  N2  UNL     1       7.533  -0.539 -44.236  1.00  0.00    -0.046 N 
ATOM     27  H23 UNL     1       8.185  -0.667 -45.009  1.00  0.00     0.277 HD
ATOM     28  H22 UNL     1       7.599   0.476 -44.146  1.00  0.00     0.277 HD
ATOM     29  H21 UNL     1       7.848  -1.016 -43.391  1.00  0.00     0.277 HD
ENDBRANCH  21  26
ENDBRANCH   1  21
TORSDOF 5
ENDMDL
MODEL 3
REMARK VINA RESULT: -7.274817962      1.960      7.316
REMARK  5 active torsions:
REMARK  status: ('A' for Active; 'I' for Inactive)
REMARK    1  A    between atoms: N1_1  and  C1_5 
REMARK    2  A    between atoms: C1_5  and  N2_6 
REMARK    3  A    between atoms: C1_5  and  C2_10 
REMARK    4  A    between atoms: C5_13  and  C6_14 
REMARK    5  A    between atoms: N3_19  and  O1_20 
ROOT
HETATM    1  C2  UNL     1       5.906  -2.213 -43.854  1.00  0.00    -0.001 A 
HETATM    2  C3  UNL     1       4.935  -2.222 -42.878  1.00  0.00     0.012 A 
HETATM    3  C4  UNL     1       4.651  -3.398 -42.215  1.00  0.00     0.014 A 
HETATM    4  C5  UNL     1       5.301  -4.608 -42.482  1.00  0.00    -0.007 A 
HETATM    5  C14 UNL     1       6.262  -4.577 -43.456  1.00  0.00     0.014 A 
HETATM    6  C15 UNL     1       6.555  -3.383 -44.131  1.00  0.00     0.012 A 
ENDROOT
BRANCH   4   7
HETATM    7  C6  UNL     1       4.920  -5.791 -41.759  1.00  0.00     0.073 A 
HETATM    8  C7  UNL     1       4.411  -6.856 -42.525  1.00  0.00     0.033 A 
HETATM    9  C8  UNL     1       4.016  -7.989 -41.895  1.00  0.00     0.011 A 
HETATM   10  C9  UNL     1       4.108  -8.103 -40.523  1.00  0.00    -0.030 A 
HETATM   11  C10 UNL     1       4.605  -7.043 -39.844  1.00  0.00     0.072 A 
HETATM   12  C13 UNL     1       3.659  -9.369 -39.906  1.00  0.00     0.068 C 
HETATM   13  N3  UNL     1       5.016  -5.880 -40.428  1.00  0.00    -0.226 N 
HETATM   14  C11 UNL     1       4.726  -7.116 -38.351  1.00  0.00     0.292 C 
HETATM   15  N4  UNL     1       3.680  -8.050 -37.921  1.00  0.00    -0.070 N 
HETATM   16  C12 UNL     1       4.021  -9.367 -38.445  1.00  0.00     0.237 C 
ATOM     17  H42 UNL     1       3.538  -8.049 -36.911  1.00  0.00     0.277 HD
ATOM     18  H41 UNL     1       2.743  -7.746 -38.188  1.00  0.00     0.277 HD
BRANCH  13  19
HETATM   19  O1  UNL     1       5.489  -4.853 -39.641  1.00  0.00    -0.282 OA
ATOM     20  H1  UNL     1       5.574  -4.922 -38.697  1.00  0.00     0.245 HD
ENDBRANCH  13  19
ENDBRANCH   4   7
BRANCH   1  21
HETATM   21  C1  UNL     1       6.212  -0.943 -44.568  1.00  0.00     0.411 C 
BRANCH  21  22
HETATM   22  N1  UNL     1       5.218   0.087 -44.245  1.00  0.00    -0.046 N 
ATOM     23  H13 UNL     1       5.079   0.735 -45.021  1.00  0.00     0.277 HD
ATOM     24  H12 UNL     1       4.275  -0.297 -44.197  1.00  0.00     0.277 HD
ATOM     25  H11 UNL     1       5.474   0.574 -43.386  1.00  0.00     0.277 HD
ENDBRANCH  21  22
BRANCH  21  26
HETATM   26  N2  UNL     1       7.546  -0.496 -44.207  1.00  0.00    -0.046 N 
ATOM     27  H23 UNL     1       7.629  -0.321 -43.206  1.00  0.00     0.277 HD
ATOM     28  H22 UNL     1       8.231  -1.248 -44.288  1.00  0.00     0.277 HD
ATOM     29  H21 UNL     1       7.811   0.320 -44.758  1.00  0.00     0.277 HD
ENDBRANCH  21  26
ENDBRANCH   1  21
TORSDOF 5
ENDMDL
MODEL 4
REMARK VINA RESULT: -7.244159942      1.714      7.069
REMARK  5 active torsions:
REMARK  status: ('A' for Active; 'I' for Inactive)
REMARK    1  A    between atoms: N1_1  and  C1_5 
REMARK    2  A    between atoms: C1_5  and  N2_6 
REMARK    3  A    between atoms: C1_5  and  C2_10 
REMARK    4  A    between atoms: C5_13  and  C6_14 
REMARK    5  A    between atoms: N3_19  and  O1_20 
ROOT
HETATM    1  C2  UNL     1       4.860  -4.726 -44.078  1.00  0.00    -0.001 A 
HETATM    2  C3  UNL     1       5.687  -4.583 -42.986  1.00  0.00     0.012 A 
HETATM    3  C4  UNL     1       5.662  -5.533 -41.986  1.00  0.00     0.014 A 
HETATM    4  C5  UNL     1       4.829  -6.656 -42.014  1.00  0.00    -0.007 A 
HETATM    5  C14 UNL     1       4.015  -6.779 -43.107  1.00  0.00     0.014 A 
HETATM    6  C15 UNL     1       4.038  -5.816 -44.126  1.00  0.00     0.012 A 
ENDROOT
BRANCH   4   7
HETATM    7  C6  UNL     1       4.851  -7.581 -40.913  1.00  0.00     0.073 A 
HETATM    8  C7  UNL     1       5.826  -8.595 -40.966  1.00  0.00     0.033 A 
HETATM    9  C8  UNL     1       5.881  -9.507 -39.967  1.00  0.00     0.011 A 
HETATM   10  C9  UNL     1       4.998  -9.449 -38.908  1.00  0.00    -0.030 A 
HETATM   11  C10 UNL     1       4.085  -8.450 -38.915  1.00  0.00     0.072 A 
HETATM   12  C13 UNL     1       5.119 -10.478 -37.852  1.00  0.00     0.068 C 
HETATM   13  N3  UNL     1       3.985  -7.507 -39.897  1.00  0.00    -0.226 N 
HETATM   14  C11 UNL     1       3.101  -8.342 -37.788  1.00  0.00     0.292 C 
HETATM   15  N4  UNL     1       2.935  -9.709 -37.285  1.00  0.00    -0.070 N 
HETATM   16  C12 UNL     1       4.207 -10.126 -36.707  1.00  0.00     0.237 C 
ATOM     17  H42 UNL     1       2.155  -9.800 -36.633  1.00  0.00     0.277 HD
ATOM     18  H41 UNL     1       2.591 -10.354 -37.996  1.00  0.00     0.277 HD
BRANCH  13  19
HETATM   19  O1  UNL     1       3.005  -6.542 -39.818  1.00  0.00    -0.282 OA
ATOM     20  H1  UNL     1       2.523  -6.359 -39.020  1.00  0.00     0.245 HD
ENDBRANCH  13  19
ENDBRANCH   4   7
BRANCH   1  21
HETATM   21  C1  UNL     1       4.889  -3.700 -45.155  1.00  0.00     0.411 C 
BRANCH  21  22
HETATM   22  N1  UNL     1       4.788  -4.330 -46.476  1.00  0.00    -0.046 N 
ATOM     23  H13 UNL     1       3.970  -4.003 -46.991  1.00  0.00     0.277 HD
ATOM     24  H12 UNL     1       5.511  -3.996 -47.112  1.00  0.00     0.277 HD
ATOM     25  H11 UNL     1       4.799  -5.347 -46.390  1.00  0.00     0.277 HD
ENDBRANCH  21  22
BRANCH  21  26
HETATM   26  N2  UNL     1       3.803  -2.758 -44.954  1.00  0.00    -0.046 N 
ATOM     27  H23 UNL     1       4.137  -1.867 -44.590  1.00  0.00     0.277 HD
ATOM     28  H22 UNL     1       3.420  -2.427 -45.840  1.00  0.00     0.277 HD
ATOM     29  H21 UNL     1       3.081  -3.165 -44.358  1.00  0.00     0.277 HD
ENDBRANCH  21  26
ENDBRANCH   1  21
TORSDOF 5
ENDMDL
MODEL 5
REMARK VINA RESULT: -7.205885619      1.817      7.121
REMARK  5 active torsions:
REMARK  status: ('A' for Active; 'I' for Inactive)
REMARK    1  A    between atoms: N1_1  and  C1_5 
REMARK    2  A    between atoms: C1_5  and  N2_6 
REMARK    3  A    between atoms: C1_5  and  C2_10 
REMARK    4  A    between atoms: C5_13  and  C6_14 
REMARK    5  A    between atoms: N3_19  and  O1_20 
ROOT
HETATM    1  C2  UNL     1       4.832  -5.055 -43.889  1.00  0.00    -0.001 A 
HETATM    2  C3  UNL     1       3.991  -6.146 -43.890  1.00  0.00     0.012 A 
HETATM    3  C4  UNL     1       3.981  -6.997 -42.804  1.00  0.00     0.014 A 
HETATM    4  C5  UNL     1       4.791  -6.815 -41.678  1.00  0.00    -0.007 A 
HETATM    5  C14 UNL     1       5.619  -5.726 -41.697  1.00  0.00     0.014 A 
HETATM    6  C15 UNL     1       5.631  -4.858 -42.799  1.00  0.00     0.012 A 
ENDROOT
BRANCH   4   7
HETATM    7  C6  UNL     1       4.732  -7.769 -40.604  1.00  0.00     0.073 A 
HETATM    8  C7  UNL     1       5.664  -8.823 -40.650  1.00  0.00     0.033 A 
HETATM    9  C8  UNL     1       5.642  -9.763 -39.675  1.00  0.00     0.011 A 
HETATM   10  C9  UNL     1       4.723  -9.694 -38.648  1.00  0.00    -0.030 A 
HETATM   11  C10 UNL     1       3.854  -8.656 -38.660  1.00  0.00     0.072 A 
HETATM   12  C13 UNL     1       4.760 -10.755 -37.618  1.00  0.00     0.068 C 
HETATM   13  N3  UNL     1       3.832  -7.684 -39.618  1.00  0.00    -0.226 N 
HETATM   14  C11 UNL     1       2.835  -8.536 -37.567  1.00  0.00     0.292 C 
HETATM   15  N4  UNL     1       2.591  -9.908 -37.109  1.00  0.00    -0.070 N 
HETATM   16  C12 UNL     1       3.822 -10.394 -36.498  1.00  0.00     0.237 C 
ATOM     17  H42 UNL     1       1.784  -9.982 -36.490  1.00  0.00     0.277 HD
ATOM     18  H41 UNL     1       2.248 -10.518 -37.851  1.00  0.00     0.277 HD
BRANCH  13  19
HETATM   19  O1  UNL     1       2.891  -6.680 -39.548  1.00  0.00    -0.282 OA
ATOM     20  H1  UNL     1       2.013  -6.770 -39.898  1.00  0.00     0.245 HD
ENDBRANCH  13  19
ENDBRANCH   4   7
BRANCH   1  21
HETATM   21  C1  UNL     1       4.841  -4.139 -45.061  1.00  0.00     0.411 C 
BRANCH  21  22
HETATM   22  N1  UNL     1       4.580  -4.878 -46.301  1.00  0.00    -0.046 N 
ATOM     23  H13 UNL     1       3.887  -4.408 -46.884  1.00  0.00     0.277 HD
ATOM     24  H12 UNL     1       5.372  -4.835 -46.942  1.00  0.00     0.277 HD
ATOM     25  H11 UNL     1       4.311  -5.840 -46.095  1.00  0.00     0.277 HD
ENDBRANCH  21  22
BRANCH  21  26
HETATM   26  N2  UNL     1       3.846  -3.099 -44.868  1.00  0.00    -0.046 N 
ATOM     27  H23 UNL     1       4.231  -2.295 -44.373  1.00  0.00     0.277 HD
ATOM     28  H22 UNL     1       3.607  -2.637 -45.746  1.00  0.00     0.277 HD
ATOM     29  H21 UNL     1       3.022  -3.474 -44.400  1.00  0.00     0.277 HD
ENDBRANCH  21  26
ENDBRANCH   1  21
TORSDOF 5
ENDMDL
