MODEL 1
REMARK VINA RESULT: -7.108243618      0.000      0.000
REMARK  3 active torsions:
REMARK  status: ('A' for Active; 'I' for Inactive)
REMARK    1  A    between atoms: C4_8  and  S1_9 
REMARK    2  A    between atoms: S1_9  and  N3_10 
REMARK    3  A    between atoms: C5_15  and  C6_16 
ROOT
HETATM    1  N1  UNL     1       6.641  -8.946 -40.589  1.00  0.00    -0.100 NA
HETATM    2  C1  UNL     1       5.611  -8.813 -39.645  1.00  0.00     0.074 A 
HETATM    3  C2  UNL     1       5.654  -9.576 -38.501  1.00  0.00     0.118 A 
HETATM    4  N2  UNL     1       4.674  -9.456 -37.606  1.00  0.00    -0.330 N 
ATOM      5  H2  UNL     1       4.691 -10.014 -36.752  1.00  0.00     0.168 HD
HETATM    6  C3  UNL     1       3.654  -8.593 -37.832  1.00  0.00     0.269 A 
HETATM    7  O1  UNL     1       2.736  -8.505 -36.960  1.00  0.00    -0.266 OA
HETATM    8  C4  UNL     1       3.587  -7.808 -38.988  1.00  0.00     0.160 A 
HETATM    9  C5  UNL     1       4.595  -7.928 -39.910  1.00  0.00     0.029 A 
ENDROOT
BRANCH   8  10
HETATM   10  S1  UNL     1       2.224  -6.757 -39.160  1.00  0.00     0.263 S 
HETATM   11  O2  UNL     1       2.584  -5.302 -39.187  1.00  0.00    -0.201 OA
HETATM   12  O3  UNL     1       1.516  -7.070 -40.447  1.00  0.00    -0.201 OA
BRANCH  10  13
HETATM   13  N3  UNL     1       1.122  -7.103 -37.856  1.00  0.00    -0.324 N 
ATOM     14  H32 UNL     1       1.384  -7.477 -36.944  1.00  0.00     0.169 HD
ATOM     15  H31 UNL     1       0.183  -6.866 -38.174  1.00  0.00     0.169 HD
ENDBRANCH  10  13
ENDBRANCH   8  10
BRANCH   9  16
HETATM   16  C6  UNL     1       4.577  -7.138 -41.127  1.00  0.00    -0.022 A 
HETATM   17  C7  UNL     1       5.244  -5.917 -41.132  1.00  0.00     0.012 A 
HETATM   18  C8  UNL     1       5.239  -5.132 -42.285  1.00  0.00     0.001 A 
HETATM   19  C9  UNL     1       4.597  -5.505 -43.445  1.00  0.00     0.000 A 
HETATM   20  C10 UNL     1       3.944  -6.717 -43.418  1.00  0.00     0.001 A 
HETATM   21  C11 UNL     1       3.936  -7.510 -42.289  1.00  0.00     0.012 A 
ENDBRANCH   9  16
TORSDOF 3
ENDMDL
MODEL 2
REMARK VINA RESULT: -7.061390243      0.073      1.109
REMARK  3 active torsions:
REMARK  status: ('A' for Active; 'I' for Inactive)
REMARK    1  A    between atoms: C4_8  and  S1_9 
REMARK    2  A    between atoms: S1_9  and  N3_10 
REMARK    3  A    between atoms: C5_15  and  C6_16 
ROOT
HETATM    1  N1  UNL     1       6.666  -8.860 -40.549  1.00  0.00    -0.100 NA
HETATM    2  C1  UNL     1       5.624  -8.761 -39.614  1.00  0.00     0.074 A 
HETATM    3  C2  UNL     1       5.663  -9.549 -38.487  1.00  0.00     0.118 A 
HETATM    4  N2  UNL     1       4.672  -9.461 -37.602  1.00  0.00    -0.330 N 
ATOM      5  H2  UNL     1       4.686 -10.037 -36.761  1.00  0.00     0.168 HD
HETATM    6  C3  UNL     1       3.645  -8.604 -37.820  1.00  0.00     0.269 A 
HETATM    7  O1  UNL     1       2.716  -8.546 -36.956  1.00  0.00    -0.266 OA
HETATM    8  C4  UNL     1       3.582  -7.793 -38.958  1.00  0.00     0.160 A 
HETATM    9  C5  UNL     1       4.601  -7.881 -39.870  1.00  0.00     0.029 A 
ENDROOT
BRANCH   8  10
HETATM   10  S1  UNL     1       2.209  -6.753 -39.122  1.00  0.00     0.263 S 
HETATM   11  O2  UNL     1       2.556  -5.295 -39.147  1.00  0.00    -0.201 OA
HETATM   12  O3  UNL     1       1.498  -7.070 -40.406  1.00  0.00    -0.201 OA
BRANCH  10  13
HETATM   13  N3  UNL     1       1.116  -7.112 -37.813  1.00  0.00    -0.324 N 
ATOM     14  H32 UNL     1       0.686  -6.423 -37.196  1.00  0.00     0.169 HD
ATOM     15  H31 UNL     1       0.992  -8.124 -37.783  1.00  0.00     0.169 HD
ENDBRANCH  10  13
ENDBRANCH   8  10
BRANCH   9  16
HETATM   16  C6  UNL     1       4.588  -7.063 -41.070  1.00  0.00    -0.022 A 
HETATM   17  C7  UNL     1       3.928  -7.550 -42.194  1.00  0.00     0.012 A 
HETATM   18  C8  UNL     1       3.905  -6.791 -43.363  1.00  0.00     0.001 A 
HETATM   19  C9  UNL     1       4.511  -5.559 -43.472  1.00  0.00     0.000 A 
HETATM   20  C10 UNL     1       5.158  -5.096 -42.348  1.00  0.00     0.001 A 
HETATM   21  C11 UNL     1       5.194  -5.831 -41.180  1.00  0.00     0.012 A 
ENDBRANCH   9  16
TORSDOF 3
ENDMDL
MODEL 3
REMARK VINA RESULT: -7.048519301      2.111      3.094
REMARK  3 active torsions:
REMARK  status: ('A' for Active; 'I' for Inactive)
REMARK    1  A    between atoms: C4_8  and  S1_9 
REMARK    2  A    between atoms: S1_9  and  N3_10 
REMARK    3  A    between atoms: C5_15  and  C6_16 
ROOT
HETATM    1  N1  UNL     1       0.406  -8.532 -41.418  1.00  0.00    -0.100 NA
HETATM    2  C1  UNL     1       1.121  -8.576 -40.211  1.00  0.00     0.074 A 
HETATM    3  C2  UNL     1       0.609  -9.301 -39.160  1.00  0.00     0.118 A 
HETATM    4  N2  UNL     1       1.283  -9.339 -38.011  1.00  0.00    -0.330 N 
ATOM      5  H2  UNL     1       0.918  -9.872 -37.222  1.00  0.00     0.168 HD
HETATM    6  C3  UNL     1       2.455  -8.668 -37.892  1.00  0.00     0.269 A 
HETATM    7  O1  UNL     1       3.070  -8.725 -36.783  1.00  0.00    -0.266 OA
HETATM    8  C4  UNL     1       2.995  -7.924 -38.946  1.00  0.00     0.160 A 
HETATM    9  C5  UNL     1       2.305  -7.884 -40.129  1.00  0.00     0.029 A 
ENDROOT
BRANCH   8  10
HETATM   10  S1  UNL     1       4.491  -7.103 -38.658  1.00  0.00     0.263 S 
HETATM   11  O2  UNL     1       5.227  -6.733 -39.910  1.00  0.00    -0.201 OA
HETATM   12  O3  UNL     1       4.222  -5.835 -37.901  1.00  0.00    -0.201 OA
BRANCH  10  13
HETATM   13  N3  UNL     1       5.467  -8.127 -37.641  1.00  0.00    -0.324 N 
ATOM     14  H32 UNL     1       6.235  -7.812 -37.048  1.00  0.00     0.169 HD
ATOM     15  H31 UNL     1       5.129  -9.083 -37.750  1.00  0.00     0.169 HD
ENDBRANCH  10  13
ENDBRANCH   8  10
BRANCH   9  16
HETATM   16  C6  UNL     1       2.818  -7.127 -41.257  1.00  0.00    -0.022 A 
HETATM   17  C7  UNL     1       2.502  -5.775 -41.343  1.00  0.00     0.012 A 
HETATM   18  C8  UNL     1       2.975  -5.023 -42.418  1.00  0.00     0.001 A 
HETATM   19  C9  UNL     1       3.754  -5.554 -43.422  1.00  0.00     0.000 A 
HETATM   20  C10 UNL     1       4.054  -6.893 -43.316  1.00  0.00     0.001 A 
HETATM   21  C11 UNL     1       3.598  -7.657 -42.262  1.00  0.00     0.012 A 
ENDBRANCH   9  16
TORSDOF 3
ENDMDL
MODEL 4
REMARK VINA RESULT: -7.044424882      2.117      3.183
REMARK  3 active torsions:
REMARK  status: ('A' for Active; 'I' for Inactive)
REMARK    1  A    between atoms: C4_8  and  S1_9 
REMARK    2  A    between atoms: S1_9  and  N3_10 
REMARK    3  A    between atoms: C5_15  and  C6_16 
ROOT
HETATM    1  N1  UNL     1       0.382  -8.516 -41.409  1.00  0.00    -0.100 NA
HETATM    2  C1  UNL     1       1.110  -8.568 -40.210  1.00  0.00     0.074 A 
HETATM    3  C2  UNL     1       0.626  -9.324 -39.168  1.00  0.00     0.118 A 
HETATM    4  N2  UNL     1       1.313  -9.370 -38.028  1.00  0.00    -0.330 N 
ATOM      5  H2  UNL     1       0.968  -9.927 -37.246  1.00  0.00     0.168 HD
HETATM    6  C3  UNL     1       2.470  -8.676 -37.908  1.00  0.00     0.269 A 
HETATM    7  O1  UNL     1       3.099  -8.740 -36.806  1.00  0.00    -0.266 OA
HETATM    8  C4  UNL     1       2.983  -7.899 -38.952  1.00  0.00     0.160 A 
HETATM    9  C5  UNL     1       2.279  -7.851 -40.127  1.00  0.00     0.029 A 
ENDROOT
BRANCH   8  10
HETATM   10  S1  UNL     1       4.463  -7.051 -38.664  1.00  0.00     0.263 S 
HETATM   11  O2  UNL     1       5.196  -6.674 -39.915  1.00  0.00    -0.201 OA
HETATM   12  O3  UNL     1       4.171  -5.784 -37.912  1.00  0.00    -0.201 OA
BRANCH  10  13
HETATM   13  N3  UNL     1       5.454  -8.054 -37.639  1.00  0.00    -0.324 N 
ATOM     14  H32 UNL     1       5.464  -8.030 -36.619  1.00  0.00     0.169 HD
ATOM     15  H31 UNL     1       6.012  -8.657 -38.243  1.00  0.00     0.169 HD
ENDBRANCH  10  13
ENDBRANCH   8  10
BRANCH   9  16
HETATM   16  C6  UNL     1       2.763  -7.061 -41.244  1.00  0.00    -0.022 A 
HETATM   17  C7  UNL     1       3.547  -7.690 -42.207  1.00  0.00     0.012 A 
HETATM   18  C8  UNL     1       4.033  -6.955 -43.289  1.00  0.00     0.001 A 
HETATM   19  C9  UNL     1       3.776  -5.614 -43.462  1.00  0.00     0.000 A 
HETATM   20  C10 UNL     1       2.998  -5.012 -42.498  1.00  0.00     0.001 A 
HETATM   21  C11 UNL     1       2.506  -5.719 -41.420  1.00  0.00     0.012 A 
ENDBRANCH   9  16
TORSDOF 3
ENDMDL
MODEL 5
REMARK VINA RESULT: -6.946566714      2.322      3.298
REMARK  3 active torsions:
REMARK  status: ('A' for Active; 'I' for Inactive)
REMARK    1  A    between atoms: C4_8  and  S1_9 
REMARK    2  A    between atoms: S1_9  and  N3_10 
REMARK    3  A    between atoms: C5_15  and  C6_16 
ROOT
HETATM    1  N1  UNL     1       0.827  -7.714 -41.642  1.00  0.00    -0.100 NA
HETATM    2  C1  UNL     1       1.845  -8.042 -40.734  1.00  0.00     0.074 A 
HETATM    3  C2  UNL     1       1.579  -8.945 -39.731  1.00  0.00     0.118 A 
HETATM    4  N2  UNL     1       2.543  -9.252 -38.864  1.00  0.00    -0.330 N 
ATOM      5  H2  UNL     1       2.363  -9.920 -38.115  1.00  0.00     0.168 HD
HETATM    6  C3  UNL     1       3.764  -8.676 -38.980  1.00  0.00     0.269 A 
HETATM    7  O1  UNL     1       4.660  -8.991 -38.136  1.00  0.00    -0.266 OA
HETATM    8  C4  UNL     1       4.059  -7.755 -39.990  1.00  0.00     0.160 A 
HETATM    9  C5  UNL     1       3.070  -7.438 -40.884  1.00  0.00     0.029 A 
ENDROOT
BRANCH   8  10
HETATM   10  S1  UNL     1       5.654  -7.083 -40.016  1.00  0.00     0.263 S 
HETATM   11  O2  UNL     1       5.942  -6.261 -41.236  1.00  0.00    -0.201 OA
HETATM   12  O3  UNL     1       5.837  -6.195 -38.819  1.00  0.00    -0.201 OA
BRANCH  10  13
HETATM   13  N3  UNL     1       6.784  -8.402 -39.871  1.00  0.00    -0.324 N 
ATOM     14  H32 UNL     1       6.915  -8.980 -39.041  1.00  0.00     0.169 HD
ATOM     15  H31 UNL     1       7.281  -8.481 -40.758  1.00  0.00     0.169 HD
ENDBRANCH  10  13
ENDBRANCH   8  10
BRANCH   9  16
HETATM   16  C6  UNL     1       3.320  -6.488 -41.952  1.00  0.00    -0.022 A 
HETATM   17  C7  UNL     1       2.987  -5.153 -41.741  1.00  0.00     0.012 A 
HETATM   18  C8  UNL     1       3.209  -4.218 -42.752  1.00  0.00     0.001 A 
HETATM   19  C9  UNL     1       3.750  -4.547 -43.974  1.00  0.00     0.000 A 
HETATM   20  C10 UNL     1       4.072  -5.873 -44.162  1.00  0.00     0.001 A 
HETATM   21  C11 UNL     1       3.862  -6.815 -43.176  1.00  0.00     0.012 A 
ENDBRANCH   9  16
TORSDOF 3
ENDMDL
