MODEL 1
REMARK VINA RESULT: -7.105770478      0.000      0.000
REMARK  3 active torsions:
REMARK  status: ('A' for Active; 'I' for Inactive)
REMARK    1  A    between atoms: C4_5  and  C5_6 
REMARK    2  A    between atoms: C6_7  and  C7_8 
REMARK    3  A    between atoms: N2_12  and  O1_13 
ROOT
HETATM    1  C5  UNL     1       4.411  -8.216 -39.591  1.00  0.00     0.074 A 
HETATM    2  C6  UNL     1       5.064  -7.350 -40.434  1.00  0.00     0.076 A 
HETATM    3  N3  UNL     1       6.370  -7.707 -40.489  1.00  0.00    -0.296 N 
ATOM      4  H3  UNL     1       7.086  -7.235 -41.041  1.00  0.00     0.187 HD
HETATM    5  N4  UNL     1       6.577  -8.761 -39.720  1.00  0.00    -0.265 N 
ATOM      6  H4  UNL     1       7.469  -9.234 -39.579  1.00  0.00     0.190 HD
HETATM    7  C12 UNL     1       5.415  -9.096 -39.161  1.00  0.00     0.273 A 
HETATM    8  O2  UNL     1       5.200 -10.058 -38.355  1.00  0.00    -0.266 OA
ENDROOT
BRANCH   1   9
HETATM    9  C4  UNL     1       3.013  -8.273 -39.185  1.00  0.00    -0.003 A 
HETATM   10  C3  UNL     1       2.104  -8.960 -39.971  1.00  0.00     0.017 A 
HETATM   11  C2  UNL     1       0.757  -9.033 -39.594  1.00  0.00     0.046 A 
HETATM   12  C1  UNL     1       0.314  -8.425 -38.439  1.00  0.00     0.116 A 
HETATM   13  N1  UNL     1      -1.069  -8.499 -38.047  1.00  0.00    -0.083 NA
HETATM   14  N5  UNL     1       1.212  -7.766 -37.698  1.00  0.00    -0.354 N 
HETATM   15  C13 UNL     1       2.520  -7.683 -38.042  1.00  0.00     0.101 A 
ATOM     16  H5  UNL     1       0.901  -7.309 -36.841  1.00  0.00     0.166 HD
ENDBRANCH   1   9
BRANCH   2  17
HETATM   17  C7  UNL     1       4.474  -6.239 -41.152  1.00  0.00     0.011 A 
HETATM   18  C8  UNL     1       4.083  -6.454 -42.464  1.00  0.00     0.017 A 
HETATM   19  C9  UNL     1       3.515  -5.425 -43.203  1.00  0.00     0.021 A 
HETATM   20  C10 UNL     1       3.337  -4.196 -42.643  1.00  0.00     0.122 A 
HETATM   21  N2  UNL     1       3.718  -3.983 -41.364  1.00  0.00    -0.246 N 
HETATM   22  C11 UNL     1       4.267  -4.977 -40.650  1.00  0.00     0.136 A 
BRANCH  21  23
HETATM   23  O1  UNL     1       3.523  -2.722 -40.837  1.00  0.00    -0.284 OA
ATOM     24  H1  UNL     1       4.158  -2.404 -40.206  1.00  0.00     0.245 HD
ENDBRANCH  21  23
ENDBRANCH   2  17
TORSDOF 3
ENDMDL
MODEL 2
REMARK VINA RESULT: -6.909537619      1.655      1.996
REMARK  3 active torsions:
REMARK  status: ('A' for Active; 'I' for Inactive)
REMARK    1  A    between atoms: C4_5  and  C5_6 
REMARK    2  A    between atoms: C6_7  and  C7_8 
REMARK    3  A    between atoms: N2_12  and  O1_13 
ROOT
HETATM    1  C5  UNL     1       4.346  -8.595 -38.541  1.00  0.00     0.074 A 
HETATM    2  C6  UNL     1       5.131  -8.432 -39.656  1.00  0.00     0.076 A 
HETATM    3  N3  UNL     1       6.252  -9.180 -39.505  1.00  0.00    -0.296 N 
ATOM      4  H3  UNL     1       7.010  -9.246 -40.185  1.00  0.00     0.187 HD
HETATM    5  N4  UNL     1       6.215  -9.810 -38.345  1.00  0.00    -0.265 N 
ATOM      6  H4  UNL     1       6.930 -10.438 -37.981  1.00  0.00     0.190 HD
HETATM    7  C12 UNL     1       5.077  -9.480 -37.736  1.00  0.00     0.273 A 
HETATM    8  O2  UNL     1       4.673  -9.883 -36.597  1.00  0.00    -0.266 OA
ENDROOT
BRANCH   1   9
HETATM    9  C4  UNL     1       3.053  -8.020 -38.198  1.00  0.00    -0.003 A 
HETATM   10  C3  UNL     1       2.819  -6.678 -38.443  1.00  0.00     0.017 A 
HETATM   11  C2  UNL     1       1.579  -6.106 -38.127  1.00  0.00     0.046 A 
HETATM   12  C1  UNL     1       0.575  -6.867 -37.570  1.00  0.00     0.116 A 
HETATM   13  N1  UNL     1      -0.701  -6.285 -37.246  1.00  0.00    -0.083 NA
HETATM   14  N5  UNL     1       0.826  -8.162 -37.342  1.00  0.00    -0.354 N 
HETATM   15  C13 UNL     1       2.016  -8.735 -37.640  1.00  0.00     0.101 A 
ATOM     16  H5  UNL     1       0.093  -8.738 -36.929  1.00  0.00     0.166 HD
ENDBRANCH   1   9
BRANCH   2  17
HETATM   17  C7  UNL     1       4.829  -7.607 -40.808  1.00  0.00     0.011 A 
HETATM   18  C8  UNL     1       3.867  -8.065 -41.694  1.00  0.00     0.017 A 
HETATM   19  C9  UNL     1       3.539  -7.319 -42.818  1.00  0.00     0.021 A 
HETATM   20  C10 UNL     1       4.160  -6.131 -43.058  1.00  0.00     0.122 A 
HETATM   21  N2  UNL     1       5.101  -5.682 -42.196  1.00  0.00    -0.246 N 
HETATM   22  C11 UNL     1       5.418  -6.403 -41.110  1.00  0.00     0.136 A 
BRANCH  21  23
HETATM   23  O1  UNL     1       5.708  -4.476 -42.478  1.00  0.00    -0.284 OA
ATOM     24  H1  UNL     1       5.156  -3.704 -42.530  1.00  0.00     0.245 HD
ENDBRANCH  21  23
ENDBRANCH   2  17
TORSDOF 3
ENDMDL
MODEL 3
REMARK VINA RESULT: -6.908686452      1.591      1.733
REMARK  3 active torsions:
REMARK  status: ('A' for Active; 'I' for Inactive)
REMARK    1  A    between atoms: C4_5  and  C5_6 
REMARK    2  A    between atoms: C6_7  and  C7_8 
REMARK    3  A    between atoms: N2_12  and  O1_13 
ROOT
HETATM    1  C5  UNL     1       4.434  -8.266 -38.884  1.00  0.00     0.074 A 
HETATM    2  C6  UNL     1       5.190  -8.092 -40.018  1.00  0.00     0.076 A 
HETATM    3  N3  UNL     1       6.294  -8.873 -39.922  1.00  0.00    -0.296 N 
ATOM      4  H3  UNL     1       7.030  -8.940 -40.626  1.00  0.00     0.187 HD
HETATM    5  N4  UNL     1       6.274  -9.534 -38.779  1.00  0.00    -0.265 N 
ATOM      6  H4  UNL     1       6.983 -10.191 -38.454  1.00  0.00     0.190 HD
HETATM    7  C12 UNL     1       5.165  -9.192 -38.126  1.00  0.00     0.273 A 
HETATM    8  O2  UNL     1       4.784  -9.615 -36.986  1.00  0.00    -0.266 OA
ENDROOT
BRANCH   1   9
HETATM    9  C4  UNL     1       3.168  -7.666 -38.486  1.00  0.00    -0.003 A 
HETATM   10  C3  UNL     1       2.134  -8.481 -38.059  1.00  0.00     0.017 A 
HETATM   11  C2  UNL     1       0.911  -7.923 -37.664  1.00  0.00     0.046 A 
HETATM   12  C1  UNL     1       0.716  -6.559 -37.694  1.00  0.00     0.116 A 
HETATM   13  N1  UNL     1      -0.538  -5.982 -37.288  1.00  0.00    -0.083 NA
HETATM   14  N5  UNL     1       1.731  -5.794 -38.112  1.00  0.00    -0.354 N 
HETATM   15  C13 UNL     1       2.922  -6.311 -38.497  1.00  0.00     0.101 A 
ATOM     16  H5  UNL     1       1.602  -4.782 -38.141  1.00  0.00     0.166 HD
ENDBRANCH   1   9
BRANCH   2  17
HETATM   17  C7  UNL     1       4.876  -7.228 -41.137  1.00  0.00     0.011 A 
HETATM   18  C8  UNL     1       3.994  -7.705 -42.093  1.00  0.00     0.017 A 
HETATM   19  C9  UNL     1       3.658  -6.923 -43.189  1.00  0.00     0.021 A 
HETATM   20  C10 UNL     1       4.194  -5.680 -43.334  1.00  0.00     0.122 A 
HETATM   21  N2  UNL     1       5.057  -5.211 -42.404  1.00  0.00    -0.246 N 
HETATM   22  C11 UNL     1       5.381  -5.967 -41.345  1.00  0.00     0.136 A 
BRANCH  21  23
HETATM   23  O1  UNL     1       5.580  -3.947 -42.591  1.00  0.00    -0.284 OA
ATOM     24  H1  UNL     1       6.159  -3.605 -41.920  1.00  0.00     0.245 HD
ENDBRANCH  21  23
ENDBRANCH   2  17
TORSDOF 3
ENDMDL
MODEL 4
REMARK VINA RESULT: -6.798452444      3.615      7.518
REMARK  3 active torsions:
REMARK  status: ('A' for Active; 'I' for Inactive)
REMARK    1  A    between atoms: C4_5  and  C5_6 
REMARK    2  A    between atoms: C6_7  and  C7_8 
REMARK    3  A    between atoms: N2_12  and  O1_13 
ROOT
HETATM    1  C5  UNL     1       5.226  -3.713 -44.058  1.00  0.00     0.074 A 
HETATM    2  C6  UNL     1       4.871  -4.159 -42.809  1.00  0.00     0.076 A 
HETATM    3  N3  UNL     1       4.597  -3.084 -42.030  1.00  0.00    -0.296 N 
ATOM      4  H3  UNL     1       4.307  -3.124 -41.053  1.00  0.00     0.187 HD
HETATM    5  N4  UNL     1       4.762  -1.975 -42.729  1.00  0.00    -0.265 N 
ATOM      6  H4  UNL     1       4.623  -1.024 -42.386  1.00  0.00     0.190 HD
HETATM    7  C12 UNL     1       5.142  -2.317 -43.959  1.00  0.00     0.273 A 
HETATM    8  O2  UNL     1       5.400  -1.532 -44.928  1.00  0.00    -0.266 OA
ENDROOT
BRANCH   1   9
HETATM    9  C4  UNL     1       5.614  -4.449 -45.254  1.00  0.00    -0.003 A 
HETATM   10  C3  UNL     1       4.654  -4.767 -46.199  1.00  0.00     0.017 A 
HETATM   11  C2  UNL     1       5.009  -5.467 -47.360  1.00  0.00     0.046 A 
HETATM   12  C1  UNL     1       6.314  -5.850 -47.581  1.00  0.00     0.116 A 
HETATM   13  N1  UNL     1       6.683  -6.567 -48.772  1.00  0.00    -0.083 NA
HETATM   14  N5  UNL     1       7.223  -5.531 -46.652  1.00  0.00    -0.354 N 
HETATM   15  C13 UNL     1       6.903  -4.855 -45.523  1.00  0.00     0.101 A 
ATOM     16  H5  UNL     1       8.193  -5.808 -46.800  1.00  0.00     0.166 HD
ENDBRANCH   1   9
BRANCH   2  17
HETATM   17  C7  UNL     1       4.794  -5.540 -42.378  1.00  0.00     0.011 A 
HETATM   18  C8  UNL     1       3.796  -6.331 -42.922  1.00  0.00     0.017 A 
HETATM   19  C9  UNL     1       3.671  -7.661 -42.545  1.00  0.00     0.021 A 
HETATM   20  C10 UNL     1       4.531  -8.198 -41.635  1.00  0.00     0.122 A 
HETATM   21  N2  UNL     1       5.505  -7.429 -41.100  1.00  0.00    -0.246 N 
HETATM   22  C11 UNL     1       5.625  -6.144 -41.465  1.00  0.00     0.136 A 
BRANCH  21  23
HETATM   23  O1  UNL     1       6.352  -8.012 -40.179  1.00  0.00    -0.284 OA
ATOM     24  H1  UNL     1       7.286  -7.873 -40.288  1.00  0.00     0.245 HD
ENDBRANCH  21  23
ENDBRANCH   2  17
TORSDOF 3
ENDMDL
MODEL 5
REMARK VINA RESULT: -6.776459362      3.884      6.351
REMARK  3 active torsions:
REMARK  status: ('A' for Active; 'I' for Inactive)
REMARK    1  A    between atoms: C4_5  and  C5_6 
REMARK    2  A    between atoms: C6_7  and  C7_8 
REMARK    3  A    between atoms: N2_12  and  O1_13 
ROOT
HETATM    1  C5  UNL     1       5.038  -3.635 -43.511  1.00  0.00     0.074 A 
HETATM    2  C6  UNL     1       5.452  -3.309 -44.779  1.00  0.00     0.076 A 
HETATM    3  N3  UNL     1       5.530  -1.958 -44.871  1.00  0.00    -0.296 N 
ATOM      4  H3  UNL     1       5.813  -1.441 -45.704  1.00  0.00     0.187 HD
HETATM    5  N4  UNL     1       5.184  -1.412 -43.720  1.00  0.00    -0.265 N 
ATOM      6  H4  UNL     1       5.154  -0.414 -43.514  1.00  0.00     0.190 HD
HETATM    7  C12 UNL     1       4.880  -2.396 -42.874  1.00  0.00     0.273 A 
HETATM    8  O2  UNL     1       4.500  -2.277 -41.664  1.00  0.00    -0.266 OA
ENDROOT
BRANCH   1   9
HETATM    9  C4  UNL     1       4.793  -4.933 -42.897  1.00  0.00    -0.003 A 
HETATM   10  C3  UNL     1       3.669  -5.654 -43.257  1.00  0.00     0.017 A 
HETATM   11  C2  UNL     1       3.419  -6.908 -42.683  1.00  0.00     0.046 A 
HETATM   12  C1  UNL     1       4.285  -7.443 -41.754  1.00  0.00     0.116 A 
HETATM   13  N1  UNL     1       4.034  -8.731 -41.164  1.00  0.00    -0.083 NA
HETATM   14  N5  UNL     1       5.365  -6.726 -41.423  1.00  0.00    -0.354 N 
HETATM   15  C13 UNL     1       5.626  -5.512 -41.965  1.00  0.00     0.101 A 
ATOM     16  H5  UNL     1       6.015  -7.107 -40.736  1.00  0.00     0.166 HD
ENDBRANCH   1   9
BRANCH   2  17
HETATM   17  C7  UNL     1       5.761  -4.235 -45.849  1.00  0.00     0.011 A 
HETATM   18  C8  UNL     1       6.989  -4.876 -45.813  1.00  0.00     0.017 A 
HETATM   19  C9  UNL     1       7.341  -5.772 -46.813  1.00  0.00     0.021 A 
HETATM   20  C10 UNL     1       6.481  -6.028 -47.838  1.00  0.00     0.122 A 
HETATM   21  N2  UNL     1       5.282  -5.403 -47.877  1.00  0.00    -0.246 N 
HETATM   22  C11 UNL     1       4.942  -4.538 -46.910  1.00  0.00     0.136 A 
BRANCH  21  23
HETATM   23  O1  UNL     1       4.442  -5.689 -48.934  1.00  0.00    -0.284 OA
ATOM     24  H1  UNL     1       3.531  -5.872 -48.738  1.00  0.00     0.245 HD
ENDBRANCH  21  23
ENDBRANCH   2  17
TORSDOF 3
ENDMDL
