MODEL 1
REMARK VINA RESULT: -6.450671279      0.000      0.000
REMARK  3 active torsions:
REMARK  status: ('A' for Active; 'I' for Inactive)
REMARK    1  A    between atoms: C2_2  and  C3_3 
REMARK    2  A    between atoms: C3_3  and  N1_4 
REMARK       I    between atoms: N1_4  and  C4_5 
REMARK    3  A    between atoms: C4_5  and  C5_7 
REMARK       I    between atoms: N2_15  and  C13_16 
ROOT
HETATM    1  C5  UNL     1      21.987  31.717  21.139  1.00  0.00     0.105 C 
HETATM    2  C6  UNL     1      22.145  30.635  22.166  1.00  0.00     0.069 C 
HETATM    3  C7  UNL     1      21.989  30.975  23.579  1.00  0.00    -0.019 C 
HETATM    4  C8  UNL     1      20.942  31.724  24.206  1.00  0.00    -0.030 C 
HETATM    5  C9  UNL     1      19.661  32.091  23.591  1.00  0.00     0.027 C 
HETATM    6  C10 UNL     1      18.734  31.029  23.158  1.00  0.00     0.010 C 
HETATM    7  C11 UNL     1      19.259  30.133  22.050  1.00  0.00     0.009 C 
HETATM    8  C12 UNL     1      19.432  30.970  20.851  1.00  0.00     0.136 C 
HETATM    9  N2  UNL     1      20.645  31.715  20.649  1.00  0.00    -0.318 N 
HETATM   10  C13 UNL     1      20.438  32.711  19.635  1.00  0.00     0.188 C 
HETATM   11  N3  UNL     1      19.492  33.579  19.874  1.00  0.00    -0.373 N 
ATOM     12  H31 UNL     1      19.344  34.286  19.154  1.00  0.00     0.158 HD
ATOM     13  H32 UNL     1      18.963  33.534  20.745  1.00  0.00     0.158 HD
HETATM   14  N4  UNL     1      21.162  32.771  18.444  1.00  0.00    -0.064 NA
HETATM   15  C14 UNL     1      20.279  29.264  22.561  1.00  0.00    -0.003 A 
HETATM   16  C15 UNL     1      21.090  28.168  22.035  1.00  0.00     0.011 A 
HETATM   17  C16 UNL     1      21.410  29.474  21.605  1.00  0.00     0.004 A 
ENDROOT
BRANCH   1  18
HETATM   18  C4  UNL     1      22.713  32.965  21.286  1.00  0.00     0.339 C 
HETATM   19  N1  UNL     1      23.993  33.080  20.830  1.00  0.00    -0.378 NA
HETATM   20  O1  UNL     1      22.158  33.993  21.846  1.00  0.00    -0.250 OA
BRANCH  19  21
HETATM   21  C3  UNL     1      25.287  33.195  20.368  1.00  0.00     0.186 C 
BRANCH  21  22
HETATM   22  C2  UNL     1      26.328  32.522  21.149  1.00  0.00     0.022 C 
HETATM   23  C1  UNL     1      27.589  32.864  21.146  1.00  0.00     0.013 C 
ENDBRANCH  21  22
ENDBRANCH  19  21
ENDBRANCH   1  18
TORSDOF 3
ENDMDL
MODEL 2
REMARK VINA RESULT: -6.097376206      2.132      4.438
REMARK  3 active torsions:
REMARK  status: ('A' for Active; 'I' for Inactive)
REMARK    1  A    between atoms: C2_2  and  C3_3 
REMARK    2  A    between atoms: C3_3  and  N1_4 
REMARK       I    between atoms: N1_4  and  C4_5 
REMARK    3  A    between atoms: C4_5  and  C5_7 
REMARK       I    between atoms: N2_15  and  C13_16 
ROOT
HETATM    1  C5  UNL     1      20.574  31.569  20.718  1.00  0.00     0.105 C 
HETATM    2  C6  UNL     1      21.669  32.445  21.250  1.00  0.00     0.069 C 
HETATM    3  C7  UNL     1      21.374  33.345  22.364  1.00  0.00    -0.019 C 
HETATM    4  C8  UNL     1      20.708  33.049  23.596  1.00  0.00    -0.030 C 
HETATM    5  C9  UNL     1      20.406  31.708  24.111  1.00  0.00     0.027 C 
HETATM    6  C10 UNL     1      21.513  30.780  24.410  1.00  0.00     0.010 C 
HETATM    7  C11 UNL     1      22.347  30.371  23.209  1.00  0.00     0.009 C 
HETATM    8  C12 UNL     1      21.471  29.607  22.304  1.00  0.00     0.136 C 
HETATM    9  N2  UNL     1      20.648  30.285  21.339  1.00  0.00    -0.318 N 
HETATM   10  C13 UNL     1      19.642  29.386  20.846  1.00  0.00     0.188 C 
HETATM   11  N3  UNL     1      18.841  28.879  21.743  1.00  0.00    -0.373 N 
ATOM     12  H31 UNL     1      18.127  28.240  21.393  1.00  0.00     0.158 HD
ATOM     13  H32 UNL     1      18.939  29.139  22.725  1.00  0.00     0.158 HD
HETATM   14  N4  UNL     1      19.508  29.030  19.503  1.00  0.00    -0.064 NA
HETATM   15  C14 UNL     1      23.163  31.469  22.778  1.00  0.00    -0.003 A 
HETATM   16  C15 UNL     1      24.193  31.682  21.764  1.00  0.00     0.011 A 
HETATM   17  C16 UNL     1      22.859  31.561  21.316  1.00  0.00     0.004 A 
ENDROOT
BRANCH   1  18
HETATM   18  C4  UNL     1      19.287  32.146  20.376  1.00  0.00     0.339 C 
HETATM   19  N1  UNL     1      19.003  32.492  19.087  1.00  0.00    -0.378 NA
HETATM   20  O1  UNL     1      18.384  32.337  21.284  1.00  0.00    -0.250 OA
BRANCH  19  21
HETATM   21  C3  UNL     1      18.718  32.841  17.785  1.00  0.00     0.186 C 
BRANCH  21  22
HETATM   22  C2  UNL     1      18.866  31.792  16.773  1.00  0.00     0.022 C 
HETATM   23  C1  UNL     1      20.012  31.295  16.389  1.00  0.00     0.013 C 
ENDBRANCH  21  22
ENDBRANCH  19  21
ENDBRANCH   1  18
TORSDOF 3
ENDMDL
MODEL 3
REMARK VINA RESULT: -6.071070440      1.674      2.539
REMARK  3 active torsions:
REMARK  status: ('A' for Active; 'I' for Inactive)
REMARK    1  A    between atoms: C2_2  and  C3_3 
REMARK    2  A    between atoms: C3_3  and  N1_4 
REMARK       I    between atoms: N1_4  and  C4_5 
REMARK    3  A    between atoms: C4_5  and  C5_7 
REMARK       I    between atoms: N2_15  and  C13_16 
ROOT
HETATM    1  C5  UNL     1      21.826  31.796  21.090  1.00  0.00     0.105 C 
HETATM    2  C6  UNL     1      21.961  30.813  22.215  1.00  0.00     0.069 C 
HETATM    3  C7  UNL     1      21.879  31.299  23.591  1.00  0.00    -0.019 C 
HETATM    4  C8  UNL     1      20.901  32.168  24.173  1.00  0.00    -0.030 C 
HETATM    5  C9  UNL     1      19.621  32.550  23.566  1.00  0.00     0.027 C 
HETATM    6  C10 UNL     1      18.618  31.509  23.272  1.00  0.00     0.010 C 
HETATM    7  C11 UNL     1      19.049  30.478  22.244  1.00  0.00     0.009 C 
HETATM    8  C12 UNL     1      19.224  31.181  20.962  1.00  0.00     0.136 C 
HETATM    9  N2  UNL     1      20.469  31.827  20.646  1.00  0.00    -0.318 N 
HETATM   10  C13 UNL     1      20.280  32.729  19.545  1.00  0.00     0.188 C 
HETATM   11  N3  UNL     1      19.395  33.672  19.726  1.00  0.00    -0.373 N 
ATOM     12  H31 UNL     1      19.261  34.313  18.943  1.00  0.00     0.158 HD
ATOM     13  H32 UNL     1      18.898  33.746  20.613  1.00  0.00     0.158 HD
HETATM   14  N4  UNL     1      20.960  32.628  18.330  1.00  0.00    -0.064 NA
HETATM   15  C14 UNL     1      20.036  29.603  22.806  1.00  0.00    -0.003 A 
HETATM   16  C15 UNL     1      20.762  28.414  22.367  1.00  0.00     0.011 A 
HETATM   17  C16 UNL     1      21.140  29.649  21.797  1.00  0.00     0.004 A 
ENDROOT
BRANCH   1  18
HETATM   18  C4  UNL     1      22.627  33.006  21.087  1.00  0.00     0.339 C 
HETATM   19  N1  UNL     1      22.107  34.183  21.540  1.00  0.00    -0.378 NA
HETATM   20  O1  UNL     1      23.850  32.990  20.661  1.00  0.00    -0.250 OA
BRANCH  19  21
HETATM   21  C3  UNL     1      21.581  35.371  21.999  1.00  0.00     0.186 C 
BRANCH  21  22
HETATM   22  C2  UNL     1      21.836  36.563  21.185  1.00  0.00     0.022 C 
HETATM   23  C1  UNL     1      21.067  37.619  21.164  1.00  0.00     0.013 C 
ENDBRANCH  21  22
ENDBRANCH  19  21
ENDBRANCH   1  18
TORSDOF 3
ENDMDL
MODEL 4
REMARK VINA RESULT: -5.962302990      1.306      1.467
REMARK  3 active torsions:
REMARK  status: ('A' for Active; 'I' for Inactive)
REMARK    1  A    between atoms: C2_2  and  C3_3 
REMARK    2  A    between atoms: C3_3  and  N1_4 
REMARK       I    between atoms: N1_4  and  C4_5 
REMARK    3  A    between atoms: C4_5  and  C5_7 
REMARK       I    between atoms: N2_15  and  C13_16 
ROOT
HETATM    1  C5  UNL     1      22.021  32.323  21.156  1.00  0.00     0.105 C 
HETATM    2  C6  UNL     1      22.309  31.304  22.219  1.00  0.00     0.069 C 
HETATM    3  C7  UNL     1      21.817  31.542  23.575  1.00  0.00    -0.019 C 
HETATM    4  C8  UNL     1      20.504  31.933  23.992  1.00  0.00    -0.030 C 
HETATM    5  C9  UNL     1      19.299  31.928  23.154  1.00  0.00     0.027 C 
HETATM    6  C10 UNL     1      18.813  30.655  22.590  1.00  0.00     0.010 C 
HETATM    7  C11 UNL     1      19.762  29.985  21.613  1.00  0.00     0.009 C 
HETATM    8  C12 UNL     1      19.888  30.871  20.443  1.00  0.00     0.136 C 
HETATM    9  N2  UNL     1      20.845  31.944  20.439  1.00  0.00    -0.318 N 
HETATM   10  C13 UNL     1      20.534  32.865  19.382  1.00  0.00     0.188 C 
HETATM   11  N3  UNL     1      19.350  33.411  19.432  1.00  0.00    -0.373 N 
ATOM     12  H31 UNL     1      19.129  34.066  18.682  1.00  0.00     0.158 HD
ATOM     13  H32 UNL     1      18.714  33.189  20.198  1.00  0.00     0.158 HD
HETATM   14  N4  UNL     1      21.405  33.170  18.334  1.00  0.00    -0.064 NA
HETATM   15  C14 UNL     1      20.887  29.437  22.313  1.00  0.00    -0.003 A 
HETATM   16  C15 UNL     1      22.061  28.642  21.962  1.00  0.00     0.011 A 
HETATM   17  C16 UNL     1      22.055  29.997  21.564  1.00  0.00     0.004 A 
ENDROOT
BRANCH   1  18
HETATM   18  C4  UNL     1      22.313  33.724  21.399  1.00  0.00     0.339 C 
HETATM   19  N1  UNL     1      23.554  34.228  21.142  1.00  0.00    -0.378 NA
HETATM   20  O1  UNL     1      21.401  34.522  21.856  1.00  0.00    -0.250 OA
BRANCH  19  21
HETATM   21  C3  UNL     1      24.809  34.736  20.883  1.00  0.00     0.186 C 
BRANCH  21  22
HETATM   22  C2  UNL     1      25.025  36.151  21.194  1.00  0.00     0.022 C 
HETATM   23  C1  UNL     1      26.088  36.828  20.847  1.00  0.00     0.013 C 
ENDBRANCH  21  22
ENDBRANCH  19  21
ENDBRANCH   1  18
TORSDOF 3
ENDMDL
MODEL 5
REMARK VINA RESULT: -5.706900975      3.013      4.600
REMARK  3 active torsions:
REMARK  status: ('A' for Active; 'I' for Inactive)
REMARK    1  A    between atoms: C2_2  and  C3_3 
REMARK    2  A    between atoms: C3_3  and  N1_4 
REMARK       I    between atoms: N1_4  and  C4_5 
REMARK    3  A    between atoms: C4_5  and  C5_7 
REMARK       I    between atoms: N2_15  and  C13_16 
ROOT
HETATM    1  C5  UNL     1      21.429  29.917  23.121  1.00  0.00     0.105 C 
HETATM    2  C6  UNL     1      21.668  31.378  23.365  1.00  0.00     0.069 C 
HETATM    3  C7  UNL     1      22.250  32.187  22.296  1.00  0.00    -0.019 C 
HETATM    4  C8  UNL     1      21.866  32.252  20.918  1.00  0.00    -0.030 C 
HETATM    5  C9  UNL     1      20.631  31.707  20.342  1.00  0.00     0.027 C 
HETATM    6  C10 UNL     1      19.328  32.225  20.799  1.00  0.00     0.010 C 
HETATM    7  C11 UNL     1      19.017  31.972  22.263  1.00  0.00     0.009 C 
HETATM    8  C12 UNL     1      18.909  30.515  22.446  1.00  0.00     0.136 C 
HETATM    9  N2  UNL     1      20.082  29.720  22.691  1.00  0.00    -0.318 N 
HETATM   10  C13 UNL     1      19.780  28.334  22.471  1.00  0.00     0.188 C 
HETATM   11  N3  UNL     1      19.353  28.026  21.276  1.00  0.00    -0.373 N 
ATOM     12  H31 UNL     1      19.139  27.041  21.119  1.00  0.00     0.158 HD
ATOM     13  H32 UNL     1      19.266  28.747  20.561  1.00  0.00     0.158 HD
HETATM   14  N4  UNL     1      19.900  27.346  23.450  1.00  0.00    -0.064 NA
HETATM   15  C14 UNL     1      19.829  32.814  23.093  1.00  0.00    -0.003 A 
HETATM   16  C15 UNL     1      19.947  33.085  24.523  1.00  0.00     0.011 A 
HETATM   17  C16 UNL     1      20.441  31.847  24.056  1.00  0.00     0.004 A 
ENDROOT
BRANCH   1  18
HETATM   18  C4  UNL     1      22.497  29.089  22.591  1.00  0.00     0.339 C 
HETATM   19  N1  UNL     1      23.467  28.597  23.415  1.00  0.00    -0.378 NA
HETATM   20  O1  UNL     1      22.546  28.796  21.330  1.00  0.00    -0.250 OA
BRANCH  19  21
HETATM   21  C3  UNL     1      24.446  28.102  24.249  1.00  0.00     0.186 C 
BRANCH  21  22
HETATM   22  C2  UNL     1      24.425  28.564  25.639  1.00  0.00     0.022 C 
HETATM   23  C1  UNL     1      23.353  28.978  26.261  1.00  0.00     0.013 C 
ENDBRANCH  21  22
ENDBRANCH  19  21
ENDBRANCH   1  18
TORSDOF 3
ENDMDL
