MODEL 1
REMARK VINA RESULT: -6.371747778      0.000      0.000
REMARK  5 active torsions:
REMARK  status: ('A' for Active; 'I' for Inactive)
REMARK    1  A    between atoms: N3_4  and  C2_6 
REMARK    2  A    between atoms: C2_6  and  N4_8 
REMARK    3  A    between atoms: N4_8  and  C3_10 
REMARK    4  A    between atoms: C3_10  and  C4_11 
REMARK    5  A    between atoms: C4_11  and  C5_13 
ROOT
HETATM    1  C4  UNL     1      22.216  36.817  22.708  1.00  0.00     0.149 C 
HETATM    2  O1  UNL     1      23.340  37.188  22.433  1.00  0.00    -0.296 OA
ENDROOT
BRANCH   1   3
HETATM    3  C3  UNL     1      21.246  36.622  21.603  1.00  0.00     0.200 C 
BRANCH   3   4
HETATM    4  N4  UNL     1      21.642  35.641  20.646  1.00  0.00    -0.360 N 
ATOM      5  H4  UNL     1      21.819  35.904  19.677  1.00  0.00     0.162 HD
BRANCH   4   6
HETATM    6  C2  UNL     1      21.785  34.284  21.069  1.00  0.00     0.174 C 
HETATM    7  S1  UNL     1      23.212  33.530  20.980  1.00  0.00    -0.041 SA
BRANCH   6   8
HETATM    8  N3  UNL     1      20.647  33.619  21.580  1.00  0.00    -0.310 N 
HETATM    9  C1  UNL     1      19.807  33.101  20.762  1.00  0.00     0.203 C 
HETATM   10  N1  UNL     1      20.011  33.190  19.363  1.00  0.00    -0.066 NA
HETATM   11  N2  UNL     1      18.671  32.438  21.303  1.00  0.00    -0.066 NA
ATOM     12  H3  UNL     1      20.496  33.552  22.587  1.00  0.00     0.170 HD
ENDBRANCH   6   8
ENDBRANCH   4   6
ENDBRANCH   3   4
ENDBRANCH   1   3
BRANCH   1  13
HETATM   13  C5  UNL     1      21.850  36.575  24.104  1.00  0.00     0.065 C 
HETATM   14  C6  UNL     1      20.364  36.739  24.367  1.00  0.00    -0.002 C 
HETATM   15  C7  UNL     1      19.935  38.160  24.481  1.00  0.00     0.010 C 
HETATM   16  C11 UNL     1      20.094  36.059  25.701  1.00  0.00     0.010 C 
HETATM   17  C8  UNL     1      20.726  38.898  25.534  1.00  0.00    -0.013 C 
HETATM   18  C9  UNL     1      20.458  38.222  26.861  1.00  0.00     0.009 C 
HETATM   19  C14 UNL     1      22.176  38.819  25.144  1.00  0.00     0.010 C 
HETATM   20  C10 UNL     1      20.889  36.783  26.757  1.00  0.00    -0.013 C 
HETATM   21  C12 UNL     1      22.359  36.746  26.462  1.00  0.00     0.010 C 
HETATM   22  C13 UNL     1      22.637  37.401  25.098  1.00  0.00    -0.002 C 
ENDBRANCH   1  13
TORSDOF 5
ENDMDL
MODEL 2
REMARK VINA RESULT: -6.262833575      1.385      2.306
REMARK  5 active torsions:
REMARK  status: ('A' for Active; 'I' for Inactive)
REMARK    1  A    between atoms: N3_4  and  C2_6 
REMARK    2  A    between atoms: C2_6  and  N4_8 
REMARK    3  A    between atoms: N4_8  and  C3_10 
REMARK    4  A    between atoms: C3_10  and  C4_11 
REMARK    5  A    between atoms: C4_11  and  C5_13 
ROOT
HETATM    1  C4  UNL     1      21.817  36.252  21.707  1.00  0.00     0.149 C 
HETATM    2  O1  UNL     1      21.757  36.769  20.610  1.00  0.00    -0.296 OA
ENDROOT
BRANCH   1   3
HETATM    3  C3  UNL     1      21.544  34.798  21.819  1.00  0.00     0.200 C 
BRANCH   3   4
HETATM    4  N4  UNL     1      20.811  34.256  20.722  1.00  0.00    -0.360 N 
ATOM      5  H4  UNL     1      20.260  34.864  20.116  1.00  0.00     0.162 HD
BRANCH   4   6
HETATM    6  C2  UNL     1      20.863  32.848  20.487  1.00  0.00     0.174 C 
HETATM    7  S1  UNL     1      21.989  31.926  21.188  1.00  0.00    -0.041 SA
BRANCH   6   8
HETATM    8  N3  UNL     1      19.893  32.278  19.629  1.00  0.00    -0.310 N 
HETATM    9  C1  UNL     1      20.053  32.366  18.360  1.00  0.00     0.203 C 
HETATM   10  N1  UNL     1      21.184  33.025  17.817  1.00  0.00    -0.066 NA
HETATM   11  N2  UNL     1      19.063  31.784  17.522  1.00  0.00    -0.066 NA
ATOM     12  H3  UNL     1      19.078  31.803  20.016  1.00  0.00     0.170 HD
ENDBRANCH   6   8
ENDBRANCH   4   6
ENDBRANCH   3   4
ENDBRANCH   1   3
BRANCH   1  13
HETATM   13  C5  UNL     1      22.153  37.064  22.878  1.00  0.00     0.065 C 
HETATM   14  C6  UNL     1      21.836  36.374  24.192  1.00  0.00    -0.002 C 
HETATM   15  C7  UNL     1      20.392  36.418  24.552  1.00  0.00     0.010 C 
HETATM   16  C11 UNL     1      22.610  37.129  25.263  1.00  0.00     0.010 C 
HETATM   17  C8  UNL     1      19.867  37.833  24.576  1.00  0.00    -0.013 C 
HETATM   18  C9  UNL     1      20.637  38.584  25.641  1.00  0.00     0.009 C 
HETATM   19  C14 UNL     1      20.083  38.417  23.208  1.00  0.00     0.010 C 
HETATM   20  C10 UNL     1      22.099  38.547  25.286  1.00  0.00    -0.013 C 
HETATM   21  C12 UNL     1      22.285  39.222  23.961  1.00  0.00     0.010 C 
HETATM   22  C13 UNL     1      21.535  38.445  22.866  1.00  0.00    -0.002 C 
ENDBRANCH   1  13
TORSDOF 5
ENDMDL
MODEL 3
REMARK VINA RESULT: -6.126568796      1.167      1.921
REMARK  5 active torsions:
REMARK  status: ('A' for Active; 'I' for Inactive)
REMARK    1  A    between atoms: N3_4  and  C2_6 
REMARK    2  A    between atoms: C2_6  and  N4_8 
REMARK    3  A    between atoms: N4_8  and  C3_10 
REMARK    4  A    between atoms: C3_10  and  C4_11 
REMARK    5  A    between atoms: C4_11  and  C5_13 
ROOT
HETATM    1  C4  UNL     1      22.088  36.824  22.526  1.00  0.00     0.149 C 
HETATM    2  O1  UNL     1      23.264  36.974  22.786  1.00  0.00    -0.296 OA
ENDROOT
BRANCH   1   3
HETATM    3  C3  UNL     1      21.711  36.473  21.135  1.00  0.00     0.200 C 
BRANCH   3   4
HETATM    4  N4  UNL     1      20.780  35.398  21.036  1.00  0.00    -0.360 N 
ATOM      5  H4  UNL     1      19.776  35.576  21.072  1.00  0.00     0.162 HD
BRANCH   4   6
HETATM    6  C2  UNL     1      21.276  34.067  20.885  1.00  0.00     0.174 C 
HETATM    7  S1  UNL     1      21.429  33.085  22.160  1.00  0.00    -0.041 SA
BRANCH   6   8
HETATM    8  N3  UNL     1      21.620  33.624  19.587  1.00  0.00    -0.310 N 
HETATM    9  C1  UNL     1      20.692  33.228  18.796  1.00  0.00     0.203 C 
HETATM   10  N1  UNL     1      19.337  33.231  19.212  1.00  0.00    -0.066 NA
HETATM   11  N2  UNL     1      21.066  32.789  17.496  1.00  0.00    -0.066 NA
ATOM     12  H3  UNL     1      22.594  33.621  19.284  1.00  0.00     0.170 HD
ENDBRANCH   6   8
ENDBRANCH   4   6
ENDBRANCH   3   4
ENDBRANCH   1   3
BRANCH   1  13
HETATM   13  C5  UNL     1      21.082  36.990  23.576  1.00  0.00     0.065 C 
HETATM   14  C6  UNL     1      20.877  38.438  23.981  1.00  0.00    -0.002 C 
HETATM   15  C7  UNL     1      21.937  38.956  24.889  1.00  0.00     0.010 C 
HETATM   16  C11 UNL     1      19.553  38.483  24.732  1.00  0.00     0.010 C 
HETATM   17  C8  UNL     1      22.085  38.095  26.121  1.00  0.00    -0.013 C 
HETATM   18  C9  UNL     1      20.769  38.139  26.866  1.00  0.00     0.009 C 
HETATM   19  C14 UNL     1      22.425  36.705  25.659  1.00  0.00     0.010 C 
HETATM   20  C10 UNL     1      19.689  37.617  25.957  1.00  0.00    -0.013 C 
HETATM   21  C12 UNL     1      20.015  36.198  25.597  1.00  0.00     0.010 C 
HETATM   22  C13 UNL     1      21.334  36.148  24.807  1.00  0.00    -0.002 C 
ENDBRANCH   1  13
TORSDOF 5
ENDMDL
MODEL 4
REMARK VINA RESULT: -6.121189806      1.580      2.492
REMARK  5 active torsions:
REMARK  status: ('A' for Active; 'I' for Inactive)
REMARK    1  A    between atoms: N3_4  and  C2_6 
REMARK    2  A    between atoms: C2_6  and  N4_8 
REMARK    3  A    between atoms: N4_8  and  C3_10 
REMARK    4  A    between atoms: C3_10  and  C4_11 
REMARK    5  A    between atoms: C4_11  and  C5_13 
ROOT
HETATM    1  C4  UNL     1      21.586  35.784  22.137  1.00  0.00     0.149 C 
HETATM    2  O1  UNL     1      21.397  36.144  20.993  1.00  0.00    -0.296 OA
ENDROOT
BRANCH   1   3
HETATM    3  C3  UNL     1      21.394  34.351  22.467  1.00  0.00     0.200 C 
BRANCH   3   4
HETATM    4  N4  UNL     1      20.283  33.745  21.810  1.00  0.00    -0.360 N 
ATOM      5  H4  UNL     1      19.371  34.203  21.804  1.00  0.00     0.162 HD
BRANCH   4   6
HETATM    6  C2  UNL     1      20.467  32.485  21.162  1.00  0.00     0.174 C 
HETATM    7  S1  UNL     1      19.974  31.111  21.855  1.00  0.00    -0.041 SA
BRANCH   6   8
HETATM    8  N3  UNL     1      21.084  32.472  19.889  1.00  0.00    -0.310 N 
HETATM    9  C1  UNL     1      20.413  32.856  18.866  1.00  0.00     0.203 C 
HETATM   10  N1  UNL     1      19.071  33.289  19.003  1.00  0.00    -0.066 NA
HETATM   11  N2  UNL     1      21.057  32.833  17.599  1.00  0.00    -0.066 NA
ATOM     12  H3  UNL     1      22.050  32.162  19.787  1.00  0.00     0.170 HD
ENDBRANCH   6   8
ENDBRANCH   4   6
ENDBRANCH   3   4
ENDBRANCH   1   3
BRANCH   1  13
HETATM   13  C5  UNL     1      21.994  36.759  23.150  1.00  0.00     0.065 C 
HETATM   14  C6  UNL     1      21.661  36.321  24.564  1.00  0.00    -0.002 C 
HETATM   15  C7  UNL     1      20.230  36.516  24.926  1.00  0.00     0.010 C 
HETATM   16  C11 UNL     1      22.501  37.196  25.485  1.00  0.00     0.010 C 
HETATM   17  C8  UNL     1      19.793  37.946  24.715  1.00  0.00    -0.013 C 
HETATM   18  C9  UNL     1      20.628  38.815  25.630  1.00  0.00     0.009 C 
HETATM   19  C14 UNL     1      20.016  38.275  23.265  1.00  0.00     0.010 C 
HETATM   20  C10 UNL     1      22.078  38.626  25.273  1.00  0.00    -0.013 C 
HETATM   21  C12 UNL     1      22.278  39.056  23.850  1.00  0.00     0.010 C 
HETATM   22  C13 UNL     1      21.460  38.154  22.910  1.00  0.00    -0.002 C 
ENDBRANCH   1  13
TORSDOF 5
ENDMDL
MODEL 5
REMARK VINA RESULT: -6.108996022      1.454      2.012
REMARK  5 active torsions:
REMARK  status: ('A' for Active; 'I' for Inactive)
REMARK    1  A    between atoms: N3_4  and  C2_6 
REMARK    2  A    between atoms: C2_6  and  N4_8 
REMARK    3  A    between atoms: N4_8  and  C3_10 
REMARK    4  A    between atoms: C3_10  and  C4_11 
REMARK    5  A    between atoms: C4_11  and  C5_13 
ROOT
HETATM    1  C4  UNL     1      21.401  35.534  22.979  1.00  0.00     0.149 C 
HETATM    2  O1  UNL     1      20.825  34.530  23.346  1.00  0.00    -0.296 OA
ENDROOT
BRANCH   1   3
HETATM    3  C3  UNL     1      21.659  35.708  21.529  1.00  0.00     0.200 C 
BRANCH   3   4
HETATM    4  N4  UNL     1      20.977  34.771  20.698  1.00  0.00    -0.360 N 
ATOM      5  H4  UNL     1      20.110  35.030  20.227  1.00  0.00     0.162 HD
BRANCH   4   6
HETATM    6  C2  UNL     1      21.529  33.463  20.536  1.00  0.00     0.174 C 
HETATM    7  S1  UNL     1      23.093  33.176  20.827  1.00  0.00    -0.041 SA
BRANCH   6   8
HETATM    8  N3  UNL     1      20.668  32.420  20.123  1.00  0.00    -0.310 N 
HETATM    9  C1  UNL     1      20.480  32.224  18.870  1.00  0.00     0.203 C 
HETATM   10  N1  UNL     1      21.126  33.037  17.906  1.00  0.00    -0.066 NA
HETATM   11  N2  UNL     1      19.610  31.168  18.483  1.00  0.00    -0.066 NA
ATOM     12  H3  UNL     1      20.202  31.832  20.814  1.00  0.00     0.170 HD
ENDBRANCH   6   8
ENDBRANCH   4   6
ENDBRANCH   3   4
ENDBRANCH   1   3
BRANCH   1  13
HETATM   13  C5  UNL     1      21.821  36.534  23.960  1.00  0.00     0.065 C 
HETATM   14  C6  UNL     1      21.372  36.208  25.373  1.00  0.00    -0.002 C 
HETATM   15  C7  UNL     1      19.942  36.528  25.631  1.00  0.00     0.010 C 
HETATM   16  C11 UNL     1      22.220  37.073  26.295  1.00  0.00     0.010 C 
HETATM   17  C8  UNL     1      19.628  37.970  25.314  1.00  0.00    -0.013 C 
HETATM   18  C9  UNL     1      20.471  38.830  26.231  1.00  0.00     0.009 C 
HETATM   19  C14 UNL     1      19.961  38.196  23.865  1.00  0.00     0.010 C 
HETATM   20  C10 UNL     1      21.921  38.515  25.978  1.00  0.00    -0.013 C 
HETATM   21  C12 UNL     1      22.238  38.842  24.549  1.00  0.00     0.010 C 
HETATM   22  C13 UNL     1      21.410  37.948  23.611  1.00  0.00    -0.002 C 
ENDBRANCH   1  13
TORSDOF 5
ENDMDL
