MODEL 1
REMARK VINA RESULT: -5.963181569      0.000      0.000
REMARK  6 active torsions:
REMARK  status: ('A' for Active; 'I' for Inactive)
REMARK    1  A    between atoms: O1_2  and  C2_3 
REMARK    2  A    between atoms: C2_3  and  N1_5 
REMARK    3  A    between atoms: C3_7  and  C5_9 
REMARK    4  A    between atoms: C5_9  and  C6_11 
REMARK    5  A    between atoms: C6_11  and  N2_12 
REMARK    6  A    between atoms: C11_17  and  C12_18 
ROOT
HETATM    1  C5  UNL     1      21.911  36.832  22.689  1.00  0.00     0.155 C 
HETATM    2 CL1  UNL     1      20.926  37.957  21.681  1.00  0.00    -0.117 Cl
ENDROOT
BRANCH   1   3
HETATM    3  C3  UNL     1      21.701  35.492  22.112  1.00  0.00     0.006 C 
HETATM    4  N1  UNL     1      22.532  34.900  21.347  1.00  0.00    -0.334 N 
ATOM      5  H1  UNL     1      23.392  35.406  21.136  1.00  0.00     0.168 HD
HETATM    6  C4  UNL     1      20.432  34.810  22.457  1.00  0.00     0.065 C 
BRANCH   4   7
HETATM    7  C2  UNL     1      22.398  33.630  20.763  1.00  0.00     0.213 C 
HETATM    8  S1  UNL     1      22.983  32.244  21.450  1.00  0.00    -0.033 SA
BRANCH   7   9
HETATM    9  O1  UNL     1      21.740  33.522  19.544  1.00  0.00    -0.332 OA
HETATM   10  C1  UNL     1      20.658  32.605  19.363  1.00  0.00     0.212 C 
ENDBRANCH   7   9
ENDBRANCH   4   7
ENDBRANCH   1   3
BRANCH   1  11
HETATM   11  C6  UNL     1      21.489  37.009  24.077  1.00  0.00     0.299 C 
BRANCH  11  12
HETATM   12  N2  UNL     1      21.293  38.343  24.600  1.00  0.00     0.105 N 
HETATM   13  C7  UNL     1      22.617  38.717  25.207  1.00  0.00     0.273 C 
HETATM   14  C8  UNL     1      22.958  37.791  26.316  1.00  0.00     0.030 C 
HETATM   15  C9  UNL     1      21.921  37.533  27.341  1.00  0.00     0.004 C 
HETATM   16  C10 UNL     1      20.560  37.334  26.737  1.00  0.00     0.047 C 
HETATM   17  C11 UNL     1      20.375  38.416  25.717  1.00  0.00     0.322 C 
BRANCH  17  18
HETATM   18  C12 UNL     1      18.985  38.640  25.434  1.00  0.00     0.207 C 
HETATM   19  O2  UNL     1      18.635  38.965  24.231  1.00  0.00    -0.646 OA
HETATM   20  O3  UNL     1      17.926  38.551  26.303  1.00  0.00    -0.646 OA
ENDBRANCH  17  18
ENDBRANCH  11  12
ENDBRANCH   1  11
TORSDOF 6
ENDMDL
MODEL 2
REMARK VINA RESULT: -5.940104176      4.334      5.439
REMARK  6 active torsions:
REMARK  status: ('A' for Active; 'I' for Inactive)
REMARK    1  A    between atoms: O1_2  and  C2_3 
REMARK    2  A    between atoms: C2_3  and  N1_5 
REMARK    3  A    between atoms: C3_7  and  C5_9 
REMARK    4  A    between atoms: C5_9  and  C6_11 
REMARK    5  A    between atoms: C6_11  and  N2_12 
REMARK    6  A    between atoms: C11_17  and  C12_18 
ROOT
HETATM    1  C5  UNL     1      21.020  32.972  21.096  1.00  0.00     0.155 C 
HETATM    2 CL1  UNL     1      22.638  32.195  21.262  1.00  0.00    -0.117 Cl
ENDROOT
BRANCH   1   3
HETATM    3  C3  UNL     1      20.391  32.336  19.924  1.00  0.00     0.006 C 
HETATM    4  N1  UNL     1      20.434  32.807  18.740  1.00  0.00    -0.334 N 
ATOM      5  H1  UNL     1      20.943  33.682  18.620  1.00  0.00     0.168 HD
HETATM    6  C4  UNL     1      19.667  31.066  20.165  1.00  0.00     0.065 C 
BRANCH   4   7
HETATM    7  C2  UNL     1      19.860  32.256  17.582  1.00  0.00     0.213 C 
HETATM    8  S1  UNL     1      18.286  32.499  17.141  1.00  0.00    -0.033 SA
BRANCH   7   9
HETATM    9  O1  UNL     1      20.650  31.464  16.757  1.00  0.00    -0.332 OA
HETATM   10  C1  UNL     1      20.073  30.461  15.917  1.00  0.00     0.212 C 
ENDBRANCH   7   9
ENDBRANCH   4   7
ENDBRANCH   1   3
BRANCH   1  11
HETATM   11  C6  UNL     1      21.237  34.414  21.007  1.00  0.00     0.299 C 
BRANCH  11  12
HETATM   12  N2  UNL     1      21.872  35.110  22.104  1.00  0.00     0.105 N 
HETATM   13  C7  UNL     1      20.738  35.716  22.884  1.00  0.00     0.273 C 
HETATM   14  C8  UNL     1      19.991  36.685  22.044  1.00  0.00     0.030 C 
HETATM   15  C9  UNL     1      20.773  37.702  21.305  1.00  0.00     0.004 C 
HETATM   16  C10 UNL     1      22.007  37.124  20.672  1.00  0.00     0.047 C 
HETATM   17  C11 UNL     1      22.660  36.258  21.705  1.00  0.00     0.322 C 
BRANCH  17  18
HETATM   18  C12 UNL     1      24.052  36.052  21.415  1.00  0.00     0.207 C 
HETATM   19  O2  UNL     1      24.830  37.081  21.315  1.00  0.00    -0.646 OA
HETATM   20  O3  UNL     1      24.702  34.858  21.224  1.00  0.00    -0.646 OA
ENDBRANCH  17  18
ENDBRANCH  11  12
ENDBRANCH   1  11
TORSDOF 6
ENDMDL
MODEL 3
REMARK VINA RESULT: -5.890383300      2.938      6.949
REMARK  6 active torsions:
REMARK  status: ('A' for Active; 'I' for Inactive)
REMARK    1  A    between atoms: O1_2  and  C2_3 
REMARK    2  A    between atoms: C2_3  and  N1_5 
REMARK    3  A    between atoms: C3_7  and  C5_9 
REMARK    4  A    between atoms: C5_9  and  C6_11 
REMARK    5  A    between atoms: C6_11  and  N2_12 
REMARK    6  A    between atoms: C11_17  and  C12_18 
ROOT
HETATM    1  C5  UNL     1      22.892  36.058  21.293  1.00  0.00     0.155 C 
HETATM    2 CL1  UNL     1      24.657  36.431  21.294  1.00  0.00    -0.117 Cl
ENDROOT
BRANCH   1   3
HETATM    3  C3  UNL     1      22.274  37.056  22.185  1.00  0.00     0.006 C 
HETATM    4  N1  UNL     1      21.830  36.799  23.353  1.00  0.00    -0.334 N 
ATOM      5  H1  UNL     1      21.920  35.834  23.669  1.00  0.00     0.168 HD
HETATM    6  C4  UNL     1      22.173  38.440  21.667  1.00  0.00     0.065 C 
BRANCH   4   7
HETATM    7  C2  UNL     1      21.232  37.696  24.253  1.00  0.00     0.213 C 
HETATM    8  S1  UNL     1      22.079  38.557  25.381  1.00  0.00    -0.033 SA
BRANCH   7   9
HETATM    9  O1  UNL     1      19.855  37.876  24.200  1.00  0.00    -0.332 OA
HETATM   10  C1  UNL     1      19.151  38.535  25.255  1.00  0.00     0.212 C 
ENDBRANCH   7   9
ENDBRANCH   4   7
ENDBRANCH   1   3
BRANCH   1  11
HETATM   11  C6  UNL     1      22.743  34.659  21.688  1.00  0.00     0.299 C 
BRANCH  11  12
HETATM   12  N2  UNL     1      22.932  33.615  20.706  1.00  0.00     0.105 N 
HETATM   13  C7  UNL     1      21.554  33.067  20.456  1.00  0.00     0.273 C 
HETATM   14  C8  UNL     1      20.995  32.485  21.702  1.00  0.00     0.030 C 
HETATM   15  C9  UNL     1      21.846  31.544  22.465  1.00  0.00     0.004 C 
HETATM   16  C10 UNL     1      23.271  32.013  22.561  1.00  0.00     0.047 C 
HETATM   17  C11 UNL     1      23.671  32.468  21.191  1.00  0.00     0.322 C 
BRANCH  17  18
HETATM   18  C12 UNL     1      25.099  32.470  21.033  1.00  0.00     0.207 C 
HETATM   19  O2  UNL     1      25.602  32.799  19.887  1.00  0.00    -0.646 OA
HETATM   20  O3  UNL     1      26.048  32.160  21.975  1.00  0.00    -0.646 OA
ENDBRANCH  17  18
ENDBRANCH  11  12
ENDBRANCH   1  11
TORSDOF 6
ENDMDL
MODEL 4
REMARK VINA RESULT: -5.885998050      4.878      6.684
REMARK  6 active torsions:
REMARK  status: ('A' for Active; 'I' for Inactive)
REMARK    1  A    between atoms: O1_2  and  C2_3 
REMARK    2  A    between atoms: C2_3  and  N1_5 
REMARK    3  A    between atoms: C3_7  and  C5_9 
REMARK    4  A    between atoms: C5_9  and  C6_11 
REMARK    5  A    between atoms: C6_11  and  N2_12 
REMARK    6  A    between atoms: C11_17  and  C12_18 
ROOT
HETATM    1  C5  UNL     1      23.290  31.943  22.618  1.00  0.00     0.155 C 
HETATM    2 CL1  UNL     1      24.271  31.626  21.138  1.00  0.00    -0.117 Cl
ENDROOT
BRANCH   1   3
HETATM    3  C3  UNL     1      22.733  30.637  23.013  1.00  0.00     0.006 C 
HETATM    4  N1  UNL     1      23.089  29.520  22.510  1.00  0.00    -0.334 N 
ATOM      5  H1  UNL     1      23.809  29.559  21.789  1.00  0.00     0.168 HD
HETATM    6  C4  UNL     1      21.690  30.650  24.065  1.00  0.00     0.065 C 
BRANCH   4   7
HETATM    7  C2  UNL     1      22.603  28.244  22.837  1.00  0.00     0.213 C 
HETATM    8  S1  UNL     1      21.240  27.590  22.168  1.00  0.00    -0.033 SA
BRANCH   7   9
HETATM    9  O1  UNL     1      23.296  27.484  23.771  1.00  0.00    -0.332 OA
HETATM   10  C1  UNL     1      22.794  27.298  25.097  1.00  0.00     0.212 C 
ENDBRANCH   7   9
ENDBRANCH   4   7
ENDBRANCH   1   3
BRANCH   1  11
HETATM   11  C6  UNL     1      22.320  32.983  22.282  1.00  0.00     0.299 C 
BRANCH  11  12
HETATM   12  N2  UNL     1      22.490  33.754  21.070  1.00  0.00     0.105 N 
HETATM   13  C7  UNL     1      22.665  35.173  21.538  1.00  0.00     0.273 C 
HETATM   14  C8  UNL     1      21.451  35.634  22.257  1.00  0.00     0.030 C 
HETATM   15  C9  UNL     1      20.139  35.413  21.608  1.00  0.00     0.004 C 
HETATM   16  C10 UNL     1      20.034  34.049  20.985  1.00  0.00     0.047 C 
HETATM   17  C11 UNL     1      21.309  33.816  20.234  1.00  0.00     0.322 C 
BRANCH  17  18
HETATM   18  C12 UNL     1      21.147  32.809  19.222  1.00  0.00     0.207 C 
HETATM   19  O2  UNL     1      20.870  31.597  19.583  1.00  0.00    -0.646 OA
HETATM   20  O3  UNL     1      21.247  32.962  17.861  1.00  0.00    -0.646 OA
ENDBRANCH  17  18
ENDBRANCH  11  12
ENDBRANCH   1  11
TORSDOF 6
ENDMDL
MODEL 5
REMARK VINA RESULT: -5.881937451      3.032      7.049
REMARK  6 active torsions:
REMARK  status: ('A' for Active; 'I' for Inactive)
REMARK    1  A    between atoms: O1_2  and  C2_3 
REMARK    2  A    between atoms: C2_3  and  N1_5 
REMARK    3  A    between atoms: C3_7  and  C5_9 
REMARK    4  A    between atoms: C5_9  and  C6_11 
REMARK    5  A    between atoms: C6_11  and  N2_12 
REMARK    6  A    between atoms: C11_17  and  C12_18 
ROOT
HETATM    1  C5  UNL     1      22.947  35.892  21.254  1.00  0.00     0.155 C 
HETATM    2 CL1  UNL     1      24.721  36.190  21.378  1.00  0.00    -0.117 Cl
ENDROOT
BRANCH   1   3
HETATM    3  C3  UNL     1      22.310  36.923  22.092  1.00  0.00     0.006 C 
HETATM    4  N1  UNL     1      21.954  36.746  23.304  1.00  0.00    -0.334 N 
ATOM      5  H1  UNL     1      22.132  35.823  23.698  1.00  0.00     0.168 HD
HETATM    6  C4  UNL     1      22.078  38.244  21.462  1.00  0.00     0.065 C 
BRANCH   4   7
HETATM    7  C2  UNL     1      21.345  37.680  24.159  1.00  0.00     0.213 C 
HETATM    8  S1  UNL     1      19.707  37.821  24.335  1.00  0.00    -0.033 SA
BRANCH   7   9
HETATM    9  O1  UNL     1      22.153  38.534  24.899  1.00  0.00    -0.332 OA
HETATM   10  C1  UNL     1      22.757  38.110  26.123  1.00  0.00     0.212 C 
ENDBRANCH   7   9
ENDBRANCH   4   7
ENDBRANCH   1   3
BRANCH   1  11
HETATM   11  C6  UNL     1      22.711  34.504  21.647  1.00  0.00     0.299 C 
BRANCH  11  12
HETATM   12  N2  UNL     1      22.947  33.441  20.695  1.00  0.00     0.105 N 
HETATM   13  C7  UNL     1      21.603  32.794  20.501  1.00  0.00     0.273 C 
HETATM   14  C8  UNL     1      21.115  32.220  21.779  1.00  0.00     0.030 C 
HETATM   15  C9  UNL     1      22.046  31.365  22.551  1.00  0.00     0.004 C 
HETATM   16  C10 UNL     1      23.437  31.931  22.593  1.00  0.00     0.047 C 
HETATM   17  C11 UNL     1      23.773  32.364  21.198  1.00  0.00     0.322 C 
BRANCH  17  18
HETATM   18  C12 UNL     1      25.193  32.456  21.003  1.00  0.00     0.207 C 
HETATM   19  O2  UNL     1      25.644  32.786  19.836  1.00  0.00    -0.646 OA
HETATM   20  O3  UNL     1      26.183  32.235  21.927  1.00  0.00    -0.646 OA
ENDBRANCH  17  18
ENDBRANCH  11  12
ENDBRANCH   1  11
TORSDOF 6
ENDMDL
