MODEL 1
REMARK VINA RESULT: -6.573258480      0.000      0.000
REMARK  6 active torsions:
REMARK  status: ('A' for Active; 'I' for Inactive)
REMARK    1  A    between atoms: C4_4  and  O1_5 
REMARK    2  A    between atoms: O1_5  and  C5_6 
REMARK    3  A    between atoms: C5_6  and  C6_8 
REMARK    4  A    between atoms: C6_8  and  O3_10 
REMARK    5  A    between atoms: C6_8  and  C8_12 
REMARK    6  A    between atoms: C8_12  and  C9_13 
ROOT
HETATM    1  C5  UNL     1      21.869  34.480  20.872  1.00  0.00     0.293 C 
HETATM    2  O2  UNL     1      21.639  33.993  19.740  1.00  0.00    -0.262 OA
ENDROOT
BRANCH   1   3
HETATM    3  O1  UNL     1      22.902  33.897  21.591  1.00  0.00    -0.314 OA
BRANCH   3   4
HETATM    4  C4  UNL     1      24.188  33.752  21.087  1.00  0.00     0.135 C 
HETATM    5  C3  UNL     1      25.080  34.948  21.328  1.00  0.00     0.068 C 
HETATM    6  C2  UNL     1      26.268  34.766  20.378  1.00  0.00     0.221 C 
HETATM    7  C1  UNL     1      27.170  35.953  20.366  1.00  0.00     0.043 C 
HETATM    8  N1  UNL     1      26.994  33.585  20.791  1.00  0.00     0.088 N 
HETATM    9  C13 UNL     1      26.180  32.397  20.748  1.00  0.00     0.275 C 
HETATM   10  C14 UNL     1      28.063  33.392  19.803  1.00  0.00     0.310 C 
HETATM   11  C12 UNL     1      24.915  32.532  21.570  1.00  0.00     0.062 C 
ENDBRANCH   3   4
ENDBRANCH   1   3
BRANCH   1  12
HETATM   12  C6  UNL     1      21.057  35.638  21.410  1.00  0.00     0.143 C 
HETATM   13  C7  UNL     1      21.725  36.860  20.872  1.00  0.00     0.057 C 
BRANCH  12  14
HETATM   14  O3  UNL     1      19.771  35.459  20.901  1.00  0.00    -0.380 OA
ATOM     15  H3  UNL     1      19.586  36.244  20.399  1.00  0.00     0.211 HD
ENDBRANCH  12  14
BRANCH  12  16
HETATM   16  C8  UNL     1      21.038  35.475  22.871  1.00  0.00     0.073 C 
BRANCH  16  17
HETATM   17  C9  UNL     1      20.861  36.644  23.744  1.00  0.00     0.033 C 
HETATM   18  C10 UNL     1      22.083  37.521  23.909  1.00  0.00     0.032 C 
HETATM   19  C11 UNL     1      19.680  37.517  23.438  1.00  0.00     0.032 C 
HETATM   20 CL1  UNL     1      20.503  36.006  25.400  1.00  0.00    -0.120 Cl
ENDBRANCH  16  17
ENDBRANCH  12  16
ENDBRANCH   1  12
TORSDOF 6
ENDMDL
MODEL 2
REMARK VINA RESULT: -6.510599570      1.570      1.938
REMARK  6 active torsions:
REMARK  status: ('A' for Active; 'I' for Inactive)
REMARK    1  A    between atoms: C4_4  and  O1_5 
REMARK    2  A    between atoms: O1_5  and  C5_6 
REMARK    3  A    between atoms: C5_6  and  C6_8 
REMARK    4  A    between atoms: C6_8  and  O3_10 
REMARK    5  A    between atoms: C6_8  and  C8_12 
REMARK    6  A    between atoms: C8_12  and  C9_13 
ROOT
HETATM    1  C5  UNL     1      21.966  33.723  20.633  1.00  0.00     0.293 C 
HETATM    2  O2  UNL     1      21.857  33.451  19.414  1.00  0.00    -0.262 OA
ENDROOT
BRANCH   1   3
HETATM    3  O1  UNL     1      22.990  33.082  21.315  1.00  0.00    -0.314 OA
BRANCH   3   4
HETATM    4  C4  UNL     1      24.328  33.212  20.966  1.00  0.00     0.135 C 
HETATM    5  C3  UNL     1      24.886  34.601  21.178  1.00  0.00     0.068 C 
HETATM    6  C2  UNL     1      26.194  34.638  20.382  1.00  0.00     0.221 C 
HETATM    7  C1  UNL     1      26.796  36.002  20.346  1.00  0.00     0.043 C 
HETATM    8  N1  UNL     1      27.113  33.698  20.986  1.00  0.00     0.088 N 
HETATM    9  C13 UNL     1      26.604  32.350  20.976  1.00  0.00     0.275 C 
HETATM   10  C14 UNL     1      28.314  33.694  20.140  1.00  0.00     0.310 C 
HETATM   11  C12 UNL     1      25.248  32.239  21.643  1.00  0.00     0.062 C 
ENDBRANCH   3   4
ENDBRANCH   1   3
BRANCH   1  12
HETATM   12  C6  UNL     1      21.025  34.696  21.310  1.00  0.00     0.143 C 
HETATM   13  C7  UNL     1      19.665  34.317  20.826  1.00  0.00     0.057 C 
BRANCH  12  14
HETATM   14  O3  UNL     1      21.188  34.480  22.679  1.00  0.00    -0.380 OA
ATOM     15  H3  UNL     1      21.548  35.290  23.022  1.00  0.00     0.211 HD
ENDBRANCH  12  14
BRANCH  12  16
HETATM   16  C8  UNL     1      21.510  36.039  20.960  1.00  0.00     0.073 C 
BRANCH  16  17
HETATM   17  C9  UNL     1      21.313  37.162  21.888  1.00  0.00     0.033 C 
HETATM   18  C10 UNL     1      19.927  37.276  22.483  1.00  0.00     0.032 C 
HETATM   19  C11 UNL     1      22.323  37.284  22.991  1.00  0.00     0.032 C 
HETATM   20 CL1  UNL     1      21.546  38.678  20.925  1.00  0.00    -0.120 Cl
ENDBRANCH  16  17
ENDBRANCH  12  16
ENDBRANCH   1  12
TORSDOF 6
ENDMDL
MODEL 3
REMARK VINA RESULT: -6.361561573      2.177      3.049
REMARK  6 active torsions:
REMARK  status: ('A' for Active; 'I' for Inactive)
REMARK    1  A    between atoms: C4_4  and  O1_5 
REMARK    2  A    between atoms: O1_5  and  C5_6 
REMARK    3  A    between atoms: C5_6  and  C6_8 
REMARK    4  A    between atoms: C6_8  and  O3_10 
REMARK    5  A    between atoms: C6_8  and  C8_12 
REMARK    6  A    between atoms: C8_12  and  C9_13 
ROOT
HETATM    1  C5  UNL     1      23.375  37.111  21.855  1.00  0.00     0.293 C 
HETATM    2  O2  UNL     1      23.496  36.880  23.081  1.00  0.00    -0.262 OA
ENDROOT
BRANCH   1   3
HETATM    3  O1  UNL     1      24.553  37.176  21.124  1.00  0.00    -0.314 OA
BRANCH   3   4
HETATM    4  C4  UNL     1      25.481  36.142  21.092  1.00  0.00     0.135 C 
HETATM    5  C3  UNL     1      24.875  34.780  20.841  1.00  0.00     0.068 C 
HETATM    6  C2  UNL     1      25.960  33.775  21.238  1.00  0.00     0.221 C 
HETATM    7  C1  UNL     1      25.465  32.368  21.210  1.00  0.00     0.043 C 
HETATM    8  N1  UNL     1      27.073  33.935  20.329  1.00  0.00     0.088 N 
HETATM    9  C13 UNL     1      27.634  35.262  20.376  1.00  0.00     0.275 C 
HETATM   10  C14 UNL     1      28.125  33.024  20.800  1.00  0.00     0.310 C 
HETATM   11  C12 UNL     1      26.599  36.336  20.110  1.00  0.00     0.062 C 
ENDBRANCH   3   4
ENDBRANCH   1   3
BRANCH   1  12
HETATM   12  C6  UNL     1      22.015  37.308  21.220  1.00  0.00     0.143 C 
HETATM   13  C7  UNL     1      21.276  38.200  22.162  1.00  0.00     0.057 C 
BRANCH  12  14
HETATM   14  O3  UNL     1      22.264  37.914  19.988  1.00  0.00    -0.380 OA
ATOM     15  H3  UNL     1      21.969  37.290  19.336  1.00  0.00     0.211 HD
ENDBRANCH  12  14
BRANCH  12  16
HETATM   16  C8  UNL     1      21.468  35.960  21.007  1.00  0.00     0.073 C 
BRANCH  16  17
HETATM   17  C9  UNL     1      20.173  35.587  21.592  1.00  0.00     0.033 C 
HETATM   18  C10 UNL     1      20.219  35.134  23.035  1.00  0.00     0.032 C 
HETATM   19  C11 UNL     1      19.070  36.592  21.438  1.00  0.00     0.032 C 
HETATM   20 CL1  UNL     1      19.577  34.152  20.661  1.00  0.00    -0.120 Cl
ENDBRANCH  16  17
ENDBRANCH  12  16
ENDBRANCH   1  12
TORSDOF 6
ENDMDL
MODEL 4
REMARK VINA RESULT: -6.307322906      3.320      4.503
REMARK  6 active torsions:
REMARK  status: ('A' for Active; 'I' for Inactive)
REMARK    1  A    between atoms: C4_4  and  O1_5 
REMARK    2  A    between atoms: O1_5  and  C5_6 
REMARK    3  A    between atoms: C5_6  and  C6_8 
REMARK    4  A    between atoms: C6_8  and  O3_10 
REMARK    5  A    between atoms: C6_8  and  C8_12 
REMARK    6  A    between atoms: C8_12  and  C9_13 
ROOT
HETATM    1  C5  UNL     1      21.930  32.239  20.738  1.00  0.00     0.293 C 
HETATM    2  O2  UNL     1      22.057  30.997  20.853  1.00  0.00    -0.262 OA
ENDROOT
BRANCH   1   3
HETATM    3  O1  UNL     1      22.804  33.015  21.485  1.00  0.00    -0.314 OA
BRANCH   3   4
HETATM    4  C4  UNL     1      24.118  33.256  21.103  1.00  0.00     0.135 C 
HETATM    5  C3  UNL     1      24.603  34.652  21.417  1.00  0.00     0.068 C 
HETATM    6  C2  UNL     1      25.874  34.837  20.583  1.00  0.00     0.221 C 
HETATM    7  C1  UNL     1      26.395  36.233  20.647  1.00  0.00     0.043 C 
HETATM    8  N1  UNL     1      26.868  33.906  21.070  1.00  0.00     0.088 N 
HETATM    9  C13 UNL     1      26.438  32.535  20.959  1.00  0.00     0.275 C 
HETATM   10  C14 UNL     1      28.033  34.047  20.187  1.00  0.00     0.310 C 
HETATM   11  C12 UNL     1      25.118  32.285  21.659  1.00  0.00     0.062 C 
ENDBRANCH   3   4
ENDBRANCH   1   3
BRANCH   1  12
HETATM   12  C6  UNL     1      20.879  32.843  19.832  1.00  0.00     0.143 C 
HETATM   13  C7  UNL     1      20.177  33.854  20.677  1.00  0.00     0.057 C 
BRANCH  12  14
HETATM   14  O3  UNL     1      21.585  33.420  18.776  1.00  0.00    -0.380 OA
ATOM     15  H3  UNL     1      20.949  33.944  18.303  1.00  0.00     0.211 HD
ENDBRANCH  12  14
BRANCH  12  16
HETATM   16  C8  UNL     1      20.077  31.716  19.333  1.00  0.00     0.073 C 
BRANCH  16  17
HETATM   17  C9  UNL     1      19.481  31.770  17.991  1.00  0.00     0.033 C 
HETATM   18  C10 UNL     1      18.251  32.642  17.863  1.00  0.00     0.032 C 
HETATM   19  C11 UNL     1      20.421  32.094  16.868  1.00  0.00     0.032 C 
HETATM   20 CL1  UNL     1      18.918  30.092  17.606  1.00  0.00    -0.120 Cl
ENDBRANCH  16  17
ENDBRANCH  12  16
ENDBRANCH   1  12
TORSDOF 6
ENDMDL
MODEL 5
REMARK VINA RESULT: -6.229335748      1.629      1.995
REMARK  6 active torsions:
REMARK  status: ('A' for Active; 'I' for Inactive)
REMARK    1  A    between atoms: C4_4  and  O1_5 
REMARK    2  A    between atoms: O1_5  and  C5_6 
REMARK    3  A    between atoms: C5_6  and  C6_8 
REMARK    4  A    between atoms: C6_8  and  O3_10 
REMARK    5  A    between atoms: C6_8  and  C8_12 
REMARK    6  A    between atoms: C8_12  and  C9_13 
ROOT
HETATM    1  C5  UNL     1      21.806  36.914  21.466  1.00  0.00     0.293 C 
HETATM    2  O2  UNL     1      21.640  37.280  20.279  1.00  0.00    -0.262 OA
ENDROOT
BRANCH   1   3
HETATM    3  O1  UNL     1      22.351  35.651  21.647  1.00  0.00    -0.314 OA
BRANCH   3   4
HETATM    4  C4  UNL     1      23.605  35.293  21.167  1.00  0.00     0.135 C 
HETATM    5  C3  UNL     1      24.710  36.243  21.566  1.00  0.00     0.068 C 
HETATM    6  C2  UNL     1      25.883  35.915  20.637  1.00  0.00     0.221 C 
HETATM    7  C1  UNL     1      27.009  36.881  20.785  1.00  0.00     0.043 C 
HETATM    8  N1  UNL     1      26.328  34.571  20.935  1.00  0.00     0.088 N 
HETATM    9  C13 UNL     1      25.291  33.592  20.734  1.00  0.00     0.275 C 
HETATM   10  C14 UNL     1      27.385  34.262  19.963  1.00  0.00     0.310 C 
HETATM   11  C12 UNL     1      24.040  33.903  21.529  1.00  0.00     0.062 C 
ENDBRANCH   3   4
ENDBRANCH   1   3
BRANCH   1  12
HETATM   12  C6  UNL     1      21.426  37.807  22.627  1.00  0.00     0.143 C 
HETATM   13  C7  UNL     1      22.395  38.943  22.572  1.00  0.00     0.057 C 
BRANCH  12  14
HETATM   14  O3  UNL     1      20.113  38.207  22.375  1.00  0.00    -0.380 OA
ATOM     15  H3  UNL     1      19.576  37.449  22.573  1.00  0.00     0.211 HD
ENDBRANCH  12  14
BRANCH  12  16
HETATM   16  C8  UNL     1      21.463  36.955  23.824  1.00  0.00     0.073 C 
BRANCH  16  17
HETATM   17  C9  UNL     1      21.346  37.552  25.161  1.00  0.00     0.033 C 
HETATM   18  C10 UNL     1      22.608  38.192  25.699  1.00  0.00     0.032 C 
HETATM   19  C11 UNL     1      20.203  38.505  25.356  1.00  0.00     0.032 C 
HETATM   20 CL1  UNL     1      20.973  36.198  26.304  1.00  0.00    -0.120 Cl
ENDBRANCH  16  17
ENDBRANCH  12  16
ENDBRANCH   1  12
TORSDOF 6
ENDMDL
