MODEL 1
REMARK VINA RESULT: -6.665615987      0.000      0.000
REMARK  5 active torsions:
REMARK  status: ('A' for Active; 'I' for Inactive)
REMARK    1  A    between atoms: C2_2  and  O1_3 
REMARK    2  A    between atoms: C2_2  and  N1_5 
REMARK    3  A    between atoms: C6_8  and  C7_9 
REMARK    4  A    between atoms: C7_9  and  N2_10 
REMARK    5  A    between atoms: C11_17  and  S1_18 
ROOT
HETATM    1  N2  UNL     1      24.004  36.215  21.215  1.00  0.00    -0.283 N 
HETATM    2  N3  UNL     1      24.999  37.058  21.025  1.00  0.00    -0.300 N 
ATOM      3  H3  UNL     1      24.898  38.073  21.007  1.00  0.00     0.187 HD
HETATM    4  C8  UNL     1      26.171  36.402  20.857  1.00  0.00     0.046 A 
HETATM    5  C9  UNL     1      27.503  37.024  20.618  1.00  0.00     0.071 C 
HETATM    6  C10 UNL     1      25.854  35.071  20.953  1.00  0.00     0.092 A 
HETATM    7 CL1  UNL     1      26.953  33.735  20.819  1.00  0.00    -0.079 Cl
HETATM    8  C11 UNL     1      24.491  34.970  21.179  1.00  0.00     0.110 A 
ENDROOT
BRANCH   1   9
HETATM    9  C7  UNL     1      22.638  36.585  21.402  1.00  0.00     0.156 C 
BRANCH   9  10
HETATM   10  C6  UNL     1      22.121  36.669  22.774  1.00  0.00     0.025 C 
HETATM   11  C5  UNL     1      20.911  35.867  23.124  1.00  0.00     0.028 C 
HETATM   12  C4  UNL     1      20.375  36.559  24.385  1.00  0.00     0.125 C 
HETATM   13  N1  UNL     1      21.262  37.681  24.615  1.00  0.00    -0.362 N 
HETATM   14  C13 UNL     1      21.760  38.052  23.273  1.00  0.00     0.131 C 
BRANCH  13  15
HETATM   15  C2  UNL     1      21.580  38.287  25.842  1.00  0.00     0.130 C 
HETATM   16  C1  UNL     1      22.637  37.904  26.520  1.00  0.00     0.071 C 
BRANCH  15  17
HETATM   17  O1  UNL     1      20.782  39.292  26.345  1.00  0.00    -0.341 OA
HETATM   18  C3  UNL     1      19.676  39.060  27.173  1.00  0.00     0.211 C 
ENDBRANCH  15  17
ENDBRANCH  13  15
ENDBRANCH   9  10
ENDBRANCH   1   9
BRANCH   8  19
HETATM   19  S1  UNL     1      23.587  33.412  21.408  1.00  0.00    -0.114 SA
HETATM   20  C12 UNL     1      22.098  33.404  20.345  1.00  0.00     0.097 C 
ENDBRANCH   8  19
TORSDOF 5
ENDMDL
MODEL 2
REMARK VINA RESULT: -6.508447807      4.369      6.390
REMARK  5 active torsions:
REMARK  status: ('A' for Active; 'I' for Inactive)
REMARK    1  A    between atoms: C2_2  and  O1_3 
REMARK    2  A    between atoms: C2_2  and  N1_5 
REMARK    3  A    between atoms: C6_8  and  C7_9 
REMARK    4  A    between atoms: C7_9  and  N2_10 
REMARK    5  A    between atoms: C11_17  and  S1_18 
ROOT
HETATM    1  N2  UNL     1      23.883  34.133  21.326  1.00  0.00    -0.283 N 
HETATM    2  N3  UNL     1      24.905  33.485  20.804  1.00  0.00    -0.300 N 
ATOM      3  H3  UNL     1      24.912  32.483  20.610  1.00  0.00     0.187 HD
HETATM    4  C8  UNL     1      25.942  34.319  20.559  1.00  0.00     0.046 A 
HETATM    5  C9  UNL     1      27.259  33.942  19.975  1.00  0.00     0.071 C 
HETATM    6  C10 UNL     1      25.509  35.556  20.964  1.00  0.00     0.092 A 
HETATM    7 CL1  UNL     1      26.410  37.039  20.896  1.00  0.00    -0.079 Cl
HETATM    8  C11 UNL     1      24.216  35.423  21.441  1.00  0.00     0.110 A 
ENDROOT
BRANCH   1   9
HETATM    9  C7  UNL     1      22.647  33.539  21.719  1.00  0.00     0.156 C 
BRANCH   9  10
HETATM   10  C6  UNL     1      21.525  33.577  20.773  1.00  0.00     0.025 C 
HETATM   11  C5  UNL     1      20.270  34.271  21.190  1.00  0.00     0.028 C 
HETATM   12  C4  UNL     1      19.209  33.693  20.243  1.00  0.00     0.125 C 
HETATM   13  N1  UNL     1      19.908  32.723  19.427  1.00  0.00    -0.362 N 
HETATM   14  C13 UNL     1      21.016  32.239  20.278  1.00  0.00     0.131 C 
BRANCH  13  15
HETATM   15  C2  UNL     1      19.604  32.325  18.114  1.00  0.00     0.130 C 
HETATM   16  C1  UNL     1      18.407  32.531  17.616  1.00  0.00     0.071 C 
BRANCH  15  17
HETATM   17  O1  UNL     1      20.563  31.712  17.337  1.00  0.00    -0.341 OA
HETATM   18  C3  UNL     1      20.277  31.035  16.144  1.00  0.00     0.211 C 
ENDBRANCH  15  17
ENDBRANCH  13  15
ENDBRANCH   9  10
ENDBRANCH   1   9
BRANCH   8  19
HETATM   19  S1  UNL     1      23.194  36.787  22.068  1.00  0.00    -0.114 SA
HETATM   20  C12 UNL     1      22.171  37.462  20.709  1.00  0.00     0.097 C 
ENDBRANCH   8  19
TORSDOF 5
ENDMDL
MODEL 3
REMARK VINA RESULT: -6.495158638      1.002      1.422
REMARK  5 active torsions:
REMARK  status: ('A' for Active; 'I' for Inactive)
REMARK    1  A    between atoms: C2_2  and  O1_3 
REMARK    2  A    between atoms: C2_2  and  N1_5 
REMARK    3  A    between atoms: C6_8  and  C7_9 
REMARK    4  A    between atoms: C7_9  and  N2_10 
REMARK    5  A    between atoms: C11_17  and  S1_18 
ROOT
HETATM    1  N2  UNL     1      23.532  36.273  21.313  1.00  0.00    -0.283 N 
HETATM    2  N3  UNL     1      24.555  37.087  21.146  1.00  0.00    -0.300 N 
ATOM      3  H3  UNL     1      24.483  38.105  21.126  1.00  0.00     0.187 HD
HETATM    4  C8  UNL     1      25.712  36.399  21.002  1.00  0.00     0.046 A 
HETATM    5  C9  UNL     1      27.065  36.983  20.793  1.00  0.00     0.071 C 
HETATM    6  C10 UNL     1      25.355  35.078  21.090  1.00  0.00     0.092 A 
HETATM    7 CL1  UNL     1      26.419  33.711  20.979  1.00  0.00    -0.079 Cl
HETATM    8  C11 UNL     1      23.985  35.015  21.286  1.00  0.00     0.110 A 
ENDROOT
BRANCH   1   9
HETATM    9  C7  UNL     1      22.174  36.681  21.471  1.00  0.00     0.156 C 
BRANCH   9  10
HETATM   10  C6  UNL     1      21.667  36.902  22.831  1.00  0.00     0.025 C 
HETATM   11  C5  UNL     1      20.192  37.029  23.024  1.00  0.00     0.028 C 
HETATM   12  C4  UNL     1      20.067  37.736  24.380  1.00  0.00     0.125 C 
HETATM   13  N1  UNL     1      21.427  37.985  24.811  1.00  0.00    -0.362 N 
HETATM   14  C13 UNL     1      22.203  38.116  23.560  1.00  0.00     0.131 C 
BRANCH  13  15
HETATM   15  C2  UNL     1      21.906  38.083  26.128  1.00  0.00     0.130 C 
HETATM   16  C1  UNL     1      21.074  38.240  27.131  1.00  0.00     0.071 C 
BRANCH  15  17
HETATM   17  O1  UNL     1      23.260  38.014  26.378  1.00  0.00    -0.341 OA
HETATM   18  C3  UNL     1      23.832  37.143  27.314  1.00  0.00     0.211 C 
ENDBRANCH  15  17
ENDBRANCH  13  15
ENDBRANCH   9  10
ENDBRANCH   1   9
BRANCH   8  19
HETATM   19  S1  UNL     1      23.034  33.483  21.494  1.00  0.00    -0.114 SA
HETATM   20  C12 UNL     1      21.773  33.358  20.173  1.00  0.00     0.097 C 
ENDBRANCH   8  19
TORSDOF 5
ENDMDL
MODEL 4
REMARK VINA RESULT: -6.382713318      4.308      6.680
REMARK  5 active torsions:
REMARK  status: ('A' for Active; 'I' for Inactive)
REMARK    1  A    between atoms: C2_2  and  O1_3 
REMARK    2  A    between atoms: C2_2  and  N1_5 
REMARK    3  A    between atoms: C6_8  and  C7_9 
REMARK    4  A    between atoms: C7_9  and  N2_10 
REMARK    5  A    between atoms: C11_17  and  S1_18 
ROOT
HETATM    1  N2  UNL     1      21.448  34.548  21.056  1.00  0.00    -0.283 N 
HETATM    2  N3  UNL     1      21.626  35.748  20.542  1.00  0.00    -0.300 N 
ATOM      3  H3  UNL     1      22.059  35.927  19.636  1.00  0.00     0.187 HD
HETATM    4  C8  UNL     1      21.163  36.712  21.372  1.00  0.00     0.046 A 
HETATM    5  C9  UNL     1      21.196  38.180  21.125  1.00  0.00     0.071 C 
HETATM    6  C10 UNL     1      20.671  36.039  22.461  1.00  0.00     0.092 A 
HETATM    7 CL1  UNL     1      19.940  36.746  23.868  1.00  0.00    -0.079 Cl
HETATM    8  C11 UNL     1      20.856  34.683  22.248  1.00  0.00     0.110 A 
ENDROOT
BRANCH   1   9
HETATM    9  C7  UNL     1      21.846  33.323  20.443  1.00  0.00     0.156 C 
BRANCH   9  10
HETATM   10  C6  UNL     1      23.192  32.810  20.723  1.00  0.00     0.025 C 
HETATM   11  C5  UNL     1      23.341  31.741  21.755  1.00  0.00     0.028 C 
HETATM   12  C4  UNL     1      24.824  31.820  22.142  1.00  0.00     0.125 C 
HETATM   13  N1  UNL     1      25.368  32.914  21.364  1.00  0.00    -0.362 N 
HETATM   14  C13 UNL     1      24.227  33.829  21.149  1.00  0.00     0.131 C 
BRANCH  13  15
HETATM   15  C2  UNL     1      26.688  33.073  20.911  1.00  0.00     0.130 C 
HETATM   16  C1  UNL     1      26.943  33.779  19.834  1.00  0.00     0.071 C 
BRANCH  15  17
HETATM   17  O1  UNL     1      27.730  32.487  21.598  1.00  0.00    -0.341 OA
HETATM   18  C3  UNL     1      29.070  32.862  21.438  1.00  0.00     0.211 C 
ENDBRANCH  15  17
ENDBRANCH  13  15
ENDBRANCH   9  10
ENDBRANCH   1   9
BRANCH   8  19
HETATM   19  S1  UNL     1      20.342  33.370  23.393  1.00  0.00    -0.114 SA
HETATM   20  C12 UNL     1      19.298  32.156  22.508  1.00  0.00     0.097 C 
ENDBRANCH   8  19
TORSDOF 5
ENDMDL
MODEL 5
REMARK VINA RESULT: -6.309317717      1.103      1.180
REMARK  5 active torsions:
REMARK  status: ('A' for Active; 'I' for Inactive)
REMARK    1  A    between atoms: C2_2  and  O1_3 
REMARK    2  A    between atoms: C2_2  and  N1_5 
REMARK    3  A    between atoms: C6_8  and  C7_9 
REMARK    4  A    between atoms: C7_9  and  N2_10 
REMARK    5  A    between atoms: C11_17  and  S1_18 
ROOT
HETATM    1  N2  UNL     1      23.375  36.184  21.276  1.00  0.00    -0.283 N 
HETATM    2  N3  UNL     1      24.359  37.052  21.151  1.00  0.00    -0.300 N 
ATOM      3  H3  UNL     1      24.235  38.065  21.139  1.00  0.00     0.187 HD
HETATM    4  C8  UNL     1      25.554  36.426  21.042  1.00  0.00     0.046 A 
HETATM    5  C9  UNL     1      26.882  37.081  20.885  1.00  0.00     0.071 C 
HETATM    6  C10 UNL     1      25.263  35.087  21.106  1.00  0.00     0.092 A 
HETATM    7 CL1  UNL     1      26.400  33.778  21.020  1.00  0.00    -0.079 Cl
HETATM    8  C11 UNL     1      23.893  34.951  21.253  1.00  0.00     0.110 A 
ENDROOT
BRANCH   1   9
HETATM    9  C7  UNL     1      21.993  36.520  21.390  1.00  0.00     0.156 C 
BRANCH   9  10
HETATM   10  C6  UNL     1      21.410  36.627  22.733  1.00  0.00     0.025 C 
HETATM   11  C5  UNL     1      20.835  35.397  23.354  1.00  0.00     0.028 C 
HETATM   12  C4  UNL     1      19.905  35.947  24.444  1.00  0.00     0.125 C 
HETATM   13  N1  UNL     1      19.988  37.388  24.330  1.00  0.00    -0.362 N 
HETATM   14  C13 UNL     1      20.298  37.638  22.906  1.00  0.00     0.131 C 
BRANCH  13  15
HETATM   15  C2  UNL     1      19.814  38.343  25.347  1.00  0.00     0.130 C 
HETATM   16  C1  UNL     1      20.850  38.834  25.985  1.00  0.00     0.071 C 
BRANCH  15  17
HETATM   17  O1  UNL     1      18.547  38.772  25.682  1.00  0.00    -0.341 OA
HETATM   18  C3  UNL     1      17.897  38.411  26.869  1.00  0.00     0.211 C 
ENDBRANCH  15  17
ENDBRANCH  13  15
ENDBRANCH   9  10
ENDBRANCH   1   9
BRANCH   8  19
HETATM   19  S1  UNL     1      23.015  33.370  21.414  1.00  0.00    -0.114 SA
HETATM   20  C12 UNL     1      21.705  33.262  20.142  1.00  0.00     0.097 C 
ENDBRANCH   8  19
TORSDOF 5
ENDMDL
