MODEL 1
REMARK VINA RESULT: -7.042752196      0.000      0.000
REMARK  4 active torsions:
REMARK  status: ('A' for Active; 'I' for Inactive)
REMARK    1  A    between atoms: C2_2  and  N1_3 
REMARK    2  A    between atoms: N1_3  and  C3_6 
REMARK    3  A    between atoms: C3_6  and  C4_7 
REMARK    4  A    between atoms: C4_7  and  C5_8 
ROOT
HETATM    1  C5  UNL     1      24.006  32.036  21.248  1.00  0.00     0.165 C 
HETATM    2  C6  UNL     1      23.955  31.437  22.621  1.00  0.00     0.079 C 
HETATM    3  C7  UNL     1      22.514  30.910  22.641  1.00  0.00     0.131 C 
HETATM    4  C8  UNL     1      21.508  31.935  22.965  1.00  0.00     0.070 C 
HETATM    5  C9  UNL     1      20.794  31.783  24.279  1.00  0.00     0.171 C 
HETATM    6  O1  UNL     1      20.329  30.525  24.549  1.00  0.00    -0.385 OA
HETATM    7  C10 UNL     1      21.178  29.864  25.469  1.00  0.00     0.128 C 
HETATM    8  C11 UNL     1      20.601  28.498  25.717  1.00  0.00     0.032 C 
HETATM    9  C12 UNL     1      21.625  27.431  25.930  1.00  0.00     0.002 C 
HETATM   10  C13 UNL     1      22.830  28.084  26.586  1.00  0.00     0.001 C 
HETATM   11  C14 UNL     1      23.510  28.924  25.544  1.00  0.00     0.010 C 
HETATM   12  C15 UNL     1      22.542  29.854  24.870  1.00  0.00     0.052 C 
HETATM   13  C16 UNL     1      22.434  29.638  23.397  1.00  0.00     0.214 C 
HETATM   14  F1  UNL     1      21.292  28.939  23.035  1.00  0.00    -0.246 F 
HETATM   15  O2  UNL     1      22.383  30.599  21.264  1.00  0.00    -0.226 OA
HETATM   16  O3  UNL     1      22.815  31.699  20.650  1.00  0.00    -0.234 OA
ENDROOT
BRANCH   1  17
HETATM   17  C4  UNL     1      24.277  33.512  21.218  1.00  0.00     0.062 C 
BRANCH  17  18
HETATM   18  C3  UNL     1      25.762  33.684  20.982  1.00  0.00     0.235 C 
BRANCH  18  19
HETATM   19  N1  UNL     1      26.215  32.905  19.838  1.00  0.00    -0.075 N 
ATOM     20  H12 UNL     1      25.671  33.060  18.989  1.00  0.00     0.277 HD
ATOM     21  H11 UNL     1      26.026  31.906  19.916  1.00  0.00     0.277 HD
BRANCH  19  22
HETATM   22  C2  UNL     1      27.635  33.231  19.701  1.00  0.00     0.228 C 
HETATM   23  C1  UNL     1      28.353  33.219  21.013  1.00  0.00     0.034 C 
ENDBRANCH  19  22
ENDBRANCH  18  19
ENDBRANCH  17  18
ENDBRANCH   1  17
TORSDOF 4
ENDMDL
MODEL 2
REMARK VINA RESULT: -7.033449118      3.499      6.507
REMARK  4 active torsions:
REMARK  status: ('A' for Active; 'I' for Inactive)
REMARK    1  A    between atoms: C2_2  and  N1_3 
REMARK    2  A    between atoms: N1_3  and  C3_6 
REMARK    3  A    between atoms: C3_6  and  C4_7 
REMARK    4  A    between atoms: C4_7  and  C5_8 
ROOT
HETATM    1  C5  UNL     1      22.972  31.171  22.272  1.00  0.00     0.165 C 
HETATM    2  C6  UNL     1      22.390  32.444  22.809  1.00  0.00     0.079 C 
HETATM    3  C7  UNL     1      22.442  33.326  21.554  1.00  0.00     0.131 C 
HETATM    4  C8  UNL     1      23.758  33.939  21.310  1.00  0.00     0.070 C 
HETATM    5  C9  UNL     1      23.841  35.432  21.458  1.00  0.00     0.171 C 
HETATM    6  O1  UNL     1      22.841  36.136  20.845  1.00  0.00    -0.385 OA
HETATM    7  C10 UNL     1      21.879  36.567  21.789  1.00  0.00     0.128 C 
HETATM    8  C11 UNL     1      20.821  37.332  21.044  1.00  0.00     0.032 C 
HETATM    9  C12 UNL     1      19.442  37.161  21.591  1.00  0.00     0.002 C 
HETATM   10  C13 UNL     1      19.573  36.940  23.088  1.00  0.00     0.001 C 
HETATM   11  C14 UNL     1      20.131  35.562  23.293  1.00  0.00     0.010 C 
HETATM   12  C15 UNL     1      21.378  35.347  22.484  1.00  0.00     0.052 C 
HETATM   13  C16 UNL     1      21.269  34.229  21.502  1.00  0.00     0.214 C 
HETATM   14  F1  UNL     1      21.062  34.668  20.202  1.00  0.00    -0.246 F 
HETATM   15  O2  UNL     1      22.250  32.316  20.578  1.00  0.00    -0.226 OA
HETATM   16  O3  UNL     1      23.127  31.374  20.921  1.00  0.00    -0.234 OA
ENDROOT
BRANCH   1  17
HETATM   17  C4  UNL     1      24.238  30.729  22.944  1.00  0.00     0.062 C 
BRANCH  17  18
HETATM   18  C3  UNL     1      23.863  29.623  23.907  1.00  0.00     0.235 C 
BRANCH  18  19
HETATM   19  N1  UNL     1      23.625  28.366  23.211  1.00  0.00    -0.075 N 
ATOM     20  H12 UNL     1      24.448  27.765  23.148  1.00  0.00     0.277 HD
ATOM     21  H11 UNL     1      23.479  28.470  22.207  1.00  0.00     0.277 HD
BRANCH  19  22
HETATM   22  C2  UNL     1      22.497  27.756  23.916  1.00  0.00     0.228 C 
HETATM   23  C1  UNL     1      22.828  27.409  25.333  1.00  0.00     0.034 C 
ENDBRANCH  19  22
ENDBRANCH  18  19
ENDBRANCH  17  18
ENDBRANCH   1  17
TORSDOF 4
ENDMDL
MODEL 3
REMARK VINA RESULT: -7.005137232      3.773      4.843
REMARK  4 active torsions:
REMARK  status: ('A' for Active; 'I' for Inactive)
REMARK    1  A    between atoms: C2_2  and  N1_3 
REMARK    2  A    between atoms: N1_3  and  C3_6 
REMARK    3  A    between atoms: C3_6  and  C4_7 
REMARK    4  A    between atoms: C4_7  and  C5_8 
ROOT
HETATM    1  C5  UNL     1      22.026  36.153  21.317  1.00  0.00     0.165 C 
HETATM    2  C6  UNL     1      22.378  34.917  22.089  1.00  0.00     0.079 C 
HETATM    3  C7  UNL     1      21.460  33.892  21.409  1.00  0.00     0.131 C 
HETATM    4  C8  UNL     1      20.077  33.906  21.912  1.00  0.00     0.070 C 
HETATM    5  C9  UNL     1      19.628  32.692  22.676  1.00  0.00     0.171 C 
HETATM    6  O1  UNL     1      19.937  31.491  22.100  1.00  0.00    -0.385 OA
HETATM    7  C10 UNL     1      21.054  30.902  22.738  1.00  0.00     0.128 C 
HETATM    8  C11 UNL     1      21.328  29.591  22.055  1.00  0.00     0.032 C 
HETATM    9  C12 UNL     1      22.777  29.238  21.966  1.00  0.00     0.002 C 
HETATM   10  C13 UNL     1      23.463  29.833  23.184  1.00  0.00     0.001 C 
HETATM   11  C14 UNL     1      23.523  31.320  22.987  1.00  0.00     0.010 C 
HETATM   12  C15 UNL     1      22.172  31.884  22.651  1.00  0.00     0.052 C 
HETATM   13  C16 UNL     1      22.124  32.570  21.327  1.00  0.00     0.214 C 
HETATM   14  F1  UNL     1      21.530  31.799  20.338  1.00  0.00    -0.246 F 
HETATM   15  O2  UNL     1      21.450  34.449  20.106  1.00  0.00    -0.226 OA
HETATM   16  O3  UNL     1      21.181  35.737  20.314  1.00  0.00    -0.234 OA
ENDROOT
BRANCH   1  17
HETATM   17  C4  UNL     1      21.447  37.263  22.144  1.00  0.00     0.062 C 
BRANCH  17  18
HETATM   18  C3  UNL     1      22.402  38.433  22.042  1.00  0.00     0.235 C 
BRANCH  18  19
HETATM   19  N1  UNL     1      22.444  39.198  23.281  1.00  0.00    -0.075 N 
ATOM     20  H12 UNL     1      21.942  40.086  23.237  1.00  0.00     0.277 HD
ATOM     21  H11 UNL     1      23.360  39.593  23.493  1.00  0.00     0.277 HD
BRANCH  19  22
HETATM   22  C2  UNL     1      21.940  38.282  24.304  1.00  0.00     0.228 C 
HETATM   23  C1  UNL     1      22.736  38.345  25.569  1.00  0.00     0.034 C 
ENDBRANCH  19  22
ENDBRANCH  18  19
ENDBRANCH  17  18
ENDBRANCH   1  17
TORSDOF 4
ENDMDL
MODEL 4
REMARK VINA RESULT: -6.976342459      3.742      6.355
REMARK  4 active torsions:
REMARK  status: ('A' for Active; 'I' for Inactive)
REMARK    1  A    between atoms: C2_2  and  N1_3 
REMARK    2  A    between atoms: N1_3  and  C3_6 
REMARK    3  A    between atoms: C3_6  and  C4_7 
REMARK    4  A    between atoms: C4_7  and  C5_8 
ROOT
HETATM    1  C5  UNL     1      22.107  31.592  21.394  1.00  0.00     0.165 C 
HETATM    2  C6  UNL     1      21.854  32.687  22.386  1.00  0.00     0.079 C 
HETATM    3  C7  UNL     1      21.774  33.900  21.448  1.00  0.00     0.131 C 
HETATM    4  C8  UNL     1      23.087  34.444  21.064  1.00  0.00     0.070 C 
HETATM    5  C9  UNL     1      23.427  35.810  21.590  1.00  0.00     0.171 C 
HETATM    6  O1  UNL     1      22.441  36.749  21.460  1.00  0.00    -0.385 OA
HETATM    7  C10 UNL     1      21.778  36.953  22.694  1.00  0.00     0.128 C 
HETATM    8  C11 UNL     1      20.717  37.995  22.472  1.00  0.00     0.032 C 
HETATM    9  C12 UNL     1      19.475  37.784  23.274  1.00  0.00     0.002 C 
HETATM   10  C13 UNL     1      19.884  37.110  24.573  1.00  0.00     0.001 C 
HETATM   11  C14 UNL     1      20.254  35.692  24.248  1.00  0.00     0.010 C 
HETATM   12  C15 UNL     1      21.254  35.628  23.129  1.00  0.00     0.052 C 
HETATM   13  C16 UNL     1      20.770  34.872  21.937  1.00  0.00     0.214 C 
HETATM   14  F1  UNL     1      20.362  35.700  20.901  1.00  0.00    -0.246 F 
HETATM   15  O2  UNL     1      21.228  33.253  20.312  1.00  0.00    -0.226 OA
HETATM   16  O3  UNL     1      22.002  32.180  20.155  1.00  0.00    -0.234 OA
ENDROOT
BRANCH   1  17
HETATM   17  C4  UNL     1      23.403  30.862  21.585  1.00  0.00     0.062 C 
BRANCH  17  18
HETATM   18  C3  UNL     1      23.792  31.025  23.038  1.00  0.00     0.235 C 
BRANCH  18  19
HETATM   19  N1  UNL     1      24.364  29.799  23.580  1.00  0.00    -0.075 N 
ATOM     20  H12 UNL     1      25.090  29.954  24.279  1.00  0.00     0.277 HD
ATOM     21  H11 UNL     1      24.946  29.287  22.918  1.00  0.00     0.277 HD
BRANCH  19  22
HETATM   22  C2  UNL     1      23.216  29.038  24.075  1.00  0.00     0.228 C 
HETATM   23  C1  UNL     1      22.335  29.850  24.971  1.00  0.00     0.034 C 
ENDBRANCH  19  22
ENDBRANCH  18  19
ENDBRANCH  17  18
ENDBRANCH   1  17
TORSDOF 4
ENDMDL
MODEL 5
REMARK VINA RESULT: -6.968418708      3.628      5.828
REMARK  4 active torsions:
REMARK  status: ('A' for Active; 'I' for Inactive)
REMARK    1  A    between atoms: C2_2  and  N1_3 
REMARK    2  A    between atoms: N1_3  and  C3_6 
REMARK    3  A    between atoms: C3_6  and  C4_7 
REMARK    4  A    between atoms: C4_7  and  C5_8 
ROOT
HETATM    1  C5  UNL     1      21.807  31.458  21.498  1.00  0.00     0.165 C 
HETATM    2  C6  UNL     1      21.647  32.593  22.465  1.00  0.00     0.079 C 
HETATM    3  C7  UNL     1      21.518  33.772  21.491  1.00  0.00     0.131 C 
HETATM    4  C8  UNL     1      22.808  34.276  20.992  1.00  0.00     0.070 C 
HETATM    5  C9  UNL     1      23.209  35.654  21.441  1.00  0.00     0.171 C 
HETATM    6  O1  UNL     1      22.231  36.607  21.348  1.00  0.00    -0.385 OA
HETATM    7  C10 UNL     1      21.664  36.868  22.618  1.00  0.00     0.128 C 
HETATM    8  C11 UNL     1      20.607  37.921  22.435  1.00  0.00     0.032 C 
HETATM    9  C12 UNL     1      19.424  37.763  23.332  1.00  0.00     0.002 C 
HETATM   10  C13 UNL     1      19.915  37.129  24.622  1.00  0.00     0.001 C 
HETATM   11  C14 UNL     1      20.237  35.693  24.325  1.00  0.00     0.010 C 
HETATM   12  C15 UNL     1      21.151  35.570  23.139  1.00  0.00     0.052 C 
HETATM   13  C16 UNL     1      20.568  34.781  22.015  1.00  0.00     0.214 C 
HETATM   14  F1  UNL     1      20.100  35.578  20.980  1.00  0.00    -0.246 F 
HETATM   15  O2  UNL     1      20.879  33.095  20.422  1.00  0.00    -0.226 OA
HETATM   16  O3  UNL     1      21.622  32.003  20.250  1.00  0.00    -0.234 OA
ENDROOT
BRANCH   1  17
HETATM   17  C4  UNL     1      23.102  30.710  21.622  1.00  0.00     0.062 C 
BRANCH  17  18
HETATM   18  C3  UNL     1      23.876  31.351  22.754  1.00  0.00     0.235 C 
BRANCH  18  19
HETATM   19  N1  UNL     1      25.307  31.365  22.483  1.00  0.00    -0.075 N 
ATOM     20  H12 UNL     1      25.695  30.450  22.254  1.00  0.00     0.277 HD
ATOM     21  H11 UNL     1      25.884  31.533  23.307  1.00  0.00     0.277 HD
BRANCH  19  22
HETATM   22  C2  UNL     1      25.478  32.363  21.426  1.00  0.00     0.228 C 
HETATM   23  C1  UNL     1      26.916  32.599  21.089  1.00  0.00     0.034 C 
ENDBRANCH  19  22
ENDBRANCH  18  19
ENDBRANCH  17  18
ENDBRANCH   1  17
TORSDOF 4
ENDMDL
