MODEL 1
REMARK VINA RESULT: -7.673667167      0.000      0.000
REMARK  9 active torsions:
REMARK  status: ('A' for Active; 'I' for Inactive)
REMARK    1  A    between atoms: C2_2  and  N1_4 
REMARK    2  A    between atoms: C2_2  and  C4_8 
REMARK       I    between atoms: C4_8  and  N2_10 
REMARK    3  A    between atoms: N2_10  and  C5_12 
REMARK    4  A    between atoms: C5_12  and  C6_13 
REMARK    5  A    between atoms: C6_13  and  C7_14 
REMARK    6  A    between atoms: C7_14  and  C8_15 
REMARK    7  A    between atoms: C8_15  and  N3_16 
REMARK       I    between atoms: N3_16  and  C9_18 
REMARK    8  A    between atoms: C9_18  and  C10_20 
REMARK    9  A    between atoms: C20_30  and  O3_31 
ROOT
HETATM    1  C10 UNL     1      39.747 -22.396  26.501  1.00  0.00     0.086 C 
HETATM    2  C11 UNL     1      40.096 -22.367  25.028  1.00  0.00     0.015 C 
HETATM    3  C12 UNL     1      39.665 -20.937  24.682  1.00  0.00     0.011 C 
HETATM    4  C13 UNL     1      40.188 -20.165  25.870  1.00  0.00    -0.032 C 
HETATM    5  C14 UNL     1      41.581 -19.715  25.456  1.00  0.00     0.016 C 
HETATM    6  C15 UNL     1      39.398 -18.924  26.169  1.00  0.00    -0.001 C 
HETATM    7  C16 UNL     1      37.922 -19.066  26.081  1.00  0.00     0.007 C 
HETATM    8  C17 UNL     1      37.110 -18.356  27.079  1.00  0.00     0.012 C 
HETATM    9  C18 UNL     1      37.672 -17.148  27.709  1.00  0.00    -0.014 C 
HETATM   10  C19 UNL     1      37.165 -17.034  29.155  1.00  0.00     0.018 C 
HETATM   11  C20 UNL     1      37.166 -15.878  27.008  1.00  0.00     0.126 C 
HETATM   12  C21 UNL     1      38.373 -14.928  27.067  1.00  0.00     0.033 C 
HETATM   13  C22 UNL     1      39.475 -15.955  26.764  1.00  0.00     0.008 C 
HETATM   14  C23 UNL     1      39.142 -17.035  27.752  1.00  0.00     0.001 C 
HETATM   15  C24 UNL     1      39.897 -18.303  27.436  1.00  0.00    -0.005 C 
HETATM   16  C25 UNL     1      39.987 -19.252  28.591  1.00  0.00     0.006 C 
HETATM   17  C26 UNL     1      39.632 -20.658  28.271  1.00  0.00     0.011 C 
HETATM   18  C27 UNL     1      40.333 -21.125  27.013  1.00  0.00    -0.024 C 
HETATM   19  C28 UNL     1      41.777 -21.332  27.397  1.00  0.00     0.017 C 
ENDROOT
BRANCH   1  20
HETATM   20  C9  UNL     1      40.066 -23.627  27.191  1.00  0.00     0.222 C 
HETATM   21  N3  UNL     1      39.747 -23.961  28.542  1.00  0.00    -0.361 N 
ATOM     22  H3  UNL     1      39.242 -23.273  29.101  1.00  0.00     0.162 HD
HETATM   23  O2  UNL     1      40.703 -24.558  26.576  1.00  0.00    -0.273 OA
BRANCH  21  24
HETATM   24  C8  UNL     1      40.095 -25.213  29.162  1.00  0.00     0.122 C 
BRANCH  24  25
HETATM   25  C7  UNL     1      40.932 -24.958  30.376  1.00  0.00     0.021 C 
BRANCH  25  26
HETATM   26  C6  UNL     1      41.637 -23.638  30.382  1.00  0.00     0.021 C 
BRANCH  26  27
HETATM   27  C5  UNL     1      43.118 -23.772  30.189  1.00  0.00     0.122 C 
BRANCH  27  28
HETATM   28  N2  UNL     1      43.824 -22.510  30.145  1.00  0.00    -0.359 N 
HETATM   29  C4  UNL     1      45.070 -22.321  29.508  1.00  0.00     0.253 C 
HETATM   30  O1  UNL     1      45.633 -23.276  28.932  1.00  0.00    -0.271 OA
ATOM     31  H2  UNL     1      43.396 -21.706  30.604  1.00  0.00     0.162 HD
BRANCH  29  32
HETATM   32  C2  UNL     1      45.729 -21.011  29.507  1.00  0.00     0.196 C 
HETATM   33  C1  UNL     1      45.367 -20.289  28.208  1.00  0.00     0.056 C 
HETATM   34  C3  UNL     1      45.291 -20.150  30.680  1.00  0.00     0.056 C 
BRANCH  32  35
HETATM   35  N1  UNL     1      47.183 -21.132  29.495  1.00  0.00    -0.062 N 
ATOM     36  H13 UNL     1      47.552 -21.716  30.246  1.00  0.00     0.275 HD
ATOM     37  H12 UNL     1      47.541 -21.692  28.721  1.00  0.00     0.275 HD
ATOM     38  H11 UNL     1      47.537 -20.176  29.508  1.00  0.00     0.275 HD
ENDBRANCH  32  35
ENDBRANCH  29  32
ENDBRANCH  27  28
ENDBRANCH  26  27
ENDBRANCH  25  26
ENDBRANCH  24  25
ENDBRANCH  21  24
ENDBRANCH   1  20
BRANCH  11  39
HETATM   39  O3  UNL     1      36.144 -15.262  27.678  1.00  0.00    -0.395 OA
ATOM     40  H3  UNL     1      36.437 -14.557  28.242  1.00  0.00     0.210 HD
ENDBRANCH  11  39
TORSDOF 9
ENDMDL
MODEL 2
REMARK VINA RESULT: -7.558733904      2.802      7.420
REMARK  9 active torsions:
REMARK  status: ('A' for Active; 'I' for Inactive)
REMARK    1  A    between atoms: C2_2  and  N1_4 
REMARK    2  A    between atoms: C2_2  and  C4_8 
REMARK       I    between atoms: C4_8  and  N2_10 
REMARK    3  A    between atoms: N2_10  and  C5_12 
REMARK    4  A    between atoms: C5_12  and  C6_13 
REMARK    5  A    between atoms: C6_13  and  C7_14 
REMARK    6  A    between atoms: C7_14  and  C8_15 
REMARK    7  A    between atoms: C8_15  and  N3_16 
REMARK       I    between atoms: N3_16  and  C9_18 
REMARK    8  A    between atoms: C9_18  and  C10_20 
REMARK    9  A    between atoms: C20_30  and  O3_31 
ROOT
HETATM    1  C10 UNL     1      40.300 -23.446  26.656  1.00  0.00     0.086 C 
HETATM    2  C11 UNL     1      39.988 -24.595  27.591  1.00  0.00     0.015 C 
HETATM    3  C12 UNL     1      41.212 -24.525  28.513  1.00  0.00     0.011 C 
HETATM    4  C13 UNL     1      41.343 -23.038  28.733  1.00  0.00    -0.032 C 
HETATM    5  C14 UNL     1      40.532 -22.758  29.990  1.00  0.00     0.016 C 
HETATM    6  C15 UNL     1      42.751 -22.598  29.014  1.00  0.00    -0.001 C 
HETATM    7  C16 UNL     1      43.800 -23.229  28.172  1.00  0.00     0.007 C 
HETATM    8  C17 UNL     1      44.918 -22.383  27.731  1.00  0.00     0.012 C 
HETATM    9  C18 UNL     1      45.272 -21.208  28.548  1.00  0.00    -0.014 C 
HETATM   10  C19 UNL     1      45.795 -20.085  27.638  1.00  0.00     0.018 C 
HETATM   11  C20 UNL     1      46.437 -21.530  29.494  1.00  0.00     0.126 C 
HETATM   12  C21 UNL     1      46.106 -20.724  30.761  1.00  0.00     0.033 C 
HETATM   13  C22 UNL     1      44.592 -20.983  30.795  1.00  0.00     0.008 C 
HETATM   14  C23 UNL     1      44.207 -20.629  29.388  1.00  0.00     0.001 C 
HETATM   15  C24 UNL     1      42.809 -21.104  29.078  1.00  0.00    -0.005 C 
HETATM   16  C25 UNL     1      42.186 -20.414  27.904  1.00  0.00     0.006 C 
HETATM   17  C26 UNL     1      41.559 -21.321  26.909  1.00  0.00     0.011 C 
HETATM   18  C27 UNL     1      40.671 -22.343  27.586  1.00  0.00    -0.024 C 
HETATM   19  C28 UNL     1      39.438 -21.592  28.025  1.00  0.00     0.017 C 
ENDROOT
BRANCH   1  20
HETATM   20  C9  UNL     1      39.303 -23.184  25.641  1.00  0.00     0.222 C 
HETATM   21  N3  UNL     1      37.936 -23.600  25.653  1.00  0.00    -0.361 N 
ATOM     22  H3  UNL     1      37.606 -24.142  26.452  1.00  0.00     0.162 HD
HETATM   23  O2  UNL     1      39.618 -22.512  24.592  1.00  0.00    -0.273 OA
BRANCH  21  24
HETATM   24  C8  UNL     1      36.997 -23.298  24.604  1.00  0.00     0.122 C 
BRANCH  24  25
HETATM   25  C7  UNL     1      35.865 -22.493  25.158  1.00  0.00     0.021 C 
BRANCH  25  26
HETATM   26  C6  UNL     1      36.257 -21.511  26.217  1.00  0.00     0.021 C 
BRANCH  26  27
HETATM   27  C5  UNL     1      36.698 -20.194  25.651  1.00  0.00     0.122 C 
BRANCH  27  28
HETATM   28  N2  UNL     1      36.992 -19.190  26.650  1.00  0.00    -0.359 N 
HETATM   29  C4  UNL     1      37.093 -17.809  26.379  1.00  0.00     0.253 C 
HETATM   30  O1  UNL     1      36.923 -17.381  25.217  1.00  0.00    -0.271 OA
ATOM     31  H2  UNL     1      37.136 -19.500  27.611  1.00  0.00     0.162 HD
BRANCH  29  32
HETATM   32  C2  UNL     1      37.397 -16.848  27.444  1.00  0.00     0.196 C 
HETATM   33  C1  UNL     1      38.874 -16.990  27.816  1.00  0.00     0.056 C 
HETATM   34  C3  UNL     1      37.142 -15.414  27.008  1.00  0.00     0.056 C 
BRANCH  32  35
HETATM   35  N1  UNL     1      36.656 -17.135  28.667  1.00  0.00    -0.062 N 
ATOM     36  H13 UNL     1      35.735 -16.698  28.700  1.00  0.00     0.275 HD
ATOM     37  H12 UNL     1      36.334 -18.101  28.734  1.00  0.00     0.275 HD
ATOM     38  H11 UNL     1      37.269 -16.854  29.431  1.00  0.00     0.275 HD
ENDBRANCH  32  35
ENDBRANCH  29  32
ENDBRANCH  27  28
ENDBRANCH  26  27
ENDBRANCH  25  26
ENDBRANCH  24  25
ENDBRANCH  21  24
ENDBRANCH   1  20
BRANCH  11  39
HETATM   39  O3  UNL     1      47.645 -21.074  29.040  1.00  0.00    -0.395 OA
ATOM     40  H3  UNL     1      48.365 -21.268  29.628  1.00  0.00     0.210 HD
ENDBRANCH  11  39
TORSDOF 9
ENDMDL
MODEL 3
REMARK VINA RESULT: -7.527761303      1.282      1.406
REMARK  9 active torsions:
REMARK  status: ('A' for Active; 'I' for Inactive)
REMARK    1  A    between atoms: C2_2  and  N1_4 
REMARK    2  A    between atoms: C2_2  and  C4_8 
REMARK       I    between atoms: C4_8  and  N2_10 
REMARK    3  A    between atoms: N2_10  and  C5_12 
REMARK    4  A    between atoms: C5_12  and  C6_13 
REMARK    5  A    between atoms: C6_13  and  C7_14 
REMARK    6  A    between atoms: C7_14  and  C8_15 
REMARK    7  A    between atoms: C8_15  and  N3_16 
REMARK       I    between atoms: N3_16  and  C9_18 
REMARK    8  A    between atoms: C9_18  and  C10_20 
REMARK    9  A    between atoms: C20_30  and  O3_31 
ROOT
HETATM    1  C10 UNL     1      39.418 -21.880  25.772  1.00  0.00     0.086 C 
HETATM    2  C11 UNL     1      39.395 -21.678  24.271  1.00  0.00     0.015 C 
HETATM    3  C12 UNL     1      38.859 -20.242  24.208  1.00  0.00     0.011 C 
HETATM    4  C13 UNL     1      39.638 -19.576  25.315  1.00  0.00    -0.032 C 
HETATM    5  C14 UNL     1      40.877 -19.014  24.634  1.00  0.00     0.016 C 
HETATM    6  C15 UNL     1      38.917 -18.415  25.937  1.00  0.00    -0.001 C 
HETATM    7  C16 UNL     1      37.468 -18.622  26.191  1.00  0.00     0.007 C 
HETATM    8  C17 UNL     1      36.908 -18.065  27.430  1.00  0.00     0.012 C 
HETATM    9  C18 UNL     1      37.579 -16.903  28.041  1.00  0.00    -0.014 C 
HETATM   10  C19 UNL     1      37.438 -16.970  29.571  1.00  0.00     0.018 C 
HETATM   11  C20 UNL     1      36.886 -15.594  27.635  1.00  0.00     0.126 C 
HETATM   12  C21 UNL     1      38.048 -14.595  27.511  1.00  0.00     0.033 C 
HETATM   13  C22 UNL     1      39.066 -15.526  26.835  1.00  0.00     0.008 C 
HETATM   14  C23 UNL     1      39.012 -16.721  27.742  1.00  0.00     0.001 C 
HETATM   15  C24 UNL     1      39.695 -17.908  27.109  1.00  0.00    -0.005 C 
HETATM   16  C25 UNL     1      40.088 -18.969  28.091  1.00  0.00     0.006 C 
HETATM   17  C26 UNL     1      39.699 -20.349  27.706  1.00  0.00     0.011 C 
HETATM   18  C27 UNL     1      40.081 -20.643  26.271  1.00  0.00    -0.024 C 
HETATM   19  C28 UNL     1      41.580 -20.816  26.270  1.00  0.00     0.017 C 
ENDROOT
BRANCH   1  20
HETATM   20  C9  UNL     1      39.925 -23.160  26.217  1.00  0.00     0.222 C 
HETATM   21  N3  UNL     1      39.720 -23.766  27.495  1.00  0.00    -0.361 N 
ATOM     22  H3  UNL     1      39.163 -23.261  28.183  1.00  0.00     0.162 HD
HETATM   23  O2  UNL     1      40.642 -23.875  25.426  1.00  0.00    -0.273 OA
BRANCH  21  24
HETATM   24  C8  UNL     1      40.255 -25.050  27.867  1.00  0.00     0.122 C 
BRANCH  24  25
HETATM   25  C7  UNL     1      41.246 -24.880  28.976  1.00  0.00     0.021 C 
BRANCH  25  26
HETATM   26  C6  UNL     1      40.699 -24.227  30.206  1.00  0.00     0.021 C 
BRANCH  26  27
HETATM   27  C5  UNL     1      41.143 -22.802  30.351  1.00  0.00     0.122 C 
BRANCH  27  28
HETATM   28  N2  UNL     1      42.533 -22.651  30.719  1.00  0.00    -0.359 N 
HETATM   29  C4  UNL     1      43.332 -21.543  30.362  1.00  0.00     0.253 C 
HETATM   30  O1  UNL     1      42.848 -20.610  29.687  1.00  0.00    -0.271 OA
ATOM     31  H2  UNL     1      42.965 -23.391  31.272  1.00  0.00     0.162 HD
BRANCH  29  32
HETATM   32  C2  UNL     1      44.738 -21.459  30.770  1.00  0.00     0.196 C 
HETATM   33  C1  UNL     1      45.236 -20.039  30.498  1.00  0.00     0.056 C 
HETATM   34  C3  UNL     1      44.923 -21.764  32.247  1.00  0.00     0.056 C 
BRANCH  32  35
HETATM   35  N1  UNL     1      45.591 -22.333  29.972  1.00  0.00    -0.062 N 
ATOM     36  H13 UNL     1      46.198 -21.832  29.323  1.00  0.00     0.275 HD
ATOM     37  H12 UNL     1      46.333 -22.782  30.508  1.00  0.00     0.275 HD
ATOM     38  H11 UNL     1      44.958 -22.990  29.516  1.00  0.00     0.275 HD
ENDBRANCH  32  35
ENDBRANCH  29  32
ENDBRANCH  27  28
ENDBRANCH  26  27
ENDBRANCH  25  26
ENDBRANCH  24  25
ENDBRANCH  21  24
ENDBRANCH   1  20
BRANCH  11  39
HETATM   39  O3  UNL     1      36.046 -15.105  28.597  1.00  0.00    -0.395 OA
ATOM     40  H3  UNL     1      35.554 -14.343  28.315  1.00  0.00     0.210 HD
ENDBRANCH  11  39
TORSDOF 9
ENDMDL
MODEL 4
REMARK VINA RESULT: -7.445369358      3.832      7.446
REMARK  9 active torsions:
REMARK  status: ('A' for Active; 'I' for Inactive)
REMARK    1  A    between atoms: C2_2  and  N1_4 
REMARK    2  A    between atoms: C2_2  and  C4_8 
REMARK       I    between atoms: C4_8  and  N2_10 
REMARK    3  A    between atoms: N2_10  and  C5_12 
REMARK    4  A    between atoms: C5_12  and  C6_13 
REMARK    5  A    between atoms: C6_13  and  C7_14 
REMARK    6  A    between atoms: C7_14  and  C8_15 
REMARK    7  A    between atoms: C8_15  and  N3_16 
REMARK       I    between atoms: N3_16  and  C9_18 
REMARK    8  A    between atoms: C9_18  and  C10_20 
REMARK    9  A    between atoms: C20_30  and  O3_31 
ROOT
HETATM    1  C10 UNL     1      38.425 -19.289  23.424  1.00  0.00     0.086 C 
HETATM    2  C11 UNL     1      37.872 -18.992  22.045  1.00  0.00     0.015 C 
HETATM    3  C12 UNL     1      37.293 -20.367  21.692  1.00  0.00     0.011 C 
HETATM    4  C13 UNL     1      36.636 -20.764  22.991  1.00  0.00    -0.032 C 
HETATM    5  C14 UNL     1      35.203 -20.265  22.869  1.00  0.00     0.016 C 
HETATM    6  C15 UNL     1      36.565 -22.250  23.194  1.00  0.00    -0.001 C 
HETATM    7  C16 UNL     1      37.788 -23.007  22.823  1.00  0.00     0.007 C 
HETATM    8  C17 UNL     1      38.177 -24.134  23.683  1.00  0.00     0.012 C 
HETATM    9  C18 UNL     1      37.127 -24.815  24.462  1.00  0.00    -0.014 C 
HETATM   10  C19 UNL     1      37.715 -25.318  25.792  1.00  0.00     0.018 C 
HETATM   11  C20 UNL     1      36.641 -26.079  23.739  1.00  0.00     0.126 C 
HETATM   12  C21 UNL     1      35.140 -26.127  24.068  1.00  0.00     0.033 C 
HETATM   13  C22 UNL     1      34.837 -24.627  23.930  1.00  0.00     0.008 C 
HETATM   14  C23 UNL     1      35.919 -24.035  24.786  1.00  0.00     0.001 C 
HETATM   15  C24 UNL     1      36.030 -22.547  24.559  1.00  0.00    -0.005 C 
HETATM   16  C25 UNL     1      36.732 -21.821  25.665  1.00  0.00     0.006 C 
HETATM   17  C26 UNL     1      37.792 -20.883  25.219  1.00  0.00     0.011 C 
HETATM   18  C27 UNL     1      37.299 -19.997  24.095  1.00  0.00    -0.024 C 
HETATM   19  C28 UNL     1      36.362 -19.002  24.734  1.00  0.00     0.017 C 
ENDROOT
BRANCH   1  20
HETATM   20  C9  UNL     1      39.034 -18.166  24.103  1.00  0.00     0.222 C 
HETATM   21  N3  UNL     1      38.555 -16.820  24.135  1.00  0.00    -0.361 N 
ATOM     22  H3  UNL     1      37.694 -16.604  23.632  1.00  0.00     0.162 HD
HETATM   23  O2  UNL     1      40.124 -18.331  24.763  1.00  0.00    -0.273 OA
BRANCH  21  24
HETATM   24  C8  UNL     1      39.215 -15.751  24.838  1.00  0.00     0.122 C 
BRANCH  24  25
HETATM   25  C7  UNL     1      38.572 -15.554  26.175  1.00  0.00     0.021 C 
BRANCH  25  26
HETATM   26  C6  UNL     1      39.239 -16.279  27.301  1.00  0.00     0.021 C 
BRANCH  26  27
HETATM   27  C5  UNL     1      38.445 -17.457  27.781  1.00  0.00     0.122 C 
BRANCH  27  28
HETATM   28  N2  UNL     1      39.196 -18.692  27.839  1.00  0.00    -0.359 N 
HETATM   29  C4  UNL     1      39.707 -19.254  29.028  1.00  0.00     0.253 C 
HETATM   30  O1  UNL     1      39.521 -18.684  30.124  1.00  0.00    -0.271 OA
ATOM     31  H2  UNL     1      39.368 -19.188  26.964  1.00  0.00     0.162 HD
BRANCH  29  32
HETATM   32  C2  UNL     1      40.463 -20.510  29.009  1.00  0.00     0.196 C 
HETATM   33  C1  UNL     1      39.643 -21.557  28.254  1.00  0.00     0.056 C 
HETATM   34  C3  UNL     1      41.808 -20.356  28.319  1.00  0.00     0.056 C 
BRANCH  32  35
HETATM   35  N1  UNL     1      40.652 -21.054  30.350  1.00  0.00    -0.062 N 
ATOM     36  H13 UNL     1      40.349 -22.024  30.445  1.00  0.00     0.275 HD
ATOM     37  H12 UNL     1      41.630 -21.209  30.595  1.00  0.00     0.275 HD
ATOM     38  H11 UNL     1      40.169 -20.411  30.976  1.00  0.00     0.275 HD
ENDBRANCH  32  35
ENDBRANCH  29  32
ENDBRANCH  27  28
ENDBRANCH  26  27
ENDBRANCH  25  26
ENDBRANCH  24  25
ENDBRANCH  21  24
ENDBRANCH   1  20
BRANCH  11  39
HETATM   39  O3  UNL     1      37.190 -27.231  24.232  1.00  0.00    -0.395 OA
ATOM     40  H3  UNL     1      36.729 -28.015  23.959  1.00  0.00     0.210 HD
ENDBRANCH  11  39
TORSDOF 9
ENDMDL
MODEL 5
REMARK VINA RESULT: -7.412058243      2.648      7.826
REMARK  9 active torsions:
REMARK  status: ('A' for Active; 'I' for Inactive)
REMARK    1  A    between atoms: C2_2  and  N1_4 
REMARK    2  A    between atoms: C2_2  and  C4_8 
REMARK       I    between atoms: C4_8  and  N2_10 
REMARK    3  A    between atoms: N2_10  and  C5_12 
REMARK    4  A    between atoms: C5_12  and  C6_13 
REMARK    5  A    between atoms: C6_13  and  C7_14 
REMARK    6  A    between atoms: C7_14  and  C8_15 
REMARK    7  A    between atoms: C8_15  and  N3_16 
REMARK       I    between atoms: N3_16  and  C9_18 
REMARK    8  A    between atoms: C9_18  and  C10_20 
REMARK    9  A    between atoms: C20_30  and  O3_31 
ROOT
HETATM    1  C10 UNL     1      40.784 -24.013  27.186  1.00  0.00     0.086 C 
HETATM    2  C11 UNL     1      40.928 -25.491  27.483  1.00  0.00     0.015 C 
HETATM    3  C12 UNL     1      42.221 -25.470  28.306  1.00  0.00     0.011 C 
HETATM    4  C13 UNL     1      42.000 -24.268  29.192  1.00  0.00    -0.032 C 
HETATM    5  C14 UNL     1      41.352 -24.827  30.450  1.00  0.00     0.016 C 
HETATM    6  C15 UNL     1      43.274 -23.597  29.617  1.00  0.00    -0.001 C 
HETATM    7  C16 UNL     1      44.304 -23.447  28.558  1.00  0.00     0.007 C 
HETATM    8  C17 UNL     1      45.084 -22.201  28.540  1.00  0.00     0.012 C 
HETATM    9  C18 UNL     1      45.249 -21.460  29.803  1.00  0.00    -0.014 C 
HETATM   10  C19 UNL     1      45.317 -19.951  29.512  1.00  0.00     0.018 C 
HETATM   11  C20 UNL     1      46.591 -21.799  30.467  1.00  0.00     0.126 C 
HETATM   12  C21 UNL     1      46.267 -21.772  31.970  1.00  0.00     0.033 C 
HETATM   13  C22 UNL     1      44.895 -22.461  31.910  1.00  0.00     0.008 C 
HETATM   14  C23 UNL     1      44.216 -21.658  30.838  1.00  0.00     0.001 C 
HETATM   15  C24 UNL     1      42.956 -22.344  30.370  1.00  0.00    -0.005 C 
HETATM   16  C25 UNL     1      42.001 -21.430  29.665  1.00  0.00     0.006 C 
HETATM   17  C26 UNL     1      41.480 -21.948  28.375  1.00  0.00     0.011 C 
HETATM   18  C27 UNL     1      41.001 -23.377  28.515  1.00  0.00    -0.024 C 
HETATM   19  C28 UNL     1      39.701 -23.305  29.278  1.00  0.00     0.017 C 
ENDROOT
BRANCH   1  20
HETATM   20  C9  UNL     1      39.607 -23.644  26.430  1.00  0.00     0.222 C 
HETATM   21  N3  UNL     1      39.246 -22.334  25.991  1.00  0.00    -0.361 N 
ATOM     22  H3  UNL     1      39.867 -21.560  26.225  1.00  0.00     0.162 HD
HETATM   23  O2  UNL     1      38.758 -24.546  26.087  1.00  0.00    -0.273 OA
BRANCH  21  24
HETATM   24  C8  UNL     1      38.054 -22.042  25.236  1.00  0.00     0.122 C 
BRANCH  24  25
HETATM   25  C7  UNL     1      37.028 -21.426  26.134  1.00  0.00     0.021 C 
BRANCH  25  26
HETATM   26  C6  UNL     1      37.566 -20.414  27.095  1.00  0.00     0.021 C 
BRANCH  26  27
HETATM   27  C5  UNL     1      37.456 -19.010  26.580  1.00  0.00     0.122 C 
BRANCH  27  28
HETATM   28  N2  UNL     1      37.396 -18.003  27.617  1.00  0.00    -0.359 N 
HETATM   29  C4  UNL     1      37.152 -16.634  27.378  1.00  0.00     0.253 C 
HETATM   30  O1  UNL     1      36.970 -16.221  26.213  1.00  0.00    -0.271 OA
ATOM     31  H2  UNL     1      37.538 -18.302  28.582  1.00  0.00     0.162 HD
BRANCH  29  32
HETATM   32  C2  UNL     1      37.107 -15.668  28.481  1.00  0.00     0.196 C 
HETATM   33  C1  UNL     1      35.651 -15.257  28.704  1.00  0.00     0.056 C 
HETATM   34  C3  UNL     1      37.650 -16.254  29.774  1.00  0.00     0.056 C 
BRANCH  32  35
HETATM   35  N1  UNL     1      37.817 -14.436  28.157  1.00  0.00    -0.062 N 
ATOM     36  H13 UNL     1      38.529 -14.551  27.435  1.00  0.00     0.275 HD
ATOM     37  H12 UNL     1      37.248 -13.755  27.655  1.00  0.00     0.275 HD
ATOM     38  H11 UNL     1      38.184 -14.091  29.043  1.00  0.00     0.275 HD
ENDBRANCH  32  35
ENDBRANCH  29  32
ENDBRANCH  27  28
ENDBRANCH  26  27
ENDBRANCH  25  26
ENDBRANCH  24  25
ENDBRANCH  21  24
ENDBRANCH   1  20
BRANCH  11  39
HETATM   39  O3  UNL     1      47.555 -20.851  30.254  1.00  0.00    -0.395 OA
ATOM     40  H3  UNL     1      47.374 -20.293  29.507  1.00  0.00     0.210 HD
ENDBRANCH  11  39
TORSDOF 9
ENDMDL
