MODEL 1
REMARK VINA RESULT: -7.873155254      0.000      0.000
REMARK  9 active torsions:
REMARK  status: ('A' for Active; 'I' for Inactive)
REMARK    1  A    between atoms: N2_4  and  C3_6 
REMARK    2  A    between atoms: C3_6  and  C4_7 
REMARK    3  A    between atoms: C4_7  and  C5_8 
REMARK    4  A    between atoms: C5_8  and  C6_9 
REMARK    5  A    between atoms: C6_9  and  C7_10 
REMARK    6  A    between atoms: C7_10  and  C8_11 
REMARK       I    between atoms: C8_11  and  N3_13 
REMARK    7  A    between atoms: N3_13  and  C9_15 
REMARK    8  A    between atoms: C24_30  and  O2_31 
REMARK    9  A    between atoms: C25_33  and  O3_34 
ROOT
HETATM    1  C9  UNL     1      38.512 -22.688  26.230  1.00  0.00     0.088 C 
HETATM    2  C10 UNL     1      37.356 -22.717  25.276  1.00  0.00     0.026 C 
HETATM    3  C11 UNL     1      36.993 -21.318  24.809  1.00  0.00     0.002 C 
HETATM    4  C12 UNL     1      36.916 -20.463  26.074  1.00  0.00     0.005 C 
HETATM    5  C13 UNL     1      38.273 -20.186  26.573  1.00  0.00    -0.004 C 
HETATM    6  C14 UNL     1      39.167 -21.373  26.375  1.00  0.00     0.013 C 
HETATM    7  C15 UNL     1      40.185 -21.418  27.478  1.00  0.00     0.007 C 
HETATM    8  C16 UNL     1      40.996 -20.138  27.538  1.00  0.00     0.001 C 
HETATM    9  C17 UNL     1      40.240 -19.013  28.185  1.00  0.00     0.005 C 
HETATM   10  C18 UNL     1      39.568 -18.120  27.163  1.00  0.00    -0.002 C 
HETATM   11  C19 UNL     1      38.932 -18.924  26.077  1.00  0.00    -0.005 C 
HETATM   12  C20 UNL     1      38.091 -18.102  25.155  1.00  0.00     0.006 C 
HETATM   13  C21 UNL     1      37.361 -16.967  25.809  1.00  0.00     0.013 C 
HETATM   14  C22 UNL     1      38.225 -16.147  26.710  1.00  0.00    -0.008 C 
HETATM   15  C23 UNL     1      39.395 -15.519  25.983  1.00  0.00     0.018 C 
HETATM   16  C24 UNL     1      37.423 -15.052  27.324  1.00  0.00     0.159 C 
HETATM   17  C25 UNL     1      36.310 -15.506  28.208  1.00  0.00     0.170 C 
HETATM   18  C26 UNL     1      36.627 -16.758  28.926  1.00  0.00     0.003 C 
HETATM   19  C27 UNL     1      37.725 -17.474  28.749  1.00  0.00    -0.022 C 
HETATM   20  C28 UNL     1      38.743 -17.065  27.796  1.00  0.00     0.023 C 
ENDROOT
BRANCH   1  21
HETATM   21  N3  UNL     1      39.528 -23.591  25.663  1.00  0.00    -0.356 N 
HETATM   22  C8  UNL     1      39.664 -24.924  26.069  1.00  0.00     0.217 C 
HETATM   23  O1  UNL     1      38.903 -25.380  26.940  1.00  0.00    -0.274 OA
ATOM     24  H3  UNL     1      40.158 -23.231  24.947  1.00  0.00     0.162 HD
BRANCH  22  25
HETATM   25  C7  UNL     1      40.702 -25.758  25.455  1.00  0.00     0.103 C 
BRANCH  25  26
HETATM   26  C6  UNL     1      40.795 -27.165  25.909  1.00  0.00     0.009 C 
BRANCH  26  27
HETATM   27  C5  UNL     1      41.753 -27.310  27.044  1.00  0.00     0.002 C 
BRANCH  27  28
HETATM   28  C4  UNL     1      40.941 -27.757  28.258  1.00  0.00     0.020 C 
BRANCH  28  29
HETATM   29  C3  UNL     1      41.349 -26.841  29.399  1.00  0.00     0.120 C 
BRANCH  29  30
HETATM   30  N2  UNL     1      40.371 -25.817  29.624  1.00  0.00    -0.382 N 
HETATM   31  C2  UNL     1      40.652 -24.617  29.869  1.00  0.00     0.085 C 
HETATM   32  C1  UNL     1      42.031 -24.125  29.950  1.00  0.00     0.085 C 
HETATM   33  N1  UNL     1      39.579 -23.686  30.075  1.00  0.00    -0.088 NA
ATOM     34  H2  UNL     1      39.385 -26.080  29.582  1.00  0.00     0.160 HD
ENDBRANCH  29  30
ENDBRANCH  28  29
ENDBRANCH  27  28
ENDBRANCH  26  27
ENDBRANCH  25  26
ENDBRANCH  22  25
ENDBRANCH   1  21
BRANCH  16  35
HETATM   35  O2  UNL     1      36.909 -14.271  26.263  1.00  0.00    -0.392 OA
ATOM     36  H2  UNL     1      37.011 -13.360  26.513  1.00  0.00     0.210 HD
ENDBRANCH  16  35
BRANCH  17  37
HETATM   37  O3  UNL     1      36.132 -14.505  29.191  1.00  0.00    -0.389 OA
ATOM     38  H3  UNL     1      36.415 -14.877  30.018  1.00  0.00     0.210 HD
ENDBRANCH  17  37
TORSDOF 9
ENDMDL
MODEL 2
REMARK VINA RESULT: -7.732672525      1.058      1.336
REMARK  9 active torsions:
REMARK  status: ('A' for Active; 'I' for Inactive)
REMARK    1  A    between atoms: N2_4  and  C3_6 
REMARK    2  A    between atoms: C3_6  and  C4_7 
REMARK    3  A    between atoms: C4_7  and  C5_8 
REMARK    4  A    between atoms: C5_8  and  C6_9 
REMARK    5  A    between atoms: C6_9  and  C7_10 
REMARK    6  A    between atoms: C7_10  and  C8_11 
REMARK       I    between atoms: C8_11  and  N3_13 
REMARK    7  A    between atoms: N3_13  and  C9_15 
REMARK    8  A    between atoms: C24_30  and  O2_31 
REMARK    9  A    between atoms: C25_33  and  O3_34 
ROOT
HETATM    1  C9  UNL     1      38.531 -22.729  26.443  1.00  0.00     0.088 C 
HETATM    2  C10 UNL     1      37.404 -22.782  25.456  1.00  0.00     0.026 C 
HETATM    3  C11 UNL     1      37.055 -21.395  24.945  1.00  0.00     0.002 C 
HETATM    4  C12 UNL     1      36.941 -20.509  26.186  1.00  0.00     0.005 C 
HETATM    5  C13 UNL     1      38.284 -20.220  26.717  1.00  0.00    -0.004 C 
HETATM    6  C14 UNL     1      39.182 -21.411  26.575  1.00  0.00     0.013 C 
HETATM    7  C15 UNL     1      40.168 -21.428  27.709  1.00  0.00     0.007 C 
HETATM    8  C16 UNL     1      40.977 -20.147  27.761  1.00  0.00     0.001 C 
HETATM    9  C17 UNL     1      40.202 -19.007  28.358  1.00  0.00     0.005 C 
HETATM   10  C18 UNL     1      39.561 -18.140  27.295  1.00  0.00    -0.002 C 
HETATM   11  C19 UNL     1      38.957 -18.970  26.210  1.00  0.00    -0.005 C 
HETATM   12  C20 UNL     1      38.144 -18.171  25.244  1.00  0.00     0.006 C 
HETATM   13  C21 UNL     1      37.395 -17.021  25.848  1.00  0.00     0.013 C 
HETATM   14  C22 UNL     1      38.233 -16.179  26.754  1.00  0.00    -0.008 C 
HETATM   15  C23 UNL     1      39.424 -15.568  26.047  1.00  0.00     0.018 C 
HETATM   16  C24 UNL     1      37.414 -15.069  27.317  1.00  0.00     0.159 C 
HETATM   17  C25 UNL     1      36.275 -15.501  28.179  1.00  0.00     0.170 C 
HETATM   18  C26 UNL     1      36.570 -16.736  28.936  1.00  0.00     0.003 C 
HETATM   19  C27 UNL     1      37.672 -17.455  28.809  1.00  0.00    -0.022 C 
HETATM   20  C28 UNL     1      38.718 -17.070  27.877  1.00  0.00     0.023 C 
ENDROOT
BRANCH   1  21
HETATM   21  N3  UNL     1      39.564 -23.645  25.929  1.00  0.00    -0.356 N 
HETATM   22  C8  UNL     1      39.737 -24.943  26.426  1.00  0.00     0.217 C 
HETATM   23  O1  UNL     1      38.997 -25.353  27.337  1.00  0.00    -0.274 OA
ATOM     24  H3  UNL     1      40.177 -23.322  25.181  1.00  0.00     0.162 HD
BRANCH  22  25
HETATM   25  C7  UNL     1      40.789 -25.793  25.860  1.00  0.00     0.103 C 
BRANCH  25  26
HETATM   26  C6  UNL     1      41.849 -26.261  26.782  1.00  0.00     0.009 C 
BRANCH  26  27
HETATM   27  C5  UNL     1      42.438 -25.130  27.556  1.00  0.00     0.002 C 
BRANCH  27  28
HETATM   28  C4  UNL     1      42.116 -25.379  29.028  1.00  0.00     0.020 C 
BRANCH  28  29
HETATM   29  C3  UNL     1      42.813 -24.277  29.807  1.00  0.00     0.120 C 
BRANCH  29  30
HETATM   30  N2  UNL     1      41.867 -23.381  30.405  1.00  0.00    -0.382 N 
HETATM   31  C2  UNL     1      42.091 -22.163  30.623  1.00  0.00     0.085 C 
HETATM   32  C1  UNL     1      43.363 -21.517  30.281  1.00  0.00     0.085 C 
HETATM   33  N1  UNL     1      41.060 -21.370  31.228  1.00  0.00    -0.088 NA
ATOM     34  H2  UNL     1      40.956 -23.754  30.670  1.00  0.00     0.160 HD
ENDBRANCH  29  30
ENDBRANCH  28  29
ENDBRANCH  27  28
ENDBRANCH  26  27
ENDBRANCH  25  26
ENDBRANCH  22  25
ENDBRANCH   1  21
BRANCH  16  35
HETATM   35  O2  UNL     1      36.931 -14.314  26.223  1.00  0.00    -0.392 OA
ATOM     36  H2  UNL     1      36.537 -13.527  26.580  1.00  0.00     0.210 HD
ENDBRANCH  16  35
BRANCH  17  37
HETATM   37  O3  UNL     1      36.068 -14.477  29.131  1.00  0.00    -0.389 OA
ATOM     38  H3  UNL     1      35.225 -14.643  29.537  1.00  0.00     0.210 HD
ENDBRANCH  17  37
TORSDOF 9
ENDMDL
MODEL 3
REMARK VINA RESULT: -7.713577619      2.003      3.601
REMARK  9 active torsions:
REMARK  status: ('A' for Active; 'I' for Inactive)
REMARK    1  A    between atoms: N2_4  and  C3_6 
REMARK    2  A    between atoms: C3_6  and  C4_7 
REMARK    3  A    between atoms: C4_7  and  C5_8 
REMARK    4  A    between atoms: C5_8  and  C6_9 
REMARK    5  A    between atoms: C6_9  and  C7_10 
REMARK    6  A    between atoms: C7_10  and  C8_11 
REMARK       I    between atoms: C8_11  and  N3_13 
REMARK    7  A    between atoms: N3_13  and  C9_15 
REMARK    8  A    between atoms: C24_30  and  O2_31 
REMARK    9  A    between atoms: C25_33  and  O3_34 
ROOT
HETATM    1  C9  UNL     1      38.098 -22.631  26.217  1.00  0.00     0.088 C 
HETATM    2  C10 UNL     1      37.147 -22.500  25.066  1.00  0.00     0.026 C 
HETATM    3  C11 UNL     1      37.010 -21.053  24.626  1.00  0.00     0.002 C 
HETATM    4  C12 UNL     1      36.775 -20.249  25.905  1.00  0.00     0.005 C 
HETATM    5  C13 UNL     1      38.033 -20.135  26.661  1.00  0.00    -0.004 C 
HETATM    6  C14 UNL     1      38.833 -21.398  26.560  1.00  0.00     0.013 C 
HETATM    7  C15 UNL     1      39.615 -21.594  27.828  1.00  0.00     0.007 C 
HETATM    8  C16 UNL     1      40.515 -20.408  28.114  1.00  0.00     0.001 C 
HETATM    9  C17 UNL     1      39.758 -19.240  28.678  1.00  0.00     0.005 C 
HETATM   10  C18 UNL     1      39.378 -18.240  27.606  1.00  0.00    -0.002 C 
HETATM   11  C19 UNL     1      38.888 -18.927  26.374  1.00  0.00    -0.005 C 
HETATM   12  C20 UNL     1      38.318 -17.985  25.363  1.00  0.00     0.006 C 
HETATM   13  C21 UNL     1      37.586 -16.809  25.940  1.00  0.00     0.013 C 
HETATM   14  C22 UNL     1      38.336 -16.122  27.033  1.00  0.00    -0.008 C 
HETATM   15  C23 UNL     1      39.676 -15.588  26.575  1.00  0.00     0.018 C 
HETATM   16  C24 UNL     1      37.538 -14.976  27.554  1.00  0.00     0.159 C 
HETATM   17  C25 UNL     1      36.240 -15.350  28.188  1.00  0.00     0.170 C 
HETATM   18  C26 UNL     1      36.296 -16.658  28.874  1.00  0.00     0.003 C 
HETATM   19  C27 UNL     1      37.337 -17.475  28.860  1.00  0.00    -0.022 C 
HETATM   20  C28 UNL     1      38.550 -17.133  28.138  1.00  0.00     0.023 C 
ENDROOT
BRANCH   1  21
HETATM   21  N3  UNL     1      39.115 -23.609  25.794  1.00  0.00    -0.356 N 
HETATM   22  C8  UNL     1      38.890 -24.991  25.820  1.00  0.00     0.217 C 
HETATM   23  O1  UNL     1      37.793 -25.426  26.212  1.00  0.00    -0.274 OA
ATOM     24  H3  UNL     1      40.018 -23.266  25.469  1.00  0.00     0.162 HD
BRANCH  22  25
HETATM   25  C7  UNL     1      39.955 -25.899  25.382  1.00  0.00     0.103 C 
BRANCH  25  26
HETATM   26  C6  UNL     1      39.610 -26.896  24.343  1.00  0.00     0.009 C 
BRANCH  26  27
HETATM   27  C5  UNL     1      39.381 -26.248  23.019  1.00  0.00     0.002 C 
BRANCH  27  28
HETATM   28  C4  UNL     1      38.028 -26.742  22.508  1.00  0.00     0.020 C 
BRANCH  28  29
HETATM   29  C3  UNL     1      37.092 -25.547  22.570  1.00  0.00     0.120 C 
BRANCH  29  30
HETATM   30  N2  UNL     1      36.087 -25.721  23.578  1.00  0.00    -0.382 N 
HETATM   31  C2  UNL     1      35.000 -25.090  23.605  1.00  0.00     0.085 C 
HETATM   32  C1  UNL     1      34.635 -24.095  22.591  1.00  0.00     0.085 C 
HETATM   33  N1  UNL     1      34.075 -25.357  24.669  1.00  0.00    -0.088 NA
ATOM     34  H2  UNL     1      36.266 -26.399  24.319  1.00  0.00     0.160 HD
ENDBRANCH  29  30
ENDBRANCH  28  29
ENDBRANCH  27  28
ENDBRANCH  26  27
ENDBRANCH  25  26
ENDBRANCH  22  25
ENDBRANCH   1  21
BRANCH  16  35
HETATM   35  O2  UNL     1      37.309 -14.103  26.466  1.00  0.00    -0.392 OA
ATOM     36  H2  UNL     1      36.644 -14.507  25.920  1.00  0.00     0.210 HD
ENDBRANCH  16  35
BRANCH  17  37
HETATM   37  O3  UNL     1      35.972 -14.379  29.180  1.00  0.00    -0.389 OA
ATOM     38  H3  UNL     1      36.707 -14.390  29.782  1.00  0.00     0.210 HD
ENDBRANCH  17  37
TORSDOF 9
ENDMDL
MODEL 4
REMARK VINA RESULT: -7.646786314      2.037      3.352
REMARK  9 active torsions:
REMARK  status: ('A' for Active; 'I' for Inactive)
REMARK    1  A    between atoms: N2_4  and  C3_6 
REMARK    2  A    between atoms: C3_6  and  C4_7 
REMARK    3  A    between atoms: C4_7  and  C5_8 
REMARK    4  A    between atoms: C5_8  and  C6_9 
REMARK    5  A    between atoms: C6_9  and  C7_10 
REMARK    6  A    between atoms: C7_10  and  C8_11 
REMARK       I    between atoms: C8_11  and  N3_13 
REMARK    7  A    between atoms: N3_13  and  C9_15 
REMARK    8  A    between atoms: C24_30  and  O2_31 
REMARK    9  A    between atoms: C25_33  and  O3_34 
ROOT
HETATM    1  C9  UNL     1      38.344 -22.950  26.217  1.00  0.00     0.088 C 
HETATM    2  C10 UNL     1      37.120 -22.951  25.352  1.00  0.00     0.026 C 
HETATM    3  C11 UNL     1      36.771 -21.547  24.890  1.00  0.00     0.002 C 
HETATM    4  C12 UNL     1      36.818 -20.671  26.142  1.00  0.00     0.005 C 
HETATM    5  C13 UNL     1      38.218 -20.436  26.534  1.00  0.00    -0.004 C 
HETATM    6  C14 UNL     1      39.053 -21.657  26.291  1.00  0.00     0.013 C 
HETATM    7  C15 UNL     1      40.149 -21.722  27.316  1.00  0.00     0.007 C 
HETATM    8  C16 UNL     1      41.005 -20.471  27.294  1.00  0.00     0.001 C 
HETATM    9  C17 UNL     1      40.339 -19.311  27.976  1.00  0.00     0.005 C 
HETATM   10  C18 UNL     1      39.623 -18.410  26.992  1.00  0.00    -0.002 C 
HETATM   11  C19 UNL     1      38.881 -19.205  25.970  1.00  0.00    -0.005 C 
HETATM   12  C20 UNL     1      38.003 -18.367  25.098  1.00  0.00     0.006 C 
HETATM   13  C21 UNL     1      37.362 -17.198  25.785  1.00  0.00     0.013 C 
HETATM   14  C22 UNL     1      38.319 -16.397  26.605  1.00  0.00    -0.008 C 
HETATM   15  C23 UNL     1      39.453 -15.821  25.784  1.00  0.00     0.018 C 
HETATM   16  C24 UNL     1      37.604 -15.264  27.259  1.00  0.00     0.159 C 
HETATM   17  C25 UNL     1      36.545 -15.665  28.230  1.00  0.00     0.170 C 
HETATM   18  C26 UNL     1      36.871 -16.918  28.944  1.00  0.00     0.003 C 
HETATM   19  C27 UNL     1      37.928 -17.675  28.698  1.00  0.00    -0.022 C 
HETATM   20  C28 UNL     1      38.885 -17.317  27.666  1.00  0.00     0.023 C 
ENDROOT
BRANCH   1  21
HETATM   21  N3  UNL     1      39.283 -23.896  25.592  1.00  0.00    -0.356 N 
HETATM   22  C8  UNL     1      39.710 -25.068  26.230  1.00  0.00     0.217 C 
HETATM   23  O1  UNL     1      39.288 -25.335  27.368  1.00  0.00    -0.274 OA
ATOM     24  H3  UNL     1      39.637 -23.690  24.659  1.00  0.00     0.162 HD
BRANCH  22  25
HETATM   25  C7  UNL     1      40.648 -25.959  25.539  1.00  0.00     0.103 C 
BRANCH  25  26
HETATM   26  C6  UNL     1      40.548 -26.032  24.063  1.00  0.00     0.009 C 
BRANCH  26  27
HETATM   27  C5  UNL     1      39.765 -27.225  23.628  1.00  0.00     0.002 C 
BRANCH  27  28
HETATM   28  C4  UNL     1      38.387 -26.723  23.200  1.00  0.00     0.020 C 
BRANCH  28  29
HETATM   29  C3  UNL     1      37.408 -27.233  24.243  1.00  0.00     0.120 C 
BRANCH  29  30
HETATM   30  N2  UNL     1      36.365 -26.282  24.492  1.00  0.00    -0.382 N 
HETATM   31  C2  UNL     1      35.200 -26.375  24.028  1.00  0.00     0.085 C 
HETATM   32  C1  UNL     1      34.776 -27.486  23.169  1.00  0.00     0.085 C 
HETATM   33  N1  UNL     1      34.245 -25.355  24.353  1.00  0.00    -0.088 NA
ATOM     34  H2  UNL     1      36.581 -25.479  25.084  1.00  0.00     0.160 HD
ENDBRANCH  29  30
ENDBRANCH  28  29
ENDBRANCH  27  28
ENDBRANCH  26  27
ENDBRANCH  25  26
ENDBRANCH  22  25
ENDBRANCH   1  21
BRANCH  16  35
HETATM   35  O2  UNL     1      37.039 -14.481  26.226  1.00  0.00    -0.392 OA
ATOM     36  H2  UNL     1      36.899 -13.611  26.581  1.00  0.00     0.210 HD
ENDBRANCH  16  35
BRANCH  17  37
HETATM   37  O3  UNL     1      36.475 -14.645  29.207  1.00  0.00    -0.389 OA
ATOM     38  H3  UNL     1      35.611 -14.256  29.138  1.00  0.00     0.210 HD
ENDBRANCH  17  37
TORSDOF 9
ENDMDL
MODEL 5
REMARK VINA RESULT: -7.628133258      0.977      1.104
REMARK  9 active torsions:
REMARK  status: ('A' for Active; 'I' for Inactive)
REMARK    1  A    between atoms: N2_4  and  C3_6 
REMARK    2  A    between atoms: C3_6  and  C4_7 
REMARK    3  A    between atoms: C4_7  and  C5_8 
REMARK    4  A    between atoms: C5_8  and  C6_9 
REMARK    5  A    between atoms: C6_9  and  C7_10 
REMARK    6  A    between atoms: C7_10  and  C8_11 
REMARK       I    between atoms: C8_11  and  N3_13 
REMARK    7  A    between atoms: N3_13  and  C9_15 
REMARK    8  A    between atoms: C24_30  and  O2_31 
REMARK    9  A    between atoms: C25_33  and  O3_34 
ROOT
HETATM    1  C9  UNL     1      37.646 -23.161  25.645  1.00  0.00     0.088 C 
HETATM    2  C10 UNL     1      36.353 -23.021  24.901  1.00  0.00     0.026 C 
HETATM    3  C11 UNL     1      36.106 -21.578  24.495  1.00  0.00     0.002 C 
HETATM    4  C12 UNL     1      36.357 -20.743  25.750  1.00  0.00     0.005 C 
HETATM    5  C13 UNL     1      37.803 -20.656  26.011  1.00  0.00    -0.004 C 
HETATM    6  C14 UNL     1      38.485 -21.947  25.671  1.00  0.00     0.013 C 
HETATM    7  C15 UNL     1      39.660 -22.144  26.586  1.00  0.00     0.007 C 
HETATM    8  C16 UNL     1      40.631 -20.983  26.502  1.00  0.00     0.001 C 
HETATM    9  C17 UNL     1      40.151 -19.780  27.262  1.00  0.00     0.005 C 
HETATM   10  C18 UNL     1      39.441 -18.789  26.363  1.00  0.00    -0.002 C 
HETATM   11  C19 UNL     1      38.531 -19.483  25.404  1.00  0.00    -0.005 C 
HETATM   12  C20 UNL     1      37.664 -18.541  24.633  1.00  0.00     0.006 C 
HETATM   13  C21 UNL     1      37.211 -17.332  25.395  1.00  0.00     0.013 C 
HETATM   14  C22 UNL     1      38.315 -16.649  26.132  1.00  0.00    -0.008 C 
HETATM   15  C23 UNL     1      39.420 -16.168  25.216  1.00  0.00     0.018 C 
HETATM   16  C24 UNL     1      37.781 -15.468  26.868  1.00  0.00     0.159 C 
HETATM   17  C25 UNL     1      36.782 -15.786  27.929  1.00  0.00     0.170 C 
HETATM   18  C26 UNL     1      37.046 -17.082  28.590  1.00  0.00     0.003 C 
HETATM   19  C27 UNL     1      37.994 -17.933  28.234  1.00  0.00    -0.022 C 
HETATM   20  C28 UNL     1      38.882 -17.646  27.121  1.00  0.00     0.023 C 
ENDROOT
BRANCH   1  21
HETATM   21  N3  UNL     1      38.424 -24.180  24.920  1.00  0.00    -0.356 N 
HETATM   22  C8  UNL     1      38.458 -25.524  25.312  1.00  0.00     0.217 C 
HETATM   23  O1  UNL     1      37.811 -25.888  26.309  1.00  0.00    -0.274 OA
ATOM     24  H3  UNL     1      38.959 -23.895  24.100  1.00  0.00     0.162 HD
BRANCH  22  25
HETATM   25  C7  UNL     1      39.258 -26.477  24.535  1.00  0.00     0.103 C 
BRANCH  25  26
HETATM   26  C6  UNL     1      40.717 -26.498  24.788  1.00  0.00     0.009 C 
BRANCH  26  27
HETATM   27  C5  UNL     1      41.037 -27.166  26.083  1.00  0.00     0.002 C 
BRANCH  27  28
HETATM   28  C4  UNL     1      41.446 -26.067  27.063  1.00  0.00     0.020 C 
BRANCH  28  29
HETATM   29  C3  UNL     1      40.620 -26.291  28.318  1.00  0.00     0.120 C 
BRANCH  29  30
HETATM   30  N2  UNL     1      39.964 -25.086  28.734  1.00  0.00    -0.382 N 
HETATM   31  C2  UNL     1      40.390 -24.330  29.644  1.00  0.00     0.085 C 
HETATM   32  C1  UNL     1      41.624 -24.602  30.388  1.00  0.00     0.085 C 
HETATM   33  N1  UNL     1      39.640 -23.150  29.967  1.00  0.00    -0.088 NA
ATOM     34  H2  UNL     1      39.097 -24.825  28.262  1.00  0.00     0.160 HD
ENDBRANCH  29  30
ENDBRANCH  28  29
ENDBRANCH  27  28
ENDBRANCH  26  27
ENDBRANCH  25  26
ENDBRANCH  22  25
ENDBRANCH   1  21
BRANCH  16  35
HETATM   35  O2  UNL     1      37.204 -14.608  25.905  1.00  0.00    -0.392 OA
ATOM     36  H2  UNL     1      36.438 -15.052  25.560  1.00  0.00     0.210 HD
ENDBRANCH  16  35
BRANCH  17  37
HETATM   37  O3  UNL     1      36.906 -14.789  28.923  1.00  0.00    -0.389 OA
ATOM     38  H3  UNL     1      36.794 -13.951  28.489  1.00  0.00     0.210 HD
ENDBRANCH  17  37
TORSDOF 9
ENDMDL
