MODEL 1
REMARK VINA RESULT: -8.177283141      0.000      0.000
REMARK  9 active torsions:
REMARK  status: ('A' for Active; 'I' for Inactive)
REMARK    1  A    between atoms: C3_3  and  O1_4 
REMARK    2  A    between atoms: C14_16  and  O2_17 
REMARK    3  A    between atoms: C18_22  and  C19_23 
REMARK    4  A    between atoms: C20_24  and  C21_25 
REMARK    5  A    between atoms: C21_25  and  C22_26 
REMARK    6  A    between atoms: C22_26  and  N1_27 
REMARK    7  A    between atoms: N1_27  and  C23_30 
REMARK    8  A    between atoms: C23_30  and  C24_31 
REMARK    9  A    between atoms: C24_31  and  C25_32 
ROOT
HETATM    1  C1  UNL     1      43.340 -28.388  28.478  1.00  0.00     0.100 C 
HETATM    2  C2  UNL     1      42.237 -27.870  28.561  1.00  0.00    -0.150 C 
HETATM    3  C3  UNL     1      40.907 -27.274  28.673  1.00  0.00     0.112 C 
HETATM    4  C4  UNL     1      40.556 -26.561  27.368  1.00  0.00     0.052 C 
HETATM    5  C5  UNL     1      41.654 -25.546  27.168  1.00  0.00     0.018 C 
HETATM    6  C6  UNL     1      41.630 -24.478  28.203  1.00  0.00    -0.017 C 
HETATM    7  C7  UNL     1      43.091 -24.156  28.587  1.00  0.00     0.020 C 
HETATM    8  C8  UNL     1      40.964 -24.897  29.437  1.00  0.00    -0.071 C 
HETATM    9  C9  UNL     1      40.539 -23.926  30.264  1.00  0.00    -0.023 C 
HETATM   10  C10 UNL     1      40.706 -22.489  30.002  1.00  0.00     0.033 C 
HETATM   11  C11 UNL     1      40.808 -22.107  28.556  1.00  0.00    -0.000 C 
HETATM   12  C12 UNL     1      41.091 -23.200  27.601  1.00  0.00     0.005 C 
HETATM   13  C13 UNL     1      39.894 -23.383  26.720  1.00  0.00     0.039 C 
HETATM   14  C14 UNL     1      39.846 -22.106  25.861  1.00  0.00     0.140 C 
HETATM   15  C15 UNL     1      39.371 -21.018  26.779  1.00  0.00     0.059 C 
HETATM   16  C16 UNL     1      37.935 -20.832  26.499  1.00  0.00    -0.103 C 
HETATM   17  C17 UNL     1      36.756 -20.705  26.275  1.00  0.00     0.013 C 
HETATM   18  C18 UNL     1      40.080 -19.698  26.500  1.00  0.00     0.031 C 
HETATM   19  C26 UNL     1      40.478 -19.132  27.841  1.00  0.00     0.011 C 
HETATM   20  C27 UNL     1      39.721 -19.939  28.838  1.00  0.00     0.007 C 
HETATM   21  C28 UNL     1      39.565 -21.309  28.221  1.00  0.00     0.014 C 
HETATM   22  C29 UNL     1      40.780 -26.312  29.798  1.00  0.00     0.085 C 
ENDROOT
BRANCH   3  23
HETATM   23  O1  UNL     1      40.030 -28.355  28.889  1.00  0.00    -0.378 OA
ATOM     24  H1  UNL     1      39.720 -28.254  29.781  1.00  0.00     0.211 HD
ENDBRANCH   3  23
BRANCH  14  25
HETATM   25  O2  UNL     1      39.089 -22.275  24.735  1.00  0.00    -0.394 OA
ATOM     26  H2  UNL     1      38.325 -21.709  24.731  1.00  0.00     0.210 HD
ENDBRANCH  14  25
BRANCH  18  27
HETATM   27  C19 UNL     1      39.194 -18.716  25.828  1.00  0.00    -0.024 C 
HETATM   28  C20 UNL     1      39.434 -17.413  25.851  1.00  0.00    -0.029 C 
BRANCH  28  29
HETATM   29  C21 UNL     1      38.594 -16.391  25.204  1.00  0.00     0.054 C 
BRANCH  29  30
HETATM   30  C22 UNL     1      37.405 -15.968  26.000  1.00  0.00     0.236 C 
BRANCH  30  31
HETATM   31  N1  UNL     1      37.629 -14.698  26.687  1.00  0.00    -0.074 N 
ATOM     32  H12 UNL     1      38.444 -14.214  26.308  1.00  0.00     0.277 HD
ATOM     33  H11 UNL     1      36.908 -14.017  26.446  1.00  0.00     0.277 HD
BRANCH  31  34
HETATM   34  C23 UNL     1      37.738 -14.856  28.113  1.00  0.00     0.242 C 
BRANCH  34  35
HETATM   35  C24 UNL     1      36.608 -15.800  28.520  1.00  0.00     0.140 C 
BRANCH  35  36
HETATM   36  C25 UNL     1      35.454 -14.987  28.968  1.00  0.00     0.174 C 
HETATM   37  O3  UNL     1      35.473 -13.754  28.756  1.00  0.00    -0.648 OA
HETATM   38  O4  UNL     1      34.405 -15.606  29.597  1.00  0.00    -0.648 OA
ENDBRANCH  35  36
ENDBRANCH  34  35
ENDBRANCH  31  34
ENDBRANCH  30  31
ENDBRANCH  29  30
ENDBRANCH  28  29
ENDBRANCH  18  27
TORSDOF 9
ENDMDL
MODEL 2
REMARK VINA RESULT: -8.130906568      3.677      5.244
REMARK  9 active torsions:
REMARK  status: ('A' for Active; 'I' for Inactive)
REMARK    1  A    between atoms: C3_3  and  O1_4 
REMARK    2  A    between atoms: C14_16  and  O2_17 
REMARK    3  A    between atoms: C18_22  and  C19_23 
REMARK    4  A    between atoms: C20_24  and  C21_25 
REMARK    5  A    between atoms: C21_25  and  C22_26 
REMARK    6  A    between atoms: C22_26  and  N1_27 
REMARK    7  A    between atoms: N1_27  and  C23_30 
REMARK    8  A    between atoms: C23_30  and  C24_31 
REMARK    9  A    between atoms: C24_31  and  C25_32 
ROOT
HETATM    1  C1  UNL     1      35.207 -28.113  23.789  1.00  0.00     0.100 C 
HETATM    2  C2  UNL     1      36.220 -27.433  23.733  1.00  0.00    -0.150 C 
HETATM    3  C3  UNL     1      37.446 -26.641  23.653  1.00  0.00     0.112 C 
HETATM    4  C4  UNL     1      37.638 -25.865  24.956  1.00  0.00     0.052 C 
HETATM    5  C5  UNL     1      36.391 -25.028  25.100  1.00  0.00     0.018 C 
HETATM    6  C6  UNL     1      36.287 -23.983  24.048  1.00  0.00    -0.017 C 
HETATM    7  C7  UNL     1      34.809 -23.894  23.610  1.00  0.00     0.020 C 
HETATM    8  C8  UNL     1      37.053 -24.311  22.844  1.00  0.00    -0.071 C 
HETATM    9  C9  UNL     1      37.353 -23.297  22.013  1.00  0.00    -0.023 C 
HETATM   10  C10 UNL     1      36.959 -21.899  22.244  1.00  0.00     0.033 C 
HETATM   11  C11 UNL     1      36.749 -21.519  23.678  1.00  0.00    -0.000 C 
HETATM   12  C12 UNL     1      36.603 -22.630  24.644  1.00  0.00     0.005 C 
HETATM   13  C13 UNL     1      37.783 -22.615  25.566  1.00  0.00     0.039 C 
HETATM   14  C14 UNL     1      37.604 -21.335  26.403  1.00  0.00     0.140 C 
HETATM   15  C15 UNL     1      37.939 -20.199  25.481  1.00  0.00     0.059 C 
HETATM   16  C16 UNL     1      39.319 -19.791  25.805  1.00  0.00    -0.103 C 
HETATM   17  C17 UNL     1      40.456 -19.481  26.064  1.00  0.00     0.013 C 
HETATM   18  C18 UNL     1      37.027 -19.000  25.712  1.00  0.00     0.031 C 
HETATM   19  C26 UNL     1      36.594 -18.519  24.349  1.00  0.00     0.011 C 
HETATM   20  C27 UNL     1      37.501 -19.214  23.392  1.00  0.00     0.007 C 
HETATM   21  C28 UNL     1      37.842 -20.535  24.039  1.00  0.00     0.014 C 
HETATM   22  C29 UNL     1      37.464 -25.685  22.515  1.00  0.00     0.085 C 
ENDROOT
BRANCH   3  23
HETATM   23  O1  UNL     1      38.486 -27.577  23.486  1.00  0.00    -0.378 OA
ATOM     24  H1  UNL     1      38.553 -28.030  24.318  1.00  0.00     0.211 HD
ENDBRANCH   3  23
BRANCH  14  25
HETATM   25  O2  UNL     1      38.338 -21.370  27.556  1.00  0.00    -0.394 OA
ATOM     26  H2  UNL     1      38.776 -20.544  27.725  1.00  0.00     0.210 HD
ENDBRANCH  14  25
BRANCH  18  27
HETATM   27  C19 UNL     1      37.728 -17.884  26.394  1.00  0.00    -0.024 C 
HETATM   28  C20 UNL     1      37.574 -17.635  27.687  1.00  0.00    -0.029 C 
BRANCH  28  29
HETATM   29  C21 UNL     1      38.240 -16.546  28.419  1.00  0.00     0.054 C 
BRANCH  29  30
HETATM   30  C22 UNL     1      38.436 -15.294  27.631  1.00  0.00     0.236 C 
BRANCH  30  31
HETATM   31  N1  UNL     1      37.636 -14.188  28.152  1.00  0.00    -0.074 N 
ATOM     32  H12 UNL     1      37.543 -14.247  29.166  1.00  0.00     0.277 HD
ATOM     33  H11 UNL     1      38.142 -13.305  28.085  1.00  0.00     0.277 HD
BRANCH  31  34
HETATM   34  C23 UNL     1      36.347 -14.097  27.519  1.00  0.00     0.242 C 
BRANCH  34  35
HETATM   35  C24 UNL     1      35.428 -13.414  28.530  1.00  0.00     0.140 C 
BRANCH  35  36
HETATM   36  C25 UNL     1      34.660 -14.457  29.248  1.00  0.00     0.174 C 
HETATM   37  O3  UNL     1      35.048 -15.644  29.169  1.00  0.00    -0.648 OA
HETATM   38  O4  UNL     1      33.556 -14.094  29.972  1.00  0.00    -0.648 OA
ENDBRANCH  35  36
ENDBRANCH  34  35
ENDBRANCH  31  34
ENDBRANCH  30  31
ENDBRANCH  29  30
ENDBRANCH  28  29
ENDBRANCH  18  27
TORSDOF 9
ENDMDL
MODEL 3
REMARK VINA RESULT: -7.613406007      2.345      2.870
REMARK  9 active torsions:
REMARK  status: ('A' for Active; 'I' for Inactive)
REMARK    1  A    between atoms: C3_3  and  O1_4 
REMARK    2  A    between atoms: C14_16  and  O2_17 
REMARK    3  A    between atoms: C18_22  and  C19_23 
REMARK    4  A    between atoms: C20_24  and  C21_25 
REMARK    5  A    between atoms: C21_25  and  C22_26 
REMARK    6  A    between atoms: C22_26  and  N1_27 
REMARK    7  A    between atoms: N1_27  and  C23_30 
REMARK    8  A    between atoms: C23_30  and  C24_31 
REMARK    9  A    between atoms: C24_31  and  C25_32 
ROOT
HETATM    1  C1  UNL     1      43.681 -28.429  28.580  1.00  0.00     0.100 C 
HETATM    2  C2  UNL     1      42.558 -27.962  28.683  1.00  0.00    -0.150 C 
HETATM    3  C3  UNL     1      41.205 -27.426  28.822  1.00  0.00     0.112 C 
HETATM    4  C4  UNL     1      40.773 -26.784  27.504  1.00  0.00     0.052 C 
HETATM    5  C5  UNL     1      41.812 -25.727  27.225  1.00  0.00     0.018 C 
HETATM    6  C6  UNL     1      41.771 -24.620  28.217  1.00  0.00    -0.017 C 
HETATM    7  C7  UNL     1      43.227 -24.213  28.534  1.00  0.00     0.020 C 
HETATM    8  C8  UNL     1      41.171 -25.020  29.491  1.00  0.00    -0.071 C 
HETATM    9  C9  UNL     1      40.727 -24.038  30.295  1.00  0.00    -0.023 C 
HETATM   10  C10 UNL     1      40.813 -22.606  29.971  1.00  0.00     0.033 C 
HETATM   11  C11 UNL     1      40.846 -22.279  28.509  1.00  0.00    -0.000 C 
HETATM   12  C12 UNL     1      41.149 -23.395  27.586  1.00  0.00     0.005 C 
HETATM   13  C13 UNL     1      39.932 -23.671  26.759  1.00  0.00     0.039 C 
HETATM   14  C14 UNL     1      39.791 -22.433  25.853  1.00  0.00     0.140 C 
HETATM   15  C15 UNL     1      39.295 -21.333  26.745  1.00  0.00     0.059 C 
HETATM   16  C16 UNL     1      37.843 -21.228  26.511  1.00  0.00    -0.103 C 
HETATM   17  C17 UNL     1      36.652 -21.167  26.327  1.00  0.00     0.013 C 
HETATM   18  C18 UNL     1      39.928 -19.993  26.390  1.00  0.00     0.031 C 
HETATM   19  C26 UNL     1      40.344 -19.354  27.692  1.00  0.00     0.011 C 
HETATM   20  C27 UNL     1      39.663 -20.156  28.747  1.00  0.00     0.007 C 
HETATM   21  C28 UNL     1      39.554 -21.556  28.189  1.00  0.00     0.014 C 
HETATM   22  C29 UNL     1      41.069 -26.427  29.913  1.00  0.00     0.085 C 
ENDROOT
BRANCH   3  23
HETATM   23  O1  UNL     1      40.390 -28.539  29.112  1.00  0.00    -0.378 OA
ATOM     24  H1  UNL     1      40.930 -29.116  29.638  1.00  0.00     0.211 HD
ENDBRANCH   3  23
BRANCH  14  25
HETATM   25  O2  UNL     1      39.004 -22.684  24.763  1.00  0.00    -0.394 OA
ATOM     26  H2  UNL     1      38.807 -21.892  24.276  1.00  0.00     0.210 HD
ENDBRANCH  14  25
BRANCH  18  27
HETATM   27  C19 UNL     1      38.971 -19.082  25.713  1.00  0.00    -0.024 C 
HETATM   28  C20 UNL     1      38.554 -17.953  26.268  1.00  0.00    -0.029 C 
BRANCH  28  29
HETATM   29  C21 UNL     1      37.608 -17.011  25.648  1.00  0.00     0.054 C 
BRANCH  29  30
HETATM   30  C22 UNL     1      38.070 -15.592  25.621  1.00  0.00     0.236 C 
BRANCH  30  31
HETATM   31  N1  UNL     1      38.576 -15.205  24.306  1.00  0.00    -0.074 N 
ATOM     32  H12 UNL     1      38.156 -15.772  23.569  1.00  0.00     0.277 HD
ATOM     33  H11 UNL     1      38.220 -14.290  24.030  1.00  0.00     0.277 HD
BRANCH  31  34
HETATM   34  C23 UNL     1      40.012 -15.246  24.235  1.00  0.00     0.242 C 
BRANCH  34  35
HETATM   35  C24 UNL     1      40.352 -16.227  23.114  1.00  0.00     0.140 C 
BRANCH  35  36
HETATM   36  C25 UNL     1      39.186 -16.327  22.207  1.00  0.00     0.174 C 
HETATM   37  O3  UNL     1      38.940 -15.368  21.442  1.00  0.00    -0.648 OA
HETATM   38  O4  UNL     1      38.416 -17.460  22.232  1.00  0.00    -0.648 OA
ENDBRANCH  35  36
ENDBRANCH  34  35
ENDBRANCH  31  34
ENDBRANCH  30  31
ENDBRANCH  29  30
ENDBRANCH  28  29
ENDBRANCH  18  27
TORSDOF 9
ENDMDL
MODEL 4
REMARK VINA RESULT: -7.553493760      3.965      5.536
REMARK  9 active torsions:
REMARK  status: ('A' for Active; 'I' for Inactive)
REMARK    1  A    between atoms: C3_3  and  O1_4 
REMARK    2  A    between atoms: C14_16  and  O2_17 
REMARK    3  A    between atoms: C18_22  and  C19_23 
REMARK    4  A    between atoms: C20_24  and  C21_25 
REMARK    5  A    between atoms: C21_25  and  C22_26 
REMARK    6  A    between atoms: C22_26  and  N1_27 
REMARK    7  A    between atoms: N1_27  and  C23_30 
REMARK    8  A    between atoms: C23_30  and  C24_31 
REMARK    9  A    between atoms: C24_31  and  C25_32 
ROOT
HETATM    1  C1  UNL     1      34.833 -27.982  23.640  1.00  0.00     0.100 C 
HETATM    2  C2  UNL     1      35.876 -27.350  23.604  1.00  0.00    -0.150 C 
HETATM    3  C3  UNL     1      37.139 -26.615  23.550  1.00  0.00     0.112 C 
HETATM    4  C4  UNL     1      37.303 -25.788  24.825  1.00  0.00     0.052 C 
HETATM    5  C5  UNL     1      36.089 -24.893  24.871  1.00  0.00     0.018 C 
HETATM    6  C6  UNL     1      36.083 -23.895  23.769  1.00  0.00    -0.017 C 
HETATM    7  C7  UNL     1      34.633 -23.763  23.255  1.00  0.00     0.020 C 
HETATM    8  C8  UNL     1      36.889 -24.310  22.620  1.00  0.00    -0.071 C 
HETATM    9  C9  UNL     1      37.274 -23.350  21.761  1.00  0.00    -0.023 C 
HETATM   10  C10 UNL     1      36.933 -21.927  21.910  1.00  0.00     0.033 C 
HETATM   11  C11 UNL     1      36.671 -21.473  23.313  1.00  0.00    -0.000 C 
HETATM   12  C12 UNL     1      36.430 -22.530  24.319  1.00  0.00     0.005 C 
HETATM   13  C13 UNL     1      37.564 -22.523  25.297  1.00  0.00     0.039 C 
HETATM   14  C14 UNL     1      37.403 -21.198  26.067  1.00  0.00     0.140 C 
HETATM   15  C15 UNL     1      37.832 -20.122  25.113  1.00  0.00     0.059 C 
HETATM   16  C16 UNL     1      39.211 -19.758  25.487  1.00  0.00    -0.103 C 
HETATM   17  C17 UNL     1      40.347 -19.485  25.788  1.00  0.00     0.013 C 
HETATM   18  C18 UNL     1      36.964 -18.875  25.245  1.00  0.00     0.031 C 
HETATM   19  C26 UNL     1      36.619 -18.440  23.842  1.00  0.00     0.011 C 
HETATM   20  C27 UNL     1      37.538 -19.217  22.963  1.00  0.00     0.007 C 
HETATM   21  C28 UNL     1      37.789 -20.520  23.685  1.00  0.00     0.014 C 
HETATM   22  C29 UNL     1      37.254 -25.715  22.373  1.00  0.00     0.085 C 
ENDROOT
BRANCH   3  23
HETATM   23  O1  UNL     1      38.143 -27.601  23.477  1.00  0.00    -0.378 OA
ATOM     24  H1  UNL     1      38.909 -27.156  23.137  1.00  0.00     0.211 HD
ENDBRANCH   3  23
BRANCH  14  25
HETATM   25  O2  UNL     1      38.079 -21.211  27.256  1.00  0.00    -0.394 OA
ATOM     26  H2  UNL     1      37.491 -21.153  28.000  1.00  0.00     0.210 HD
ENDBRANCH  14  25
BRANCH  18  27
HETATM   27  C19 UNL     1      37.681 -17.760  25.911  1.00  0.00    -0.024 C 
HETATM   28  C20 UNL     1      37.441 -16.489  25.622  1.00  0.00    -0.029 C 
BRANCH  28  29
HETATM   29  C21 UNL     1      38.117 -15.342  26.247  1.00  0.00     0.054 C 
BRANCH  29  30
HETATM   30  C22 UNL     1      37.231 -14.470  27.074  1.00  0.00     0.236 C 
BRANCH  30  31
HETATM   31  N1  UNL     1      37.276 -14.829  28.489  1.00  0.00    -0.074 N 
ATOM     32  H12 UNL     1      38.087 -15.413  28.695  1.00  0.00     0.277 HD
ATOM     33  H11 UNL     1      37.506 -14.020  29.067  1.00  0.00     0.277 HD
BRANCH  31  34
HETATM   34  C23 UNL     1      36.060 -15.456  28.937  1.00  0.00     0.242 C 
BRANCH  34  35
HETATM   35  C24 UNL     1      36.393 -16.936  29.124  1.00  0.00     0.140 C 
BRANCH  35  36
HETATM   36  C25 UNL     1      37.744 -17.042  29.722  1.00  0.00     0.174 C 
HETATM   37  O3  UNL     1      38.656 -17.566  29.045  1.00  0.00    -0.648 OA
HETATM   38  O4  UNL     1      37.953 -16.568  30.990  1.00  0.00    -0.648 OA
ENDBRANCH  35  36
ENDBRANCH  34  35
ENDBRANCH  31  34
ENDBRANCH  30  31
ENDBRANCH  29  30
ENDBRANCH  28  29
ENDBRANCH  18  27
TORSDOF 9
ENDMDL
MODEL 5
REMARK VINA RESULT: -7.379211708      3.756      8.632
REMARK  9 active torsions:
REMARK  status: ('A' for Active; 'I' for Inactive)
REMARK    1  A    between atoms: C3_3  and  O1_4 
REMARK    2  A    between atoms: C14_16  and  O2_17 
REMARK    3  A    between atoms: C18_22  and  C19_23 
REMARK    4  A    between atoms: C20_24  and  C21_25 
REMARK    5  A    between atoms: C21_25  and  C22_26 
REMARK    6  A    between atoms: C22_26  and  N1_27 
REMARK    7  A    between atoms: N1_27  and  C23_30 
REMARK    8  A    between atoms: C23_30  and  C24_31 
REMARK    9  A    between atoms: C24_31  and  C25_32 
ROOT
HETATM    1  C1  UNL     1      37.517 -14.862  28.466  1.00  0.00     0.100 C 
HETATM    2  C2  UNL     1      37.765 -15.433  27.416  1.00  0.00    -0.150 C 
HETATM    3  C3  UNL     1      38.065 -16.090  26.145  1.00  0.00     0.112 C 
HETATM    4  C4  UNL     1      37.099 -17.256  25.933  1.00  0.00     0.052 C 
HETATM    5  C5  UNL     1      37.295 -18.150  27.132  1.00  0.00     0.018 C 
HETATM    6  C6  UNL     1      38.645 -18.774  27.156  1.00  0.00    -0.017 C 
HETATM    7  C7  UNL     1      39.141 -18.778  28.618  1.00  0.00     0.020 C 
HETATM    8  C8  UNL     1      39.635 -18.017  26.389  1.00  0.00    -0.071 C 
HETATM    9  C9  UNL     1      40.750 -18.668  26.015  1.00  0.00    -0.023 C 
HETATM   10  C10 UNL     1      41.026 -20.078  26.332  1.00  0.00     0.033 C 
HETATM   11  C11 UNL     1      39.817 -20.936  26.548  1.00  0.00    -0.000 C 
HETATM   12  C12 UNL     1      38.536 -20.233  26.775  1.00  0.00     0.005 C 
HETATM   13  C13 UNL     1      37.631 -20.507  25.613  1.00  0.00     0.039 C 
HETATM   14  C14 UNL     1      37.289 -22.004  25.734  1.00  0.00     0.140 C 
HETATM   15  C15 UNL     1      38.531 -22.737  25.317  1.00  0.00     0.059 C 
HETATM   16  C16 UNL     1      38.315 -23.165  23.922  1.00  0.00    -0.103 C 
HETATM   17  C17 UNL     1      38.135 -23.491  22.775  1.00  0.00     0.013 C 
HETATM   18  C18 UNL     1      38.757 -23.985  26.163  1.00  0.00     0.031 C 
HETATM   19  C26 UNL     1      40.218 -23.989  26.542  1.00  0.00     0.011 C 
HETATM   20  C27 UNL     1      40.845 -22.965  25.659  1.00  0.00     0.007 C 
HETATM   21  C28 UNL     1      39.773 -21.931  25.406  1.00  0.00     0.014 C 
HETATM   22  C29 UNL     1      39.459 -16.595  26.051  1.00  0.00     0.085 C 
ENDROOT
BRANCH   3  23
HETATM   23  O1  UNL     1      37.863 -15.105  25.158  1.00  0.00    -0.378 OA
ATOM     24  H1  UNL     1      38.371 -14.355  25.443  1.00  0.00     0.211 HD
ENDBRANCH   3  23
BRANCH  14  25
HETATM   25  O2  UNL     1      36.167 -22.331  25.024  1.00  0.00    -0.394 OA
ATOM     26  H2  UNL     1      35.518 -22.767  25.565  1.00  0.00     0.210 HD
ENDBRANCH  14  25
BRANCH  18  27
HETATM   27  C19 UNL     1      38.472 -25.232  25.412  1.00  0.00    -0.024 C 
HETATM   28  C20 UNL     1      37.342 -25.909  25.565  1.00  0.00    -0.029 C 
BRANCH  28  29
HETATM   29  C21 UNL     1      37.002 -27.149  24.850  1.00  0.00     0.054 C 
BRANCH  29  30
HETATM   30  C22 UNL     1      35.795 -27.055  23.978  1.00  0.00     0.236 C 
BRANCH  30  31
HETATM   31  N1  UNL     1      36.101 -26.451  22.682  1.00  0.00    -0.074 N 
ATOM     32  H12 UNL     1      36.963 -25.907  22.725  1.00  0.00     0.277 HD
ATOM     33  H11 UNL     1      36.387 -27.159  22.006  1.00  0.00     0.277 HD
BRANCH  31  34
HETATM   34  C23 UNL     1      35.013 -25.659  22.174  1.00  0.00     0.242 C 
BRANCH  34  35
HETATM   35  C24 UNL     1      34.626 -24.701  23.300  1.00  0.00     0.140 C 
BRANCH  35  36
HETATM   36  C25 UNL     1      34.073 -23.466  22.698  1.00  0.00     0.174 C 
HETATM   37  O3  UNL     1      32.850 -23.427  22.435  1.00  0.00    -0.648 OA
HETATM   38  O4  UNL     1      34.910 -22.411  22.450  1.00  0.00    -0.648 OA
ENDBRANCH  35  36
ENDBRANCH  34  35
ENDBRANCH  31  34
ENDBRANCH  30  31
ENDBRANCH  29  30
ENDBRANCH  28  29
ENDBRANCH  18  27
TORSDOF 9
ENDMDL
