MODEL 1
REMARK VINA RESULT: -7.439809868      0.000      0.000
REMARK  11 active torsions:
REMARK  status: ('A' for Active; 'I' for Inactive)
REMARK    1  A    between atoms: C2_2  and  C3_3 
REMARK    2  A    between atoms: C3_3  and  N1_4 
REMARK    3  A    between atoms: N1_4  and  C5_6 
REMARK    4  A    between atoms: C5_6  and  C6_7 
REMARK    5  A    between atoms: C6_7  and  C7_8 
REMARK    6  A    between atoms: C8_9  and  C9_10 
REMARK    7  A    between atoms: C20_21  and  C21_22 
REMARK    8  A    between atoms: C21_22  and  C23_24 
REMARK    9  A    between atoms: C23_24  and  C24_25 
REMARK   10  A    between atoms: C24_25  and  C25_26 
REMARK   11  A    between atoms: C30_34  and  O3_35 
ROOT
HETATM    1  C9  UNL     1      35.382 -24.500  24.601  1.00  0.00     0.094 C 
HETATM    2  C10 UNL     1      35.103 -23.566  23.467  1.00  0.00     0.025 C 
HETATM    3  C11 UNL     1      35.487 -22.144  23.707  1.00  0.00    -0.005 C 
HETATM    4  C12 UNL     1      35.750 -21.512  22.348  1.00  0.00     0.006 C 
HETATM    5  C13 UNL     1      36.100 -20.063  22.445  1.00  0.00     0.008 C 
HETATM    6  C14 UNL     1      36.513 -19.658  23.825  1.00  0.00     0.020 C 
HETATM    7  C15 UNL     1      37.369 -20.681  24.501  1.00  0.00     0.001 C 
HETATM    8  C16 UNL     1      38.662 -20.793  23.739  1.00  0.00     0.007 C 
HETATM    9  C17 UNL     1      39.385 -19.455  23.975  1.00  0.00     0.015 C 
HETATM   10  C18 UNL     1      38.614 -18.305  23.436  1.00  0.00     0.009 C 
HETATM   11  C19 UNL     1      38.933 -17.904  22.015  1.00  0.00     0.020 C 
HETATM   12  C20 UNL     1      38.518 -17.071  24.318  1.00  0.00     0.136 C 
HETATM   13  O2  UNL     1      37.479 -17.745  25.002  1.00  0.00    -0.378 OA
HETATM   14  C26 UNL     1      37.160 -18.308  23.767  1.00  0.00     0.137 C 
HETATM   15  C27 UNL     1      36.621 -21.953  24.667  1.00  0.00    -0.034 C 
HETATM   16  C28 UNL     1      36.001 -21.929  26.072  1.00  0.00     0.016 C 
HETATM   17  C29 UNL     1      37.522 -23.169  24.593  1.00  0.00     0.042 C 
HETATM   18  C30 UNL     1      36.827 -24.430  24.970  1.00  0.00     0.134 C 
ENDROOT
BRANCH   1  19
HETATM   19  C8  UNL     1      35.050 -25.863  24.119  1.00  0.00    -0.099 C 
HETATM   20  C7  UNL     1      34.791 -26.959  23.710  1.00  0.00    -0.104 C 
BRANCH  20  21
HETATM   21  C6  UNL     1      34.460 -28.304  23.184  1.00  0.00     0.113 C 
BRANCH  21  22
HETATM   22  C5  UNL     1      34.848 -29.281  24.254  1.00  0.00     0.128 C 
BRANCH  22  23
HETATM   23  N1  UNL     1      34.117 -30.488  24.108  1.00  0.00    -0.416 N 
HETATM   24  C4  UNL     1      34.192 -31.136  22.841  1.00  0.00     0.143 C 
BRANCH  23  25
HETATM   25  C3  UNL     1      34.132 -31.377  25.230  1.00  0.00     0.116 C 
BRANCH  25  26
HETATM   26  C2  UNL     1      34.868 -30.704  26.395  1.00  0.00     0.015 C 
HETATM   27  C1  UNL     1      34.542 -31.438  27.693  1.00  0.00     0.006 C 
ENDBRANCH  25  26
ENDBRANCH  23  25
ENDBRANCH  22  23
ENDBRANCH  21  22
ENDBRANCH  20  21
ENDBRANCH   1  19
BRANCH  18  28
HETATM   28  O3  UNL     1      37.480 -25.479  24.281  1.00  0.00    -0.394 OA
ATOM     29  H3  UNL     1      38.151 -25.079  23.740  1.00  0.00     0.210 HD
ENDBRANCH  18  28
BRANCH  12  30
HETATM   30  C21 UNL     1      39.702 -16.763  25.150  1.00  0.00     0.012 C 
HETATM   31  C22 UNL     1      40.303 -15.423  24.821  1.00  0.00     0.012 C 
BRANCH  30  32
HETATM   32  C23 UNL     1      39.313 -16.741  26.605  1.00  0.00     0.015 C 
BRANCH  32  33
HETATM   33  C24 UNL     1      39.288 -15.378  27.217  1.00  0.00     0.100 C 
BRANCH  33  34
HETATM   34  C25 UNL     1      37.955 -15.087  27.801  1.00  0.00     0.231 C 
HETATM   35  N2  UNL     1      36.875 -14.769  26.948  1.00  0.00    -0.062 NA
HETATM   36  O1  UNL     1      37.782 -15.122  29.038  1.00  0.00    -0.277 OA
ENDBRANCH  33  34
ENDBRANCH  32  33
ENDBRANCH  30  32
ENDBRANCH  12  30
TORSDOF 11
ENDMDL
MODEL 2
REMARK VINA RESULT: -7.398307107      5.826      7.111
REMARK  11 active torsions:
REMARK  status: ('A' for Active; 'I' for Inactive)
REMARK    1  A    between atoms: C2_2  and  C3_3 
REMARK    2  A    between atoms: C3_3  and  N1_4 
REMARK    3  A    between atoms: N1_4  and  C5_6 
REMARK    4  A    between atoms: C5_6  and  C6_7 
REMARK    5  A    between atoms: C6_7  and  C7_8 
REMARK    6  A    between atoms: C8_9  and  C9_10 
REMARK    7  A    between atoms: C20_21  and  C21_22 
REMARK    8  A    between atoms: C21_22  and  C23_24 
REMARK    9  A    between atoms: C23_24  and  C24_25 
REMARK   10  A    between atoms: C24_25  and  C25_26 
REMARK   11  A    between atoms: C30_34  and  O3_35 
ROOT
HETATM    1  C9  UNL     1      42.516 -23.458  29.867  1.00  0.00     0.094 C 
HETATM    2  C10 UNL     1      41.381 -23.683  28.919  1.00  0.00     0.025 C 
HETATM    3  C11 UNL     1      40.384 -22.574  28.849  1.00  0.00    -0.005 C 
HETATM    4  C12 UNL     1      39.731 -22.642  27.477  1.00  0.00     0.006 C 
HETATM    5  C13 UNL     1      38.669 -21.607  27.294  1.00  0.00     0.008 C 
HETATM    6  C14 UNL     1      38.758 -20.502  28.297  1.00  0.00     0.020 C 
HETATM    7  C15 UNL     1      40.167 -20.086  28.583  1.00  0.00     0.001 C 
HETATM    8  C16 UNL     1      40.750 -19.501  27.325  1.00  0.00     0.007 C 
HETATM    9  C17 UNL     1      39.988 -18.183  27.102  1.00  0.00     0.015 C 
HETATM   10  C18 UNL     1      38.535 -18.412  26.891  1.00  0.00     0.009 C 
HETATM   11  C19 UNL     1      38.096 -18.580  25.455  1.00  0.00     0.020 C 
HETATM   12  C20 UNL     1      37.581 -17.483  27.623  1.00  0.00     0.136 C 
HETATM   13  O2  UNL     1      37.781 -18.307  28.755  1.00  0.00    -0.378 OA
HETATM   14  C26 UNL     1      37.898 -19.360  27.848  1.00  0.00     0.137 C 
HETATM   15  C27 UNL     1      40.931 -21.216  29.167  1.00  0.00    -0.034 C 
HETATM   16  C28 UNL     1      40.857 -21.066  30.694  1.00  0.00     0.016 C 
HETATM   17  C29 UNL     1      42.396 -21.187  28.783  1.00  0.00     0.042 C 
HETATM   18  C30 UNL     1      43.213 -22.182  29.529  1.00  0.00     0.134 C 
ENDROOT
BRANCH   1  19
HETATM   19  C8  UNL     1      43.445 -24.601  29.695  1.00  0.00    -0.099 C 
HETATM   20  C7  UNL     1      44.178 -25.539  29.554  1.00  0.00    -0.104 C 
BRANCH  20  21
HETATM   21  C6  UNL     1      45.073 -26.710  29.398  1.00  0.00     0.113 C 
BRANCH  21  22
HETATM   22  C5  UNL     1      44.368 -27.658  28.473  1.00  0.00     0.128 C 
BRANCH  22  23
HETATM   23  N1  UNL     1      43.855 -28.764  29.198  1.00  0.00    -0.416 N 
HETATM   24  C4  UNL     1      44.659 -29.263  30.265  1.00  0.00     0.143 C 
BRANCH  23  25
HETATM   25  C3  UNL     1      42.451 -28.743  29.473  1.00  0.00     0.116 C 
BRANCH  25  26
HETATM   26  C2  UNL     1      41.712 -28.125  28.279  1.00  0.00     0.015 C 
HETATM   27  C1  UNL     1      40.554 -27.271  28.786  1.00  0.00     0.006 C 
ENDBRANCH  25  26
ENDBRANCH  23  25
ENDBRANCH  22  23
ENDBRANCH  21  22
ENDBRANCH  20  21
ENDBRANCH   1  19
BRANCH  18  28
HETATM   28  O3  UNL     1      44.308 -22.518  28.700  1.00  0.00    -0.394 OA
ATOM     29  H3  UNL     1      44.003 -23.185  28.096  1.00  0.00     0.210 HD
ENDBRANCH  18  28
BRANCH  12  30
HETATM   30  C21 UNL     1      38.029 -16.083  27.795  1.00  0.00     0.012 C 
HETATM   31  C22 UNL     1      37.691 -15.221  26.609  1.00  0.00     0.012 C 
BRANCH  30  32
HETATM   32  C23 UNL     1      37.358 -15.478  29.001  1.00  0.00     0.015 C 
BRANCH  32  33
HETATM   33  C24 UNL     1      35.878 -15.678  29.050  1.00  0.00     0.100 C 
BRANCH  33  34
HETATM   34  C25 UNL     1      35.175 -14.379  29.182  1.00  0.00     0.231 C 
HETATM   35  N2  UNL     1      33.924 -14.327  29.836  1.00  0.00    -0.062 NA
HETATM   36  O1  UNL     1      35.679 -13.333  28.722  1.00  0.00    -0.277 OA
ENDBRANCH  33  34
ENDBRANCH  32  33
ENDBRANCH  30  32
ENDBRANCH  12  30
TORSDOF 11
ENDMDL
MODEL 3
REMARK VINA RESULT: -7.350883607      2.833     10.294
REMARK  11 active torsions:
REMARK  status: ('A' for Active; 'I' for Inactive)
REMARK    1  A    between atoms: C2_2  and  C3_3 
REMARK    2  A    between atoms: C3_3  and  N1_4 
REMARK    3  A    between atoms: N1_4  and  C5_6 
REMARK    4  A    between atoms: C5_6  and  C6_7 
REMARK    5  A    between atoms: C6_7  and  C7_8 
REMARK    6  A    between atoms: C8_9  and  C9_10 
REMARK    7  A    between atoms: C20_21  and  C21_22 
REMARK    8  A    between atoms: C21_22  and  C23_24 
REMARK    9  A    between atoms: C23_24  and  C24_25 
REMARK   10  A    between atoms: C24_25  and  C25_26 
REMARK   11  A    between atoms: C30_34  and  O3_35 
ROOT
HETATM    1  C9  UNL     1      38.529 -19.248  26.520  1.00  0.00     0.094 C 
HETATM    2  C10 UNL     1      37.682 -19.016  25.310  1.00  0.00     0.025 C 
HETATM    3  C11 UNL     1      37.528 -20.196  24.408  1.00  0.00    -0.005 C 
HETATM    4  C12 UNL     1      36.214 -20.024  23.660  1.00  0.00     0.006 C 
HETATM    5  C13 UNL     1      35.961 -21.122  22.680  1.00  0.00     0.008 C 
HETATM    6  C14 UNL     1      36.811 -22.327  22.930  1.00  0.00     0.020 C 
HETATM    7  C15 UNL     1      36.963 -22.642  24.384  1.00  0.00     0.001 C 
HETATM    8  C16 UNL     1      35.611 -23.015  24.930  1.00  0.00     0.007 C 
HETATM    9  C17 UNL     1      35.267 -24.362  24.268  1.00  0.00     0.015 C 
HETATM   10  C18 UNL     1      35.167 -24.244  22.790  1.00  0.00     0.009 C 
HETATM   11  C19 UNL     1      33.791 -23.945  22.243  1.00  0.00     0.020 C 
HETATM   12  C20 UNL     1      35.828 -25.338  21.969  1.00  0.00     0.136 C 
HETATM   13  O2  UNL     1      37.042 -24.642  22.174  1.00  0.00    -0.378 OA
HETATM   14  C26 UNL     1      36.270 -23.481  22.141  1.00  0.00     0.137 C 
HETATM   15  C27 UNL     1      37.641 -21.525  25.087  1.00  0.00    -0.034 C 
HETATM   16  C28 UNL     1      39.139 -21.865  25.129  1.00  0.00     0.016 C 
HETATM   17  C29 UNL     1      37.175 -21.373  26.520  1.00  0.00     0.042 C 
HETATM   18  C30 UNL     1      37.994 -20.405  27.298  1.00  0.00     0.134 C 
ENDROOT
BRANCH   1  19
HETATM   19  C8  UNL     1      38.450 -18.011  27.335  1.00  0.00    -0.099 C 
HETATM   20  C7  UNL     1      38.365 -17.012  27.991  1.00  0.00    -0.104 C 
BRANCH  20  21
HETATM   21  C6  UNL     1      38.247 -15.765  28.783  1.00  0.00     0.113 C 
BRANCH  21  22
HETATM   22  C5  UNL     1      37.886 -14.682  27.811  1.00  0.00     0.128 C 
BRANCH  22  23
HETATM   23  N1  UNL     1      36.756 -13.960  28.274  1.00  0.00    -0.416 N 
HETATM   24  C4  UNL     1      36.139 -13.068  27.349  1.00  0.00     0.143 C 
BRANCH  23  25
HETATM   25  C3  UNL     1      35.840 -14.683  29.102  1.00  0.00     0.116 C 
BRANCH  25  26
HETATM   26  C2  UNL     1      34.679 -13.760  29.494  1.00  0.00     0.015 C 
HETATM   27  C1  UNL     1      33.612 -14.571  30.226  1.00  0.00     0.006 C 
ENDBRANCH  25  26
ENDBRANCH  23  25
ENDBRANCH  22  23
ENDBRANCH  21  22
ENDBRANCH  20  21
ENDBRANCH   1  19
BRANCH  18  28
HETATM   28  O3  UNL     1      37.153 -19.871  28.304  1.00  0.00    -0.394 OA
ATOM     29  H3  UNL     1      37.504 -20.159  29.138  1.00  0.00     0.210 HD
ENDBRANCH  18  28
BRANCH  12  30
HETATM   30  C21 UNL     1      35.798 -26.702  22.544  1.00  0.00     0.012 C 
HETATM   31  C22 UNL     1      35.339 -27.735  21.551  1.00  0.00     0.012 C 
BRANCH  30  32
HETATM   32  C23 UNL     1      37.179 -27.094  23.002  1.00  0.00     0.015 C 
BRANCH  32  33
HETATM   33  C24 UNL     1      37.302 -27.313  24.474  1.00  0.00     0.100 C 
BRANCH  33  34
HETATM   34  C25 UNL     1      38.439 -26.537  25.029  1.00  0.00     0.231 C 
HETATM   35  N2  UNL     1      38.198 -25.559  26.019  1.00  0.00    -0.062 NA
HETATM   36  O1  UNL     1      39.605 -26.743  24.629  1.00  0.00    -0.277 OA
ENDBRANCH  33  34
ENDBRANCH  32  33
ENDBRANCH  30  32
ENDBRANCH  12  30
TORSDOF 11
ENDMDL
MODEL 4
REMARK VINA RESULT: -7.181509154      6.704      7.934
REMARK  11 active torsions:
REMARK  status: ('A' for Active; 'I' for Inactive)
REMARK    1  A    between atoms: C2_2  and  C3_3 
REMARK    2  A    between atoms: C3_3  and  N1_4 
REMARK    3  A    between atoms: N1_4  and  C5_6 
REMARK    4  A    between atoms: C5_6  and  C6_7 
REMARK    5  A    between atoms: C6_7  and  C7_8 
REMARK    6  A    between atoms: C8_9  and  C9_10 
REMARK    7  A    between atoms: C20_21  and  C21_22 
REMARK    8  A    between atoms: C21_22  and  C23_24 
REMARK    9  A    between atoms: C23_24  and  C24_25 
REMARK   10  A    between atoms: C24_25  and  C25_26 
REMARK   11  A    between atoms: C30_34  and  O3_35 
ROOT
HETATM    1  C9  UNL     1      43.348 -23.805  30.537  1.00  0.00     0.094 C 
HETATM    2  C10 UNL     1      42.446 -24.223  29.419  1.00  0.00     0.025 C 
HETATM    3  C11 UNL     1      41.291 -23.313  29.163  1.00  0.00    -0.005 C 
HETATM    4  C12 UNL     1      40.897 -23.484  27.704  1.00  0.00     0.006 C 
HETATM    5  C13 UNL     1      39.711 -22.658  27.327  1.00  0.00     0.008 C 
HETATM    6  C14 UNL     1      39.431 -21.565  28.308  1.00  0.00     0.020 C 
HETATM    7  C15 UNL     1      40.673 -20.903  28.814  1.00  0.00     0.001 C 
HETATM    8  C16 UNL     1      41.342 -20.209  27.659  1.00  0.00     0.007 C 
HETATM    9  C17 UNL     1      40.401 -19.049  27.287  1.00  0.00     0.015 C 
HETATM   10  C18 UNL     1      39.069 -19.536  26.843  1.00  0.00     0.009 C 
HETATM   11  C19 UNL     1      38.912 -19.767  25.358  1.00  0.00     0.020 C 
HETATM   12  C20 UNL     1      37.855 -18.804  27.389  1.00  0.00     0.136 C 
HETATM   13  O2  UNL     1      38.010 -19.589  28.554  1.00  0.00    -0.378 OA
HETATM   14  C26 UNL     1      38.465 -20.595  27.701  1.00  0.00     0.137 C 
HETATM   15  C27 UNL     1      41.522 -21.882  29.540  1.00  0.00    -0.034 C 
HETATM   16  C28 UNL     1      41.170 -21.763  31.030  1.00  0.00     0.016 C 
HETATM   17  C29 UNL     1      43.000 -21.582  29.402  1.00  0.00     0.042 C 
HETATM   18  C30 UNL     1      43.849 -22.420  30.293  1.00  0.00     0.134 C 
ENDROOT
BRANCH   1  19
HETATM   19  C8  UNL     1      44.484 -24.758  30.543  1.00  0.00    -0.099 C 
HETATM   20  C7  UNL     1      45.388 -25.545  30.542  1.00  0.00    -0.104 C 
BRANCH  20  21
HETATM   21  C6  UNL     1      46.493 -26.533  30.558  1.00  0.00     0.113 C 
BRANCH  21  22
HETATM   22  C5  UNL     1      45.862 -27.866  30.830  1.00  0.00     0.128 C 
BRANCH  22  23
HETATM   23  N1  UNL     1      45.341 -28.418  29.631  1.00  0.00    -0.416 N 
HETATM   24  C4  UNL     1      46.203 -29.281  28.893  1.00  0.00     0.143 C 
BRANCH  23  25
HETATM   25  C3  UNL     1      43.973 -28.838  29.670  1.00  0.00     0.116 C 
BRANCH  25  26
HETATM   26  C2  UNL     1      43.136 -27.908  28.783  1.00  0.00     0.015 C 
HETATM   27  C1  UNL     1      41.701 -27.869  29.302  1.00  0.00     0.006 C 
ENDBRANCH  25  26
ENDBRANCH  23  25
ENDBRANCH  22  23
ENDBRANCH  21  22
ENDBRANCH  20  21
ENDBRANCH   1  19
BRANCH  18  28
HETATM   28  O3  UNL     1      45.109 -22.542  29.662  1.00  0.00    -0.394 OA
ATOM     29  H3  UNL     1      45.517 -21.685  29.690  1.00  0.00     0.210 HD
ENDBRANCH  18  28
BRANCH  12  30
HETATM   30  C21 UNL     1      38.007 -17.348  27.604  1.00  0.00     0.012 C 
HETATM   31  C22 UNL     1      37.513 -16.538  26.435  1.00  0.00     0.012 C 
BRANCH  30  32
HETATM   32  C23 UNL     1      37.215 -16.926  28.815  1.00  0.00     0.015 C 
BRANCH  32  33
HETATM   33  C24 UNL     1      37.151 -15.448  29.026  1.00  0.00     0.100 C 
BRANCH  33  34
HETATM   34  C25 UNL     1      35.742 -14.985  29.090  1.00  0.00     0.231 C 
HETATM   35  N2  UNL     1      35.428 -13.657  28.729  1.00  0.00    -0.062 NA
HETATM   36  O1  UNL     1      34.835 -15.761  29.459  1.00  0.00    -0.277 OA
ENDBRANCH  33  34
ENDBRANCH  32  33
ENDBRANCH  30  32
ENDBRANCH  12  30
TORSDOF 11
ENDMDL
MODEL 5
REMARK VINA RESULT: -7.168400714      6.312      7.424
REMARK  11 active torsions:
REMARK  status: ('A' for Active; 'I' for Inactive)
REMARK    1  A    between atoms: C2_2  and  C3_3 
REMARK    2  A    between atoms: C3_3  and  N1_4 
REMARK    3  A    between atoms: N1_4  and  C5_6 
REMARK    4  A    between atoms: C5_6  and  C6_7 
REMARK    5  A    between atoms: C6_7  and  C7_8 
REMARK    6  A    between atoms: C8_9  and  C9_10 
REMARK    7  A    between atoms: C20_21  and  C21_22 
REMARK    8  A    between atoms: C21_22  and  C23_24 
REMARK    9  A    between atoms: C23_24  and  C24_25 
REMARK   10  A    between atoms: C24_25  and  C25_26 
REMARK   11  A    between atoms: C30_34  and  O3_35 
ROOT
HETATM    1  C9  UNL     1      42.422 -23.638  29.775  1.00  0.00     0.094 C 
HETATM    2  C10 UNL     1      41.277 -23.785  28.826  1.00  0.00     0.025 C 
HETATM    3  C11 UNL     1      40.329 -22.632  28.791  1.00  0.00    -0.005 C 
HETATM    4  C12 UNL     1      39.670 -22.631  27.420  1.00  0.00     0.006 C 
HETATM    5  C13 UNL     1      38.654 -21.546  27.270  1.00  0.00     0.008 C 
HETATM    6  C14 UNL     1      38.795 -20.475  28.305  1.00  0.00     0.020 C 
HETATM    7  C15 UNL     1      40.221 -20.130  28.597  1.00  0.00     0.001 C 
HETATM    8  C16 UNL     1      40.827 -19.536  27.355  1.00  0.00     0.007 C 
HETATM    9  C17 UNL     1      40.122 -18.179  27.173  1.00  0.00     0.015 C 
HETATM   10  C18 UNL     1      38.660 -18.338  26.960  1.00  0.00     0.009 C 
HETATM   11  C19 UNL     1      38.211 -18.445  25.522  1.00  0.00     0.020 C 
HETATM   12  C20 UNL     1      37.750 -17.389  27.722  1.00  0.00     0.136 C 
HETATM   13  O2  UNL     1      37.916 -18.254  28.829  1.00  0.00    -0.378 OA
HETATM   14  C26 UNL     1      37.984 -19.285  27.892  1.00  0.00     0.137 C 
HETATM   15  C27 UNL     1      40.936 -21.310  29.146  1.00  0.00    -0.034 C 
HETATM   16  C28 UNL     1      40.872 -21.200  30.677  1.00  0.00     0.016 C 
HETATM   17  C29 UNL     1      42.399 -21.333  28.757  1.00  0.00     0.042 C 
HETATM   18  C30 UNL     1      43.174 -22.384  29.472  1.00  0.00     0.134 C 
ENDROOT
BRANCH   1  19
HETATM   19  C8  UNL     1      43.299 -24.816  29.567  1.00  0.00    -0.099 C 
HETATM   20  C7  UNL     1      44.016 -25.757  29.380  1.00  0.00    -0.104 C 
BRANCH  20  21
HETATM   21  C6  UNL     1      44.893 -26.925  29.126  1.00  0.00     0.113 C 
BRANCH  21  22
HETATM   22  C5  UNL     1      43.983 -28.102  28.940  1.00  0.00     0.128 C 
BRANCH  22  23
HETATM   23  N1  UNL     1      44.608 -29.287  29.406  1.00  0.00    -0.416 N 
HETATM   24  C4  UNL     1      45.195 -30.135  28.422  1.00  0.00     0.143 C 
BRANCH  23  25
HETATM   25  C3  UNL     1      45.366 -29.168  30.615  1.00  0.00     0.116 C 
BRANCH  25  26
HETATM   26  C2  UNL     1      45.259 -30.478  31.406  1.00  0.00     0.015 C 
HETATM   27  C1  UNL     1      43.873 -30.578  32.037  1.00  0.00     0.006 C 
ENDBRANCH  25  26
ENDBRANCH  23  25
ENDBRANCH  22  23
ENDBRANCH  21  22
ENDBRANCH  20  21
ENDBRANCH   1  19
BRANCH  18  28
HETATM   28  O3  UNL     1      44.251 -22.744  28.629  1.00  0.00    -0.394 OA
ATOM     29  H3  UNL     1      45.046 -22.649  29.140  1.00  0.00     0.210 HD
ENDBRANCH  18  28
BRANCH  12  30
HETATM   30  C21 UNL     1      38.259 -16.016  27.933  1.00  0.00     0.012 C 
HETATM   31  C22 UNL     1      38.107 -15.152  26.710  1.00  0.00     0.012 C 
BRANCH  30  32
HETATM   32  C23 UNL     1      37.497 -15.355  29.053  1.00  0.00     0.015 C 
BRANCH  32  33
HETATM   33  C24 UNL     1      36.023 -15.595  29.022  1.00  0.00     0.100 C 
BRANCH  33  34
HETATM   34  C25 UNL     1      35.279 -14.312  29.069  1.00  0.00     0.231 C 
HETATM   35  N2  UNL     1      34.077 -14.230  29.804  1.00  0.00    -0.062 NA
HETATM   36  O1  UNL     1      35.709 -13.306  28.465  1.00  0.00    -0.277 OA
ENDBRANCH  33  34
ENDBRANCH  32  33
ENDBRANCH  30  32
ENDBRANCH  12  30
TORSDOF 11
ENDMDL
