MODEL 1
REMARK VINA RESULT: -6.760025044      0.000      0.000
REMARK  9 active torsions:
REMARK  status: ('A' for Active; 'I' for Inactive)
REMARK    1  A    between atoms: C2_2  and  C3_3 
REMARK    2  A    between atoms: C3_3  and  C4_4 
REMARK    3  A    between atoms: C4_4  and  C5_5 
REMARK    4  A    between atoms: C5_5  and  C6_6 
REMARK       I    between atoms: C6_6  and  N1_8 
REMARK    5  A    between atoms: N1_8  and  C7_9 
REMARK    6  A    between atoms: N1_8  and  C10_12 
REMARK    7  A    between atoms: C14_16  and  O2_17 
REMARK    8  A    between atoms: C18_22  and  O3_23 
REMARK    9  A    between atoms: C26_33  and  O5_34 
ROOT
HETATM    1  C10 UNL     1      38.227 -21.412  24.663  1.00  0.00     0.108 C 
HETATM    2  C11 UNL     1      37.693 -21.253  26.045  1.00  0.00     0.013 C 
HETATM    3  C12 UNL     1      36.239 -21.667  26.169  1.00  0.00     0.012 C 
HETATM    4  C13 UNL     1      37.889 -19.797  26.380  1.00  0.00     0.025 C 
HETATM    5  C14 UNL     1      38.391 -19.633  27.808  1.00  0.00     0.123 C 
HETATM    6  C15 UNL     1      37.917 -18.272  28.244  1.00  0.00     0.037 C 
HETATM    7  C16 UNL     1      38.902 -17.207  27.815  1.00  0.00    -0.001 C 
HETATM    8  C17 UNL     1      38.590 -15.984  28.610  1.00  0.00     0.037 C 
HETATM    9  C18 UNL     1      37.398 -15.266  28.061  1.00  0.00     0.118 C 
HETATM   10  C19 UNL     1      37.379 -15.084  26.586  1.00  0.00     0.032 C 
HETATM   11  C20 UNL     1      37.575 -16.431  25.859  1.00  0.00     0.012 C 
HETATM   12  C21 UNL     1      38.868 -16.973  26.317  1.00  0.00    -0.036 C 
HETATM   13  C22 UNL     1      39.863 -15.798  26.114  1.00  0.00     0.016 C 
HETATM   14  C23 UNL     1      39.519 -18.059  25.526  1.00  0.00     0.006 C 
HETATM   15  C24 UNL     1      39.902 -17.537  24.145  1.00  0.00     0.087 C 
HETATM   16  C25 UNL     1      40.334 -18.652  23.287  1.00  0.00     0.156 C 
HETATM   17  O4  UNL     1      41.420 -18.666  22.689  1.00  0.00    -0.295 OA
HETATM   18  C26 UNL     1      39.485 -19.873  23.065  1.00  0.00     0.198 C 
HETATM   19  C27 UNL     1      38.554 -20.017  24.178  1.00  0.00     0.015 C 
HETATM   20  C28 UNL     1      37.217 -19.443  23.699  1.00  0.00     0.021 C 
HETATM   21  C29 UNL     1      39.017 -19.405  25.456  1.00  0.00     0.011 C 
ENDROOT
BRANCH   1  22
HETATM   22  N1  UNL     1      39.105 -22.496  24.470  1.00  0.00    -0.322 N 
HETATM   23  C6  UNL     1      38.778 -23.478  23.413  1.00  0.00     0.224 C 
HETATM   24  O1  UNL     1      39.453 -24.520  23.385  1.00  0.00    -0.273 OA
BRANCH  23  25
HETATM   25  C5  UNL     1      37.718 -23.265  22.436  1.00  0.00     0.103 C 
BRANCH  25  26
HETATM   26  C4  UNL     1      36.667 -24.369  22.486  1.00  0.00     0.009 C 
BRANCH  26  27
HETATM   27  C3  UNL     1      35.572 -23.949  23.463  1.00  0.00     0.000 C 
BRANCH  27  28
HETATM   28  C2  UNL     1      34.396 -23.354  22.762  1.00  0.00    -0.005 C 
HETATM   29  C1  UNL     1      34.412 -21.857  23.052  1.00  0.00     0.005 C 
ENDBRANCH  27  28
ENDBRANCH  26  27
ENDBRANCH  25  26
ENDBRANCH  23  25
BRANCH  22  30
HETATM   30  C7  UNL     1      40.163 -22.913  25.310  1.00  0.00     0.090 C 
HETATM   31  C8  UNL     1      41.540 -22.472  25.277  1.00  0.00    -0.014 C 
HETATM   32  C9  UNL     1      41.999 -21.111  25.549  1.00  0.00     0.037 C 
ENDBRANCH  22  30
ENDBRANCH   1  22
BRANCH  18  33
HETATM   33  O5  UNL     1      38.795 -19.556  21.850  1.00  0.00    -0.387 OA
ATOM     34  H5  UNL     1      39.458 -19.714  21.188  1.00  0.00     0.210 HD
ENDBRANCH  18  33
BRANCH   5  35
HETATM   35  O2  UNL     1      37.909 -20.647  28.642  1.00  0.00    -0.395 OA
ATOM     36  H2  UNL     1      38.605 -21.229  28.921  1.00  0.00     0.210 HD
ENDBRANCH   5  35
BRANCH   9  37
HETATM   37  O3  UNL     1      37.183 -14.034  28.658  1.00  0.00    -0.396 OA
ATOM     38  H3  UNL     1      36.263 -13.836  28.782  1.00  0.00     0.210 HD
ENDBRANCH   9  37
TORSDOF 9
ENDMDL
MODEL 2
REMARK VINA RESULT: -6.593070983      3.354      7.354
REMARK  9 active torsions:
REMARK  status: ('A' for Active; 'I' for Inactive)
REMARK    1  A    between atoms: C2_2  and  C3_3 
REMARK    2  A    between atoms: C3_3  and  C4_4 
REMARK    3  A    between atoms: C4_4  and  C5_5 
REMARK    4  A    between atoms: C5_5  and  C6_6 
REMARK       I    between atoms: C6_6  and  N1_8 
REMARK    5  A    between atoms: N1_8  and  C7_9 
REMARK    6  A    between atoms: N1_8  and  C10_12 
REMARK    7  A    between atoms: C14_16  and  O2_17 
REMARK    8  A    between atoms: C18_22  and  O3_23 
REMARK    9  A    between atoms: C26_33  and  O5_34 
ROOT
HETATM    1  C10 UNL     1      41.054 -22.725  27.443  1.00  0.00     0.108 C 
HETATM    2  C11 UNL     1      40.568 -24.000  26.845  1.00  0.00     0.013 C 
HETATM    3  C12 UNL     1      41.593 -24.659  25.940  1.00  0.00     0.012 C 
HETATM    4  C13 UNL     1      39.315 -23.633  26.094  1.00  0.00     0.025 C 
HETATM    5  C14 UNL     1      38.228 -24.678  26.310  1.00  0.00     0.123 C 
HETATM    6  C15 UNL     1      37.360 -24.612  25.082  1.00  0.00     0.037 C 
HETATM    7  C16 UNL     1      36.307 -23.538  25.237  1.00  0.00    -0.001 C 
HETATM    8  C17 UNL     1      35.266 -23.801  24.201  1.00  0.00     0.037 C 
HETATM    9  C18 UNL     1      35.711 -23.332  22.852  1.00  0.00     0.118 C 
HETATM   10  C19 UNL     1      36.319 -21.976  22.809  1.00  0.00     0.032 C 
HETATM   11  C20 UNL     1      37.473 -21.855  23.825  1.00  0.00     0.012 C 
HETATM   12  C21 UNL     1      36.899 -22.145  25.152  1.00  0.00    -0.036 C 
HETATM   13  C22 UNL     1      35.655 -21.219  25.235  1.00  0.00     0.016 C 
HETATM   14  C23 UNL     1      37.658 -21.741  26.373  1.00  0.00     0.006 C 
HETATM   15  C24 UNL     1      37.768 -20.221  26.436  1.00  0.00     0.087 C 
HETATM   16  C25 UNL     1      38.699 -19.827  27.506  1.00  0.00     0.156 C 
HETATM   17  O4  UNL     1      38.399 -19.030  28.408  1.00  0.00    -0.295 OA
HETATM   18  C26 UNL     1      40.101 -20.364  27.591  1.00  0.00     0.198 C 
HETATM   19  C27 UNL     1      40.170 -21.635  26.879  1.00  0.00     0.015 C 
HETATM   20  C28 UNL     1      40.758 -21.325  25.499  1.00  0.00     0.021 C 
HETATM   21  C29 UNL     1      38.877 -22.372  26.800  1.00  0.00     0.011 C 
ENDROOT
BRANCH   1  22
HETATM   22  N1  UNL     1      41.394 -22.782  28.809  1.00  0.00    -0.322 N 
HETATM   23  C6  UNL     1      42.805 -22.555  29.186  1.00  0.00     0.224 C 
HETATM   24  O1  UNL     1      43.119 -22.796  30.363  1.00  0.00    -0.273 OA
BRANCH  23  25
HETATM   25  C5  UNL     1      43.809 -22.073  28.245  1.00  0.00     0.103 C 
BRANCH  25  26
HETATM   26  C4  UNL     1      43.947 -20.555  28.286  1.00  0.00     0.009 C 
BRANCH  26  27
HETATM   27  C3  UNL     1      45.357 -20.210  28.761  1.00  0.00     0.000 C 
BRANCH  27  28
HETATM   28  C2  UNL     1      45.382 -19.831  30.204  1.00  0.00    -0.005 C 
HETATM   29  C1  UNL     1      46.558 -20.568  30.840  1.00  0.00     0.005 C 
ENDBRANCH  27  28
ENDBRANCH  26  27
ENDBRANCH  25  26
ENDBRANCH  23  25
BRANCH  22  30
HETATM   30  C7  UNL     1      40.600 -23.257  29.877  1.00  0.00     0.090 C 
HETATM   31  C8  UNL     1      40.015 -24.571  30.024  1.00  0.00    -0.014 C 
HETATM   32  C9  UNL     1      40.763 -25.820  30.163  1.00  0.00     0.037 C 
ENDBRANCH  22  30
ENDBRANCH   1  22
BRANCH  18  33
HETATM   33  O5  UNL     1      40.863 -19.354  26.920  1.00  0.00    -0.387 OA
ATOM     34  H5  UNL     1      41.243 -18.868  27.643  1.00  0.00     0.210 HD
ENDBRANCH  18  33
BRANCH   5  35
HETATM   35  O2  UNL     1      38.771 -25.953  26.500  1.00  0.00    -0.395 OA
ATOM     36  H2  UNL     1      39.362 -26.188  25.794  1.00  0.00     0.210 HD
ENDBRANCH   5  35
BRANCH   9  37
HETATM   37  O3  UNL     1      34.708 -23.392  21.897  1.00  0.00    -0.396 OA
ATOM     38  H3  UNL     1      34.460 -24.281  21.672  1.00  0.00     0.210 HD
ENDBRANCH   9  37
TORSDOF 9
ENDMDL
MODEL 3
REMARK VINA RESULT: -6.543068564      1.157      1.569
REMARK  9 active torsions:
REMARK  status: ('A' for Active; 'I' for Inactive)
REMARK    1  A    between atoms: C2_2  and  C3_3 
REMARK    2  A    between atoms: C3_3  and  C4_4 
REMARK    3  A    between atoms: C4_4  and  C5_5 
REMARK    4  A    between atoms: C5_5  and  C6_6 
REMARK       I    between atoms: C6_6  and  N1_8 
REMARK    5  A    between atoms: N1_8  and  C7_9 
REMARK    6  A    between atoms: N1_8  and  C10_12 
REMARK    7  A    between atoms: C14_16  and  O2_17 
REMARK    8  A    between atoms: C18_22  and  O3_23 
REMARK    9  A    between atoms: C26_33  and  O5_34 
ROOT
HETATM    1  C10 UNL     1      37.433 -21.499  24.232  1.00  0.00     0.108 C 
HETATM    2  C11 UNL     1      37.159 -21.379  25.692  1.00  0.00     0.013 C 
HETATM    3  C12 UNL     1      35.713 -21.668  26.050  1.00  0.00     0.012 C 
HETATM    4  C13 UNL     1      37.553 -19.970  26.054  1.00  0.00     0.025 C 
HETATM    5  C14 UNL     1      38.303 -19.941  27.379  1.00  0.00     0.123 C 
HETATM    6  C15 UNL     1      38.048 -18.573  27.953  1.00  0.00     0.037 C 
HETATM    7  C16 UNL     1      39.046 -17.577  27.407  1.00  0.00    -0.001 C 
HETATM    8  C17 UNL     1      38.997 -16.383  28.300  1.00  0.00     0.037 C 
HETATM    9  C18 UNL     1      37.806 -15.528  28.002  1.00  0.00     0.118 C 
HETATM   10  C19 UNL     1      37.555 -15.253  26.563  1.00  0.00     0.032 C 
HETATM   11  C20 UNL     1      37.491 -16.564  25.752  1.00  0.00     0.012 C 
HETATM   12  C21 UNL     1      38.782 -17.247  25.951  1.00  0.00    -0.036 C 
HETATM   13  C22 UNL     1      39.839 -16.156  25.631  1.00  0.00     0.016 C 
HETATM   14  C23 UNL     1      39.178 -18.336  25.009  1.00  0.00     0.006 C 
HETATM   15  C24 UNL     1      39.371 -17.765  23.608  1.00  0.00     0.087 C 
HETATM   16  C25 UNL     1      39.539 -18.859  22.637  1.00  0.00     0.156 C 
HETATM   17  O4  UNL     1      40.501 -18.933  21.858  1.00  0.00    -0.295 OA
HETATM   18  C26 UNL     1      38.547 -19.983  22.511  1.00  0.00     0.198 C 
HETATM   19  C27 UNL     1      37.809 -20.112  23.762  1.00  0.00     0.015 C 
HETATM   20  C28 UNL     1      36.473 -19.391  23.551  1.00  0.00     0.021 C 
HETATM   21  C29 UNL     1      38.540 -19.625  24.966  1.00  0.00     0.011 C 
ENDROOT
BRANCH   1  22
HETATM   22  N1  UNL     1      38.153 -22.644  23.839  1.00  0.00    -0.322 N 
HETATM   23  C6  UNL     1      37.626 -23.446  22.715  1.00  0.00     0.224 C 
HETATM   24  O1  UNL     1      38.164 -24.547  22.508  1.00  0.00    -0.273 OA
BRANCH  23  25
HETATM   25  C5  UNL     1      36.526 -22.999  21.869  1.00  0.00     0.103 C 
BRANCH  25  26
HETATM   26  C4  UNL     1      35.355 -23.977  21.892  1.00  0.00     0.009 C 
BRANCH  26  27
HETATM   27  C3  UNL     1      34.554 -23.741  23.170  1.00  0.00     0.000 C 
BRANCH  27  28
HETATM   28  C2  UNL     1      34.873 -24.749  24.223  1.00  0.00    -0.005 C 
HETATM   29  C1  UNL     1      34.949 -26.108  23.533  1.00  0.00     0.005 C 
ENDBRANCH  27  28
ENDBRANCH  26  27
ENDBRANCH  25  26
ENDBRANCH  23  25
BRANCH  22  30
HETATM   30  C7  UNL     1      39.214 -23.275  24.525  1.00  0.00     0.090 C 
HETATM   31  C8  UNL     1      39.156 -23.964  25.795  1.00  0.00    -0.014 C 
HETATM   32  C9  UNL     1      38.397 -25.186  26.061  1.00  0.00     0.037 C 
ENDBRANCH  22  30
ENDBRANCH   1  22
BRANCH  18  33
HETATM   33  O5  UNL     1      37.696 -19.530  21.452  1.00  0.00    -0.387 OA
ATOM     34  H5  UNL     1      38.032 -20.003  20.700  1.00  0.00     0.210 HD
ENDBRANCH  18  33
BRANCH   5  35
HETATM   35  O2  UNL     1      37.872 -20.958  28.237  1.00  0.00    -0.395 OA
ATOM     36  H2  UNL     1      38.529 -21.164  28.891  1.00  0.00     0.210 HD
ENDBRANCH   5  35
BRANCH   9  37
HETATM   37  O3  UNL     1      37.819 -14.321  28.683  1.00  0.00    -0.396 OA
ATOM     38  H3  UNL     1      36.964 -13.910  28.728  1.00  0.00     0.210 HD
ENDBRANCH   9  37
TORSDOF 9
ENDMDL
MODEL 4
REMARK VINA RESULT: -6.500668202      2.053      7.461
REMARK  9 active torsions:
REMARK  status: ('A' for Active; 'I' for Inactive)
REMARK    1  A    between atoms: C2_2  and  C3_3 
REMARK    2  A    between atoms: C3_3  and  C4_4 
REMARK    3  A    between atoms: C4_4  and  C5_5 
REMARK    4  A    between atoms: C5_5  and  C6_6 
REMARK       I    between atoms: C6_6  and  N1_8 
REMARK    5  A    between atoms: N1_8  and  C7_9 
REMARK    6  A    between atoms: N1_8  and  C10_12 
REMARK    7  A    between atoms: C14_16  and  O2_17 
REMARK    8  A    between atoms: C18_22  and  O3_23 
REMARK    9  A    between atoms: C26_33  and  O5_34 
ROOT
HETATM    1  C10 UNL     1      37.330 -19.191  24.765  1.00  0.00     0.108 C 
HETATM    2  C11 UNL     1      36.907 -19.457  23.361  1.00  0.00     0.013 C 
HETATM    3  C12 UNL     1      35.630 -18.732  22.980  1.00  0.00     0.012 C 
HETATM    4  C13 UNL     1      36.748 -20.952  23.272  1.00  0.00     0.025 C 
HETATM    5  C14 UNL     1      37.324 -21.481  21.965  1.00  0.00     0.123 C 
HETATM    6  C15 UNL     1      36.556 -22.742  21.670  1.00  0.00     0.037 C 
HETATM    7  C16 UNL     1      37.184 -23.920  22.381  1.00  0.00    -0.001 C 
HETATM    8  C17 UNL     1      36.642 -25.152  21.736  1.00  0.00     0.037 C 
HETATM    9  C18 UNL     1      35.257 -25.453  22.216  1.00  0.00     0.118 C 
HETATM   10  C19 UNL     1      35.050 -25.364  23.685  1.00  0.00     0.032 C 
HETATM   11  C20 UNL     1      35.520 -23.998  24.228  1.00  0.00     0.012 C 
HETATM   12  C21 UNL     1      36.947 -23.873  23.878  1.00  0.00    -0.036 C 
HETATM   13  C22 UNL     1      37.577 -25.198  24.384  1.00  0.00     0.016 C 
HETATM   14  C23 UNL     1      37.779 -22.854  24.584  1.00  0.00     0.006 C 
HETATM   15  C24 UNL     1      37.879 -23.203  26.066  1.00  0.00     0.087 C 
HETATM   16  C25 UNL     1      38.503 -22.093  26.804  1.00  0.00     0.156 C 
HETATM   17  O4  UNL     1      39.493 -22.237  27.537  1.00  0.00    -0.295 OA
HETATM   18  C26 UNL     1      37.985 -20.683  26.727  1.00  0.00     0.198 C 
HETATM   19  C27 UNL     1      37.234 -20.516  25.488  1.00  0.00     0.015 C 
HETATM   20  C28 UNL     1      35.754 -20.657  25.858  1.00  0.00     0.021 C 
HETATM   21  C29 UNL     1      37.641 -21.436  24.389  1.00  0.00     0.011 C 
ENDROOT
BRANCH   1  22
HETATM   22  N1  UNL     1      38.437 -18.334  24.917  1.00  0.00    -0.322 N 
HETATM   23  C6  UNL     1      38.283 -17.143  25.778  1.00  0.00     0.224 C 
HETATM   24  O1  UNL     1      39.199 -16.304  25.749  1.00  0.00    -0.273 OA
BRANCH  23  25
HETATM   25  C5  UNL     1      37.123 -16.928  26.634  1.00  0.00     0.103 C 
BRANCH  25  26
HETATM   26  C4  UNL     1      37.458 -17.122  28.109  1.00  0.00     0.009 C 
BRANCH  26  27
HETATM   27  C3  UNL     1      36.593 -16.169  28.930  1.00  0.00     0.000 C 
BRANCH  27  28
HETATM   28  C2  UNL     1      36.941 -14.741  28.676  1.00  0.00    -0.005 C 
HETATM   29  C1  UNL     1      35.634 -13.953  28.680  1.00  0.00     0.005 C 
ENDBRANCH  27  28
ENDBRANCH  26  27
ENDBRANCH  25  26
ENDBRANCH  23  25
BRANCH  22  30
HETATM   30  C7  UNL     1      39.636 -18.330  24.168  1.00  0.00     0.090 C 
HETATM   31  C8  UNL     1      40.874 -19.008  24.483  1.00  0.00    -0.014 C 
HETATM   32  C9  UNL     1      41.048 -20.458  24.557  1.00  0.00     0.037 C 
ENDBRANCH  22  30
ENDBRANCH   1  22
BRANCH  18  33
HETATM   33  O5  UNL     1      37.123 -20.606  27.868  1.00  0.00    -0.387 OA
ATOM     34  H5  UNL     1      37.098 -19.673  28.046  1.00  0.00     0.210 HD
ENDBRANCH  18  33
BRANCH   5  35
HETATM   35  O2  UNL     1      37.205 -20.543  20.934  1.00  0.00    -0.395 OA
ATOM     36  H2  UNL     1      37.997 -20.497  20.411  1.00  0.00     0.210 HD
ENDBRANCH   5  35
BRANCH   9  37
HETATM   37  O3  UNL     1      34.787 -26.682  21.781  1.00  0.00    -0.396 OA
ATOM     38  H3  UNL     1      33.901 -26.865  22.070  1.00  0.00     0.210 HD
ENDBRANCH   9  37
TORSDOF 9
ENDMDL
MODEL 5
REMARK VINA RESULT: -6.471299178      2.416      7.525
REMARK  9 active torsions:
REMARK  status: ('A' for Active; 'I' for Inactive)
REMARK    1  A    between atoms: C2_2  and  C3_3 
REMARK    2  A    between atoms: C3_3  and  C4_4 
REMARK    3  A    between atoms: C4_4  and  C5_5 
REMARK    4  A    between atoms: C5_5  and  C6_6 
REMARK       I    between atoms: C6_6  and  N1_8 
REMARK    5  A    between atoms: N1_8  and  C7_9 
REMARK    6  A    between atoms: N1_8  and  C10_12 
REMARK    7  A    between atoms: C14_16  and  O2_17 
REMARK    8  A    between atoms: C18_22  and  O3_23 
REMARK    9  A    between atoms: C26_33  and  O5_34 
ROOT
HETATM    1  C10 UNL     1      39.000 -18.830  26.940  1.00  0.00     0.108 C 
HETATM    2  C11 UNL     1      38.451 -19.409  25.681  1.00  0.00     0.013 C 
HETATM    3  C12 UNL     1      36.935 -19.399  25.636  1.00  0.00     0.012 C 
HETATM    4  C13 UNL     1      39.003 -20.809  25.617  1.00  0.00     0.025 C 
HETATM    5  C14 UNL     1      39.452 -21.150  24.202  1.00  0.00     0.123 C 
HETATM    6  C15 UNL     1      39.328 -22.646  24.092  1.00  0.00     0.037 C 
HETATM    7  C16 UNL     1      40.579 -23.319  24.612  1.00  0.00    -0.001 C 
HETATM    8  C17 UNL     1      40.555 -24.723  24.108  1.00  0.00     0.037 C 
HETATM    9  C18 UNL     1      39.625 -25.575  24.912  1.00  0.00     0.118 C 
HETATM   10  C19 UNL     1      39.735 -25.434  26.387  1.00  0.00     0.032 C 
HETATM   11  C20 UNL     1      39.610 -23.956  26.813  1.00  0.00     0.012 C 
HETATM   12  C21 UNL     1      40.689 -23.226  26.122  1.00  0.00    -0.036 C 
HETATM   13  C22 UNL     1      41.966 -24.049  26.440  1.00  0.00     0.016 C 
HETATM   14  C23 UNL     1      41.075 -21.869  26.611  1.00  0.00     0.006 C 
HETATM   15  C24 UNL     1      41.656 -21.971  28.018  1.00  0.00     0.087 C 
HETATM   16  C25 UNL     1      41.828 -20.626  28.591  1.00  0.00     0.156 C 
HETATM   17  O4  UNL     1      42.903 -20.218  29.054  1.00  0.00    -0.295 OA
HETATM   18  C26 UNL     1      40.702 -19.631  28.661  1.00  0.00     0.198 C 
HETATM   19  C27 UNL     1      39.707 -19.963  27.649  1.00  0.00     0.015 C 
HETATM   20  C28 UNL     1      38.594 -20.730  28.372  1.00  0.00     0.021 C 
HETATM   21  C29 UNL     1      40.243 -20.704  26.472  1.00  0.00     0.011 C 
ENDROOT
BRANCH   1  22
HETATM   22  N1  UNL     1      39.572 -17.548  26.822  1.00  0.00    -0.322 N 
HETATM   23  C6  UNL     1      39.096 -16.486  27.733  1.00  0.00     0.224 C 
HETATM   24  O1  UNL     1      39.469 -15.326  27.491  1.00  0.00    -0.273 OA
BRANCH  23  25
HETATM   25  C5  UNL     1      38.225 -16.751  28.872  1.00  0.00     0.103 C 
BRANCH  25  26
HETATM   26  C4  UNL     1      37.580 -15.475  29.406  1.00  0.00     0.009 C 
BRANCH  26  27
HETATM   27  C3  UNL     1      36.114 -15.460  28.977  1.00  0.00     0.000 C 
BRANCH  27  28
HETATM   28  C2  UNL     1      35.608 -14.072  28.770  1.00  0.00    -0.005 C 
HETATM   29  C1  UNL     1      36.361 -13.493  27.576  1.00  0.00     0.005 C 
ENDBRANCH  27  28
ENDBRANCH  26  27
ENDBRANCH  25  26
ENDBRANCH  23  25
BRANCH  22  30
HETATM   30  C7  UNL     1      40.399 -17.062  25.784  1.00  0.00     0.090 C 
HETATM   31  C8  UNL     1      40.015 -16.748  24.426  1.00  0.00    -0.014 C 
HETATM   32  C9  UNL     1      39.082 -15.693  24.033  1.00  0.00     0.037 C 
ENDBRANCH  22  30
ENDBRANCH   1  22
BRANCH  18  33
HETATM   33  O5  UNL     1      40.185 -19.838  29.981  1.00  0.00    -0.387 OA
ATOM     34  H5  UNL     1      40.772 -19.316  30.517  1.00  0.00     0.210 HD
ENDBRANCH  18  33
BRANCH   5  35
HETATM   35  O2  UNL     1      38.676 -20.489  23.244  1.00  0.00    -0.395 OA
ATOM     36  H2  UNL     1      37.792 -20.834  23.213  1.00  0.00     0.210 HD
ENDBRANCH   5  35
BRANCH   9  37
HETATM   37  O3  UNL     1      39.708 -26.921  24.593  1.00  0.00    -0.396 OA
ATOM     38  H3  UNL     1      40.390 -27.376  25.072  1.00  0.00     0.210 HD
ENDBRANCH   9  37
TORSDOF 9
ENDMDL
