MODEL 1
REMARK VINA RESULT: -7.056451631      0.000      0.000
REMARK  9 active torsions:
REMARK  status: ('A' for Active; 'I' for Inactive)
REMARK    1  A    between atoms: C2_2  and  C4_4 
REMARK    2  A    between atoms: C4_4  and  N1_5 
REMARK    3  A    between atoms: C4_4  and  C18_27 
REMARK       I    between atoms: N1_5  and  C5_7 
REMARK       I    between atoms: C5_7  and  N3_11 
REMARK    4  A    between atoms: C10_16  and  C11_17 
REMARK    5  A    between atoms: C11_17  and  O1_18 
REMARK    6  A    between atoms: O1_18  and  C12_19 
REMARK    7  A    between atoms: C15_22  and  O2_23 
REMARK    8  A    between atoms: C18_27  and  C19_28 
REMARK    9  A    between atoms: C18_27  and  C26_37 
REMARK       I    between atoms: C19_28  and  N4_30 
ROOT
HETATM    1  N1  UNL     1      39.892 -22.985  27.531  1.00  0.00    -0.221 N 
ATOM      2  H1  UNL     1      40.488 -23.509  26.890  1.00  0.00     0.178 HD
HETATM    3  C5  UNL     1      40.207 -23.114  28.876  1.00  0.00     0.670 C 
HETATM    4  N2  UNL     1      39.898 -22.338  29.850  1.00  0.00    -0.235 N 
ATOM      5  H21 UNL     1      40.130 -22.433  30.839  1.00  0.00     0.174 HD
ATOM      6  H22 UNL     1      39.337 -21.547  29.533  1.00  0.00     0.174 HD
HETATM    7  N3  UNL     1      41.008 -24.244  29.329  1.00  0.00    -0.212 N 
HETATM    8  C6  UNL     1      40.354 -25.353  29.986  1.00  0.00     0.141 C 
HETATM    9  C7  UNL     1      40.656 -26.595  29.181  1.00  0.00     0.020 C 
HETATM   10  C8  UNL     1      42.159 -26.774  29.191  1.00  0.00     0.004 C 
HETATM   11  C9  UNL     1      42.867 -25.582  28.605  1.00  0.00     0.028 C 
HETATM   12  C10 UNL     1      42.420 -24.275  29.152  1.00  0.00     0.126 C 
ENDROOT
BRANCH   1  13
HETATM   13  C4  UNL     1      38.831 -22.209  26.904  1.00  0.00     0.116 C 
BRANCH  13  14
HETATM   14  C2  UNL     1      37.950 -23.090  26.065  1.00  0.00     0.002 C 
HETATM   15  C1  UNL     1      38.546 -24.431  25.733  1.00  0.00     0.011 C 
HETATM   16  C3  UNL     1      37.739 -22.412  24.679  1.00  0.00     0.011 C 
ENDBRANCH  13  14
BRANCH  13  17
HETATM   17  C18 UNL     1      39.336 -20.937  26.329  1.00  0.00     0.105 C 
BRANCH  17  18
HETATM   18  C19 UNL     1      38.982 -19.865  27.321  1.00  0.00     0.230 C 
HETATM   19  O3  UNL     1      39.655 -19.876  28.420  1.00  0.00    -0.273 OA
HETATM   20  N4  UNL     1      38.016 -18.847  27.232  1.00  0.00    -0.331 N 
HETATM   21  C20 UNL     1      37.914 -18.035  28.409  1.00  0.00     0.068 C 
HETATM   22  C25 UNL     1      37.335 -18.849  25.938  1.00  0.00     0.142 C 
HETATM   23  C21 UNL     1      38.588 -16.720  28.559  1.00  0.00     0.056 C 
HETATM   24  C22 UNL     1      38.242 -15.736  27.383  1.00  0.00     0.085 C 
HETATM   25  C23 UNL     1      37.776 -16.554  26.342  1.00  0.00    -0.181 C 
HETATM   26  C24 UNL     1      37.292 -17.392  25.331  1.00  0.00     0.100 C 
ENDBRANCH  17  18
BRANCH  17  27
HETATM   27  C26 UNL     1      40.792 -20.781  26.048  1.00  0.00    -0.008 C 
HETATM   28  C27 UNL     1      40.914 -19.350  25.438  1.00  0.00     0.010 C 
HETATM   29  C28 UNL     1      41.423 -21.635  25.010  1.00  0.00     0.010 C 
ENDBRANCH  17  27
ENDBRANCH  13  17
ENDBRANCH   1  13
BRANCH  12  30
HETATM   30  C11 UNL     1      43.154 -23.933  30.456  1.00  0.00     0.194 C 
BRANCH  30  31
HETATM   31  O1  UNL     1      43.081 -22.563  30.702  1.00  0.00    -0.384 OA
BRANCH  31  32
HETATM   32  C12 UNL     1      43.894 -21.825  29.882  1.00  0.00     0.121 C 
HETATM   33  C13 UNL     1      43.117 -20.911  28.985  1.00  0.00     0.034 C 
HETATM   34  C14 UNL     1      44.002 -20.489  27.807  1.00  0.00     0.034 C 
HETATM   35  C15 UNL     1      45.418 -20.392  28.272  1.00  0.00     0.118 C 
HETATM   36  C16 UNL     1      45.544 -20.006  29.731  1.00  0.00     0.034 C 
HETATM   37  C17 UNL     1      44.929 -21.022  30.637  1.00  0.00     0.034 C 
BRANCH  35  38
HETATM   38  O2  UNL     1      46.102 -19.421  27.525  1.00  0.00    -0.396 OA
ATOM     39  H2  UNL     1      46.774 -19.016  28.059  1.00  0.00     0.210 HD
ENDBRANCH  35  38
ENDBRANCH  31  32
ENDBRANCH  30  31
ENDBRANCH  12  30
TORSDOF 9
ENDMDL
MODEL 2
REMARK VINA RESULT: -6.824004988      1.070      1.332
REMARK  9 active torsions:
REMARK  status: ('A' for Active; 'I' for Inactive)
REMARK    1  A    between atoms: C2_2  and  C4_4 
REMARK    2  A    between atoms: C4_4  and  N1_5 
REMARK    3  A    between atoms: C4_4  and  C18_27 
REMARK       I    between atoms: N1_5  and  C5_7 
REMARK       I    between atoms: C5_7  and  N3_11 
REMARK    4  A    between atoms: C10_16  and  C11_17 
REMARK    5  A    between atoms: C11_17  and  O1_18 
REMARK    6  A    between atoms: O1_18  and  C12_19 
REMARK    7  A    between atoms: C15_22  and  O2_23 
REMARK    8  A    between atoms: C18_27  and  C19_28 
REMARK    9  A    between atoms: C18_27  and  C26_37 
REMARK       I    between atoms: C19_28  and  N4_30 
ROOT
HETATM    1  N1  UNL     1      39.840 -22.881  27.529  1.00  0.00    -0.221 N 
ATOM      2  H1  UNL     1      40.373 -23.391  26.825  1.00  0.00     0.178 HD
HETATM    3  C5  UNL     1      40.228 -23.100  28.843  1.00  0.00     0.670 C 
HETATM    4  N2  UNL     1      40.013 -22.368  29.875  1.00  0.00    -0.235 N 
ATOM      5  H21 UNL     1      40.299 -22.530  30.841  1.00  0.00     0.174 HD
ATOM      6  H22 UNL     1      39.470 -21.538  29.638  1.00  0.00     0.174 HD
HETATM    7  N3  UNL     1      41.004 -24.286  29.183  1.00  0.00    -0.212 N 
HETATM    8  C6  UNL     1      40.340 -25.403  29.818  1.00  0.00     0.141 C 
HETATM    9  C7  UNL     1      40.539 -26.607  28.928  1.00  0.00     0.020 C 
HETATM   10  C8  UNL     1      42.030 -26.849  28.836  1.00  0.00     0.004 C 
HETATM   11  C9  UNL     1      42.755 -25.656  28.274  1.00  0.00     0.028 C 
HETATM   12  C10 UNL     1      42.400 -24.365  28.918  1.00  0.00     0.126 C 
ENDROOT
BRANCH   1  13
HETATM   13  C4  UNL     1      38.780 -22.027  27.013  1.00  0.00     0.116 C 
BRANCH  13  14
HETATM   14  C2  UNL     1      37.892 -22.789  26.071  1.00  0.00     0.002 C 
HETATM   15  C1  UNL     1      38.354 -22.783  24.639  1.00  0.00     0.011 C 
HETATM   16  C3  UNL     1      36.498 -22.095  26.025  1.00  0.00     0.011 C 
ENDBRANCH  13  14
BRANCH  13  17
HETATM   17  C18 UNL     1      39.287 -20.692  26.605  1.00  0.00     0.105 C 
BRANCH  17  18
HETATM   18  C19 UNL     1      38.782 -19.724  27.637  1.00  0.00     0.230 C 
HETATM   19  O3  UNL     1      39.251 -19.880  28.827  1.00  0.00    -0.273 OA
HETATM   20  N4  UNL     1      37.862 -18.669  27.500  1.00  0.00    -0.331 N 
HETATM   21  C20 UNL     1      37.568 -17.989  28.727  1.00  0.00     0.068 C 
HETATM   22  C25 UNL     1      37.418 -18.504  26.116  1.00  0.00     0.142 C 
HETATM   23  C21 UNL     1      38.226 -16.723  29.141  1.00  0.00     0.056 C 
HETATM   24  C22 UNL     1      38.106 -15.604  28.043  1.00  0.00     0.085 C 
HETATM   25  C23 UNL     1      37.817 -16.285  26.851  1.00  0.00    -0.181 C 
HETATM   26  C24 UNL     1      37.504 -16.989  25.683  1.00  0.00     0.100 C 
ENDBRANCH  17  18
BRANCH  17  27
HETATM   27  C26 UNL     1      40.757 -20.462  26.501  1.00  0.00    -0.008 C 
HETATM   28  C27 UNL     1      40.879 -19.045  25.858  1.00  0.00     0.010 C 
HETATM   29  C28 UNL     1      41.557 -21.309  25.581  1.00  0.00     0.010 C 
ENDBRANCH  17  27
ENDBRANCH  13  17
ENDBRANCH   1  13
BRANCH  12  30
HETATM   30  C11 UNL     1      43.224 -24.129  30.191  1.00  0.00     0.194 C 
BRANCH  30  31
HETATM   31  O1  UNL     1      43.220 -22.774  30.520  1.00  0.00    -0.384 OA
BRANCH  31  32
HETATM   32  C12 UNL     1      44.477 -22.230  30.570  1.00  0.00     0.121 C 
HETATM   33  C13 UNL     1      44.457 -20.740  30.406  1.00  0.00     0.034 C 
HETATM   34  C14 UNL     1      45.855 -20.260  29.999  1.00  0.00     0.034 C 
HETATM   35  C15 UNL     1      46.878 -21.136  30.644  1.00  0.00     0.118 C 
HETATM   36  C16 UNL     1      46.428 -21.704  31.974  1.00  0.00     0.034 C 
HETATM   37  C17 UNL     1      45.229 -22.584  31.833  1.00  0.00     0.034 C 
BRANCH  35  38
HETATM   38  O2  UNL     1      48.052 -20.405  30.881  1.00  0.00    -0.396 OA
ATOM     39  H2  UNL     1      47.897 -19.482  30.718  1.00  0.00     0.210 HD
ENDBRANCH  35  38
ENDBRANCH  31  32
ENDBRANCH  30  31
ENDBRANCH  12  30
TORSDOF 9
ENDMDL
MODEL 3
REMARK VINA RESULT: -6.821577335      2.394      7.534
REMARK  9 active torsions:
REMARK  status: ('A' for Active; 'I' for Inactive)
REMARK    1  A    between atoms: C2_2  and  C4_4 
REMARK    2  A    between atoms: C4_4  and  N1_5 
REMARK    3  A    between atoms: C4_4  and  C18_27 
REMARK       I    between atoms: N1_5  and  C5_7 
REMARK       I    between atoms: C5_7  and  N3_11 
REMARK    4  A    between atoms: C10_16  and  C11_17 
REMARK    5  A    between atoms: C11_17  and  O1_18 
REMARK    6  A    between atoms: O1_18  and  C12_19 
REMARK    7  A    between atoms: C15_22  and  O2_23 
REMARK    8  A    between atoms: C18_27  and  C19_28 
REMARK    9  A    between atoms: C18_27  and  C26_37 
REMARK       I    between atoms: C19_28  and  N4_30 
ROOT
HETATM    1  N1  UNL     1      40.306 -21.968  26.719  1.00  0.00    -0.221 N 
ATOM      2  H1  UNL     1      39.483 -22.468  27.056  1.00  0.00     0.178 HD
HETATM    3  C5  UNL     1      40.055 -20.739  26.126  1.00  0.00     0.670 C 
HETATM    4  N2  UNL     1      40.860 -19.757  25.944  1.00  0.00    -0.235 N 
ATOM      5  H21 UNL     1      40.674 -18.853  25.508  1.00  0.00     0.174 HD
ATOM      6  H22 UNL     1      41.795 -19.972  26.290  1.00  0.00     0.174 HD
HETATM    7  N3  UNL     1      38.719 -20.432  25.631  1.00  0.00    -0.212 N 
HETATM    8  C6  UNL     1      38.461 -20.503  24.210  1.00  0.00     0.141 C 
HETATM    9  C7  UNL     1      37.348 -21.504  24.005  1.00  0.00     0.020 C 
HETATM   10  C8  UNL     1      36.137 -20.978  24.746  1.00  0.00     0.004 C 
HETATM   11  C9  UNL     1      36.417 -20.797  26.214  1.00  0.00     0.028 C 
HETATM   12  C10 UNL     1      37.667 -20.051  26.510  1.00  0.00     0.126 C 
ENDROOT
BRANCH   1  13
HETATM   13  C4  UNL     1      41.578 -22.646  26.930  1.00  0.00     0.116 C 
BRANCH  13  14
HETATM   14  C2  UNL     1      41.639 -23.923  26.141  1.00  0.00     0.002 C 
HETATM   15  C1  UNL     1      40.296 -24.475  25.747  1.00  0.00     0.011 C 
HETATM   16  C3  UNL     1      42.262 -25.034  27.036  1.00  0.00     0.011 C 
ENDBRANCH  13  14
BRANCH  13  17
HETATM   17  C18 UNL     1      41.971 -22.663  28.361  1.00  0.00     0.105 C 
BRANCH  17  18
HETATM   18  C19 UNL     1      42.990 -21.570  28.524  1.00  0.00     0.230 C 
HETATM   19  O3  UNL     1      42.533 -20.367  28.464  1.00  0.00    -0.273 OA
HETATM   20  N4  UNL     1      44.378 -21.665  28.729  1.00  0.00    -0.331 N 
HETATM   21  C20 UNL     1      45.047 -20.398  28.777  1.00  0.00     0.068 C 
HETATM   22  C25 UNL     1      44.821 -23.053  28.852  1.00  0.00     0.142 C 
HETATM   23  C21 UNL     1      45.394 -19.702  30.042  1.00  0.00     0.056 C 
HETATM   24  C22 UNL     1      46.227 -20.614  31.014  1.00  0.00     0.085 C 
HETATM   25  C23 UNL     1      45.993 -21.928  30.580  1.00  0.00    -0.181 C 
HETATM   26  C24 UNL     1      45.762 -23.225  30.108  1.00  0.00     0.100 C 
ENDBRANCH  17  18
BRANCH  17  27
HETATM   27  C26 UNL     1      40.938 -22.431  29.412  1.00  0.00    -0.008 C 
HETATM   28  C27 UNL     1      41.765 -22.178  30.712  1.00  0.00     0.010 C 
HETATM   29  C28 UNL     1      40.043 -23.548  29.805  1.00  0.00     0.010 C 
ENDBRANCH  17  27
ENDBRANCH  13  17
ENDBRANCH   1  13
BRANCH  12  30
HETATM   30  C11 UNL     1      37.435 -18.534  26.479  1.00  0.00     0.194 C 
BRANCH  30  31
HETATM   31  O1  UNL     1      37.429 -18.023  27.776  1.00  0.00    -0.384 OA
BRANCH  31  32
HETATM   32  C12 UNL     1      37.115 -16.689  27.826  1.00  0.00     0.121 C 
HETATM   33  C13 UNL     1      36.519 -16.296  29.143  1.00  0.00     0.034 C 
HETATM   34  C14 UNL     1      35.773 -14.967  28.981  1.00  0.00     0.034 C 
HETATM   35  C15 UNL     1      36.481 -14.131  27.967  1.00  0.00     0.118 C 
HETATM   36  C16 UNL     1      37.973 -14.385  27.918  1.00  0.00     0.034 C 
HETATM   37  C17 UNL     1      38.292 -15.790  27.523  1.00  0.00     0.034 C 
BRANCH  35  38
HETATM   38  O2  UNL     1      36.301 -12.770  28.259  1.00  0.00    -0.396 OA
ATOM     39  H2  UNL     1      37.101 -12.408  28.621  1.00  0.00     0.210 HD
ENDBRANCH  35  38
ENDBRANCH  31  32
ENDBRANCH  30  31
ENDBRANCH  12  30
TORSDOF 9
ENDMDL
MODEL 4
REMARK VINA RESULT: -6.731599774      2.260      7.288
REMARK  9 active torsions:
REMARK  status: ('A' for Active; 'I' for Inactive)
REMARK    1  A    between atoms: C2_2  and  C4_4 
REMARK    2  A    between atoms: C4_4  and  N1_5 
REMARK    3  A    between atoms: C4_4  and  C18_27 
REMARK       I    between atoms: N1_5  and  C5_7 
REMARK       I    between atoms: C5_7  and  N3_11 
REMARK    4  A    between atoms: C10_16  and  C11_17 
REMARK    5  A    between atoms: C11_17  and  O1_18 
REMARK    6  A    between atoms: O1_18  and  C12_19 
REMARK    7  A    between atoms: C15_22  and  O2_23 
REMARK    8  A    between atoms: C18_27  and  C19_28 
REMARK    9  A    between atoms: C18_27  and  C26_37 
REMARK       I    between atoms: C19_28  and  N4_30 
ROOT
HETATM    1  N1  UNL     1      40.846 -21.868  26.846  1.00  0.00    -0.221 N 
ATOM      2  H1  UNL     1      40.116 -22.579  26.902  1.00  0.00     0.178 HD
HETATM    3  C5  UNL     1      40.395 -20.556  26.806  1.00  0.00     0.670 C 
HETATM    4  N2  UNL     1      41.034 -19.480  27.091  1.00  0.00    -0.235 N 
ATOM      5  H21 UNL     1      40.702 -18.516  27.062  1.00  0.00     0.174 HD
ATOM      6  H22 UNL     1      41.996 -19.679  27.365  1.00  0.00     0.174 HD
HETATM    7  N3  UNL     1      39.020 -20.272  26.416  1.00  0.00    -0.212 N 
HETATM    8  C6  UNL     1      38.754 -19.779  25.084  1.00  0.00     0.141 C 
HETATM    9  C7  UNL     1      37.809 -20.754  24.423  1.00  0.00     0.020 C 
HETATM   10  C8  UNL     1      36.542 -20.775  25.253  1.00  0.00     0.004 C 
HETATM   11  C9  UNL     1      36.814 -21.186  26.675  1.00  0.00     0.028 C 
HETATM   12  C10 UNL     1      37.936 -20.456  27.319  1.00  0.00     0.126 C 
ENDROOT
BRANCH   1  13
HETATM   13  C4  UNL     1      42.211 -22.374  26.821  1.00  0.00     0.116 C 
BRANCH  13  14
HETATM   14  C2  UNL     1      42.410 -23.314  25.666  1.00  0.00     0.002 C 
HETATM   15  C1  UNL     1      41.146 -23.956  25.162  1.00  0.00     0.011 C 
HETATM   16  C3  UNL     1      43.284 -24.512  26.141  1.00  0.00     0.011 C 
ENDBRANCH  13  14
BRANCH  13  17
HETATM   17  C18 UNL     1      42.682 -22.779  28.169  1.00  0.00     0.105 C 
BRANCH  17  18
HETATM   18  C19 UNL     1      43.417 -21.592  28.725  1.00  0.00     0.230 C 
HETATM   19  O3  UNL     1      42.681 -20.683  29.267  1.00  0.00    -0.273 OA
HETATM   20  N4  UNL     1      44.796 -21.319  28.737  1.00  0.00    -0.331 N 
HETATM   21  C20 UNL     1      45.133 -20.045  29.303  1.00  0.00     0.068 C 
HETATM   22  C25 UNL     1      45.578 -22.415  28.167  1.00  0.00     0.142 C 
HETATM   23  C21 UNL     1      45.574 -19.865  30.711  1.00  0.00     0.056 C 
HETATM   24  C22 UNL     1      46.797 -20.783  31.073  1.00  0.00     0.085 C 
HETATM   25  C23 UNL     1      46.796 -21.799  30.105  1.00  0.00    -0.181 C 
HETATM   26  C24 UNL     1      46.787 -22.784  29.112  1.00  0.00     0.100 C 
ENDBRANCH  17  18
BRANCH  17  27
HETATM   27  C26 UNL     1      41.689 -23.178  29.207  1.00  0.00    -0.008 C 
HETATM   28  C27 UNL     1      42.552 -23.835  30.331  1.00  0.00     0.010 C 
HETATM   29  C28 UNL     1      40.700 -24.240  28.892  1.00  0.00     0.010 C 
ENDBRANCH  17  27
ENDBRANCH  13  17
ENDBRANCH   1  13
BRANCH  12  30
HETATM   30  C11 UNL     1      37.468 -19.119  27.910  1.00  0.00     0.194 C 
BRANCH  30  31
HETATM   31  O1  UNL     1      38.568 -18.363  28.316  1.00  0.00    -0.384 OA
BRANCH  31  32
HETATM   32  C12 UNL     1      38.391 -17.016  28.134  1.00  0.00     0.121 C 
HETATM   33  C13 UNL     1      37.486 -16.713  26.978  1.00  0.00     0.034 C 
HETATM   34  C14 UNL     1      37.702 -15.262  26.537  1.00  0.00     0.034 C 
HETATM   35  C15 UNL     1      38.031 -14.432  27.735  1.00  0.00     0.118 C 
HETATM   36  C16 UNL     1      37.395 -14.944  29.010  1.00  0.00     0.034 C 
HETATM   37  C17 UNL     1      37.876 -16.312  29.369  1.00  0.00     0.034 C 
BRANCH  35  38
HETATM   38  O2  UNL     1      37.579 -13.117  27.544  1.00  0.00    -0.396 OA
ATOM     39  H2  UNL     1      37.679 -12.870  26.633  1.00  0.00     0.210 HD
ENDBRANCH  35  38
ENDBRANCH  31  32
ENDBRANCH  30  31
ENDBRANCH  12  30
TORSDOF 9
ENDMDL
MODEL 5
REMARK VINA RESULT: -6.671577040      1.980      6.720
REMARK  9 active torsions:
REMARK  status: ('A' for Active; 'I' for Inactive)
REMARK    1  A    between atoms: C2_2  and  C4_4 
REMARK    2  A    between atoms: C4_4  and  N1_5 
REMARK    3  A    between atoms: C4_4  and  C18_27 
REMARK       I    between atoms: N1_5  and  C5_7 
REMARK       I    between atoms: C5_7  and  N3_11 
REMARK    4  A    between atoms: C10_16  and  C11_17 
REMARK    5  A    between atoms: C11_17  and  O1_18 
REMARK    6  A    between atoms: O1_18  and  C12_19 
REMARK    7  A    between atoms: C15_22  and  O2_23 
REMARK    8  A    between atoms: C18_27  and  C19_28 
REMARK    9  A    between atoms: C18_27  and  C26_37 
REMARK       I    between atoms: C19_28  and  N4_30 
ROOT
HETATM    1  N1  UNL     1      40.328 -23.129  26.755  1.00  0.00    -0.221 N 
ATOM      2  H1  UNL     1      39.525 -23.351  27.345  1.00  0.00     0.178 HD
HETATM    3  C5  UNL     1      40.069 -22.272  25.695  1.00  0.00     0.670 C 
HETATM    4  N2  UNL     1      40.894 -21.551  25.027  1.00  0.00    -0.235 N 
ATOM      5  H21 UNL     1      40.703 -20.920  24.248  1.00  0.00     0.174 HD
ATOM      6  H22 UNL     1      41.851 -21.676  25.357  1.00  0.00     0.174 HD
HETATM    7  N3  UNL     1      38.701 -22.093  25.223  1.00  0.00    -0.212 N 
HETATM    8  C6  UNL     1      38.282 -22.760  24.012  1.00  0.00     0.141 C 
HETATM    9  C7  UNL     1      37.107 -23.641  24.367  1.00  0.00     0.020 C 
HETATM   10  C8  UNL     1      36.014 -22.732  24.888  1.00  0.00     0.004 C 
HETATM   11  C9  UNL     1      36.466 -21.948  26.090  1.00  0.00     0.028 C 
HETATM   12  C10 UNL     1      37.775 -21.266  25.919  1.00  0.00     0.126 C 
ENDROOT
BRANCH   1  13
HETATM   13  C4  UNL     1      41.581 -23.759  27.144  1.00  0.00     0.116 C 
BRANCH  13  14
HETATM   14  C2  UNL     1      41.572 -25.222  26.804  1.00  0.00     0.002 C 
HETATM   15  C1  UNL     1      40.211 -25.862  26.844  1.00  0.00     0.011 C 
HETATM   16  C3  UNL     1      42.389 -25.993  27.883  1.00  0.00     0.011 C 
ENDBRANCH  13  14
BRANCH  13  17
HETATM   17  C18 UNL     1      42.021 -23.337  28.498  1.00  0.00     0.105 C 
BRANCH  17  18
HETATM   18  C19 UNL     1      43.096 -22.309  28.283  1.00  0.00     0.230 C 
HETATM   19  O3  UNL     1      42.738 -21.252  27.638  1.00  0.00    -0.273 OA
HETATM   20  N4  UNL     1      44.446 -22.330  28.677  1.00  0.00    -0.331 N 
HETATM   21  C20 UNL     1      45.199 -21.191  28.239  1.00  0.00     0.068 C 
HETATM   22  C25 UNL     1      44.771 -23.522  29.459  1.00  0.00     0.142 C 
HETATM   23  C21 UNL     1      45.466 -20.007  29.095  1.00  0.00     0.056 C 
HETATM   24  C22 UNL     1      46.127 -20.400  30.465  1.00  0.00     0.085 C 
HETATM   25  C23 UNL     1      45.842 -21.764  30.635  1.00  0.00    -0.181 C 
HETATM   26  C24 UNL     1      45.565 -23.130  30.765  1.00  0.00     0.100 C 
ENDBRANCH  17  18
BRANCH  17  27
HETATM   27  C26 UNL     1      41.037 -22.721  29.434  1.00  0.00    -0.008 C 
HETATM   28  C27 UNL     1      41.917 -22.120  30.575  1.00  0.00     0.010 C 
HETATM   29  C28 UNL     1      40.096 -23.600  30.174  1.00  0.00     0.010 C 
ENDBRANCH  17  27
ENDBRANCH  13  17
ENDBRANCH   1  13
BRANCH  12  30
HETATM   30  C11 UNL     1      37.613 -19.906  25.229  1.00  0.00     0.194 C 
BRANCH  30  31
HETATM   31  O1  UNL     1      38.709 -19.092  25.509  1.00  0.00    -0.384 OA
BRANCH  31  32
HETATM   32  C12 UNL     1      38.825 -18.785  26.839  1.00  0.00     0.121 C 
HETATM   33  C13 UNL     1      40.209 -19.029  27.360  1.00  0.00     0.034 C 
HETATM   34  C14 UNL     1      40.161 -19.130  28.889  1.00  0.00     0.034 C 
HETATM   35  C15 UNL     1      39.094 -18.221  29.404  1.00  0.00     0.118 C 
HETATM   36  C16 UNL     1      38.874 -17.002  28.534  1.00  0.00     0.034 C 
HETATM   37  C17 UNL     1      38.413 -17.365  27.161  1.00  0.00     0.034 C 
BRANCH  35  38
HETATM   38  O2  UNL     1      39.435 -17.762  30.685  1.00  0.00    -0.396 OA
ATOM     39  H2  UNL     1      39.087 -18.352  31.344  1.00  0.00     0.210 HD
ENDBRANCH  35  38
ENDBRANCH  31  32
ENDBRANCH  30  31
ENDBRANCH  12  30
TORSDOF 9
ENDMDL
