MODEL 1
REMARK VINA RESULT: -8.445707672      0.000      0.000
REMARK  12 active torsions:
REMARK  status: ('A' for Active; 'I' for Inactive)
REMARK    1  A    between atoms: C3_4  and  C4_5 
REMARK    2  A    between atoms: C4_5  and  O2_6 
REMARK    3  A    between atoms: O2_6  and  C5_7 
REMARK    4  A    between atoms: C5_7  and  C6_9 
REMARK    5  A    between atoms: C6_9  and  C7_10 
REMARK    6  A    between atoms: C13_16  and  O4_17 
REMARK    7  A    between atoms: C14_19  and  O5_20 
REMARK    8  A    between atoms: C15_22  and  O6_23 
REMARK    9  A    between atoms: O6_23  and  C16_24 
REMARK   10  A    between atoms: C17_25  and  C18_26 
REMARK   11  A    between atoms: C18_26  and  N1_27 
REMARK   12  A    between atoms: C25_35  and  C26_36 
ROOT
HETATM    1  C1  UNL     1      -0.009  10.048 -18.613  1.00  0.00     0.042 C 
HETATM    2  C2  UNL     1       0.747   9.119 -19.454  1.00  0.00     0.150 C 
HETATM    3  O1  UNL     1       0.258   9.165 -20.797  1.00  0.00    -0.373 OA
HETATM    4  C3  UNL     1      -1.025   8.696 -20.900  1.00  0.00     0.177 C 
HETATM    5  C13 UNL     1      -0.976   7.170 -20.660  1.00  0.00     0.180 C 
HETATM    6  C14 UNL     1      -0.579   7.037 -19.177  1.00  0.00     0.181 C 
HETATM    7  C15 UNL     1       0.780   7.673 -19.091  1.00  0.00     0.189 C 
ENDROOT
BRANCH   7   8
HETATM    8  O6  UNL     1       1.621   7.232 -18.064  1.00  0.00    -0.339 OA
BRANCH   8   9
HETATM    9  C16 UNL     1       1.201   6.318 -17.059  1.00  0.00     0.096 A 
HETATM   10  C17 UNL     1       0.715   6.736 -15.860  1.00  0.00     0.011 A 
HETATM   11  C24 UNL     1       0.378   5.756 -14.956  1.00  0.00     0.062 A 
HETATM   12  S1  UNL     1       0.724   4.314 -15.768  1.00  0.00    -0.098 SA
HETATM   13  C25 UNL     1       1.299   4.986 -17.267  1.00  0.00     0.052 A 
BRANCH  10  14
HETATM   14  C18 UNL     1       0.450   8.192 -15.487  1.00  0.00     0.314 C 
BRANCH  14  15
HETATM   15  N1  UNL     1       1.157   8.549 -14.283  1.00  0.00     0.092 N 
HETATM   16  C19 UNL     1       2.481   8.979 -14.718  1.00  0.00     0.272 C 
HETATM   17  C20 UNL     1       2.444  10.015 -15.799  1.00  0.00     0.030 C 
HETATM   18  C21 UNL     1       1.697  11.222 -15.290  1.00  0.00     0.003 C 
HETATM   19  C22 UNL     1       1.346  10.978 -13.842  1.00  0.00     0.030 C 
HETATM   20  C23 UNL     1       0.548   9.727 -13.650  1.00  0.00     0.272 C 
ENDBRANCH  14  15
ENDBRANCH  10  14
BRANCH  13  21
HETATM   21  C26 UNL     1       1.792   4.169 -18.387  1.00  0.00     0.022 A 
HETATM   22  C27 UNL     1       0.942   3.918 -19.439  1.00  0.00     0.016 A 
HETATM   23  C28 UNL     1       1.402   3.246 -20.560  1.00  0.00     0.001 A 
HETATM   24  C29 UNL     1       2.710   2.818 -20.645  1.00  0.00     0.003 A 
HETATM   25  C30 UNL     1       3.558   3.066 -19.605  1.00  0.00     0.043 A 
HETATM   26  C31 UNL     1       3.078   3.747 -18.480  1.00  0.00     0.128 A 
HETATM   27  F1  UNL     1       4.024   4.020 -17.549  1.00  0.00    -0.205 F 
ENDBRANCH  13  21
ENDBRANCH   8   9
ENDBRANCH   7   8
BRANCH   6  28
HETATM   28  O5  UNL     1      -1.577   7.714 -18.487  1.00  0.00    -0.390 OA
ATOM     29  H5  UNL     1      -1.113   8.370 -17.982  1.00  0.00     0.210 HD
ENDBRANCH   6  28
BRANCH   5  30
HETATM   30  O4  UNL     1      -2.166   6.558 -20.941  1.00  0.00    -0.390 OA
ATOM     31  H4  UNL     1      -2.677   6.379 -20.161  1.00  0.00     0.210 HD
ENDBRANCH   5  30
BRANCH   4  32
HETATM   32  C4  UNL     1      -1.557   8.868 -22.280  1.00  0.00     0.213 C 
BRANCH  32  33
HETATM   33  O2  UNL     1      -2.304  10.012 -22.520  1.00  0.00    -0.319 OA
BRANCH  33  34
HETATM   34  C5  UNL     1      -1.650  11.249 -22.428  1.00  0.00     0.259 C 
HETATM   35  O3  UNL     1      -0.822  11.489 -23.338  1.00  0.00    -0.265 OA
BRANCH  34  36
HETATM   36  C6  UNL     1      -1.903  12.199 -21.356  1.00  0.00     0.115 C 
BRANCH  36  37
HETATM   37  C7  UNL     1      -3.332  12.593 -21.132  1.00  0.00    -0.005 C 
HETATM   38  C8  UNL     1      -4.019  11.506 -20.348  1.00  0.00     0.005 C 
HETATM   39  C9  UNL     1      -5.450  11.990 -20.097  1.00  0.00     0.000 C 
HETATM   40  C10 UNL     1      -6.125  11.905 -21.457  1.00  0.00     0.000 C 
HETATM   41  C11 UNL     1      -5.517  12.916 -22.365  1.00  0.00     0.000 C 
HETATM   42  C12 UNL     1      -4.028  12.964 -22.399  1.00  0.00     0.005 C 
ENDBRANCH  36  37
ENDBRANCH  34  36
ENDBRANCH  33  34
ENDBRANCH  32  33
ENDBRANCH   4  32
TORSDOF 12
ENDMDL
MODEL 2
REMARK VINA RESULT: -8.379903757      1.612      2.768
REMARK  12 active torsions:
REMARK  status: ('A' for Active; 'I' for Inactive)
REMARK    1  A    between atoms: C3_4  and  C4_5 
REMARK    2  A    between atoms: C4_5  and  O2_6 
REMARK    3  A    between atoms: O2_6  and  C5_7 
REMARK    4  A    between atoms: C5_7  and  C6_9 
REMARK    5  A    between atoms: C6_9  and  C7_10 
REMARK    6  A    between atoms: C13_16  and  O4_17 
REMARK    7  A    between atoms: C14_19  and  O5_20 
REMARK    8  A    between atoms: C15_22  and  O6_23 
REMARK    9  A    between atoms: O6_23  and  C16_24 
REMARK   10  A    between atoms: C17_25  and  C18_26 
REMARK   11  A    between atoms: C18_26  and  N1_27 
REMARK   12  A    between atoms: C25_35  and  C26_36 
ROOT
HETATM    1  C1  UNL     1      -0.417   5.329 -21.498  1.00  0.00     0.042 C 
HETATM    2  C2  UNL     1      -0.278   6.059 -20.237  1.00  0.00     0.150 C 
HETATM    3  O1  UNL     1      -1.338   7.008 -20.100  1.00  0.00    -0.373 OA
HETATM    4  C3  UNL     1      -1.270   8.003 -21.039  1.00  0.00     0.177 C 
HETATM    5  C13 UNL     1      -0.049   8.881 -20.690  1.00  0.00     0.180 C 
HETATM    6  C14 UNL     1       1.160   7.958 -20.941  1.00  0.00     0.181 C 
HETATM    7  C15 UNL     1       0.976   6.823 -19.975  1.00  0.00     0.189 C 
ENDROOT
BRANCH   7   8
HETATM    8  O6  UNL     1       2.131   6.146 -19.566  1.00  0.00    -0.339 OA
BRANCH   8   9
HETATM    9  C16 UNL     1       2.186   5.353 -18.387  1.00  0.00     0.096 A 
HETATM   10  C17 UNL     1       2.160   5.904 -17.145  1.00  0.00     0.011 A 
HETATM   11  C24 UNL     1       2.259   5.036 -16.082  1.00  0.00     0.062 A 
HETATM   12  S1  UNL     1       2.375   3.513 -16.809  1.00  0.00    -0.098 SA
HETATM   13  C25 UNL     1       2.293   4.009 -18.476  1.00  0.00     0.052 A 
BRANCH  10  14
HETATM   14  C18 UNL     1       1.952   7.388 -16.853  1.00  0.00     0.314 C 
BRANCH  14  15
HETATM   15  N1  UNL     1       0.854   7.582 -15.940  1.00  0.00     0.092 N 
HETATM   16  C19 UNL     1       1.006   8.938 -15.424  1.00  0.00     0.272 C 
HETATM   17  C20 UNL     1       1.166   9.967 -16.499  1.00  0.00     0.030 C 
HETATM   18  C21 UNL     1      -0.050   9.933 -17.390  1.00  0.00     0.003 C 
HETATM   19  C22 UNL     1      -1.026   8.937 -16.810  1.00  0.00     0.030 C 
HETATM   20  C23 UNL     1      -0.428   7.573 -16.656  1.00  0.00     0.272 C 
ENDBRANCH  14  15
ENDBRANCH  10  14
BRANCH  13  21
HETATM   21  C26 UNL     1       2.384   3.072 -19.607  1.00  0.00     0.022 A 
HETATM   22  C27 UNL     1       1.224   2.509 -20.087  1.00  0.00     0.016 A 
HETATM   23  C28 UNL     1       1.254   1.709 -21.217  1.00  0.00     0.001 A 
HETATM   24  C29 UNL     1       2.438   1.461 -21.880  1.00  0.00     0.003 A 
HETATM   25  C30 UNL     1       3.591   2.017 -21.409  1.00  0.00     0.043 A 
HETATM   26  C31 UNL     1       3.543   2.825 -20.267  1.00  0.00     0.128 A 
HETATM   27  F1  UNL     1       4.726   3.399 -19.941  1.00  0.00    -0.205 F 
ENDBRANCH  13  21
ENDBRANCH   8   9
ENDBRANCH   7   8
BRANCH   6  28
HETATM   28  O5  UNL     1       1.050   7.600 -22.279  1.00  0.00    -0.390 OA
ATOM     29  H5  UNL     1       0.839   8.411 -22.725  1.00  0.00     0.210 HD
ENDBRANCH   6  28
BRANCH   5  30
HETATM   30  O4  UNL     1       0.003  10.027 -21.433  1.00  0.00    -0.390 OA
ATOM     31  H4  UNL     1       0.256  10.784 -20.918  1.00  0.00     0.210 HD
ENDBRANCH   5  30
BRANCH   4  32
HETATM   32  C4  UNL     1      -2.451   8.908 -20.958  1.00  0.00     0.213 C 
BRANCH  32  33
HETATM   33  O2  UNL     1      -2.435   9.862 -19.951  1.00  0.00    -0.319 OA
BRANCH  33  34
HETATM   34  C5  UNL     1      -3.668  10.301 -19.448  1.00  0.00     0.259 C 
HETATM   35  O3  UNL     1      -3.655  10.682 -18.253  1.00  0.00    -0.265 OA
BRANCH  34  36
HETATM   36  C6  UNL     1      -4.885  10.318 -20.242  1.00  0.00     0.115 C 
BRANCH  36  37
HETATM   37  C7  UNL     1      -5.341  11.656 -20.742  1.00  0.00    -0.005 C 
HETATM   38  C8  UNL     1      -6.573  11.466 -21.587  1.00  0.00     0.005 C 
HETATM   39  C9  UNL     1      -7.026  12.865 -22.016  1.00  0.00     0.000 C 
HETATM   40  C10 UNL     1      -5.983  13.307 -23.030  1.00  0.00     0.000 C 
HETATM   41  C11 UNL     1      -4.682  13.507 -22.336  1.00  0.00     0.000 C 
HETATM   42  C12 UNL     1      -4.248  12.416 -21.418  1.00  0.00     0.005 C 
ENDBRANCH  36  37
ENDBRANCH  34  36
ENDBRANCH  33  34
ENDBRANCH  32  33
ENDBRANCH   4  32
TORSDOF 12
ENDMDL
MODEL 3
REMARK VINA RESULT: -8.369880404      1.960      5.117
REMARK  12 active torsions:
REMARK  status: ('A' for Active; 'I' for Inactive)
REMARK    1  A    between atoms: C3_4  and  C4_5 
REMARK    2  A    between atoms: C4_5  and  O2_6 
REMARK    3  A    between atoms: O2_6  and  C5_7 
REMARK    4  A    between atoms: C5_7  and  C6_9 
REMARK    5  A    between atoms: C6_9  and  C7_10 
REMARK    6  A    between atoms: C13_16  and  O4_17 
REMARK    7  A    between atoms: C14_19  and  O5_20 
REMARK    8  A    between atoms: C15_22  and  O6_23 
REMARK    9  A    between atoms: O6_23  and  C16_24 
REMARK   10  A    between atoms: C17_25  and  C18_26 
REMARK   11  A    between atoms: C18_26  and  N1_27 
REMARK   12  A    between atoms: C25_35  and  C26_36 
ROOT
HETATM    1  C1  UNL     1      -1.131   9.882 -18.467  1.00  0.00     0.042 C 
HETATM    2  C2  UNL     1      -0.114   9.088 -19.157  1.00  0.00     0.150 C 
HETATM    3  O1  UNL     1       0.107   9.608 -20.470  1.00  0.00    -0.373 OA
HETATM    4  C3  UNL     1      -0.991   9.467 -21.277  1.00  0.00     0.177 C 
HETATM    5  C13 UNL     1      -1.144   7.960 -21.584  1.00  0.00     0.180 C 
HETATM    6  C14 UNL     1      -1.516   7.337 -20.224  1.00  0.00     0.181 C 
HETATM    7  C15 UNL     1      -0.334   7.625 -19.341  1.00  0.00     0.189 C 
ENDROOT
BRANCH   7   8
HETATM    8  O6  UNL     1      -0.115   6.748 -18.273  1.00  0.00    -0.339 OA
BRANCH   8   9
HETATM    9  C16 UNL     1       1.174   6.255 -17.930  1.00  0.00     0.096 A 
HETATM   10  C17 UNL     1       1.640   5.066 -18.396  1.00  0.00     0.011 A 
HETATM   11  C24 UNL     1       2.886   4.679 -17.961  1.00  0.00     0.062 A 
HETATM   12  S1  UNL     1       3.377   5.942 -16.949  1.00  0.00    -0.098 SA
HETATM   13  C25 UNL     1       1.971   6.959 -17.096  1.00  0.00     0.052 A 
BRANCH  10  14
HETATM   14  C18 UNL     1       0.919   4.186 -19.413  1.00  0.00     0.314 C 
BRANCH  14  15
HETATM   15  N1  UNL     1       1.203   4.619 -20.758  1.00  0.00     0.092 N 
HETATM   16  C19 UNL     1       2.311   3.787 -21.214  1.00  0.00     0.272 C 
HETATM   17  C20 UNL     1       2.069   2.322 -21.025  1.00  0.00     0.030 C 
HETATM   18  C21 UNL     1       0.834   1.929 -21.795  1.00  0.00     0.003 C 
HETATM   19  C22 UNL     1       0.350   3.142 -22.553  1.00  0.00     0.030 C 
HETATM   20  C23 UNL     1       0.081   4.308 -21.654  1.00  0.00     0.272 C 
ENDBRANCH  14  15
ENDBRANCH  10  14
BRANCH  13  21
HETATM   21  C26 UNL     1       1.813   8.233 -16.377  1.00  0.00     0.022 A 
HETATM   22  C27 UNL     1       2.531   9.324 -16.812  1.00  0.00     0.016 A 
HETATM   23  C28 UNL     1       2.329  10.565 -16.232  1.00  0.00     0.001 A 
HETATM   24  C29 UNL     1       1.411  10.735 -15.217  1.00  0.00     0.003 A 
HETATM   25  C30 UNL     1       0.695   9.657 -14.783  1.00  0.00     0.043 A 
HETATM   26  C31 UNL     1       0.910   8.409 -15.380  1.00  0.00     0.128 A 
HETATM   27  F1  UNL     1       0.083   7.431 -14.938  1.00  0.00    -0.205 F 
ENDBRANCH  13  21
ENDBRANCH   8   9
ENDBRANCH   7   8
BRANCH   6  28
HETATM   28  O5  UNL     1      -2.686   7.988 -19.853  1.00  0.00    -0.390 OA
ATOM     29  H5  UNL     1      -3.314   7.289 -19.719  1.00  0.00     0.210 HD
ENDBRANCH   6  28
BRANCH   5  30
HETATM   30  O4  UNL     1      -2.081   7.714 -22.548  1.00  0.00    -0.390 OA
ATOM     31  H4  UNL     1      -1.747   7.860 -23.426  1.00  0.00     0.210 HD
ENDBRANCH   5  30
BRANCH   4  32
HETATM   32  C4  UNL     1      -0.784  10.126 -22.597  1.00  0.00     0.213 C 
BRANCH  32  33
HETATM   33  O2  UNL     1      -1.779  10.995 -23.020  1.00  0.00    -0.319 OA
BRANCH  33  34
HETATM   34  C5  UNL     1      -1.646  12.351 -22.688  1.00  0.00     0.259 C 
HETATM   35  O3  UNL     1      -1.152  13.077 -23.584  1.00  0.00    -0.265 OA
BRANCH  34  36
HETATM   36  C6  UNL     1      -2.046  12.894 -21.400  1.00  0.00     0.115 C 
BRANCH  36  37
HETATM   37  C7  UNL     1      -3.516  12.917 -21.110  1.00  0.00    -0.005 C 
HETATM   38  C8  UNL     1      -3.888  11.655 -20.376  1.00  0.00     0.005 C 
HETATM   39  C9  UNL     1      -5.381  11.764 -20.053  1.00  0.00     0.000 C 
HETATM   40  C10 UNL     1      -6.074  11.593 -21.395  1.00  0.00     0.000 C 
HETATM   41  C11 UNL     1      -5.767  12.769 -22.255  1.00  0.00     0.000 C 
HETATM   42  C12 UNL     1      -4.336  13.178 -22.330  1.00  0.00     0.005 C 
ENDBRANCH  36  37
ENDBRANCH  34  36
ENDBRANCH  33  34
ENDBRANCH  32  33
ENDBRANCH   4  32
TORSDOF 12
ENDMDL
MODEL 4
REMARK VINA RESULT: -8.358920599      1.987      5.154
REMARK  12 active torsions:
REMARK  status: ('A' for Active; 'I' for Inactive)
REMARK    1  A    between atoms: C3_4  and  C4_5 
REMARK    2  A    between atoms: C4_5  and  O2_6 
REMARK    3  A    between atoms: O2_6  and  C5_7 
REMARK    4  A    between atoms: C5_7  and  C6_9 
REMARK    5  A    between atoms: C6_9  and  C7_10 
REMARK    6  A    between atoms: C13_16  and  O4_17 
REMARK    7  A    between atoms: C14_19  and  O5_20 
REMARK    8  A    between atoms: C15_22  and  O6_23 
REMARK    9  A    between atoms: O6_23  and  C16_24 
REMARK   10  A    between atoms: C17_25  and  C18_26 
REMARK   11  A    between atoms: C18_26  and  N1_27 
REMARK   12  A    between atoms: C25_35  and  C26_36 
ROOT
HETATM    1  C1  UNL     1      -1.577   9.980 -18.206  1.00  0.00     0.042 C 
HETATM    2  C2  UNL     1      -0.461   9.300 -18.865  1.00  0.00     0.150 C 
HETATM    3  O1  UNL     1      -0.216   9.888 -20.145  1.00  0.00    -0.373 OA
HETATM    4  C3  UNL     1      -1.254   9.686 -21.016  1.00  0.00     0.177 C 
HETATM    5  C13 UNL     1      -1.261   8.185 -21.382  1.00  0.00     0.180 C 
HETATM    6  C14 UNL     1      -1.651   7.482 -20.067  1.00  0.00     0.181 C 
HETATM    7  C15 UNL     1      -0.546   7.832 -19.110  1.00  0.00     0.189 C 
ENDROOT
BRANCH   7   8
HETATM    8  O6  UNL     1      -0.310   6.936 -18.062  1.00  0.00    -0.339 OA
BRANCH   8   9
HETATM    9  C16 UNL     1       0.992   6.490 -17.704  1.00  0.00     0.096 A 
HETATM   10  C17 UNL     1       1.511   5.325 -18.174  1.00  0.00     0.011 A 
HETATM   11  C24 UNL     1       2.765   4.982 -17.725  1.00  0.00     0.062 A 
HETATM   12  S1  UNL     1       3.192   6.254 -16.695  1.00  0.00    -0.098 SA
HETATM   13  C25 UNL     1       1.750   7.217 -16.853  1.00  0.00     0.052 A 
BRANCH  10  14
HETATM   14  C18 UNL     1       0.839   4.426 -19.209  1.00  0.00     0.314 C 
BRANCH  14  15
HETATM   15  N1  UNL     1       1.173   4.847 -20.546  1.00  0.00     0.092 N 
HETATM   16  C19 UNL     1       2.290   4.003 -20.956  1.00  0.00     0.272 C 
HETATM   17  C20 UNL     1       2.030   2.541 -20.764  1.00  0.00     0.030 C 
HETATM   18  C21 UNL     1       0.820   2.151 -21.574  1.00  0.00     0.003 C 
HETATM   19  C22 UNL     1       0.373   3.362 -22.359  1.00  0.00     0.030 C 
HETATM   20  C23 UNL     1       0.081   4.537 -21.479  1.00  0.00     0.272 C 
ENDBRANCH  14  15
ENDBRANCH  10  14
BRANCH  13  21
HETATM   21  C26 UNL     1       1.532   8.477 -16.126  1.00  0.00     0.022 A 
HETATM   22  C27 UNL     1       0.800   8.443 -14.961  1.00  0.00     0.016 A 
HETATM   23  C28 UNL     1       0.664   9.586 -14.191  1.00  0.00     0.001 A 
HETATM   24  C29 UNL     1       1.256  10.773 -14.570  1.00  0.00     0.003 A 
HETATM   25  C30 UNL     1       1.985  10.812 -15.723  1.00  0.00     0.043 A 
HETATM   26  C31 UNL     1       2.113   9.648 -16.490  1.00  0.00     0.128 A 
HETATM   27  F1  UNL     1       2.932   9.775 -17.562  1.00  0.00    -0.205 F 
ENDBRANCH  13  21
ENDBRANCH   8   9
ENDBRANCH   7   8
BRANCH   6  28
HETATM   28  O5  UNL     1      -2.890   8.018 -19.740  1.00  0.00    -0.390 OA
ATOM     29  H5  UNL     1      -3.464   7.265 -19.674  1.00  0.00     0.210 HD
ENDBRANCH   6  28
BRANCH   5  30
HETATM   30  O4  UNL     1      -2.122   7.900 -22.405  1.00  0.00    -0.390 OA
ATOM     31  H4  UNL     1      -2.307   6.971 -22.476  1.00  0.00     0.210 HD
ENDBRANCH   5  30
BRANCH   4  32
HETATM   32  C4  UNL     1      -1.034  10.411 -22.299  1.00  0.00     0.213 C 
BRANCH  32  33
HETATM   33  O2  UNL     1      -0.758  11.766 -22.208  1.00  0.00    -0.319 OA
BRANCH  33  34
HETATM   34  C5  UNL     1      -1.812  12.627 -21.870  1.00  0.00     0.259 C 
HETATM   35  O3  UNL     1      -1.662  13.266 -20.802  1.00  0.00    -0.265 OA
BRANCH  34  36
HETATM   36  C6  UNL     1      -3.003  12.779 -22.690  1.00  0.00     0.115 C 
BRANCH  36  37
HETATM   37  C7  UNL     1      -4.318  12.752 -21.972  1.00  0.00    -0.005 C 
HETATM   38  C8  UNL     1      -4.572  11.355 -21.471  1.00  0.00     0.005 C 
HETATM   39  C9  UNL     1      -5.893  11.404 -20.697  1.00  0.00     0.000 C 
HETATM   40  C10 UNL     1      -6.956  11.578 -21.770  1.00  0.00     0.000 C 
HETATM   41  C11 UNL     1      -6.808  12.924 -22.387  1.00  0.00     0.000 C 
HETATM   42  C12 UNL     1      -5.429  13.317 -22.794  1.00  0.00     0.005 C 
ENDBRANCH  36  37
ENDBRANCH  34  36
ENDBRANCH  33  34
ENDBRANCH  32  33
ENDBRANCH   4  32
TORSDOF 12
ENDMDL
MODEL 5
REMARK VINA RESULT: -8.301137956      2.267      5.470
REMARK  12 active torsions:
REMARK  status: ('A' for Active; 'I' for Inactive)
REMARK    1  A    between atoms: C3_4  and  C4_5 
REMARK    2  A    between atoms: C4_5  and  O2_6 
REMARK    3  A    between atoms: O2_6  and  C5_7 
REMARK    4  A    between atoms: C5_7  and  C6_9 
REMARK    5  A    between atoms: C6_9  and  C7_10 
REMARK    6  A    between atoms: C13_16  and  O4_17 
REMARK    7  A    between atoms: C14_19  and  O5_20 
REMARK    8  A    between atoms: C15_22  and  O6_23 
REMARK    9  A    between atoms: O6_23  and  C16_24 
REMARK   10  A    between atoms: C17_25  and  C18_26 
REMARK   11  A    between atoms: C18_26  and  N1_27 
REMARK   12  A    between atoms: C25_35  and  C26_36 
ROOT
HETATM    1  C1  UNL     1      -2.186   8.059 -19.669  1.00  0.00     0.042 C 
HETATM    2  C2  UNL     1      -0.825   7.906 -20.186  1.00  0.00     0.150 C 
HETATM    3  O1  UNL     1      -0.612   8.806 -21.277  1.00  0.00    -0.373 OA
HETATM    4  C3  UNL     1      -1.388   8.499 -22.363  1.00  0.00     0.177 C 
HETATM    5  C13 UNL     1      -0.842   7.183 -22.961  1.00  0.00     0.180 C 
HETATM    6  C14 UNL     1      -1.156   6.125 -21.885  1.00  0.00     0.181 C 
HETATM    7  C15 UNL     1      -0.380   6.571 -20.678  1.00  0.00     0.189 C 
ENDROOT
BRANCH   7   8
HETATM    8  O6  UNL     1      -0.009   5.580 -19.763  1.00  0.00    -0.339 OA
BRANCH   8   9
HETATM    9  C16 UNL     1       1.322   5.426 -19.287  1.00  0.00     0.096 A 
HETATM   10  C17 UNL     1       2.225   4.626 -19.914  1.00  0.00     0.011 A 
HETATM   11  C24 UNL     1       3.469   4.528 -19.335  1.00  0.00     0.062 A 
HETATM   12  S1  UNL     1       3.366   5.527 -17.974  1.00  0.00    -0.098 SA
HETATM   13  C25 UNL     1       1.721   6.064 -18.164  1.00  0.00     0.052 A 
BRANCH  10  14
HETATM   14  C18 UNL     1       1.979   3.905 -21.237  1.00  0.00     0.314 C 
BRANCH  14  15
HETATM   15  N1  UNL     1       0.879   2.982 -21.120  1.00  0.00     0.092 N 
HETATM   16  C19 UNL     1       0.465   2.688 -22.487  1.00  0.00     0.272 C 
HETATM   17  C20 UNL     1       1.597   2.265 -23.372  1.00  0.00     0.030 C 
HETATM   18  C21 UNL     1       2.230   1.026 -22.791  1.00  0.00     0.003 C 
HETATM   19  C22 UNL     1       1.426   0.612 -21.582  1.00  0.00     0.030 C 
HETATM   20  C23 UNL     1       1.330   1.701 -20.560  1.00  0.00     0.272 C 
ENDBRANCH  14  15
ENDBRANCH  10  14
BRANCH  13  21
HETATM   21  C26 UNL     1       1.045   6.960 -17.213  1.00  0.00     0.022 A 
HETATM   22  C27 UNL     1       1.329   8.306 -17.267  1.00  0.00     0.016 A 
HETATM   23  C28 UNL     1       0.635   9.196 -16.464  1.00  0.00     0.001 A 
HETATM   24  C29 UNL     1      -0.348   8.758 -15.602  1.00  0.00     0.003 A 
HETATM   25  C30 UNL     1      -0.635   7.425 -15.546  1.00  0.00     0.043 A 
HETATM   26  C31 UNL     1       0.075   6.538 -16.365  1.00  0.00     0.128 A 
HETATM   27  F1  UNL     1      -0.353   5.255 -16.296  1.00  0.00    -0.205 F 
ENDBRANCH  13  21
ENDBRANCH   8   9
ENDBRANCH   7   8
BRANCH   6  28
HETATM   28  O5  UNL     1      -2.536   6.181 -21.736  1.00  0.00    -0.390 OA
ATOM     29  H5  UNL     1      -2.710   7.075 -21.466  1.00  0.00     0.210 HD
ENDBRANCH   6  28
BRANCH   5  30
HETATM   30  O4  UNL     1      -1.403   6.885 -24.171  1.00  0.00    -0.390 OA
ATOM     31  H4  UNL     1      -0.772   6.905 -24.880  1.00  0.00     0.210 HD
ENDBRANCH   5  30
BRANCH   4  32
HETATM   32  C4  UNL     1      -1.243   9.519 -23.439  1.00  0.00     0.213 C 
BRANCH  32  33
HETATM   33  O2  UNL     1      -2.076  10.625 -23.363  1.00  0.00    -0.319 OA
BRANCH  33  34
HETATM   34  C5  UNL     1      -1.557  11.796 -22.792  1.00  0.00     0.259 C 
HETATM   35  O3  UNL     1      -0.809  12.471 -23.537  1.00  0.00    -0.265 OA
BRANCH  34  36
HETATM   36  C6  UNL     1      -1.855  12.211 -21.431  1.00  0.00     0.115 C 
BRANCH  36  37
HETATM   37  C7  UNL     1      -3.282  12.559 -21.133  1.00  0.00    -0.005 C 
HETATM   38  C8  UNL     1      -3.941  11.384 -20.460  1.00  0.00     0.005 C 
HETATM   39  C9  UNL     1      -5.370  11.819 -20.126  1.00  0.00     0.000 C 
HETATM   40  C10 UNL     1      -6.075  11.878 -21.472  1.00  0.00     0.000 C 
HETATM   41  C11 UNL     1      -5.499  12.991 -22.275  1.00  0.00     0.000 C 
HETATM   42  C12 UNL     1      -4.011  13.061 -22.336  1.00  0.00     0.005 C 
ENDBRANCH  36  37
ENDBRANCH  34  36
ENDBRANCH  33  34
ENDBRANCH  32  33
ENDBRANCH   4  32
TORSDOF 12
ENDMDL
