MODEL 1
REMARK VINA RESULT: -7.671366827      0.000      0.000
REMARK  10 active torsions:
REMARK  status: ('A' for Active; 'I' for Inactive)
REMARK    1  A    between atoms: C2_2  and  C3_3 
REMARK    2  A    between atoms: C3_3  and  C4_4 
REMARK    3  A    between atoms: C4_4  and  C5_5 
REMARK    4  A    between atoms: C5_5  and  N1_6 
REMARK    5  A    between atoms: C5_5  and  C11_17 
REMARK       I    between atoms: N1_6  and  C6_8 
REMARK    6  A    between atoms: C6_8  and  C7_10 
REMARK    7  A    between atoms: C14_21  and  O4_22 
REMARK    8  A    between atoms: C16_24  and  O5_25 
REMARK    9  A    between atoms: C23_36  and  C24_37 
REMARK   10  A    between atoms: C24_37  and  C25_38 
ROOT
HETATM    1  C11 UNL     1      -1.453   9.316 -21.815  1.00  0.00     0.189 C 
HETATM    2  O3  UNL     1      -1.576   9.232 -23.201  1.00  0.00    -0.340 OA
HETATM    3  C12 UNL     1      -0.521   9.099 -24.065  1.00  0.00     0.082 A 
HETATM    4  C13 UNL     1      -0.676   9.463 -25.403  1.00  0.00     0.077 A 
HETATM    5  C14 UNL     1       0.380   9.334 -26.282  1.00  0.00     0.105 A 
HETATM    6  C16 UNL     1       1.560   8.837 -25.758  1.00  0.00     0.117 A 
HETATM    7  C17 UNL     1       1.704   8.481 -24.436  1.00  0.00     0.058 A 
HETATM    8 BR1  UNL     1       3.347   7.802 -23.761  1.00  0.00    -0.047 Br
HETATM    9  C18 UNL     1       0.640   8.612 -23.557  1.00  0.00     0.028 A 
HETATM   10  C19 UNL     1       0.782   8.231 -22.132  1.00  0.00     0.199 C 
HETATM   11  O6  UNL     1       1.042   6.863 -22.162  1.00  0.00    -0.343 OA
HETATM   12  C20 UNL     1      -0.145   6.268 -21.888  1.00  0.00     0.159 C 
HETATM   13  C21 UNL     1      -0.827   5.853 -23.187  1.00  0.00     0.078 C 
HETATM   14  C22 UNL     1       0.162   4.966 -21.160  1.00  0.00     0.078 C 
HETATM   15  O7  UNL     1      -0.920   7.115 -21.167  1.00  0.00    -0.339 OA
HETATM   16  C23 UNL     1      -0.358   8.424 -21.236  1.00  0.00     0.123 C 
ENDROOT
BRANCH   1  17
HETATM   17  C5  UNL     1      -1.449  10.740 -21.406  1.00  0.00     0.117 C 
BRANCH  17  18
HETATM   18  C4  UNL     1      -0.410  11.600 -22.007  1.00  0.00     0.028 C 
BRANCH  18  19
HETATM   19  C3  UNL     1      -0.692  13.061 -22.024  1.00  0.00     0.002 C 
BRANCH  19  20
HETATM   20  C2  UNL     1      -0.566  13.691 -23.401  1.00  0.00    -0.004 C 
HETATM   21  C1  UNL     1       0.358  12.861 -24.266  1.00  0.00     0.005 C 
ENDBRANCH  19  20
ENDBRANCH  18  19
ENDBRANCH  17  18
BRANCH  17  22
HETATM   22  N1  UNL     1      -2.759  11.262 -21.812  1.00  0.00    -0.348 N 
HETATM   23  C6  UNL     1      -3.826  11.546 -20.970  1.00  0.00     0.277 C 
HETATM   24  O1  UNL     1      -3.730  11.361 -19.736  1.00  0.00    -0.265 OA
ATOM     25  H1  UNL     1      -2.898  11.433 -22.808  1.00  0.00     0.163 HD
BRANCH  23  26
HETATM   26  C7  UNL     1      -5.080  12.065 -21.490  1.00  0.00     0.168 A 
HETATM   27  C8  UNL     1      -6.327  11.479 -21.481  1.00  0.00     0.071 A 
HETATM   28  C9  UNL     1      -7.175  12.368 -22.089  1.00  0.00     0.031 A 
HETATM   29  C10 UNL     1      -8.634  12.169 -22.310  1.00  0.00     0.070 C 
HETATM   30  N2  UNL     1      -6.456  13.425 -22.438  1.00  0.00    -0.265 N 
HETATM   31  O2  UNL     1      -5.240  13.237 -22.084  1.00  0.00    -0.232 OA
ATOM     32  H2  UNL     1      -6.813  14.254 -22.911  1.00  0.00     0.194 HD
ENDBRANCH  23  26
ENDBRANCH  17  22
ENDBRANCH   1  17
BRANCH  16  33
HETATM   33  C24 UNL     1      -0.125   8.763 -19.807  1.00  0.00     0.048 C 
BRANCH  33  34
HETATM   34  C25 UNL     1      -0.985   8.248 -18.728  1.00  0.00    -0.020 C 
HETATM   35  C26 UNL     1      -0.449   7.263 -17.757  1.00  0.00     0.009 C 
HETATM   36  C27 UNL     1      -1.421   9.459 -17.851  1.00  0.00     0.009 C 
ENDBRANCH  33  34
ENDBRANCH  16  33
BRANCH   5  37
HETATM   37  O4  UNL     1       0.300   9.675 -27.625  1.00  0.00    -0.353 OA
HETATM   38  C15 UNL     1      -0.983   9.645 -28.224  1.00  0.00     0.210 C 
ENDBRANCH   5  37
BRANCH   6  39
HETATM   39  O5  UNL     1       2.640   8.697 -26.620  1.00  0.00    -0.357 OA
ATOM     40  H5  UNL     1       2.968   7.820 -26.778  1.00  0.00     0.218 HD
ENDBRANCH   6  39
TORSDOF 10
ENDMDL
MODEL 2
REMARK VINA RESULT: -7.554056257      3.328      4.846
REMARK  10 active torsions:
REMARK  status: ('A' for Active; 'I' for Inactive)
REMARK    1  A    between atoms: C2_2  and  C3_3 
REMARK    2  A    between atoms: C3_3  and  C4_4 
REMARK    3  A    between atoms: C4_4  and  C5_5 
REMARK    4  A    between atoms: C5_5  and  N1_6 
REMARK    5  A    between atoms: C5_5  and  C11_17 
REMARK       I    between atoms: N1_6  and  C6_8 
REMARK    6  A    between atoms: C6_8  and  C7_10 
REMARK    7  A    between atoms: C14_21  and  O4_22 
REMARK    8  A    between atoms: C16_24  and  O5_25 
REMARK    9  A    between atoms: C23_36  and  C24_37 
REMARK   10  A    between atoms: C24_37  and  C25_38 
ROOT
HETATM    1  C11 UNL     1      -0.901   8.779 -18.393  1.00  0.00     0.189 C 
HETATM    2  O3  UNL     1      -1.156   7.609 -19.107  1.00  0.00    -0.340 OA
HETATM    3  C12 UNL     1      -0.190   6.730 -19.523  1.00  0.00     0.082 A 
HETATM    4  C13 UNL     1      -0.463   5.856 -20.577  1.00  0.00     0.077 A 
HETATM    5  C14 UNL     1       0.503   4.968 -21.005  1.00  0.00     0.105 A 
HETATM    6  C16 UNL     1       1.714   5.005 -20.338  1.00  0.00     0.117 A 
HETATM    7  C17 UNL     1       1.973   5.871 -19.300  1.00  0.00     0.058 A 
HETATM    8 BR1  UNL     1       3.655   5.886 -18.413  1.00  0.00    -0.047 Br
HETATM    9  C18 UNL     1       1.001   6.762 -18.873  1.00  0.00     0.028 A 
HETATM   10  C19 UNL     1       1.267   7.698 -17.755  1.00  0.00     0.199 C 
HETATM   11  O6  UNL     1       1.490   6.873 -16.655  1.00  0.00    -0.343 OA
HETATM   12  C20 UNL     1       0.319   6.868 -15.971  1.00  0.00     0.159 C 
HETATM   13  C21 UNL     1      -0.493   5.632 -16.344  1.00  0.00     0.078 C 
HETATM   14  C22 UNL     1       0.662   6.695 -14.497  1.00  0.00     0.078 C 
HETATM   15  O7  UNL     1      -0.363   8.009 -16.232  1.00  0.00    -0.339 OA
HETATM   16  C23 UNL     1       0.223   8.645 -17.367  1.00  0.00     0.123 C 
ENDROOT
BRANCH   1  17
HETATM   17  C5  UNL     1      -0.822   9.922 -19.332  1.00  0.00     0.117 C 
BRANCH  17  18
HETATM   18  C4  UNL     1       0.049   9.753 -20.513  1.00  0.00     0.028 C 
BRANCH  18  19
HETATM   19  C3  UNL     1       1.411  10.342 -20.418  1.00  0.00     0.002 C 
BRANCH  19  20
HETATM   20  C2  UNL     1       2.514   9.410 -20.891  1.00  0.00    -0.004 C 
HETATM   21  C1  UNL     1       2.000   8.526 -22.006  1.00  0.00     0.005 C 
ENDBRANCH  19  20
ENDBRANCH  18  19
ENDBRANCH  17  18
BRANCH  17  22
HETATM   22  N1  UNL     1      -2.195  10.125 -19.809  1.00  0.00    -0.348 N 
HETATM   23  C6  UNL     1      -2.730  11.313 -20.289  1.00  0.00     0.277 C 
HETATM   24  O1  UNL     1      -2.029  12.349 -20.348  1.00  0.00    -0.265 OA
ATOM     25  H1  UNL     1      -2.816   9.316 -19.784  1.00  0.00     0.163 HD
BRANCH  23  26
HETATM   26  C7  UNL     1      -4.110  11.393 -20.737  1.00  0.00     0.168 A 
HETATM   27  C8  UNL     1      -4.714  12.363 -21.507  1.00  0.00     0.071 A 
HETATM   28  C9  UNL     1      -6.022  11.983 -21.651  1.00  0.00     0.031 A 
HETATM   29  C10 UNL     1      -7.067  12.724 -22.409  1.00  0.00     0.070 C 
HETATM   30  N2  UNL     1      -6.177  10.843 -20.993  1.00  0.00    -0.265 N 
HETATM   31  O2  UNL     1      -5.059  10.510 -20.467  1.00  0.00    -0.232 OA
ATOM     32  H2  UNL     1      -7.046  10.315 -20.919  1.00  0.00     0.194 HD
ENDBRANCH  23  26
ENDBRANCH  17  22
ENDBRANCH   1  17
BRANCH  16  33
HETATM   33  C24 UNL     1       0.597   9.985 -16.843  1.00  0.00     0.048 C 
BRANCH  33  34
HETATM   34  C25 UNL     1       1.899  10.242 -16.204  1.00  0.00    -0.020 C 
HETATM   35  C26 UNL     1       2.986  10.902 -16.969  1.00  0.00     0.009 C 
HETATM   36  C27 UNL     1       1.652  11.186 -14.990  1.00  0.00     0.009 C 
ENDBRANCH  33  34
ENDBRANCH  16  33
BRANCH   5  37
HETATM   37  O4  UNL     1       0.304   4.070 -22.045  1.00  0.00    -0.353 OA
HETATM   38  C15 UNL     1      -0.199   4.590 -23.261  1.00  0.00     0.210 C 
ENDBRANCH   5  37
BRANCH   6  39
HETATM   39  O5  UNL     1       2.703   4.122 -20.749  1.00  0.00    -0.357 OA
ATOM     40  H5  UNL     1       3.120   3.587 -20.084  1.00  0.00     0.218 HD
ENDBRANCH   6  39
TORSDOF 10
ENDMDL
MODEL 3
REMARK VINA RESULT: -7.322980185      3.007      6.447
REMARK  10 active torsions:
REMARK  status: ('A' for Active; 'I' for Inactive)
REMARK    1  A    between atoms: C2_2  and  C3_3 
REMARK    2  A    between atoms: C3_3  and  C4_4 
REMARK    3  A    between atoms: C4_4  and  C5_5 
REMARK    4  A    between atoms: C5_5  and  N1_6 
REMARK    5  A    between atoms: C5_5  and  C11_17 
REMARK       I    between atoms: N1_6  and  C6_8 
REMARK    6  A    between atoms: C6_8  and  C7_10 
REMARK    7  A    between atoms: C14_21  and  O4_22 
REMARK    8  A    between atoms: C16_24  and  O5_25 
REMARK    9  A    between atoms: C23_36  and  C24_37 
REMARK   10  A    between atoms: C24_37  and  C25_38 
ROOT
HETATM    1  C11 UNL     1      -0.138   9.994 -20.276  1.00  0.00     0.189 C 
HETATM    2  O3  UNL     1       1.014   9.441 -20.835  1.00  0.00    -0.340 OA
HETATM    3  C12 UNL     1       1.079   8.893 -22.089  1.00  0.00     0.082 A 
HETATM    4  C13 UNL     1       2.100   7.991 -22.394  1.00  0.00     0.077 A 
HETATM    5  C14 UNL     1       2.175   7.433 -23.654  1.00  0.00     0.105 A 
HETATM    6  C16 UNL     1       1.202   7.818 -24.557  1.00  0.00     0.117 A 
HETATM    7  C17 UNL     1       0.199   8.708 -24.247  1.00  0.00     0.058 A 
HETATM    8 BR1  UNL     1      -1.120   9.207 -25.524  1.00  0.00    -0.047 Br
HETATM    9  C18 UNL     1       0.127   9.266 -22.981  1.00  0.00     0.028 A 
HETATM   10  C19 UNL     1      -0.948  10.228 -22.635  1.00  0.00     0.199 C 
HETATM   11  O6  UNL     1      -0.731  11.312 -23.482  1.00  0.00    -0.343 OA
HETATM   12  C20 UNL     1      -0.082  12.232 -22.725  1.00  0.00     0.159 C 
HETATM   13  C21 UNL     1       1.420  12.136 -22.969  1.00  0.00     0.078 C 
HETATM   14  C22 UNL     1      -0.488  13.606 -23.242  1.00  0.00     0.078 C 
HETATM   15  O7  UNL     1      -0.388  12.039 -21.418  1.00  0.00    -0.339 OA
HETATM   16  C23 UNL     1      -1.003  10.760 -21.274  1.00  0.00     0.123 C 
ENDROOT
BRANCH   1  17
HETATM   17  C5  UNL     1      -0.816   8.977 -19.439  1.00  0.00     0.117 C 
BRANCH  17  18
HETATM   18  C4  UNL     1      -0.777   7.582 -19.925  1.00  0.00     0.028 C 
BRANCH  18  19
HETATM   19  C3  UNL     1      -1.905   7.155 -20.795  1.00  0.00     0.002 C 
BRANCH  19  20
HETATM   20  C2  UNL     1      -1.518   6.111 -21.828  1.00  0.00    -0.004 C 
HETATM   21  C1  UNL     1      -0.349   5.294 -21.323  1.00  0.00     0.005 C 
ENDBRANCH  19  20
ENDBRANCH  18  19
ENDBRANCH  17  18
BRANCH  17  22
HETATM   22  N1  UNL     1      -0.129   9.023 -18.143  1.00  0.00    -0.348 N 
HETATM   23  C6  UNL     1      -0.715   9.285 -16.912  1.00  0.00     0.277 C 
HETATM   24  O1  UNL     1      -1.943   9.513 -16.827  1.00  0.00    -0.265 OA
ATOM     25  H1  UNL     1       0.876   8.846 -18.147  1.00  0.00     0.163 HD
BRANCH  23  26
HETATM   26  C7  UNL     1       0.071   9.302 -15.689  1.00  0.00     0.168 A 
HETATM   27  C8  UNL     1       0.470   8.244 -14.903  1.00  0.00     0.071 A 
HETATM   28  C9  UNL     1       1.187   8.782 -13.867  1.00  0.00     0.031 A 
HETATM   29  C10 UNL     1       1.823   8.018 -12.758  1.00  0.00     0.070 C 
HETATM   30  N2  UNL     1       1.205  10.095 -14.039  1.00  0.00    -0.265 N 
HETATM   31  O2  UNL     1       0.553  10.386 -15.101  1.00  0.00    -0.232 OA
ATOM     32  H2  UNL     1       1.664  10.767 -13.424  1.00  0.00     0.194 HD
ENDBRANCH  23  26
ENDBRANCH  17  22
ENDBRANCH   1  17
BRANCH  16  33
HETATM   33  C24 UNL     1      -2.318  11.089 -20.662  1.00  0.00     0.048 C 
BRANCH  33  34
HETATM   34  C25 UNL     1      -3.582  10.965 -21.406  1.00  0.00    -0.020 C 
HETATM   35  C26 UNL     1      -4.831  10.596 -20.694  1.00  0.00     0.009 C 
HETATM   36  C27 UNL     1      -3.896  12.351 -22.042  1.00  0.00     0.009 C 
ENDBRANCH  33  34
ENDBRANCH  16  33
BRANCH   5  37
HETATM   37  O4  UNL     1       3.161   6.530 -24.029  1.00  0.00    -0.353 OA
HETATM   38  C15 UNL     1       3.043   5.205 -23.544  1.00  0.00     0.210 C 
ENDBRANCH   5  37
BRANCH   6  39
HETATM   39  O5  UNL     1       1.253   7.271 -25.833  1.00  0.00    -0.357 OA
ATOM     40  H5  UNL     1       0.771   7.712 -26.522  1.00  0.00     0.218 HD
ENDBRANCH   6  39
TORSDOF 10
ENDMDL
MODEL 4
REMARK VINA RESULT: -7.317396901      1.530      2.290
REMARK  10 active torsions:
REMARK  status: ('A' for Active; 'I' for Inactive)
REMARK    1  A    between atoms: C2_2  and  C3_3 
REMARK    2  A    between atoms: C3_3  and  C4_4 
REMARK    3  A    between atoms: C4_4  and  C5_5 
REMARK    4  A    between atoms: C5_5  and  N1_6 
REMARK    5  A    between atoms: C5_5  and  C11_17 
REMARK       I    between atoms: N1_6  and  C6_8 
REMARK    6  A    between atoms: C6_8  and  C7_10 
REMARK    7  A    between atoms: C14_21  and  O4_22 
REMARK    8  A    between atoms: C16_24  and  O5_25 
REMARK    9  A    between atoms: C23_36  and  C24_37 
REMARK   10  A    between atoms: C24_37  and  C25_38 
ROOT
HETATM    1  C11 UNL     1      -1.651   7.998 -21.342  1.00  0.00     0.189 C 
HETATM    2  O3  UNL     1      -1.766   8.340 -22.689  1.00  0.00    -0.340 OA
HETATM    3  C12 UNL     1      -0.703   8.529 -23.533  1.00  0.00     0.082 A 
HETATM    4  C13 UNL     1      -0.873   9.280 -24.697  1.00  0.00     0.077 A 
HETATM    5  C14 UNL     1       0.191   9.478 -25.553  1.00  0.00     0.105 A 
HETATM    6  C16 UNL     1       1.393   8.900 -25.187  1.00  0.00     0.117 A 
HETATM    7  C17 UNL     1       1.551   8.161 -24.037  1.00  0.00     0.058 A 
HETATM    8 BR1  UNL     1       3.224   7.386 -23.574  1.00  0.00    -0.047 Br
HETATM    9  C18 UNL     1       0.480   7.965 -23.179  1.00  0.00     0.028 A 
HETATM   10  C19 UNL     1       0.637   7.170 -21.938  1.00  0.00     0.199 C 
HETATM   11  O6  UNL     1       0.966   5.892 -22.383  1.00  0.00    -0.343 OA
HETATM   12  C20 UNL     1      -0.191   5.186 -22.326  1.00  0.00     0.159 C 
HETATM   13  C21 UNL     1      -0.848   5.160 -23.702  1.00  0.00     0.078 C 
HETATM   14  C22 UNL     1       0.180   3.739 -22.029  1.00  0.00     0.078 C 
HETATM   15  O7  UNL     1      -1.009   5.732 -21.394  1.00  0.00    -0.339 OA
HETATM   16  C23 UNL     1      -0.513   7.023 -21.047  1.00  0.00     0.123 C 
ENDROOT
BRANCH   1  17
HETATM   17  C5  UNL     1      -1.719   9.225 -20.515  1.00  0.00     0.117 C 
BRANCH  17  18
HETATM   18  C4  UNL     1      -0.542  10.116 -20.550  1.00  0.00     0.028 C 
BRANCH  18  19
HETATM   19  C3  UNL     1       0.144  10.354 -19.251  1.00  0.00     0.002 C 
BRANCH  19  20
HETATM   20  C2  UNL     1      -0.683   9.951 -18.042  1.00  0.00    -0.004 C 
HETATM   21  C1  UNL     1       0.227   9.636 -16.876  1.00  0.00     0.005 C 
ENDBRANCH  19  20
ENDBRANCH  18  19
ENDBRANCH  17  18
BRANCH  17  22
HETATM   22  N1  UNL     1      -2.869   9.975 -21.032  1.00  0.00    -0.348 N 
HETATM   23  C6  UNL     1      -3.828  10.634 -20.273  1.00  0.00     0.277 C 
HETATM   24  O1  UNL     1      -3.766  10.626 -19.023  1.00  0.00    -0.265 OA
ATOM     25  H1  UNL     1      -2.975  10.017 -22.046  1.00  0.00     0.163 HD
BRANCH  23  26
HETATM   26  C7  UNL     1      -4.927  11.349 -20.900  1.00  0.00     0.168 A 
HETATM   27  C8  UNL     1      -6.217  10.924 -21.128  1.00  0.00     0.071 A 
HETATM   28  C9  UNL     1      -6.862  11.963 -21.745  1.00  0.00     0.031 A 
HETATM   29  C10 UNL     1      -8.284  11.967 -22.186  1.00  0.00     0.070 C 
HETATM   30  N2  UNL     1      -5.988  12.951 -21.873  1.00  0.00    -0.265 N 
HETATM   31  O2  UNL     1      -4.867  12.583 -21.378  1.00  0.00    -0.232 OA
ATOM     32  H2  UNL     1      -6.178  13.859 -22.296  1.00  0.00     0.194 HD
ENDBRANCH  23  26
ENDBRANCH  17  22
ENDBRANCH   1  17
BRANCH  16  33
HETATM   33  C24 UNL     1      -0.301   6.916 -19.579  1.00  0.00     0.048 C 
BRANCH  33  34
HETATM   34  C25 UNL     1       0.926   6.342 -19.003  1.00  0.00    -0.020 C 
HETATM   35  C26 UNL     1       2.135   7.186 -18.837  1.00  0.00     0.009 C 
HETATM   36  C27 UNL     1       0.591   5.859 -17.561  1.00  0.00     0.009 C 
ENDBRANCH  33  34
ENDBRANCH  16  33
BRANCH   5  37
HETATM   37  O4  UNL     1       0.097  10.212 -26.728  1.00  0.00    -0.353 OA
HETATM   38  C15 UNL     1      -0.578   9.608 -27.816  1.00  0.00     0.210 C 
ENDBRANCH   5  37
BRANCH   6  39
HETATM   39  O5  UNL     1       2.480   9.084 -26.031  1.00  0.00    -0.357 OA
ATOM     40  H5  UNL     1       3.205   9.606 -25.708  1.00  0.00     0.218 HD
ENDBRANCH   6  39
TORSDOF 10
ENDMDL
MODEL 5
REMARK VINA RESULT: -7.249196153      2.851      6.344
REMARK  10 active torsions:
REMARK  status: ('A' for Active; 'I' for Inactive)
REMARK    1  A    between atoms: C2_2  and  C3_3 
REMARK    2  A    between atoms: C3_3  and  C4_4 
REMARK    3  A    between atoms: C4_4  and  C5_5 
REMARK    4  A    between atoms: C5_5  and  N1_6 
REMARK    5  A    between atoms: C5_5  and  C11_17 
REMARK       I    between atoms: N1_6  and  C6_8 
REMARK    6  A    between atoms: C6_8  and  C7_10 
REMARK    7  A    between atoms: C14_21  and  O4_22 
REMARK    8  A    between atoms: C16_24  and  O5_25 
REMARK    9  A    between atoms: C23_36  and  C24_37 
REMARK   10  A    between atoms: C24_37  and  C25_38 
ROOT
HETATM    1  C11 UNL     1      -0.737   9.386 -20.341  1.00  0.00     0.189 C 
HETATM    2  O3  UNL     1       0.532   9.193 -20.886  1.00  0.00    -0.340 OA
HETATM    3  C12 UNL     1       0.769   8.856 -22.193  1.00  0.00     0.082 A 
HETATM    4  C13 UNL     1       1.983   8.260 -22.541  1.00  0.00     0.077 A 
HETATM    5  C14 UNL     1       2.232   7.916 -23.853  1.00  0.00     0.105 A 
HETATM    6  C16 UNL     1       1.230   8.193 -24.765  1.00  0.00     0.117 A 
HETATM    7  C17 UNL     1       0.036   8.781 -24.412  1.00  0.00     0.058 A 
HETATM    8 BR1  UNL     1      -1.315   9.142 -25.701  1.00  0.00    -0.047 Br
HETATM    9  C18 UNL     1      -0.211   9.125 -23.093  1.00  0.00     0.028 A 
HETATM   10  C19 UNL     1      -1.492   9.760 -22.700  1.00  0.00     0.199 C 
HETATM   11  O6  UNL     1      -1.504  10.973 -23.385  1.00  0.00    -0.343 OA
HETATM   12  C20 UNL     1      -1.116  11.900 -22.474  1.00  0.00     0.159 C 
HETATM   13  C21 UNL     1       0.375  12.182 -22.625  1.00  0.00     0.078 C 
HETATM   14  C22 UNL     1      -1.812  13.205 -22.837  1.00  0.00     0.078 C 
HETATM   15  O7  UNL     1      -1.416  11.461 -21.227  1.00  0.00    -0.339 OA
HETATM   16  C23 UNL     1      -1.720  10.069 -21.290  1.00  0.00     0.123 C 
ENDROOT
BRANCH   1  17
HETATM   17  C5  UNL     1      -1.189   8.135 -19.689  1.00  0.00     0.117 C 
BRANCH  17  18
HETATM   18  C4  UNL     1      -0.815   6.869 -20.351  1.00  0.00     0.028 C 
BRANCH  18  19
HETATM   19  C3  UNL     1      -1.766   6.353 -21.372  1.00  0.00     0.002 C 
BRANCH  19  20
HETATM   20  C2  UNL     1      -1.089   5.632 -22.526  1.00  0.00    -0.004 C 
HETATM   21  C1  UNL     1       0.203   5.002 -22.055  1.00  0.00     0.005 C 
ENDBRANCH  19  20
ENDBRANCH  18  19
ENDBRANCH  17  18
BRANCH  17  22
HETATM   22  N1  UNL     1      -0.572   8.149 -18.358  1.00  0.00    -0.348 N 
HETATM   23  C6  UNL     1      -1.026   8.852 -17.250  1.00  0.00     0.277 C 
HETATM   24  O1  UNL     1      -2.053   9.564 -17.325  1.00  0.00    -0.265 OA
ATOM     25  H1  UNL     1       0.272   7.588 -18.235  1.00  0.00     0.163 HD
BRANCH  23  26
HETATM   26  C7  UNL     1      -0.329   8.787 -15.976  1.00  0.00     0.168 A 
HETATM   27  C8  UNL     1       0.976   8.424 -15.722  1.00  0.00     0.071 A 
HETATM   28  C9  UNL     1       1.147   8.525 -14.366  1.00  0.00     0.031 A 
HETATM   29  C10 UNL     1       2.403   8.232 -13.623  1.00  0.00     0.070 C 
HETATM   30  N2  UNL     1      -0.006   8.927 -13.851  1.00  0.00    -0.265 N 
HETATM   31  O2  UNL     1      -0.855   9.075 -14.796  1.00  0.00    -0.232 OA
ATOM     32  H2  UNL     1      -0.187   9.091 -12.861  1.00  0.00     0.194 HD
ENDBRANCH  23  26
ENDBRANCH  17  22
ENDBRANCH   1  17
BRANCH  16  33
HETATM   33  C24 UNL     1      -3.097  10.003 -20.731  1.00  0.00     0.048 C 
BRANCH  33  34
HETATM   34  C25 UNL     1      -3.911  11.209 -20.506  1.00  0.00    -0.020 C 
HETATM   35  C26 UNL     1      -4.896  11.642 -21.527  1.00  0.00     0.009 C 
HETATM   36  C27 UNL     1      -4.762  10.972 -19.223  1.00  0.00     0.009 C 
ENDBRANCH  33  34
ENDBRANCH  16  33
BRANCH   5  37
HETATM   37  O4  UNL     1       3.415   7.322 -24.273  1.00  0.00    -0.353 OA
HETATM   38  C15 UNL     1       3.599   5.954 -23.956  1.00  0.00     0.210 C 
ENDBRANCH   5  37
BRANCH   6  39
HETATM   39  O5  UNL     1       1.454   7.856 -26.093  1.00  0.00    -0.357 OA
ATOM     40  H5  UNL     1       0.705   7.594 -26.614  1.00  0.00     0.218 HD
ENDBRANCH   6  39
TORSDOF 10
ENDMDL
