MODEL 1
REMARK VINA RESULT: -9.015693823      0.000      0.000
REMARK  9 active torsions:
REMARK  status: ('A' for Active; 'I' for Inactive)
REMARK    1  A    between atoms: C2_2  and  N1_3 
REMARK    2  A    between atoms: C5_6  and  O1_7 
REMARK    3  A    between atoms: O1_7  and  C6_8 
REMARK    4  A    between atoms: C12_15  and  S1_17 
REMARK    5  A    between atoms: S1_17  and  C14_18 
REMARK    6  A    between atoms: C18_24  and  O2_25 
REMARK    7  A    between atoms: O2_25  and  C19_26 
REMARK    8  A    between atoms: C19_26  and  C20_27 
REMARK    9  A    between atoms: C20_27  and  N3_28 
ROOT
HETATM    1  C6  UNL     1       1.459  10.540 -12.912  1.00  0.00     0.110 A 
HETATM    2  C7  UNL     1       1.238   9.178 -12.877  1.00  0.00     0.069 A 
HETATM    3  C8  UNL     1       1.049   8.456 -14.037  1.00  0.00     0.039 A 
HETATM    4  C9  UNL     1       1.070   9.052 -15.291  1.00  0.00    -0.010 A 
HETATM    5  C10 UNL     1       1.288  10.401 -15.346  1.00  0.00     0.056 A 
HETATM    6  C11 UNL     1       1.477  11.124 -14.189  1.00  0.00     0.150 A 
HETATM    7  F1  UNL     1       1.692  12.465 -14.253  1.00  0.00    -0.203 F 
HETATM    8  C12 UNL     1       0.852   8.266 -16.523  1.00  0.00     0.043 C 
HETATM    9  C13 UNL     1      -0.652   8.343 -16.818  1.00  0.00     0.033 C 
HETATM   10  C26 UNL     1       1.297   6.841 -16.430  1.00  0.00     0.055 C 
HETATM   11  C27 UNL     1       1.139   6.182 -15.104  1.00  0.00     0.025 C 
HETATM   12  C28 UNL     1       2.511   5.575 -14.750  1.00  0.00     0.038 C 
HETATM   13  C29 UNL     1       0.187   5.001 -15.146  1.00  0.00     0.038 C 
HETATM   14  N5  UNL     1       0.826   7.071 -14.007  1.00  0.00    -0.381 N 
ATOM     15  H5  UNL     1       0.419   6.667 -13.163  1.00  0.00     0.160 HD
ENDROOT
BRANCH   8  16
HETATM   16  S1  UNL     1       1.695   8.986 -17.966  1.00  0.00    -0.079 SA
BRANCH  16  17
HETATM   17  C14 UNL     1       0.531   9.408 -19.269  1.00  0.00     0.146 A 
HETATM   18  N2  UNL     1       0.007   8.627 -20.227  1.00  0.00    -0.335 N 
HETATM   19  C15 UNL     1      -0.828   9.330 -21.031  1.00  0.00     0.061 A 
ATOM     20  H2  UNL     1       0.211   7.634 -20.335  1.00  0.00     0.168 HD
HETATM   21  C16 UNL     1      -1.595   9.015 -22.131  1.00  0.00     0.035 A 
HETATM   22  C25 UNL     1      -0.826  10.623 -20.546  1.00  0.00     0.063 A 
HETATM   23  C17 UNL     1      -2.349   9.993 -22.734  1.00  0.00     0.039 A 
HETATM   24  C18 UNL     1      -2.374  11.296 -22.281  1.00  0.00     0.071 A 
HETATM   25  C24 UNL     1      -1.602  11.597 -21.180  1.00  0.00     0.068 A 
HETATM   26  N4  UNL     1      -0.001  10.641 -19.489  1.00  0.00    -0.335 N 
ATOM     27  H4  UNL     1       0.200  11.468 -18.926  1.00  0.00     0.168 HD
BRANCH  24  28
HETATM   28  O2  UNL     1      -3.158  12.215 -22.949  1.00  0.00    -0.349 OA
BRANCH  28  29
HETATM   29  C19 UNL     1      -4.010  13.127 -22.281  1.00  0.00     0.206 C 
BRANCH  29  30
HETATM   30  C20 UNL     1      -5.440  13.024 -22.674  1.00  0.00     0.301 C 
BRANCH  30  31
HETATM   31  N3  UNL     1      -6.353  12.589 -21.680  1.00  0.00     0.115 N 
HETATM   32  C21 UNL     1      -7.746  12.739 -22.027  1.00  0.00     0.301 C 
HETATM   33  C22 UNL     1      -8.183  11.309 -22.168  1.00  0.00     0.200 C 
HETATM   34  O3  UNL     1      -7.230  10.495 -21.610  1.00  0.00    -0.361 OA
HETATM   35  C23 UNL     1      -6.169  11.277 -21.166  1.00  0.00     0.440 C 
ENDBRANCH  30  31
ENDBRANCH  29  30
ENDBRANCH  28  29
ENDBRANCH  24  28
ENDBRANCH  16  17
ENDBRANCH   8  16
BRANCH   1  36
HETATM   36  O1  UNL     1       1.658  11.349 -11.818  1.00  0.00    -0.343 OA
BRANCH  36  37
HETATM   37  C5  UNL     1       2.841  11.515 -11.133  1.00  0.00     0.132 C 
HETATM   38  C4  UNL     1       2.710  11.213  -9.646  1.00  0.00     0.062 C 
HETATM   39  C3  UNL     1       2.704  12.470  -8.829  1.00  0.00     0.275 C 
HETATM   40  N1  UNL     1       3.926  13.234  -8.975  1.00  0.00     0.088 N 
HETATM   41  C31 UNL     1       4.533  13.048 -10.269  1.00  0.00     0.275 C 
HETATM   42  C30 UNL     1       3.396  12.941 -11.278  1.00  0.00     0.062 C 
BRANCH  40  43
HETATM   43  C2  UNL     1       3.756  14.623  -8.676  1.00  0.00     0.268 C 
HETATM   44  C1  UNL     1       3.037  14.846  -7.358  1.00  0.00     0.037 C 
ENDBRANCH  40  43
ENDBRANCH  36  37
ENDBRANCH   1  36
TORSDOF 9
ENDMDL
MODEL 2
REMARK VINA RESULT: -8.949682023      3.096      5.704
REMARK  9 active torsions:
REMARK  status: ('A' for Active; 'I' for Inactive)
REMARK    1  A    between atoms: C2_2  and  N1_3 
REMARK    2  A    between atoms: C5_6  and  O1_7 
REMARK    3  A    between atoms: O1_7  and  C6_8 
REMARK    4  A    between atoms: C12_15  and  S1_17 
REMARK    5  A    between atoms: S1_17  and  C14_18 
REMARK    6  A    between atoms: C18_24  and  O2_25 
REMARK    7  A    between atoms: O2_25  and  C19_26 
REMARK    8  A    between atoms: C19_26  and  C20_27 
REMARK    9  A    between atoms: C20_27  and  N3_28 
ROOT
HETATM    1  C6  UNL     1       3.871   5.990 -16.098  1.00  0.00     0.110 A 
HETATM    2  C7  UNL     1       3.952   6.957 -15.116  1.00  0.00     0.069 A 
HETATM    3  C8  UNL     1       2.942   7.880 -14.940  1.00  0.00     0.039 A 
HETATM    4  C9  UNL     1       1.800   7.888 -15.731  1.00  0.00    -0.010 A 
HETATM    5  C10 UNL     1       1.703   6.937 -16.709  1.00  0.00     0.056 A 
HETATM    6  C11 UNL     1       2.710   6.014 -16.886  1.00  0.00     0.150 A 
HETATM    7  F1  UNL     1       2.604   5.073 -17.862  1.00  0.00    -0.203 F 
HETATM    8  C12 UNL     1       0.734   8.892 -15.537  1.00  0.00     0.043 C 
HETATM    9  C13 UNL     1       1.062  10.052 -16.486  1.00  0.00     0.033 C 
HETATM   10  C26 UNL     1       0.602   9.384 -14.131  1.00  0.00     0.055 C 
HETATM   11  C27 UNL     1       1.861   9.495 -13.345  1.00  0.00     0.025 C 
HETATM   12  C28 UNL     1       1.624   8.731 -12.027  1.00  0.00     0.038 C 
HETATM   13  C29 UNL     1       2.167  10.920 -12.924  1.00  0.00     0.038 C 
HETATM   14  N5  UNL     1       3.018   8.864 -13.943  1.00  0.00    -0.381 N 
ATOM     15  H5  UNL     1       3.942   9.152 -13.621  1.00  0.00     0.160 HD
ENDROOT
BRANCH   8  16
HETATM   16  S1  UNL     1      -0.903   8.272 -16.033  1.00  0.00    -0.079 SA
BRANCH  16  17
HETATM   17  C14 UNL     1      -1.310   8.753 -17.716  1.00  0.00     0.146 A 
HETATM   18  N2  UNL     1      -1.052   8.115 -18.868  1.00  0.00    -0.335 N 
HETATM   19  C15 UNL     1      -1.514   8.816 -19.932  1.00  0.00     0.061 A 
ATOM     20  H2  UNL     1      -0.569   7.219 -18.935  1.00  0.00     0.168 HD
HETATM   21  C16 UNL     1      -1.504   8.615 -21.295  1.00  0.00     0.035 A 
HETATM   22  C25 UNL     1      -2.095   9.957 -19.414  1.00  0.00     0.063 A 
HETATM   23  C17 UNL     1      -2.074   9.552 -22.123  1.00  0.00     0.039 A 
HETATM   24  C18 UNL     1      -2.664  10.704 -21.645  1.00  0.00     0.071 A 
HETATM   25  C24 UNL     1      -2.667  10.893 -20.280  1.00  0.00     0.068 A 
HETATM   26  N4  UNL     1      -1.958   9.893 -18.081  1.00  0.00    -0.335 N 
ATOM     27  H4  UNL     1      -2.294  10.602 -17.430  1.00  0.00     0.168 HD
BRANCH  24  28
HETATM   28  O2  UNL     1      -3.211  11.593 -22.549  1.00  0.00    -0.349 OA
BRANCH  28  29
HETATM   29  C19 UNL     1      -3.857  12.789 -22.154  1.00  0.00     0.206 C 
BRANCH  29  30
HETATM   30  C20 UNL     1      -5.271  12.892 -22.603  1.00  0.00     0.301 C 
BRANCH  30  31
HETATM   31  N3  UNL     1      -6.274  12.544 -21.663  1.00  0.00     0.115 N 
HETATM   32  C21 UNL     1      -7.628  12.794 -22.097  1.00  0.00     0.301 C 
HETATM   33  C22 UNL     1      -8.164  11.399 -22.250  1.00  0.00     0.200 C 
HETATM   34  O3  UNL     1      -7.313  10.524 -21.625  1.00  0.00    -0.361 OA
HETATM   35  C23 UNL     1      -6.224  11.230 -21.124  1.00  0.00     0.440 C 
ENDBRANCH  30  31
ENDBRANCH  29  30
ENDBRANCH  28  29
ENDBRANCH  24  28
ENDBRANCH  16  17
ENDBRANCH   8  16
BRANCH   1  36
HETATM   36  O1  UNL     1       4.819   5.027 -16.357  1.00  0.00    -0.343 OA
BRANCH  36  37
HETATM   37  C5  UNL     1       4.987   3.846 -15.670  1.00  0.00     0.132 C 
HETATM   38  C4  UNL     1       3.669   3.141 -15.373  1.00  0.00     0.062 C 
HETATM   39  C3  UNL     1       3.286   3.281 -13.930  1.00  0.00     0.275 C 
HETATM   40  N1  UNL     1       4.263   2.694 -13.036  1.00  0.00     0.088 N 
HETATM   41  C31 UNL     1       5.596   2.734 -13.583  1.00  0.00     0.275 C 
HETATM   42  C30 UNL     1       5.722   4.053 -14.337  1.00  0.00     0.062 C 
BRANCH  40  43
HETATM   43  C2  UNL     1       4.224   3.255 -11.720  1.00  0.00     0.268 C 
HETATM   44  C1  UNL     1       3.889   2.220 -10.661  1.00  0.00     0.037 C 
ENDBRANCH  40  43
ENDBRANCH  36  37
ENDBRANCH   1  36
TORSDOF 9
ENDMDL
MODEL 3
REMARK VINA RESULT: -8.875850654      1.847      2.484
REMARK  9 active torsions:
REMARK  status: ('A' for Active; 'I' for Inactive)
REMARK    1  A    between atoms: C2_2  and  N1_3 
REMARK    2  A    between atoms: C5_6  and  O1_7 
REMARK    3  A    between atoms: O1_7  and  C6_8 
REMARK    4  A    between atoms: C12_15  and  S1_17 
REMARK    5  A    between atoms: S1_17  and  C14_18 
REMARK    6  A    between atoms: C18_24  and  O2_25 
REMARK    7  A    between atoms: O2_25  and  C19_26 
REMARK    8  A    between atoms: C19_26  and  C20_27 
REMARK    9  A    between atoms: C20_27  and  N3_28 
ROOT
HETATM    1  C6  UNL     1       2.359  11.325 -12.169  1.00  0.00     0.110 A 
HETATM    2  C7  UNL     1       3.197  11.131 -13.248  1.00  0.00     0.069 A 
HETATM    3  C8  UNL     1       2.915  10.183 -14.209  1.00  0.00     0.039 A 
HETATM    4  C9  UNL     1       1.785   9.379 -14.146  1.00  0.00    -0.010 A 
HETATM    5  C10 UNL     1       0.942   9.557 -13.083  1.00  0.00     0.056 A 
HETATM    6  C11 UNL     1       1.222  10.503 -12.122  1.00  0.00     0.150 A 
HETATM    7  F1  UNL     1       0.379  10.672 -11.069  1.00  0.00    -0.203 F 
HETATM    8  C12 UNL     1       1.504   8.359 -15.177  1.00  0.00     0.043 C 
HETATM    9  C13 UNL     1       2.122   7.052 -14.663  1.00  0.00     0.033 C 
HETATM   10  C26 UNL     1       2.036   8.695 -16.534  1.00  0.00     0.055 C 
HETATM   11  C27 UNL     1       3.322   9.443 -16.577  1.00  0.00     0.025 C 
HETATM   12  C28 UNL     1       3.085  10.671 -17.477  1.00  0.00     0.038 C 
HETATM   13  C29 UNL     1       4.431   8.664 -17.258  1.00  0.00     0.038 C 
HETATM   14  N5  UNL     1       3.763   9.984 -15.309  1.00  0.00    -0.381 N 
ATOM     15  H5  UNL     1       4.747  10.234 -15.210  1.00  0.00     0.160 HD
ENDROOT
BRANCH   8  16
HETATM   16  S1  UNL     1      -0.276   8.041 -15.374  1.00  0.00    -0.079 SA
BRANCH  16  17
HETATM   17  C14 UNL     1      -0.836   8.422 -17.039  1.00  0.00     0.146 A 
HETATM   18  N2  UNL     1      -1.015   7.600 -18.085  1.00  0.00    -0.335 N 
HETATM   19  C15 UNL     1      -1.438   8.281 -19.177  1.00  0.00     0.061 A 
ATOM     20  H2  UNL     1      -0.852   6.594 -18.061  1.00  0.00     0.168 HD
HETATM   21  C16 UNL     1      -1.757   7.925 -20.470  1.00  0.00     0.035 A 
HETATM   22  C25 UNL     1      -1.530   9.604 -18.791  1.00  0.00     0.063 A 
HETATM   23  C17 UNL     1      -2.162   8.891 -21.359  1.00  0.00     0.039 A 
HETATM   24  C18 UNL     1      -2.266  10.222 -21.012  1.00  0.00     0.071 A 
HETATM   25  C24 UNL     1      -1.945  10.565 -19.717  1.00  0.00     0.068 A 
HETATM   26  N4  UNL     1      -1.163   9.659 -17.502  1.00  0.00    -0.335 N 
ATOM     27  H4  UNL     1      -1.132  10.513 -16.945  1.00  0.00     0.168 HD
BRANCH  24  28
HETATM   28  O2  UNL     1      -2.680  11.126 -21.970  1.00  0.00    -0.349 OA
BRANCH  28  29
HETATM   29  C19 UNL     1      -3.310  12.352 -21.648  1.00  0.00     0.206 C 
BRANCH  29  30
HETATM   30  C20 UNL     1      -4.626  12.552 -22.312  1.00  0.00     0.301 C 
BRANCH  30  31
HETATM   31  N3  UNL     1      -5.783  12.430 -21.501  1.00  0.00     0.115 N 
HETATM   32  C21 UNL     1      -7.002  12.910 -22.106  1.00  0.00     0.301 C 
HETATM   33  C22 UNL     1      -7.769  11.634 -22.305  1.00  0.00     0.200 C 
HETATM   34  O3  UNL     1      -7.179  10.640 -21.566  1.00  0.00    -0.361 OA
HETATM   35  C23 UNL     1      -6.046  11.151 -20.942  1.00  0.00     0.440 C 
ENDBRANCH  30  31
ENDBRANCH  29  30
ENDBRANCH  28  29
ENDBRANCH  24  28
ENDBRANCH  16  17
ENDBRANCH   8  16
BRANCH   1  36
HETATM   36  O1  UNL     1       2.548  12.240 -11.159  1.00  0.00    -0.343 OA
BRANCH  36  37
HETATM   37  C5  UNL     1       3.509  12.179 -10.175  1.00  0.00     0.132 C 
HETATM   38  C4  UNL     1       3.051  11.403  -8.947  1.00  0.00     0.062 C 
HETATM   39  C3  UNL     1       2.732  12.321  -7.806  1.00  0.00     0.275 C 
HETATM   40  N1  UNL     1       3.878  13.099  -7.381  1.00  0.00     0.088 N 
HETATM   41  C31 UNL     1       4.795  13.354  -8.464  1.00  0.00     0.275 C 
HETATM   42  C30 UNL     1       3.950  13.576  -9.713  1.00  0.00     0.062 C 
BRANCH  40  43
HETATM   43  C2  UNL     1       3.514  14.311  -6.713  1.00  0.00     0.268 C 
HETATM   44  C1  UNL     1       2.138  14.230  -6.078  1.00  0.00     0.037 C 
ENDBRANCH  40  43
ENDBRANCH  36  37
ENDBRANCH   1  36
TORSDOF 9
ENDMDL
MODEL 4
REMARK VINA RESULT: -8.638355826      2.338     11.314
REMARK  9 active torsions:
REMARK  status: ('A' for Active; 'I' for Inactive)
REMARK    1  A    between atoms: C2_2  and  N1_3 
REMARK    2  A    between atoms: C5_6  and  O1_7 
REMARK    3  A    between atoms: O1_7  and  C6_8 
REMARK    4  A    between atoms: C12_15  and  S1_17 
REMARK    5  A    between atoms: S1_17  and  C14_18 
REMARK    6  A    between atoms: C18_24  and  O2_25 
REMARK    7  A    between atoms: O2_25  and  C19_26 
REMARK    8  A    between atoms: C19_26  and  C20_27 
REMARK    9  A    between atoms: C20_27  and  N3_28 
ROOT
HETATM    1  C6  UNL     1      -1.761   9.805 -20.403  1.00  0.00     0.110 A 
HETATM    2  C7  UNL     1      -1.907   8.825 -19.442  1.00  0.00     0.069 A 
HETATM    3  C8  UNL     1      -0.826   8.374 -18.713  1.00  0.00     0.039 A 
HETATM    4  C9  UNL     1       0.455   8.876 -18.903  1.00  0.00    -0.010 A 
HETATM    5  C10 UNL     1       0.619   9.848 -19.851  1.00  0.00     0.056 A 
HETATM    6  C11 UNL     1      -0.459  10.300 -20.580  1.00  0.00     0.150 A 
HETATM    7  F1  UNL     1      -0.287  11.265 -21.521  1.00  0.00    -0.203 F 
HETATM    8  C12 UNL     1       1.605   8.372 -18.123  1.00  0.00     0.043 C 
HETATM    9  C13 UNL     1       2.224   7.243 -18.957  1.00  0.00     0.033 C 
HETATM   10  C26 UNL     1       1.252   7.884 -16.754  1.00  0.00     0.055 C 
HETATM   11  C27 UNL     1      -0.076   7.228 -16.606  1.00  0.00     0.025 C 
HETATM   12  C28 UNL     1      -0.786   7.935 -15.435  1.00  0.00     0.038 C 
HETATM   13  C29 UNL     1       0.032   5.775 -16.180  1.00  0.00     0.038 C 
HETATM   14  N5  UNL     1      -0.969   7.380 -17.734  1.00  0.00    -0.381 N 
ATOM     15  H5  UNL     1      -1.746   6.726 -17.823  1.00  0.00     0.160 HD
ENDROOT
BRANCH   8  16
HETATM   16  S1  UNL     1       2.906   9.627 -17.914  1.00  0.00    -0.079 SA
BRANCH  16  17
HETATM   17  C14 UNL     1       2.903  10.312 -16.253  1.00  0.00     0.146 A 
HETATM   18  N2  UNL     1       1.874  10.771 -15.524  1.00  0.00    -0.335 N 
HETATM   19  C15 UNL     1       2.290  11.221 -14.315  1.00  0.00     0.061 A 
ATOM     20  H2  UNL     1       0.904  10.780 -15.840  1.00  0.00     0.168 HD
HETATM   21  C16 UNL     1       1.656  11.777 -13.225  1.00  0.00     0.035 A 
HETATM   22  C25 UNL     1       3.658  11.032 -14.287  1.00  0.00     0.063 A 
HETATM   23  C17 UNL     1       2.394  12.138 -12.124  1.00  0.00     0.039 A 
HETATM   24  C18 UNL     1       3.761  11.966 -12.057  1.00  0.00     0.071 A 
HETATM   25  C24 UNL     1       4.382  11.408 -13.153  1.00  0.00     0.068 A 
HETATM   26  N4  UNL     1       3.999  10.485 -15.464  1.00  0.00    -0.335 N 
ATOM     27  H4  UNL     1       4.950  10.233 -15.731  1.00  0.00     0.168 HD
BRANCH  24  28
HETATM   28  O2  UNL     1       4.424  12.358 -10.911  1.00  0.00    -0.349 OA
BRANCH  28  29
HETATM   29  C19 UNL     1       3.821  13.158  -9.911  1.00  0.00     0.206 C 
BRANCH  29  30
HETATM   30  C20 UNL     1       4.422  12.998  -8.560  1.00  0.00     0.301 C 
BRANCH  30  31
HETATM   31  N3  UNL     1       3.901  11.965  -7.740  1.00  0.00     0.115 N 
HETATM   32  C21 UNL     1       3.661  12.341  -6.368  1.00  0.00     0.301 C 
HETATM   33  C22 UNL     1       2.161  12.302  -6.296  1.00  0.00     0.200 C 
HETATM   34  O3  UNL     1       1.680  11.635  -7.395  1.00  0.00    -0.361 OA
HETATM   35  C23 UNL     1       2.747  11.285  -8.216  1.00  0.00     0.440 C 
ENDBRANCH  30  31
ENDBRANCH  29  30
ENDBRANCH  28  29
ENDBRANCH  24  28
ENDBRANCH  16  17
ENDBRANCH   8  16
BRANCH   1  36
HETATM   36  O1  UNL     1      -2.770  10.323 -21.181  1.00  0.00    -0.343 OA
BRANCH  36  37
HETATM   37  C5  UNL     1      -3.428  11.514 -20.975  1.00  0.00     0.132 C 
HETATM   38  C4  UNL     1      -4.607  11.381 -20.018  1.00  0.00     0.062 C 
HETATM   39  C3  UNL     1      -5.914  11.423 -20.750  1.00  0.00     0.275 C 
HETATM   40  N1  UNL     1      -6.115  12.671 -21.458  1.00  0.00     0.088 N 
HETATM   41  C31 UNL     1      -4.870  13.264 -21.879  1.00  0.00     0.275 C 
HETATM   42  C30 UNL     1      -3.952  12.118 -22.287  1.00  0.00     0.062 C 
BRANCH  40  43
HETATM   43  C2  UNL     1      -7.030  12.551 -22.552  1.00  0.00     0.268 C 
HETATM   44  C1  UNL     1      -8.263  11.745 -22.188  1.00  0.00     0.037 C 
ENDBRANCH  40  43
ENDBRANCH  36  37
ENDBRANCH   1  36
TORSDOF 9
ENDMDL
MODEL 5
REMARK VINA RESULT: -8.538950748      5.129      8.282
REMARK  9 active torsions:
REMARK  status: ('A' for Active; 'I' for Inactive)
REMARK    1  A    between atoms: C2_2  and  N1_3 
REMARK    2  A    between atoms: C5_6  and  O1_7 
REMARK    3  A    between atoms: O1_7  and  C6_8 
REMARK    4  A    between atoms: C12_15  and  S1_17 
REMARK    5  A    between atoms: S1_17  and  C14_18 
REMARK    6  A    between atoms: C18_24  and  O2_25 
REMARK    7  A    between atoms: O2_25  and  C19_26 
REMARK    8  A    between atoms: C19_26  and  C20_27 
REMARK    9  A    between atoms: C20_27  and  N3_28 
ROOT
HETATM    1  C6  UNL     1       1.446   4.444 -20.676  1.00  0.00     0.110 A 
HETATM    2  C7  UNL     1       1.323   3.789 -19.467  1.00  0.00     0.069 A 
HETATM    3  C8  UNL     1       1.904   4.291 -18.322  1.00  0.00     0.039 A 
HETATM    4  C9  UNL     1       2.636   5.471 -18.319  1.00  0.00    -0.010 A 
HETATM    5  C10 UNL     1       2.769   6.134 -19.508  1.00  0.00     0.056 A 
HETATM    6  C11 UNL     1       2.190   5.635 -20.653  1.00  0.00     0.150 A 
HETATM    7  F1  UNL     1       2.328   6.301 -21.830  1.00  0.00    -0.203 F 
HETATM    8  C12 UNL     1       3.263   5.988 -17.085  1.00  0.00     0.043 C 
HETATM    9  C13 UNL     1       4.691   5.428 -17.065  1.00  0.00     0.033 C 
HETATM   10  C26 UNL     1       2.537   5.625 -15.829  1.00  0.00     0.055 C 
HETATM   11  C27 UNL     1       1.871   4.294 -15.808  1.00  0.00     0.025 C 
HETATM   12  C28 UNL     1       0.412   4.541 -15.380  1.00  0.00     0.038 C 
HETATM   13  C29 UNL     1       2.441   3.369 -14.748  1.00  0.00     0.038 C 
HETATM   14  N5  UNL     1       1.781   3.630 -17.090  1.00  0.00    -0.381 N 
ATOM     15  H5  UNL     1       1.618   2.623 -17.099  1.00  0.00     0.160 HD
ENDROOT
BRANCH   8  16
HETATM   16  S1  UNL     1       3.425   7.800 -17.094  1.00  0.00    -0.079 SA
BRANCH  16  17
HETATM   17  C14 UNL     1       1.931   8.594 -17.702  1.00  0.00     0.146 A 
HETATM   18  N2  UNL     1       1.756   9.354 -18.795  1.00  0.00    -0.335 N 
HETATM   19  C15 UNL     1       0.474   9.779 -18.897  1.00  0.00     0.061 A 
ATOM     20  H2  UNL     1       2.493   9.581 -19.461  1.00  0.00     0.168 HD
HETATM   21  C16 UNL     1      -0.212  10.561 -19.801  1.00  0.00     0.035 A 
HETATM   22  C25 UNL     1      -0.191   9.254 -17.806  1.00  0.00     0.063 A 
HETATM   23  C17 UNL     1      -1.549  10.811 -19.605  1.00  0.00     0.039 A 
HETATM   24  C18 UNL     1      -2.248  10.306 -18.528  1.00  0.00     0.071 A 
HETATM   25  C24 UNL     1      -1.551   9.525 -17.632  1.00  0.00     0.068 A 
HETATM   26  N4  UNL     1       0.709   8.548 -17.105  1.00  0.00    -0.335 N 
ATOM     27  H4  UNL     1       0.504   8.045 -16.242  1.00  0.00     0.168 HD
BRANCH  24  28
HETATM   28  O2  UNL     1      -3.590  10.609 -18.408  1.00  0.00    -0.349 OA
BRANCH  28  29
HETATM   29  C19 UNL     1      -4.526  10.371 -19.441  1.00  0.00     0.206 C 
BRANCH  29  30
HETATM   30  C20 UNL     1      -5.091  11.606 -20.047  1.00  0.00     0.301 C 
BRANCH  30  31
HETATM   31  N3  UNL     1      -5.304  11.598 -21.448  1.00  0.00     0.115 N 
HETATM   32  C21 UNL     1      -6.679  11.762 -21.856  1.00  0.00     0.301 C 
HETATM   33  C22 UNL     1      -6.650  13.121 -22.496  1.00  0.00     0.200 C 
HETATM   34  O3  UNL     1      -5.345  13.478 -22.723  1.00  0.00    -0.361 OA
HETATM   35  C23 UNL     1      -4.509  12.483 -22.226  1.00  0.00     0.440 C 
ENDBRANCH  30  31
ENDBRANCH  29  30
ENDBRANCH  28  29
ENDBRANCH  24  28
ENDBRANCH  16  17
ENDBRANCH   8  16
BRANCH   1  36
HETATM   36  O1  UNL     1       0.909   4.030 -21.872  1.00  0.00    -0.343 OA
BRANCH  36  37
HETATM   37  C5  UNL     1      -0.259   4.486 -22.441  1.00  0.00     0.132 C 
HETATM   38  C4  UNL     1      -0.036   5.173 -23.782  1.00  0.00     0.062 C 
HETATM   39  C3  UNL     1      -0.164   6.662 -23.663  1.00  0.00     0.275 C 
HETATM   40  N1  UNL     1      -1.480   7.073 -23.219  1.00  0.00     0.088 N 
HETATM   41  C31 UNL     1      -2.105   6.083 -22.378  1.00  0.00     0.275 C 
HETATM   42  C30 UNL     1      -1.001   5.471 -21.524  1.00  0.00     0.062 C 
BRANCH  40  43
HETATM   43  C2  UNL     1      -1.482   8.361 -22.594  1.00  0.00     0.268 C 
HETATM   44  C1  UNL     1      -1.416   9.492 -23.604  1.00  0.00     0.037 C 
ENDBRANCH  40  43
ENDBRANCH  36  37
ENDBRANCH   1  36
TORSDOF 9
ENDMDL
