MODEL 1
REMARK VINA RESULT: -6.818997699      0.000      0.000
REMARK  14 active torsions:
REMARK  status: ('A' for Active; 'I' for Inactive)
REMARK    1  A    between atoms: C3_3  and  C4_4 
REMARK    2  A    between atoms: C4_4  and  C7_7 
REMARK    3  A    between atoms: C8_8  and  C9_9 
REMARK    4  A    between atoms: N1_14  and  C12_15 
REMARK    5  A    between atoms: C12_15  and  C13_16 
REMARK    6  A    between atoms: C13_16  and  C14_17 
REMARK    7  A    between atoms: C14_17  and  C15_18 
REMARK    8  A    between atoms: C15_18  and  C16_19 
REMARK    9  A    between atoms: C16_19  and  O3_21 
REMARK   10  A    between atoms: O3_21  and  C17_22 
REMARK   11  A    between atoms: C17_22  and  C19_24 
REMARK   12  A    between atoms: C22_27  and  C23_28 
REMARK   13  A    between atoms: C26_35  and  O8_36 
REMARK   14  A    between atoms: C27_38  and  C28_39 
ROOT
HETATM    1  C1  UNL     1       3.294   6.833 -20.549  1.00  0.00     0.112 C 
HETATM    2  C2  UNL     1       1.965   6.855 -21.199  1.00  0.00    -0.110 C 
HETATM    3  C3  UNL     1       0.879   6.854 -21.740  1.00  0.00    -0.093 C 
ENDROOT
BRANCH   3   4
HETATM    4  C4  UNL     1      -0.383   6.916 -22.408  1.00  0.00     0.048 C 
HETATM    5  C5  UNL     1      -0.241   6.487 -23.878  1.00  0.00     0.034 C 
HETATM    6  C6  UNL     1      -1.333   5.830 -21.801  1.00  0.00     0.034 C 
BRANCH   4   7
HETATM    7  C7  UNL     1      -1.127   8.154 -22.284  1.00  0.00     0.019 A 
HETATM    8  C8  UNL     1      -1.650   8.562 -21.030  1.00  0.00     0.089 A 
HETATM    9  O7  UNL     1      -2.258   9.699 -21.223  1.00  0.00    -0.286 OA
HETATM   10  C26 UNL     1      -2.190  10.073 -22.461  1.00  0.00     0.203 A 
HETATM   11  C27 UNL     1      -1.472   9.116 -23.198  1.00  0.00     0.087 A 
BRANCH   8  12
HETATM   12  C9  UNL     1      -1.554   7.880 -19.755  1.00  0.00     0.062 C 
HETATM   13  C10 UNL     1      -0.682   8.229 -18.841  1.00  0.00     0.081 C 
HETATM   14  S1  UNL     1       0.544   9.564 -18.940  1.00  0.00    -0.023 SA
HETATM   15  C25 UNL     1      -0.432   7.682 -17.519  1.00  0.00     0.268 C 
HETATM   16  C11 UNL     1       1.681   8.767 -17.766  1.00  0.00     0.293 C 
HETATM   17  O1  UNL     1       2.906   8.943 -17.755  1.00  0.00    -0.259 OA
HETATM   18  N1  UNL     1       0.820   7.977 -16.968  1.00  0.00    -0.274 N 
HETATM   19  O6  UNL     1      -1.354   6.979 -16.950  1.00  0.00    -0.266 OA
BRANCH  18  20
HETATM   20  C12 UNL     1       1.226   7.470 -15.646  1.00  0.00     0.136 C 
BRANCH  20  21
HETATM   21  C13 UNL     1       2.193   6.352 -15.697  1.00  0.00     0.021 C 
BRANCH  21  22
HETATM   22  C14 UNL     1       1.784   5.111 -14.969  1.00  0.00     0.011 C 
BRANCH  22  23
HETATM   23  C15 UNL     1       3.021   4.285 -14.646  1.00  0.00     0.111 C 
BRANCH  23  24
HETATM   24  C16 UNL     1       3.092   3.091 -15.528  1.00  0.00     0.259 C 
HETATM   25  O2  UNL     1       2.400   2.081 -15.261  1.00  0.00    -0.265 OA
BRANCH  24  26
HETATM   26  O3  UNL     1       3.893   3.036 -16.648  1.00  0.00    -0.316 OA
BRANCH  26  27
HETATM   27  C17 UNL     1       3.731   3.787 -17.816  1.00  0.00     0.132 C 
HETATM   28  C18 UNL     1       5.048   4.139 -18.470  1.00  0.00     0.040 C 
BRANCH  27  29
HETATM   29  C19 UNL     1       2.807   3.061 -18.736  1.00  0.00     0.016 C 
HETATM   30  C20 UNL     1       1.534   3.896 -18.906  1.00  0.00     0.008 C 
HETATM   31  C21 UNL     1       0.932   3.436 -20.208  1.00  0.00     0.016 C 
HETATM   32  C22 UNL     1       2.069   2.883 -21.025  1.00  0.00     0.087 C 
HETATM   33  C24 UNL     1       3.312   2.923 -20.154  1.00  0.00     0.022 C 
BRANCH  32  34
HETATM   34  C23 UNL     1       1.738   1.468 -21.421  1.00  0.00     0.177 C 
HETATM   35  O4  UNL     1       0.677   0.919 -21.072  1.00  0.00    -0.648 OA
HETATM   36  O5  UNL     1       2.698   0.813 -22.202  1.00  0.00    -0.648 OA
ENDBRANCH  32  34
ENDBRANCH  27  29
ENDBRANCH  26  27
ENDBRANCH  24  26
ENDBRANCH  23  24
ENDBRANCH  22  23
ENDBRANCH  21  22
ENDBRANCH  20  21
ENDBRANCH  18  20
ENDBRANCH   8  12
BRANCH  10  37
HETATM   37  O8  UNL     1      -2.720  11.222 -23.028  1.00  0.00    -0.340 OA
ATOM     38  H8  UNL     1      -2.434  12.118 -22.898  1.00  0.00     0.220 HD
ENDBRANCH  10  37
BRANCH  11  39
HETATM   39  C28 UNL     1      -1.218   9.198 -24.607  1.00  0.00    -0.044 C 
HETATM   40  C29 UNL     1      -1.022   9.301 -25.779  1.00  0.00     0.010 C 
HETATM   41 CL1  UNL     1      -0.748   9.449 -27.499  1.00  0.00    -0.023 Cl
ENDBRANCH  11  39
ENDBRANCH   4   7
ENDBRANCH   3   4
TORSDOF 14
ENDMDL
MODEL 2
REMARK VINA RESULT: -6.723535279      2.619      5.241
REMARK  14 active torsions:
REMARK  status: ('A' for Active; 'I' for Inactive)
REMARK    1  A    between atoms: C3_3  and  C4_4 
REMARK    2  A    between atoms: C4_4  and  C7_7 
REMARK    3  A    between atoms: C8_8  and  C9_9 
REMARK    4  A    between atoms: N1_14  and  C12_15 
REMARK    5  A    between atoms: C12_15  and  C13_16 
REMARK    6  A    between atoms: C13_16  and  C14_17 
REMARK    7  A    between atoms: C14_17  and  C15_18 
REMARK    8  A    between atoms: C15_18  and  C16_19 
REMARK    9  A    between atoms: C16_19  and  O3_21 
REMARK   10  A    between atoms: O3_21  and  C17_22 
REMARK   11  A    between atoms: C17_22  and  C19_24 
REMARK   12  A    between atoms: C22_27  and  C23_28 
REMARK   13  A    between atoms: C26_35  and  O8_36 
REMARK   14  A    between atoms: C27_38  and  C28_39 
ROOT
HETATM    1  C1  UNL     1      -1.199   8.828 -25.171  1.00  0.00     0.112 C 
HETATM    2  C2  UNL     1      -1.228   9.810 -24.065  1.00  0.00    -0.110 C 
HETATM    3  C3  UNL     1      -1.250  10.631 -23.171  1.00  0.00    -0.093 C 
ENDROOT
BRANCH   3   4
HETATM    4  C4  UNL     1      -1.221  11.562 -22.087  1.00  0.00     0.048 C 
HETATM    5  C5  UNL     1       0.227  11.952 -21.746  1.00  0.00     0.034 C 
HETATM    6  C6  UNL     1      -1.860  12.911 -22.559  1.00  0.00     0.034 C 
BRANCH   4   7
HETATM    7  C7  UNL     1      -1.971  11.205 -20.899  1.00  0.00     0.019 A 
HETATM    8  C8  UNL     1      -1.348  10.510 -19.831  1.00  0.00     0.089 A 
HETATM    9  O7  UNL     1      -2.256  10.333 -18.912  1.00  0.00    -0.286 OA
HETATM   10  C26 UNL     1      -3.397  10.833 -19.265  1.00  0.00     0.203 A 
HETATM   11  C27 UNL     1      -3.278  11.411 -20.540  1.00  0.00     0.087 A 
BRANCH   8  12
HETATM   12  C9  UNL     1       0.026  10.061 -19.735  1.00  0.00     0.062 C 
HETATM   13  C10 UNL     1       0.411   8.894 -20.191  1.00  0.00     0.081 C 
HETATM   14  S1  UNL     1      -0.614   7.633 -20.999  1.00  0.00    -0.023 SA
HETATM   15  C25 UNL     1       1.722   8.269 -20.193  1.00  0.00     0.268 C 
HETATM   16  C11 UNL     1       0.467   6.260 -20.491  1.00  0.00     0.293 C 
HETATM   17  O1  UNL     1       0.082   5.094 -20.332  1.00  0.00    -0.259 OA
HETATM   18  N1  UNL     1       1.732   6.878 -20.354  1.00  0.00    -0.274 N 
HETATM   19  O6  UNL     1       2.769   9.013 -20.053  1.00  0.00    -0.266 OA
BRANCH  18  20
HETATM   20  C12 UNL     1       2.984   6.104 -20.350  1.00  0.00     0.136 C 
BRANCH  20  21
HETATM   21  C13 UNL     1       3.405   5.640 -19.011  1.00  0.00     0.021 C 
BRANCH  21  22
HETATM   22  C14 UNL     1       3.143   4.196 -18.716  1.00  0.00     0.011 C 
BRANCH  22  23
HETATM   23  C15 UNL     1       4.149   3.702 -17.686  1.00  0.00     0.111 C 
BRANCH  23  24
HETATM   24  C16 UNL     1       3.469   3.409 -16.397  1.00  0.00     0.259 C 
HETATM   25  O2  UNL     1       3.851   2.440 -15.700  1.00  0.00    -0.265 OA
BRANCH  24  26
HETATM   26  O3  UNL     1       2.419   4.163 -15.917  1.00  0.00    -0.316 OA
BRANCH  26  27
HETATM   27  C17 UNL     1       2.497   5.149 -14.928  1.00  0.00     0.132 C 
HETATM   28  C18 UNL     1       3.844   5.833 -14.893  1.00  0.00     0.040 C 
BRANCH  27  29
HETATM   29  C19 UNL     1       1.367   6.107 -15.109  1.00  0.00     0.016 C 
HETATM   30  C20 UNL     1       1.606   7.318 -14.202  1.00  0.00     0.008 C 
HETATM   31  C21 UNL     1       0.805   8.435 -14.817  1.00  0.00     0.016 C 
HETATM   32  C22 UNL     1       0.661   8.096 -16.276  1.00  0.00     0.087 C 
HETATM   33  C24 UNL     1       1.286   6.728 -16.485  1.00  0.00     0.022 C 
BRANCH  32  34
HETATM   34  C23 UNL     1      -0.804   8.075 -16.627  1.00  0.00     0.177 C 
HETATM   35  O4  UNL     1      -1.266   7.283 -17.468  1.00  0.00    -0.648 OA
HETATM   36  O5  UNL     1      -1.606   9.001 -15.949  1.00  0.00    -0.648 OA
ENDBRANCH  32  34
ENDBRANCH  27  29
ENDBRANCH  26  27
ENDBRANCH  24  26
ENDBRANCH  23  24
ENDBRANCH  22  23
ENDBRANCH  21  22
ENDBRANCH  20  21
ENDBRANCH  18  20
ENDBRANCH   8  12
BRANCH  10  37
HETATM   37  O8  UNL     1      -4.581  10.831 -18.544  1.00  0.00    -0.340 OA
ATOM     38  H8  UNL     1      -5.443  11.097 -18.842  1.00  0.00     0.220 HD
ENDBRANCH  10  37
BRANCH  11  39
HETATM   39  C28 UNL     1      -4.352  12.042 -21.250  1.00  0.00    -0.044 C 
HETATM   40  C29 UNL     1      -5.269  12.556 -21.813  1.00  0.00     0.010 C 
HETATM   41 CL1  UNL     1      -6.617  13.297 -22.644  1.00  0.00    -0.023 Cl
ENDBRANCH  11  39
ENDBRANCH   4   7
ENDBRANCH   3   4
TORSDOF 14
ENDMDL
MODEL 3
REMARK VINA RESULT: -6.628272103      2.847      5.755
REMARK  14 active torsions:
REMARK  status: ('A' for Active; 'I' for Inactive)
REMARK    1  A    between atoms: C3_3  and  C4_4 
REMARK    2  A    between atoms: C4_4  and  C7_7 
REMARK    3  A    between atoms: C8_8  and  C9_9 
REMARK    4  A    between atoms: N1_14  and  C12_15 
REMARK    5  A    between atoms: C12_15  and  C13_16 
REMARK    6  A    between atoms: C13_16  and  C14_17 
REMARK    7  A    between atoms: C14_17  and  C15_18 
REMARK    8  A    between atoms: C15_18  and  C16_19 
REMARK    9  A    between atoms: C16_19  and  O3_21 
REMARK   10  A    between atoms: O3_21  and  C17_22 
REMARK   11  A    between atoms: C17_22  and  C19_24 
REMARK   12  A    between atoms: C22_27  and  C23_28 
REMARK   13  A    between atoms: C26_35  and  O8_36 
REMARK   14  A    between atoms: C27_38  and  C28_39 
ROOT
HETATM    1  C1  UNL     1       2.430  10.220 -18.026  1.00  0.00     0.112 C 
HETATM    2  C2  UNL     1       1.299   9.549 -18.704  1.00  0.00    -0.110 C 
HETATM    3  C3  UNL     1       0.373   8.983 -19.247  1.00  0.00    -0.093 C 
ENDROOT
BRANCH   3   4
HETATM    4  C4  UNL     1      -0.682   8.323 -19.950  1.00  0.00     0.048 C 
HETATM    5  C5  UNL     1      -0.591   6.800 -19.760  1.00  0.00     0.034 C 
HETATM    6  C6  UNL     1      -2.048   8.693 -19.279  1.00  0.00     0.034 C 
BRANCH   4   7
HETATM    7  C7  UNL     1      -0.860   8.677 -21.344  1.00  0.00     0.019 A 
HETATM    8  C8  UNL     1      -0.001   8.146 -22.341  1.00  0.00     0.089 A 
HETATM    9  O7  UNL     1      -0.398   8.631 -23.484  1.00  0.00    -0.286 OA
HETATM   10  C26 UNL     1      -1.417   9.418 -23.340  1.00  0.00     0.203 A 
HETATM   11  C27 UNL     1      -1.763   9.490 -21.980  1.00  0.00     0.087 A 
BRANCH   8  12
HETATM   12  C9  UNL     1       1.117   7.239 -22.169  1.00  0.00     0.062 C 
HETATM   13  C10 UNL     1       1.089   6.007 -22.616  1.00  0.00     0.081 C 
HETATM   14  S1  UNL     1      -0.267   5.184 -23.498  1.00  0.00    -0.023 SA
HETATM   15  C25 UNL     1       2.091   4.958 -22.548  1.00  0.00     0.268 C 
HETATM   16  C11 UNL     1       0.224   3.523 -22.944  1.00  0.00     0.293 C 
HETATM   17  O1  UNL     1      -0.558   2.571 -22.822  1.00  0.00    -0.259 OA
HETATM   18  N1  UNL     1       1.616   3.653 -22.724  1.00  0.00    -0.274 N 
HETATM   19  O6  UNL     1       3.323   5.283 -22.336  1.00  0.00    -0.266 OA
BRANCH  18  20
HETATM   20  C12 UNL     1       2.509   2.485 -22.656  1.00  0.00     0.136 C 
BRANCH  20  21
HETATM   21  C13 UNL     1       2.617   1.883 -21.309  1.00  0.00     0.021 C 
BRANCH  21  22
HETATM   22  C14 UNL     1       3.633   2.504 -20.403  1.00  0.00     0.011 C 
BRANCH  22  23
HETATM   23  C15 UNL     1       2.922   3.331 -19.341  1.00  0.00     0.111 C 
BRANCH  23  24
HETATM   24  C16 UNL     1       3.735   4.521 -18.980  1.00  0.00     0.259 C 
HETATM   25  O2  UNL     1       4.945   4.567 -19.306  1.00  0.00    -0.265 OA
BRANCH  24  26
HETATM   26  O3  UNL     1       3.220   5.599 -18.294  1.00  0.00    -0.316 OA
BRANCH  26  27
HETATM   27  C17 UNL     1       2.884   5.628 -16.936  1.00  0.00     0.132 C 
HETATM   28  C18 UNL     1       4.039   6.056 -16.060  1.00  0.00     0.040 C 
BRANCH  27  29
HETATM   29  C19 UNL     1       1.675   6.483 -16.755  1.00  0.00     0.016 C 
HETATM   30  C20 UNL     1       0.434   5.584 -16.782  1.00  0.00     0.008 C 
HETATM   31  C21 UNL     1      -0.632   6.363 -16.057  1.00  0.00     0.016 C 
HETATM   32  C22 UNL     1       0.090   7.307 -15.134  1.00  0.00     0.087 C 
HETATM   33  C24 UNL     1       1.576   7.153 -15.403  1.00  0.00     0.022 C 
BRANCH  32  34
HETATM   34  C23 UNL     1      -0.364   8.713 -15.428  1.00  0.00     0.177 C 
HETATM   35  O4  UNL     1       0.398   9.689 -15.304  1.00  0.00    -0.648 OA
HETATM   36  O5  UNL     1      -1.694   8.850 -15.846  1.00  0.00    -0.648 OA
ENDBRANCH  32  34
ENDBRANCH  27  29
ENDBRANCH  26  27
ENDBRANCH  24  26
ENDBRANCH  23  24
ENDBRANCH  22  23
ENDBRANCH  21  22
ENDBRANCH  20  21
ENDBRANCH  18  20
ENDBRANCH   8  12
BRANCH  10  37
HETATM   37  O8  UNL     1      -2.100  10.108 -24.330  1.00  0.00    -0.340 OA
ATOM     38  H8  UNL     1      -3.028  10.069 -24.529  1.00  0.00     0.220 HD
ENDBRANCH  10  37
BRANCH  11  39
HETATM   39  C28 UNL     1      -2.834  10.284 -21.454  1.00  0.00    -0.044 C 
HETATM   40  C29 UNL     1      -3.714  10.974 -21.038  1.00  0.00     0.010 C 
HETATM   41 CL1  UNL     1      -4.994  11.991 -20.419  1.00  0.00    -0.023 Cl
ENDBRANCH  11  39
ENDBRANCH   4   7
ENDBRANCH   3   4
TORSDOF 14
ENDMDL
MODEL 4
REMARK VINA RESULT: -6.565618929      2.793      5.957
REMARK  14 active torsions:
REMARK  status: ('A' for Active; 'I' for Inactive)
REMARK    1  A    between atoms: C3_3  and  C4_4 
REMARK    2  A    between atoms: C4_4  and  C7_7 
REMARK    3  A    between atoms: C8_8  and  C9_9 
REMARK    4  A    between atoms: N1_14  and  C12_15 
REMARK    5  A    between atoms: C12_15  and  C13_16 
REMARK    6  A    between atoms: C13_16  and  C14_17 
REMARK    7  A    between atoms: C14_17  and  C15_18 
REMARK    8  A    between atoms: C15_18  and  C16_19 
REMARK    9  A    between atoms: C16_19  and  O3_21 
REMARK   10  A    between atoms: O3_21  and  C17_22 
REMARK   11  A    between atoms: C17_22  and  C19_24 
REMARK   12  A    between atoms: C22_27  and  C23_28 
REMARK   13  A    between atoms: C26_35  and  O8_36 
REMARK   14  A    between atoms: C27_38  and  C28_39 
ROOT
HETATM    1  C1  UNL     1      -2.833  10.383 -18.108  1.00  0.00     0.112 C 
HETATM    2  C2  UNL     1      -1.928   9.656 -19.025  1.00  0.00    -0.110 C 
HETATM    3  C3  UNL     1      -1.197   9.066 -19.794  1.00  0.00    -0.093 C 
ENDROOT
BRANCH   3   4
HETATM    4  C4  UNL     1      -0.349   8.310 -20.662  1.00  0.00     0.048 C 
HETATM    5  C5  UNL     1       1.125   8.472 -20.256  1.00  0.00     0.034 C 
HETATM    6  C6  UNL     1      -0.624   6.785 -20.438  1.00  0.00     0.034 C 
BRANCH   4   7
HETATM    7  C7  UNL     1      -0.535   8.503 -22.086  1.00  0.00     0.019 A 
HETATM    8  C8  UNL     1       0.281   7.817 -23.022  1.00  0.00     0.089 A 
HETATM    9  O7  UNL     1      -0.114   8.181 -24.210  1.00  0.00    -0.286 OA
HETATM   10  C26 UNL     1      -1.092   9.027 -24.150  1.00  0.00     0.203 A 
HETATM   11  C27 UNL     1      -1.410   9.277 -22.804  1.00  0.00     0.087 A 
BRANCH   8  12
HETATM   12  C9  UNL     1       1.358   6.884 -22.757  1.00  0.00     0.062 C 
HETATM   13  C10 UNL     1       1.279   5.617 -23.084  1.00  0.00     0.081 C 
HETATM   14  S1  UNL     1      -0.108   4.771 -23.893  1.00  0.00    -0.023 SA
HETATM   15  C25 UNL     1       2.235   4.538 -22.909  1.00  0.00     0.268 C 
HETATM   16  C11 UNL     1       0.310   3.152 -23.180  1.00  0.00     0.293 C 
HETATM   17  O1  UNL     1      -0.512   2.249 -22.973  1.00  0.00    -0.259 OA
HETATM   18  N1  UNL     1       1.705   3.243 -22.963  1.00  0.00    -0.274 N 
HETATM   19  O6  UNL     1       3.479   4.830 -22.720  1.00  0.00    -0.266 OA
BRANCH  18  20
HETATM   20  C12 UNL     1       2.548   2.051 -22.777  1.00  0.00     0.136 C 
BRANCH  20  21
HETATM   21  C13 UNL     1       2.588   1.548 -21.387  1.00  0.00     0.021 C 
BRANCH  21  22
HETATM   22  C14 UNL     1       3.304   2.421 -20.405  1.00  0.00     0.011 C 
BRANCH  22  23
HETATM   23  C15 UNL     1       2.286   3.107 -19.505  1.00  0.00     0.111 C 
BRANCH  23  24
HETATM   24  C16 UNL     1       2.966   3.751 -18.351  1.00  0.00     0.259 C 
HETATM   25  O2  UNL     1       4.095   3.343 -17.990  1.00  0.00    -0.265 OA
BRANCH  24  26
HETATM   26  O3  UNL     1       2.411   4.795 -17.643  1.00  0.00    -0.316 OA
BRANCH  26  27
HETATM   27  C17 UNL     1       1.334   4.709 -16.754  1.00  0.00     0.132 C 
HETATM   28  C18 UNL     1       1.533   3.641 -15.702  1.00  0.00     0.040 C 
BRANCH  27  29
HETATM   29  C19 UNL     1       1.081   6.057 -16.167  1.00  0.00     0.016 C 
HETATM   30  C20 UNL     1       2.198   7.003 -16.620  1.00  0.00     0.008 C 
HETATM   31  C21 UNL     1       1.617   8.386 -16.494  1.00  0.00     0.016 C 
HETATM   32  C22 UNL     1       0.124   8.228 -16.599  1.00  0.00     0.087 C 
HETATM   33  C24 UNL     1      -0.166   6.740 -16.677  1.00  0.00     0.022 C 
BRANCH  32  34
HETATM   34  C23 UNL     1      -0.515   8.836 -15.378  1.00  0.00     0.177 C 
HETATM   35  O4  UNL     1       0.130   9.542 -14.582  1.00  0.00    -0.648 OA
HETATM   36  O5  UNL     1      -1.875   8.554 -15.198  1.00  0.00    -0.648 OA
ENDBRANCH  32  34
ENDBRANCH  27  29
ENDBRANCH  26  27
ENDBRANCH  24  26
ENDBRANCH  23  24
ENDBRANCH  22  23
ENDBRANCH  21  22
ENDBRANCH  20  21
ENDBRANCH  18  20
ENDBRANCH   8  12
BRANCH  10  37
HETATM   37  O8  UNL     1      -1.760   9.626 -25.207  1.00  0.00    -0.340 OA
ATOM     38  H8  UNL     1      -1.419  10.264 -25.823  1.00  0.00     0.220 HD
ENDBRANCH  10  37
BRANCH  11  39
HETATM   39  C28 UNL     1      -2.434  10.179 -22.364  1.00  0.00    -0.044 C 
HETATM   40  C29 UNL     1      -3.268  10.958 -22.016  1.00  0.00     0.010 C 
HETATM   41 CL1  UNL     1      -4.482  12.103 -21.496  1.00  0.00    -0.023 Cl
ENDBRANCH  11  39
ENDBRANCH   4   7
ENDBRANCH   3   4
TORSDOF 14
ENDMDL
MODEL 5
REMARK VINA RESULT: -6.491093148      2.813      5.498
REMARK  14 active torsions:
REMARK  status: ('A' for Active; 'I' for Inactive)
REMARK    1  A    between atoms: C3_3  and  C4_4 
REMARK    2  A    between atoms: C4_4  and  C7_7 
REMARK    3  A    between atoms: C8_8  and  C9_9 
REMARK    4  A    between atoms: N1_14  and  C12_15 
REMARK    5  A    between atoms: C12_15  and  C13_16 
REMARK    6  A    between atoms: C13_16  and  C14_17 
REMARK    7  A    between atoms: C14_17  and  C15_18 
REMARK    8  A    between atoms: C15_18  and  C16_19 
REMARK    9  A    between atoms: C16_19  and  O3_21 
REMARK   10  A    between atoms: O3_21  and  C17_22 
REMARK   11  A    between atoms: C17_22  and  C19_24 
REMARK   12  A    between atoms: C22_27  and  C23_28 
REMARK   13  A    between atoms: C26_35  and  O8_36 
REMARK   14  A    between atoms: C27_38  and  C28_39 
ROOT
HETATM    1  C1  UNL     1      -1.083   6.229 -20.841  1.00  0.00     0.112 C 
HETATM    2  C2  UNL     1      -1.568   7.622 -20.718  1.00  0.00    -0.110 C 
HETATM    3  C3  UNL     1      -1.959   8.768 -20.636  1.00  0.00    -0.093 C 
ENDROOT
BRANCH   3   4
HETATM    4  C4  UNL     1      -2.379  10.125 -20.480  1.00  0.00     0.048 C 
HETATM    5  C5  UNL     1      -3.909  10.208 -20.354  1.00  0.00     0.034 C 
HETATM    6  C6  UNL     1      -1.869  10.658 -19.099  1.00  0.00     0.034 C 
BRANCH   4   7
HETATM    7  C7  UNL     1      -1.870  11.081 -21.444  1.00  0.00     0.019 A 
HETATM    8  C8  UNL     1      -0.483  11.147 -21.736  1.00  0.00     0.089 A 
HETATM    9  O7  UNL     1      -0.327  12.084 -22.629  1.00  0.00    -0.286 OA
HETATM   10  C26 UNL     1      -1.455  12.633 -22.948  1.00  0.00     0.203 A 
HETATM   11  C27 UNL     1      -2.492  12.029 -22.216  1.00  0.00     0.087 A 
BRANCH   8  12
HETATM   12  C9  UNL     1       0.589  10.352 -21.173  1.00  0.00     0.062 C 
HETATM   13  C10 UNL     1       1.186   9.405 -21.855  1.00  0.00     0.081 C 
HETATM   14  S1  UNL     1       0.839   8.888 -23.560  1.00  0.00    -0.023 SA
HETATM   15  C25 UNL     1       2.266   8.510 -21.478  1.00  0.00     0.268 C 
HETATM   16  C11 UNL     1       1.449   7.195 -23.296  1.00  0.00     0.293 C 
HETATM   17  O1  UNL     1       1.063   6.208 -23.936  1.00  0.00    -0.259 OA
HETATM   18  N1  UNL     1       2.390   7.349 -22.251  1.00  0.00    -0.274 N 
HETATM   19  O6  UNL     1       3.026   8.832 -20.484  1.00  0.00    -0.266 OA
BRANCH  18  20
HETATM   20  C12 UNL     1       3.422   6.337 -21.971  1.00  0.00     0.136 C 
BRANCH  20  21
HETATM   21  C13 UNL     1       3.153   5.513 -20.773  1.00  0.00     0.021 C 
BRANCH  21  22
HETATM   22  C14 UNL     1       2.587   4.154 -21.036  1.00  0.00     0.011 C 
BRANCH  22  23
HETATM   23  C15 UNL     1       1.946   3.619 -19.763  1.00  0.00     0.111 C 
BRANCH  23  24
HETATM   24  C16 UNL     1       2.857   3.810 -18.605  1.00  0.00     0.259 C 
HETATM   25  O2  UNL     1       3.949   3.195 -18.567  1.00  0.00    -0.265 OA
BRANCH  24  26
HETATM   26  O3  UNL     1       2.560   4.644 -17.549  1.00  0.00    -0.316 OA
BRANCH  26  27
HETATM   27  C17 UNL     1       1.338   4.714 -16.872  1.00  0.00     0.132 C 
HETATM   28  C18 UNL     1       1.329   3.898 -15.600  1.00  0.00     0.040 C 
BRANCH  27  29
HETATM   29  C19 UNL     1       0.994   6.148 -16.640  1.00  0.00     0.016 C 
HETATM   30  C20 UNL     1       1.525   6.973 -17.817  1.00  0.00     0.008 C 
HETATM   31  C21 UNL     1       0.697   8.230 -17.821  1.00  0.00     0.016 C 
HETATM   32  C22 UNL     1      -0.604   7.881 -17.149  1.00  0.00     0.087 C 
HETATM   33  C24 UNL     1      -0.487   6.449 -16.658  1.00  0.00     0.022 C 
BRANCH  32  34
HETATM   34  C23 UNL     1      -0.823   8.826 -15.997  1.00  0.00     0.177 C 
HETATM   35  O4  UNL     1      -1.782   8.696 -15.214  1.00  0.00    -0.648 OA
HETATM   36  O5  UNL     1       0.116   9.856 -15.866  1.00  0.00    -0.648 OA
ENDBRANCH  32  34
ENDBRANCH  27  29
ENDBRANCH  26  27
ENDBRANCH  24  26
ENDBRANCH  23  24
ENDBRANCH  22  23
ENDBRANCH  21  22
ENDBRANCH  20  21
ENDBRANCH  18  20
ENDBRANCH   8  12
BRANCH  10  37
HETATM   37  O8  UNL     1      -1.671  13.656 -23.859  1.00  0.00    -0.340 OA
ATOM     38  H8  UNL     1      -2.482  14.122 -24.027  1.00  0.00     0.220 HD
ENDBRANCH  10  37
BRANCH  11  39
HETATM   39  C28 UNL     1      -3.873  12.401 -22.304  1.00  0.00    -0.044 C 
HETATM   40  C29 UNL     1      -5.025  12.711 -22.340  1.00  0.00     0.010 C 
HETATM   41 CL1  UNL     1      -6.716  13.151 -22.390  1.00  0.00    -0.023 Cl
ENDBRANCH  11  39
ENDBRANCH   4   7
ENDBRANCH   3   4
TORSDOF 14
ENDMDL
