MODEL 1
REMARK VINA RESULT: -7.701635100      0.000      0.000
REMARK  14 active torsions:
REMARK  status: ('A' for Active; 'I' for Inactive)
REMARK    1  A    between atoms: C2_2  and  O1_3 
REMARK    2  A    between atoms: O1_3  and  C3_4 
REMARK    3  A    between atoms: C3_4  and  C4_6 
REMARK    4  A    between atoms: C4_6  and  C5_7 
REMARK    5  A    between atoms: C4_6  and  C8_13 
REMARK    6  A    between atoms: C5_7  and  O3_8 
REMARK    7  A    between atoms: O3_8  and  C6_9 
REMARK    8  A    between atoms: C6_9  and  C7_11 
REMARK    9  A    between atoms: C8_13  and  C9_14 
REMARK   10  A    between atoms: C9_14  and  O5_15 
REMARK   11  A    between atoms: C9_14  and  C10_17 
REMARK   12  A    between atoms: C15_22  and  C16_23 
REMARK   13  A    between atoms: C21_29  and  O7_30 
REMARK   14  A    between atoms: C31_41  and  O8_42 
ROOT
HETATM    1  C10 UNL     1      -0.493  10.506 -22.427  1.00  0.00     0.033 A 
HETATM    2  C11 UNL     1       0.542  11.416 -22.481  1.00  0.00    -0.046 A 
HETATM    3  C12 UNL     1       0.455  12.707 -23.253  1.00  0.00     0.049 C 
HETATM    4  C13 UNL     1       1.763  11.085 -21.943  1.00  0.00     0.009 A 
HETATM    5  C14 UNL     1       1.990   9.861 -21.357  1.00  0.00     0.015 A 
HETATM    6  C15 UNL     1       1.018   8.913 -21.285  1.00  0.00     0.000 A 
HETATM    7  C31 UNL     1      -0.251   9.251 -21.828  1.00  0.00     0.089 A 
ENDROOT
BRANCH   6   8
HETATM    8  C16 UNL     1       1.267   7.491 -20.991  1.00  0.00    -0.066 C 
HETATM    9  C17 UNL     1       2.096   6.636 -21.836  1.00  0.00     0.043 C 
HETATM   10  C18 UNL     1       2.649   5.637 -20.814  1.00  0.00     0.027 C 
HETATM   11  C19 UNL     1       2.810   4.256 -21.325  1.00  0.00     0.131 C 
HETATM   12  C28 UNL     1       1.726   5.650 -19.656  1.00  0.00    -0.034 C 
HETATM   13  O6  UNL     1       3.865   4.008 -22.155  1.00  0.00    -0.383 OA
HETATM   14  C25 UNL     1       1.511   3.773 -21.923  1.00  0.00     0.025 C 
HETATM   15  C20 UNL     1       4.091   2.628 -22.146  1.00  0.00     0.200 C 
HETATM   16  C21 UNL     1       2.936   1.928 -22.806  1.00  0.00     0.150 C 
HETATM   17  C22 UNL     1       1.601   2.281 -22.231  1.00  0.00    -0.014 C 
HETATM   18  C23 UNL     1       0.564   2.069 -23.344  1.00  0.00     0.018 C 
HETATM   19  C24 UNL     1       1.176   1.440 -21.075  1.00  0.00     0.018 C 
HETATM   20  C26 UNL     1       0.324   4.111 -21.102  1.00  0.00     0.009 C 
HETATM   21  C27 UNL     1       0.558   4.724 -19.772  1.00  0.00     0.010 C 
HETATM   22  C29 UNL     1       2.443   5.362 -18.363  1.00  0.00     0.016 C 
HETATM   23  C30 UNL     1       1.279   7.106 -19.559  1.00  0.00     0.044 C 
BRANCH  16  24
HETATM   24  O7  UNL     1       3.109   0.549 -22.696  1.00  0.00    -0.393 OA
ATOM     25  H7  UNL     1       2.701   0.121 -23.439  1.00  0.00     0.210 HD
ENDBRANCH  16  24
ENDBRANCH   6   8
BRANCH   7  26
HETATM   26  O8  UNL     1      -1.153   8.261 -21.698  1.00  0.00    -0.359 OA
ATOM     27  H8  UNL     1      -1.110   7.417 -22.131  1.00  0.00     0.217 HD
ENDBRANCH   7  26
BRANCH   1  28
HETATM   28  C9  UNL     1      -1.826  10.822 -22.807  1.00  0.00     0.057 C 
BRANCH  28  29
HETATM   29  C8  UNL     1      -2.982  11.593 -22.411  1.00  0.00     0.082 C 
BRANCH  29  30
HETATM   30  C4  UNL     1      -3.677  10.892 -21.227  1.00  0.00     0.116 C 
BRANCH  30  31
HETATM   31  C3  UNL     1      -4.979  11.518 -20.937  1.00  0.00     0.265 C 
HETATM   32  O2  UNL     1      -5.101  12.495 -20.184  1.00  0.00    -0.265 OA
BRANCH  31  33
HETATM   33  O1  UNL     1      -6.151  11.010 -21.519  1.00  0.00    -0.321 OA
BRANCH  33  34
HETATM   34  C2  UNL     1      -7.189  11.817 -21.985  1.00  0.00     0.174 C 
HETATM   35  C1  UNL     1      -8.525  11.104 -21.984  1.00  0.00     0.034 C 
ENDBRANCH  33  34
ENDBRANCH  31  33
ENDBRANCH  30  31
BRANCH  30  36
HETATM   36  C5  UNL     1      -2.820  11.290 -19.967  1.00  0.00     0.193 C 
BRANCH  36  37
HETATM   37  O3  UNL     1      -2.499  10.091 -19.310  1.00  0.00    -0.320 OA
BRANCH  37  38
HETATM   38  C6  UNL     1      -2.290   9.914 -17.965  1.00  0.00     0.272 C 
HETATM   39  O4  UNL     1      -3.199  10.283 -17.185  1.00  0.00    -0.264 OA
BRANCH  38  40
HETATM   40  C7  UNL     1      -0.998   9.293 -17.467  1.00  0.00     0.225 C 
HETATM   41 CL1  UNL     1       0.421  10.169 -18.002  1.00  0.00    -0.120 Cl
ENDBRANCH  38  40
ENDBRANCH  37  38
ENDBRANCH  36  37
ENDBRANCH  30  36
ENDBRANCH  29  30
ENDBRANCH  28  29
BRANCH  28  42
HETATM   42  O5  UNL     1      -2.149  10.168 -23.956  1.00  0.00    -0.364 OA
ATOM     43  H5  UNL     1      -2.486   9.315 -23.711  1.00  0.00     0.217 HD
ENDBRANCH  28  42
ENDBRANCH   1  28
TORSDOF 14
ENDMDL
MODEL 2
REMARK VINA RESULT: -7.256018906      4.065      6.710
REMARK  14 active torsions:
REMARK  status: ('A' for Active; 'I' for Inactive)
REMARK    1  A    between atoms: C2_2  and  O1_3 
REMARK    2  A    between atoms: O1_3  and  C3_4 
REMARK    3  A    between atoms: C3_4  and  C4_6 
REMARK    4  A    between atoms: C4_6  and  C5_7 
REMARK    5  A    between atoms: C4_6  and  C8_13 
REMARK    6  A    between atoms: C5_7  and  O3_8 
REMARK    7  A    between atoms: O3_8  and  C6_9 
REMARK    8  A    between atoms: C6_9  and  C7_11 
REMARK    9  A    between atoms: C8_13  and  C9_14 
REMARK   10  A    between atoms: C9_14  and  O5_15 
REMARK   11  A    between atoms: C9_14  and  C10_17 
REMARK   12  A    between atoms: C15_22  and  C16_23 
REMARK   13  A    between atoms: C21_29  and  O7_30 
REMARK   14  A    between atoms: C31_41  and  O8_42 
ROOT
HETATM    1  C10 UNL     1      -0.660  10.355 -21.980  1.00  0.00     0.033 A 
HETATM    2  C11 UNL     1      -0.162   9.643 -23.051  1.00  0.00    -0.046 A 
HETATM    3  C12 UNL     1      -1.012   9.227 -24.223  1.00  0.00     0.049 C 
HETATM    4  C13 UNL     1       1.121   9.153 -22.999  1.00  0.00     0.009 A 
HETATM    5  C14 UNL     1       1.927   9.341 -21.899  1.00  0.00     0.015 A 
HETATM    6  C15 UNL     1       1.491  10.020 -20.805  1.00  0.00     0.000 A 
HETATM    7  C31 UNL     1       0.171  10.541 -20.855  1.00  0.00     0.089 A 
ENDROOT
BRANCH   6   8
HETATM    8  C16 UNL     1       2.148   9.974 -19.486  1.00  0.00    -0.066 C 
HETATM    9  C17 UNL     1       1.532   9.365 -18.311  1.00  0.00     0.043 C 
HETATM   10  C18 UNL     1       2.764   8.894 -17.530  1.00  0.00     0.027 C 
HETATM   11  C19 UNL     1       2.638   8.997 -16.058  1.00  0.00     0.131 C 
HETATM   12  C28 UNL     1       3.910   9.702 -18.003  1.00  0.00    -0.034 C 
HETATM   13  O6  UNL     1       1.864   8.068 -15.422  1.00  0.00    -0.383 OA
HETATM   14  C25 UNL     1       2.244  10.401 -15.671  1.00  0.00     0.025 C 
HETATM   15  C20 UNL     1       2.237   8.063 -14.074  1.00  0.00     0.200 C 
HETATM   16  C21 UNL     1       1.835   9.366 -13.440  1.00  0.00     0.150 C 
HETATM   17  C22 UNL     1       2.346  10.575 -14.158  1.00  0.00    -0.014 C 
HETATM   18  C23 UNL     1       1.374  11.723 -13.850  1.00  0.00     0.018 C 
HETATM   19  C24 UNL     1       3.702  11.028 -13.733  1.00  0.00     0.018 C 
HETATM   20  C26 UNL     1       2.990  11.446 -16.413  1.00  0.00     0.009 C 
HETATM   21  C27 UNL     1       4.095  11.006 -17.297  1.00  0.00     0.010 C 
HETATM   22  C29 UNL     1       5.204   8.932 -17.940  1.00  0.00     0.016 C 
HETATM   23  C30 UNL     1       3.629   9.902 -19.490  1.00  0.00     0.044 C 
BRANCH  16  24
HETATM   24  O7  UNL     1       2.307   9.404 -12.128  1.00  0.00    -0.393 OA
ATOM     25  H7  UNL     1       2.243  10.293 -11.798  1.00  0.00     0.210 HD
ENDBRANCH  16  24
ENDBRANCH   6   8
BRANCH   7  26
HETATM   26  O8  UNL     1      -0.167  11.210 -19.737  1.00  0.00    -0.359 OA
ATOM     27  H8  UNL     1      -0.286  10.822 -18.878  1.00  0.00     0.217 HD
ENDBRANCH   7  26
BRANCH   1  28
HETATM   28  C9  UNL     1      -1.908  11.036 -22.013  1.00  0.00     0.057 C 
BRANCH  28  29
HETATM   29  C8  UNL     1      -3.308  10.887 -21.686  1.00  0.00     0.082 C 
BRANCH  29  30
HETATM   30  C4  UNL     1      -3.537  11.334 -20.228  1.00  0.00     0.116 C 
BRANCH  30  31
HETATM   31  C3  UNL     1      -3.108  10.287 -19.284  1.00  0.00     0.265 C 
HETATM   32  O2  UNL     1      -2.791  10.530 -18.111  1.00  0.00    -0.265 OA
BRANCH  31  33
HETATM   33  O1  UNL     1      -3.041   8.947 -19.699  1.00  0.00    -0.321 OA
BRANCH  33  34
HETATM   34  C2  UNL     1      -1.953   8.115 -19.437  1.00  0.00     0.174 C 
HETATM   35  C1  UNL     1      -1.583   7.253 -20.626  1.00  0.00     0.034 C 
ENDBRANCH  33  34
ENDBRANCH  31  33
ENDBRANCH  30  31
BRANCH  30  36
HETATM   36  C5  UNL     1      -5.102  11.330 -20.050  1.00  0.00     0.193 C 
BRANCH  36  37
HETATM   37  O3  UNL     1      -5.644  11.024 -21.309  1.00  0.00    -0.320 OA
BRANCH  37  38
HETATM   38  C6  UNL     1      -6.859  11.426 -21.807  1.00  0.00     0.272 C 
HETATM   39  O4  UNL     1      -7.800  10.599 -21.774  1.00  0.00    -0.264 OA
BRANCH  38  40
HETATM   40  C7  UNL     1      -7.028  12.825 -22.370  1.00  0.00     0.225 C 
HETATM   41 CL1  UNL     1      -5.526  13.499 -22.967  1.00  0.00    -0.120 Cl
ENDBRANCH  38  40
ENDBRANCH  37  38
ENDBRANCH  36  37
ENDBRANCH  30  36
ENDBRANCH  29  30
ENDBRANCH  28  29
BRANCH  28  42
HETATM   42  O5  UNL     1      -1.746  12.278 -22.545  1.00  0.00    -0.364 OA
ATOM     43  H5  UNL     1      -0.908  12.287 -22.992  1.00  0.00     0.217 HD
ENDBRANCH  28  42
ENDBRANCH   1  28
TORSDOF 14
ENDMDL
MODEL 3
REMARK VINA RESULT: -7.233159467      3.665      6.770
REMARK  14 active torsions:
REMARK  status: ('A' for Active; 'I' for Inactive)
REMARK    1  A    between atoms: C2_2  and  O1_3 
REMARK    2  A    between atoms: O1_3  and  C3_4 
REMARK    3  A    between atoms: C3_4  and  C4_6 
REMARK    4  A    between atoms: C4_6  and  C5_7 
REMARK    5  A    between atoms: C4_6  and  C8_13 
REMARK    6  A    between atoms: C5_7  and  O3_8 
REMARK    7  A    between atoms: O3_8  and  C6_9 
REMARK    8  A    between atoms: C6_9  and  C7_11 
REMARK    9  A    between atoms: C8_13  and  C9_14 
REMARK   10  A    between atoms: C9_14  and  O5_15 
REMARK   11  A    between atoms: C9_14  and  C10_17 
REMARK   12  A    between atoms: C15_22  and  C16_23 
REMARK   13  A    between atoms: C21_29  and  O7_30 
REMARK   14  A    between atoms: C31_41  and  O8_42 
ROOT
HETATM    1  C10 UNL     1      -1.252   8.858 -20.917  1.00  0.00     0.033 A 
HETATM    2  C11 UNL     1      -0.855   7.841 -21.760  1.00  0.00    -0.046 A 
HETATM    3  C12 UNL     1      -1.783   7.198 -22.758  1.00  0.00     0.049 C 
HETATM    4  C13 UNL     1       0.386   7.274 -21.598  1.00  0.00     0.009 A 
HETATM    5  C14 UNL     1       1.248   7.685 -20.607  1.00  0.00     0.015 A 
HETATM    6  C15 UNL     1       0.913   8.670 -19.733  1.00  0.00     0.000 A 
HETATM    7  C31 UNL     1      -0.364   9.271 -19.901  1.00  0.00     0.089 A 
ENDROOT
BRANCH   6   8
HETATM    8  C16 UNL     1       1.617   8.929 -18.465  1.00  0.00    -0.066 C 
HETATM    9  C17 UNL     1       1.043   8.621 -17.158  1.00  0.00     0.043 C 
HETATM   10  C18 UNL     1       2.301   8.331 -16.332  1.00  0.00     0.027 C 
HETATM   11  C19 UNL     1       2.229   8.779 -14.922  1.00  0.00     0.131 C 
HETATM   12  C28 UNL     1       3.432   8.992 -17.022  1.00  0.00    -0.034 C 
HETATM   13  O6  UNL     1       1.476   8.035 -14.059  1.00  0.00    -0.383 OA
HETATM   14  C25 UNL     1       1.854  10.240 -14.864  1.00  0.00     0.025 C 
HETATM   15  C20 UNL     1       1.898   8.343 -12.762  1.00  0.00     0.200 C 
HETATM   16  C21 UNL     1       1.524   9.764 -12.439  1.00  0.00     0.150 C 
HETATM   17  C22 UNL     1       2.012  10.764 -13.438  1.00  0.00    -0.014 C 
HETATM   18  C23 UNL     1       1.056  11.963 -13.376  1.00  0.00     0.018 C 
HETATM   19  C24 UNL     1       3.385  11.288 -13.179  1.00  0.00     0.018 C 
HETATM   20  C26 UNL     1       2.576  11.072 -15.856  1.00  0.00     0.009 C 
HETATM   21  C27 UNL     1       3.647  10.423 -16.650  1.00  0.00     0.010 C 
HETATM   22  C29 UNL     1       4.725   8.244 -16.824  1.00  0.00     0.016 C 
HETATM   23  C30 UNL     1       3.096   8.840 -18.503  1.00  0.00     0.044 C 
BRANCH  16  24
HETATM   24  O7  UNL     1       2.044  10.104 -11.190  1.00  0.00    -0.393 OA
ATOM     25  H7  UNL     1       1.338  10.139 -10.556  1.00  0.00     0.210 HD
ENDBRANCH  16  24
ENDBRANCH   6   8
BRANCH   7  26
HETATM   26  O8  UNL     1      -0.603  10.245 -19.004  1.00  0.00    -0.359 OA
ATOM     27  H8  UNL     1       0.059  10.779 -18.581  1.00  0.00     0.217 HD
ENDBRANCH   7  26
BRANCH   1  28
HETATM   28  C9  UNL     1      -2.443   9.609 -21.114  1.00  0.00     0.057 C 
BRANCH  28  29
HETATM   29  C8  UNL     1      -3.060  10.577 -21.992  1.00  0.00     0.082 C 
BRANCH  29  30
HETATM   30  C4  UNL     1      -3.355  11.866 -21.198  1.00  0.00     0.116 C 
BRANCH  30  31
HETATM   31  C3  UNL     1      -4.806  12.094 -21.088  1.00  0.00     0.265 C 
HETATM   32  O2  UNL     1      -5.371  12.308 -20.006  1.00  0.00    -0.265 OA
BRANCH  31  33
HETATM   33  O1  UNL     1      -5.612  12.074 -22.237  1.00  0.00    -0.321 OA
BRANCH  33  34
HETATM   34  C2  UNL     1      -6.879  12.654 -22.296  1.00  0.00     0.174 C 
HETATM   35  C1  UNL     1      -7.991  11.636 -22.141  1.00  0.00     0.034 C 
ENDBRANCH  33  34
ENDBRANCH  31  33
ENDBRANCH  30  31
BRANCH  30  36
HETATM   36  C5  UNL     1      -2.898  13.035 -22.150  1.00  0.00     0.193 C 
BRANCH  36  37
HETATM   37  O3  UNL     1      -1.511  13.173 -21.972  1.00  0.00    -0.320 OA
BRANCH  37  38
HETATM   38  C6  UNL     1      -0.529  12.933 -22.901  1.00  0.00     0.272 C 
HETATM   39  O4  UNL     1      -0.502  13.667 -23.917  1.00  0.00    -0.264 OA
BRANCH  38  40
HETATM   40  C7  UNL     1       0.473  11.815 -22.681  1.00  0.00     0.225 C 
HETATM   41 CL1  UNL     1       0.282  10.504 -23.826  1.00  0.00    -0.120 Cl
ENDBRANCH  38  40
ENDBRANCH  37  38
ENDBRANCH  36  37
ENDBRANCH  30  36
ENDBRANCH  29  30
ENDBRANCH  28  29
BRANCH  28  42
HETATM   42  O5  UNL     1      -3.335   9.332 -20.124  1.00  0.00    -0.364 OA
ATOM     43  H5  UNL     1      -2.986   9.695 -19.319  1.00  0.00     0.217 HD
ENDBRANCH  28  42
ENDBRANCH   1  28
TORSDOF 14
ENDMDL
MODEL 4
REMARK VINA RESULT: -7.218537765      2.470      4.596
REMARK  14 active torsions:
REMARK  status: ('A' for Active; 'I' for Inactive)
REMARK    1  A    between atoms: C2_2  and  O1_3 
REMARK    2  A    between atoms: O1_3  and  C3_4 
REMARK    3  A    between atoms: C3_4  and  C4_6 
REMARK    4  A    between atoms: C4_6  and  C5_7 
REMARK    5  A    between atoms: C4_6  and  C8_13 
REMARK    6  A    between atoms: C5_7  and  O3_8 
REMARK    7  A    between atoms: O3_8  and  C6_9 
REMARK    8  A    between atoms: C6_9  and  C7_11 
REMARK    9  A    between atoms: C8_13  and  C9_14 
REMARK   10  A    between atoms: C9_14  and  O5_15 
REMARK   11  A    between atoms: C9_14  and  C10_17 
REMARK   12  A    between atoms: C15_22  and  C16_23 
REMARK   13  A    between atoms: C21_29  and  O7_30 
REMARK   14  A    between atoms: C31_41  and  O8_42 
ROOT
HETATM    1  C10 UNL     1      -1.041   8.082 -19.230  1.00  0.00     0.033 A 
HETATM    2  C11 UNL     1      -0.348   8.310 -18.060  1.00  0.00    -0.046 A 
HETATM    3  C12 UNL     1      -0.473   9.587 -17.271  1.00  0.00     0.049 C 
HETATM    4  C13 UNL     1       0.613   7.413 -17.658  1.00  0.00     0.009 A 
HETATM    5  C14 UNL     1       0.915   6.293 -18.397  1.00  0.00     0.015 A 
HETATM    6  C15 UNL     1       0.281   6.018 -19.568  1.00  0.00     0.000 A 
HETATM    7  C31 UNL     1      -0.723   6.933 -19.985  1.00  0.00     0.089 A 
ENDROOT
BRANCH   6   8
HETATM    8  C16 UNL     1       0.768   5.051 -20.567  1.00  0.00    -0.066 C 
HETATM    9  C17 UNL     1       1.963   5.275 -21.376  1.00  0.00     0.043 C 
HETATM   10  C18 UNL     1       2.446   3.840 -21.612  1.00  0.00     0.027 C 
HETATM   11  C19 UNL     1       3.050   3.603 -22.944  1.00  0.00     0.131 C 
HETATM   12  C28 UNL     1       1.277   2.953 -21.415  1.00  0.00    -0.034 C 
HETATM   13  O6  UNL     1       4.312   4.077 -23.159  1.00  0.00    -0.383 OA
HETATM   14  C25 UNL     1       2.100   4.051 -24.027  1.00  0.00     0.025 C 
HETATM   15  C20 UNL     1       4.841   3.380 -24.250  1.00  0.00     0.200 C 
HETATM   16  C21 UNL     1       4.092   3.760 -25.497  1.00  0.00     0.150 C 
HETATM   17  C22 UNL     1       2.609   3.593 -25.392  1.00  0.00    -0.014 C 
HETATM   18  C23 UNL     1       1.975   4.585 -26.377  1.00  0.00     0.018 C 
HETATM   19  C24 UNL     1       2.106   2.236 -25.756  1.00  0.00     0.018 C 
HETATM   20  C26 UNL     1       0.695   3.644 -23.782  1.00  0.00     0.009 C 
HETATM   21  C27 UNL     1       0.428   2.752 -22.628  1.00  0.00     0.010 C 
HETATM   22  C29 UNL     1       1.680   1.603 -20.881  1.00  0.00     0.016 C 
HETATM   23  C30 UNL     1       0.497   3.621 -20.286  1.00  0.00     0.044 C 
BRANCH  16  24
HETATM   24  O7  UNL     1       4.545   2.982 -26.562  1.00  0.00    -0.393 OA
ATOM     25  H7  UNL     1       4.936   3.546 -27.219  1.00  0.00     0.210 HD
ENDBRANCH  16  24
ENDBRANCH   6   8
BRANCH   7  26
HETATM   26  O8  UNL     1      -1.306   6.573 -21.143  1.00  0.00    -0.359 OA
ATOM     27  H8  UNL     1      -2.035   7.021 -21.555  1.00  0.00     0.217 HD
ENDBRANCH   7  26
BRANCH   1  28
HETATM   28  C9  UNL     1      -2.158   8.863 -19.636  1.00  0.00     0.057 C 
BRANCH  28  29
HETATM   29  C8  UNL     1      -2.551  10.205 -20.000  1.00  0.00     0.082 C 
BRANCH  29  30
HETATM   30  C4  UNL     1      -2.922  10.237 -21.496  1.00  0.00     0.116 C 
BRANCH  30  31
HETATM   31  C3  UNL     1      -1.756   9.909 -22.333  1.00  0.00     0.265 C 
HETATM   32  O2  UNL     1      -0.789  10.673 -22.466  1.00  0.00    -0.265 OA
BRANCH  31  33
HETATM   33  O1  UNL     1      -1.705   8.689 -23.026  1.00  0.00    -0.321 OA
BRANCH  33  34
HETATM   34  C2  UNL     1      -0.971   8.501 -24.197  1.00  0.00     0.174 C 
HETATM   35  C1  UNL     1       0.257   7.641 -23.981  1.00  0.00     0.034 C 
ENDBRANCH  33  34
ENDBRANCH  31  33
ENDBRANCH  30  31
BRANCH  30  36
HETATM   36  C5  UNL     1      -3.155  11.761 -21.818  1.00  0.00     0.193 C 
BRANCH  36  37
HETATM   37  O3  UNL     1      -4.466  11.867 -22.312  1.00  0.00    -0.320 OA
BRANCH  37  38
HETATM   38  C6  UNL     1      -5.593  12.201 -21.603  1.00  0.00     0.272 C 
HETATM   39  O4  UNL     1      -5.513  12.193 -20.352  1.00  0.00    -0.264 OA
BRANCH  38  40
HETATM   40  C7  UNL     1      -6.875  12.560 -22.331  1.00  0.00     0.225 C 
HETATM   41 CL1  UNL     1      -8.189  11.463 -21.966  1.00  0.00    -0.120 Cl
ENDBRANCH  38  40
ENDBRANCH  37  38
ENDBRANCH  36  37
ENDBRANCH  30  36
ENDBRANCH  29  30
ENDBRANCH  28  29
BRANCH  28  42
HETATM   42  O5  UNL     1      -3.268   8.081 -19.712  1.00  0.00    -0.364 OA
ATOM     43  H5  UNL     1      -3.847   8.473 -20.356  1.00  0.00     0.217 HD
ENDBRANCH  28  42
ENDBRANCH   1  28
TORSDOF 14
ENDMDL
MODEL 5
REMARK VINA RESULT: -7.189518254      3.284      8.025
REMARK  14 active torsions:
REMARK  status: ('A' for Active; 'I' for Inactive)
REMARK    1  A    between atoms: C2_2  and  O1_3 
REMARK    2  A    between atoms: O1_3  and  C3_4 
REMARK    3  A    between atoms: C3_4  and  C4_6 
REMARK    4  A    between atoms: C4_6  and  C5_7 
REMARK    5  A    between atoms: C4_6  and  C8_13 
REMARK    6  A    between atoms: C5_7  and  O3_8 
REMARK    7  A    between atoms: O3_8  and  C6_9 
REMARK    8  A    between atoms: C6_9  and  C7_11 
REMARK    9  A    between atoms: C8_13  and  C9_14 
REMARK   10  A    between atoms: C9_14  and  O5_15 
REMARK   11  A    between atoms: C9_14  and  C10_17 
REMARK   12  A    between atoms: C15_22  and  C16_23 
REMARK   13  A    between atoms: C21_29  and  O7_30 
REMARK   14  A    between atoms: C31_41  and  O8_42 
ROOT
HETATM    1  C10 UNL     1       2.415   4.335 -17.453  1.00  0.00     0.033 A 
HETATM    2  C11 UNL     1       3.510   3.650 -17.935  1.00  0.00    -0.046 A 
HETATM    3  C12 UNL     1       4.614   3.143 -17.045  1.00  0.00     0.049 C 
HETATM    4  C13 UNL     1       3.698   3.546 -19.293  1.00  0.00     0.009 A 
HETATM    5  C14 UNL     1       2.828   4.118 -20.192  1.00  0.00     0.015 A 
HETATM    6  C15 UNL     1       1.738   4.819 -19.783  1.00  0.00     0.000 A 
HETATM    7  C31 UNL     1       1.528   4.921 -18.381  1.00  0.00     0.089 A 
ENDROOT
BRANCH   6   8
HETATM    8  C16 UNL     1       0.965   5.728 -20.647  1.00  0.00    -0.066 C 
HETATM    9  C17 UNL     1       1.499   6.988 -21.158  1.00  0.00     0.043 C 
HETATM   10  C18 UNL     1       0.739   7.129 -22.481  1.00  0.00     0.027 C 
HETATM   11  C19 UNL     1       0.381   8.520 -22.842  1.00  0.00     0.131 C 
HETATM   12  C28 UNL     1      -0.483   6.299 -22.367  1.00  0.00    -0.034 C 
HETATM   13  O6  UNL     1       1.376   9.326 -23.315  1.00  0.00    -0.383 OA
HETATM   14  C25 UNL     1      -0.365   9.172 -21.705  1.00  0.00     0.025 C 
HETATM   15  C20 UNL     1       0.770  10.386 -23.997  1.00  0.00     0.200 C 
HETATM   16  C21 UNL     1       0.032  11.254 -23.017  1.00  0.00     0.150 C 
HETATM   17  C22 UNL     1      -0.941  10.512 -22.157  1.00  0.00    -0.014 C 
HETATM   18  C23 UNL     1      -1.090  11.311 -20.855  1.00  0.00     0.018 C 
HETATM   19  C24 UNL     1      -2.308  10.370 -22.739  1.00  0.00     0.018 C 
HETATM   20  C26 UNL     1      -1.390   8.293 -21.094  1.00  0.00     0.009 C 
HETATM   21  C27 UNL     1      -1.655   6.987 -21.745  1.00  0.00     0.010 C 
HETATM   22  C29 UNL     1      -0.906   5.738 -23.700  1.00  0.00     0.016 C 
HETATM   23  C30 UNL     1      -0.033   5.096 -21.543  1.00  0.00     0.044 C 
BRANCH  16  24
HETATM   24  O7  UNL     1      -0.664  12.244 -23.711  1.00  0.00    -0.393 OA
ATOM     25  H7  UNL     1      -0.178  13.058 -23.667  1.00  0.00     0.210 HD
ENDBRANCH  16  24
ENDBRANCH   6   8
BRANCH   7  26
HETATM   26  O8  UNL     1       0.420   5.617 -18.070  1.00  0.00    -0.359 OA
ATOM     27  H8  UNL     1       0.242   6.024 -17.230  1.00  0.00     0.217 HD
ENDBRANCH   7  26
BRANCH   1  28
HETATM   28  C9  UNL     1       2.053   4.351 -16.077  1.00  0.00     0.057 C 
BRANCH  28  29
HETATM   29  C8  UNL     1       2.268   5.068 -14.841  1.00  0.00     0.082 C 
BRANCH  29  30
HETATM   30  C4  UNL     1       1.855   6.541 -15.031  1.00  0.00     0.116 C 
BRANCH  30  31
HETATM   31  C3  UNL     1       2.387   7.379 -13.942  1.00  0.00     0.265 C 
HETATM   32  O2  UNL     1       3.544   7.825 -13.942  1.00  0.00    -0.265 OA
BRANCH  31  33
HETATM   33  O1  UNL     1       1.577   7.705 -12.843  1.00  0.00    -0.321 OA
BRANCH  33  34
HETATM   34  C2  UNL     1       1.621   8.940 -12.195  1.00  0.00     0.174 C 
HETATM   35  C1  UNL     1       0.703   9.962 -12.833  1.00  0.00     0.034 C 
ENDBRANCH  33  34
ENDBRANCH  31  33
ENDBRANCH  30  31
BRANCH  30  36
HETATM   36  C5  UNL     1       0.306   6.561 -14.749  1.00  0.00     0.193 C 
BRANCH  36  37
HETATM   37  O3  UNL     1      -0.291   7.189 -15.855  1.00  0.00    -0.320 OA
BRANCH  37  38
HETATM   38  C6  UNL     1      -0.647   8.510 -15.964  1.00  0.00     0.272 C 
HETATM   39  O4  UNL     1      -1.783   8.839 -15.549  1.00  0.00    -0.264 OA
BRANCH  38  40
HETATM   40  C7  UNL     1       0.317   9.513 -16.569  1.00  0.00     0.225 C 
HETATM   41 CL1  UNL     1       0.750   9.122 -18.220  1.00  0.00    -0.120 Cl
ENDBRANCH  38  40
ENDBRANCH  37  38
ENDBRANCH  36  37
ENDBRANCH  30  36
ENDBRANCH  29  30
ENDBRANCH  28  29
BRANCH  28  42
HETATM   42  O5  UNL     1       1.197   3.328 -15.810  1.00  0.00    -0.364 OA
ATOM     43  H5  UNL     1       1.697   2.522 -15.851  1.00  0.00     0.217 HD
ENDBRANCH  28  42
ENDBRANCH   1  28
TORSDOF 14
ENDMDL
