MODEL 1
REMARK VINA RESULT: -7.161982998      0.000      0.000
REMARK  17 active torsions:
REMARK  status: ('A' for Active; 'I' for Inactive)
REMARK    1  A    between atoms: N1_1  and  C1_4 
REMARK    2  A    between atoms: C2_7  and  O1_8 
REMARK    3  A    between atoms: C3_10  and  C4_11 
REMARK    4  A    between atoms: N5_16  and  C5_17 
REMARK    5  A    between atoms: C5_17  and  C6_18 
REMARK    6  A    between atoms: C6_18  and  O2_19 
REMARK    7  A    between atoms: C6_18  and  C7_21 
REMARK    8  A    between atoms: C8_30  and  C9_31 
REMARK    9  A    between atoms: C10_32  and  O3_33 
REMARK   10  A    between atoms: C11_35  and  O4_36 
REMARK       I    between atoms: N10_38  and  C12_39 
REMARK   11  A    between atoms: C12_39  and  C13_41 
REMARK   12  A    between atoms: C13_41  and  O6_42 
REMARK   13  A    between atoms: C14_44  and  O7_45 
REMARK   14  A    between atoms: N11_47  and  C15_48 
REMARK   15  A    between atoms: C15_48  and  C16_49 
REMARK   16  A    between atoms: C16_49  and  O8_50 
REMARK   17  A    between atoms: C16_49  and  O9_52 
ROOT
HETATM    1  C4  UNL     1      24.033 -15.170   4.229  1.00  0.00     0.110 A 
HETATM    2  N3  UNL     1      23.228 -15.507   3.216  1.00  0.00    -0.282 N 
ATOM      3  H3  UNL     1      23.059 -16.453   2.875  1.00  0.00     0.188 HD
HETATM    4  N4  UNL     1      22.703 -14.426   2.745  1.00  0.00    -0.239 N 
ATOM      5  H4  UNL     1      22.048 -14.394   1.963  1.00  0.00     0.208 HD
HETATM    6  N5  UNL     1      23.134 -13.351   3.418  1.00  0.00    -0.272 N 
HETATM    7  C8  UNL     1      23.981 -13.768   4.369  1.00  0.00     0.100 A 
ENDROOT
BRANCH   1   8
HETATM    8  C3  UNL     1      24.850 -16.036   5.063  1.00  0.00     0.133 A 
HETATM    9  C2  UNL     1      26.063 -16.536   4.635  1.00  0.00     0.185 A 
HETATM   10  N2  UNL     1      26.561 -17.242   5.659  1.00  0.00    -0.168 N 
HETATM   11  C1  UNL     1      25.688 -17.177   6.675  1.00  0.00     0.680 A 
ATOM     12  H2  UNL     1      27.450 -17.742   5.665  1.00  0.00     0.186 HD
HETATM   13  N11 UNL     1      24.607 -16.424   6.320  1.00  0.00    -0.172 N 
BRANCH   9  14
HETATM   14  O1  UNL     1      26.667 -16.351   3.372  1.00  0.00    -0.344 OA
ATOM     15  H1  UNL     1      26.467 -16.827   2.575  1.00  0.00     0.219 HD
ENDBRANCH   9  14
BRANCH  11  16
HETATM   16  N1  UNL     1      25.803 -17.728   7.841  1.00  0.00    -0.234 N 
ATOM     17  H12 UNL     1      26.181 -18.667   7.971  1.00  0.00     0.174 HD
ATOM     18  H11 UNL     1      25.547 -17.323   8.742  1.00  0.00     0.174 HD
ENDBRANCH  11  16
BRANCH  13  19
HETATM   19  C15 UNL     1      23.514 -16.148   7.226  1.00  0.00     0.208 C 
BRANCH  19  20
HETATM   20  C16 UNL     1      23.915 -15.288   8.389  1.00  0.00     0.272 C 
BRANCH  20  21
HETATM   21  O8  UNL     1      22.930 -14.351   8.707  1.00  0.00    -0.370 OA
ATOM     22  H8  UNL     1      23.292 -13.479   8.817  1.00  0.00     0.212 HD
ENDBRANCH  20  21
BRANCH  20  23
HETATM   23  O9  UNL     1      24.212 -15.960   9.554  1.00  0.00    -0.370 OA
ATOM     24  H9  UNL     1      24.099 -15.464  10.356  1.00  0.00     0.212 HD
ENDBRANCH  20  23
ENDBRANCH  19  20
ENDBRANCH  13  19
ENDBRANCH   1   8
BRANCH   7  25
HETATM   25  C9  UNL     1      24.729 -12.999   5.347  1.00  0.00     0.084 A 
HETATM   26  C10 UNL     1      26.119 -12.816   5.400  1.00  0.00     0.134 A 
HETATM   27  C11 UNL     1      26.447 -12.020   6.469  1.00  0.00     0.186 A 
HETATM   28  N10 UNL     1      25.283 -11.694   7.097  1.00  0.00    -0.236 N 
HETATM   29  C12 UNL     1      25.258 -10.865   8.253  1.00  0.00     0.255 C 
HETATM   30  C14 UNL     1      24.277 -12.271   6.434  1.00  0.00     0.167 A 
HETATM   31  O5  UNL     1      26.333 -10.390   8.747  1.00  0.00    -0.270 OA
BRANCH  26  32
HETATM   32  O3  UNL     1      27.031 -13.364   4.501  1.00  0.00    -0.356 OA
ATOM     33  H3  UNL     1      27.746 -12.890   4.094  1.00  0.00     0.218 HD
ENDBRANCH  26  32
BRANCH  27  34
HETATM   34  O4  UNL     1      27.743 -11.624   6.835  1.00  0.00    -0.344 OA
ATOM     35  H4  UNL     1      28.106 -11.646   7.713  1.00  0.00     0.219 HD
ENDBRANCH  27  34
BRANCH  29  36
HETATM   36  C13 UNL     1      23.984 -10.510   8.942  1.00  0.00     0.267 C 
BRANCH  36  37
HETATM   37  O6  UNL     1      23.575 -11.588   9.757  1.00  0.00    -0.392 OA
ATOM     38  H6  UNL     1      23.182 -11.250  10.553  1.00  0.00     0.210 HD
ENDBRANCH  36  37
ENDBRANCH  29  36
BRANCH  30  39
HETATM   39  O7  UNL     1      22.950 -12.147   6.802  1.00  0.00    -0.345 OA
ATOM     40  H7  UNL     1      22.485 -11.322   6.877  1.00  0.00     0.219 HD
ENDBRANCH  30  39
ENDBRANCH   7  25
BRANCH   6  41
HETATM   41  C5  UNL     1      22.736 -11.980   3.174  1.00  0.00     0.190 C 
BRANCH  41  42
HETATM   42  C6  UNL     1      21.351 -11.702   3.693  1.00  0.00     0.208 C 
BRANCH  42  43
HETATM   43  O2  UNL     1      21.267 -10.695   4.628  1.00  0.00    -0.386 OA
ATOM     44  H2  UNL     1      20.816 -10.927   5.431  1.00  0.00     0.210 HD
ENDBRANCH  42  43
BRANCH  42  45
HETATM   45  C7  UNL     1      20.395 -11.422   2.610  1.00  0.00     0.144 A 
HETATM   46  N6  UNL     1      20.536 -11.860   1.351  1.00  0.00    -0.270 N 
HETATM   47  N7  UNL     1      19.525 -11.449   0.619  1.00  0.00    -0.227 N 
ATOM     48  H6  UNL     1      21.312 -12.427   1.012  1.00  0.00     0.190 HD
HETATM   49  N8  UNL     1      18.732 -10.747   1.404  1.00  0.00    -0.227 N 
ATOM     50  H7  UNL     1      19.380 -11.639  -0.372  1.00  0.00     0.210 HD
HETATM   51  N9  UNL     1      19.248 -10.720   2.626  1.00  0.00    -0.270 N 
ATOM     52  H8  UNL     1      17.863 -10.296   1.118  1.00  0.00     0.210 HD
ATOM     53  H9  UNL     1      18.845 -10.248   3.436  1.00  0.00     0.190 HD
ENDBRANCH  42  45
ENDBRANCH  41  42
ENDBRANCH   6  41
TORSDOF 17
ENDMDL
MODEL 2
REMARK VINA RESULT: -6.971878045      4.643      8.654
REMARK  17 active torsions:
REMARK  status: ('A' for Active; 'I' for Inactive)
REMARK    1  A    between atoms: N1_1  and  C1_4 
REMARK    2  A    between atoms: C2_7  and  O1_8 
REMARK    3  A    between atoms: C3_10  and  C4_11 
REMARK    4  A    between atoms: N5_16  and  C5_17 
REMARK    5  A    between atoms: C5_17  and  C6_18 
REMARK    6  A    between atoms: C6_18  and  O2_19 
REMARK    7  A    between atoms: C6_18  and  C7_21 
REMARK    8  A    between atoms: C8_30  and  C9_31 
REMARK    9  A    between atoms: C10_32  and  O3_33 
REMARK   10  A    between atoms: C11_35  and  O4_36 
REMARK       I    between atoms: N10_38  and  C12_39 
REMARK   11  A    between atoms: C12_39  and  C13_41 
REMARK   12  A    between atoms: C13_41  and  O6_42 
REMARK   13  A    between atoms: C14_44  and  O7_45 
REMARK   14  A    between atoms: N11_47  and  C15_48 
REMARK   15  A    between atoms: C15_48  and  C16_49 
REMARK   16  A    between atoms: C16_49  and  O8_50 
REMARK   17  A    between atoms: C16_49  and  O9_52 
ROOT
HETATM    1  C4  UNL     1      21.426 -12.500   0.162  1.00  0.00     0.110 A 
HETATM    2  N3  UNL     1      22.751 -12.355   0.266  1.00  0.00    -0.282 N 
ATOM      3  H3  UNL     1      23.415 -12.342  -0.509  1.00  0.00     0.188 HD
HETATM    4  N4  UNL     1      23.044 -12.234   1.517  1.00  0.00    -0.239 N 
ATOM      5  H4  UNL     1      23.989 -12.110   1.881  1.00  0.00     0.208 HD
HETATM    6  N5  UNL     1      21.940 -12.293   2.275  1.00  0.00    -0.272 N 
HETATM    7  C8  UNL     1      20.887 -12.463   1.464  1.00  0.00     0.100 A 
ENDROOT
BRANCH   1   8
HETATM    8  C3  UNL     1      20.627 -12.683  -1.039  1.00  0.00     0.133 A 
HETATM    9  C2  UNL     1      20.006 -11.627  -1.675  1.00  0.00     0.185 A 
HETATM   10  N2  UNL     1      19.408 -12.140  -2.758  1.00  0.00    -0.168 N 
HETATM   11  C1  UNL     1      19.652 -13.458  -2.785  1.00  0.00     0.680 A 
ATOM     12  H2  UNL     1      18.862 -11.618  -3.444  1.00  0.00     0.186 HD
HETATM   13  N11 UNL     1      20.415 -13.818  -1.713  1.00  0.00    -0.172 N 
BRANCH   9  14
HETATM   14  O1  UNL     1      19.995 -10.273  -1.274  1.00  0.00    -0.344 OA
ATOM     15  H1  UNL     1      20.741  -9.767  -0.974  1.00  0.00     0.219 HD
ENDBRANCH   9  14
BRANCH  11  16
HETATM   16  N1  UNL     1      19.248 -14.310  -3.672  1.00  0.00    -0.234 N 
ATOM     17  H12 UNL     1      19.891 -14.900  -4.202  1.00  0.00     0.174 HD
ATOM     18  H11 UNL     1      18.285 -14.501  -3.950  1.00  0.00     0.174 HD
ENDBRANCH  11  16
BRANCH  13  19
HETATM   19  C15 UNL     1      20.868 -15.175  -1.494  1.00  0.00     0.208 C 
BRANCH  19  20
HETATM   20  C16 UNL     1      22.331 -15.360  -1.770  1.00  0.00     0.272 C 
BRANCH  20  21
HETATM   21  O8  UNL     1      22.801 -14.450  -2.718  1.00  0.00    -0.370 OA
ATOM     22  H8  UNL     1      23.567 -13.980  -2.409  1.00  0.00     0.212 HD
ENDBRANCH  20  21
BRANCH  20  23
HETATM   23  O9  UNL     1      23.163 -15.257  -0.677  1.00  0.00    -0.370 OA
ATOM     24  H9  UNL     1      23.021 -14.501  -0.121  1.00  0.00     0.212 HD
ENDBRANCH  20  23
ENDBRANCH  19  20
ENDBRANCH  13  19
ENDBRANCH   1   8
BRANCH   7  25
HETATM   25  C9  UNL     1      19.480 -12.605   1.789  1.00  0.00     0.084 A 
HETATM   26  C10 UNL     1      18.532 -11.579   1.923  1.00  0.00     0.134 A 
HETATM   27  C11 UNL     1      17.305 -12.114   2.231  1.00  0.00     0.186 A 
HETATM   28  N10 UNL     1      17.460 -13.465   2.294  1.00  0.00    -0.236 N 
HETATM   29  C12 UNL     1      16.374 -14.335   2.589  1.00  0.00     0.255 C 
HETATM   30  C14 UNL     1      18.740 -13.749   2.034  1.00  0.00     0.167 A 
HETATM   31  O5  UNL     1      15.204 -13.879   2.804  1.00  0.00    -0.270 OA
BRANCH  26  32
HETATM   32  O3  UNL     1      18.798 -10.221   1.769  1.00  0.00    -0.356 OA
ATOM     33  H3  UNL     1      18.627  -9.719   0.982  1.00  0.00     0.218 HD
ENDBRANCH  26  32
BRANCH  27  34
HETATM   34  O4  UNL     1      16.120 -11.390   2.440  1.00  0.00    -0.344 OA
ATOM     35  H4  UNL     1      15.371 -11.367   1.856  1.00  0.00     0.219 HD
ENDBRANCH  27  34
BRANCH  29  36
HETATM   36  C13 UNL     1      16.545 -15.815   2.660  1.00  0.00     0.267 C 
BRANCH  36  37
HETATM   37  O6  UNL     1      17.131 -16.161   3.897  1.00  0.00    -0.392 OA
ATOM     38  H6  UNL     1      17.681 -16.927   3.782  1.00  0.00     0.210 HD
ENDBRANCH  36  37
ENDBRANCH  29  36
BRANCH  30  39
HETATM   39  O7  UNL     1      19.248 -15.035   2.014  1.00  0.00    -0.345 OA
ATOM     40  H7  UNL     1      18.762 -15.812   2.265  1.00  0.00     0.219 HD
ENDBRANCH  30  39
ENDBRANCH   7  25
BRANCH   6  41
HETATM   41  C5  UNL     1      21.893 -12.171   3.718  1.00  0.00     0.190 C 
BRANCH  41  42
HETATM   42  C6  UNL     1      22.190 -10.766   4.167  1.00  0.00     0.208 C 
BRANCH  42  43
HETATM   43  O2  UNL     1      21.113 -10.072   4.669  1.00  0.00    -0.386 OA
ATOM     44  H2  UNL     1      20.873  -9.293   4.182  1.00  0.00     0.210 HD
ENDBRANCH  42  43
BRANCH  42  45
HETATM   45  C7  UNL     1      23.285 -10.715   5.150  1.00  0.00     0.144 A 
HETATM   46  N6  UNL     1      24.585 -10.754   4.830  1.00  0.00    -0.270 N 
HETATM   47  N7  UNL     1      25.317 -10.690   5.920  1.00  0.00    -0.227 N 
ATOM     48  H6  UNL     1      24.953 -10.824   3.882  1.00  0.00     0.190 HD
HETATM   49  N8  UNL     1      24.489 -10.611   6.943  1.00  0.00    -0.227 N 
ATOM     50  H7  UNL     1      26.336 -10.700   5.966  1.00  0.00     0.210 HD
HETATM   51  N9  UNL     1      23.242 -10.624   6.491  1.00  0.00    -0.270 N 
ATOM     52  H8  UNL     1      24.764 -10.549   7.923  1.00  0.00     0.210 HD
ATOM     53  H9  UNL     1      22.398 -10.573   7.062  1.00  0.00     0.190 HD
ENDBRANCH  42  45
ENDBRANCH  41  42
ENDBRANCH   6  41
TORSDOF 17
ENDMDL
MODEL 3
REMARK VINA RESULT: -6.907686366      4.716      9.119
REMARK  17 active torsions:
REMARK  status: ('A' for Active; 'I' for Inactive)
REMARK    1  A    between atoms: N1_1  and  C1_4 
REMARK    2  A    between atoms: C2_7  and  O1_8 
REMARK    3  A    between atoms: C3_10  and  C4_11 
REMARK    4  A    between atoms: N5_16  and  C5_17 
REMARK    5  A    between atoms: C5_17  and  C6_18 
REMARK    6  A    between atoms: C6_18  and  O2_19 
REMARK    7  A    between atoms: C6_18  and  C7_21 
REMARK    8  A    between atoms: C8_30  and  C9_31 
REMARK    9  A    between atoms: C10_32  and  O3_33 
REMARK   10  A    between atoms: C11_35  and  O4_36 
REMARK       I    between atoms: N10_38  and  C12_39 
REMARK   11  A    between atoms: C12_39  and  C13_41 
REMARK   12  A    between atoms: C13_41  and  O6_42 
REMARK   13  A    between atoms: C14_44  and  O7_45 
REMARK   14  A    between atoms: N11_47  and  C15_48 
REMARK   15  A    between atoms: C15_48  and  C16_49 
REMARK   16  A    between atoms: C16_49  and  O8_50 
REMARK   17  A    between atoms: C16_49  and  O9_52 
ROOT
HETATM    1  C4  UNL     1      20.819 -12.515  -0.483  1.00  0.00     0.110 A 
HETATM    2  N3  UNL     1      22.083 -12.081  -0.449  1.00  0.00    -0.282 N 
ATOM      3  H3  UNL     1      22.700 -11.968  -1.253  1.00  0.00     0.188 HD
HETATM    4  N4  UNL     1      22.387 -11.829   0.781  1.00  0.00    -0.239 N 
ATOM      5  H4  UNL     1      23.294 -11.483   1.094  1.00  0.00     0.208 HD
HETATM    6  N5  UNL     1      21.350 -12.083   1.591  1.00  0.00    -0.272 N 
HETATM    7  C8  UNL     1      20.332 -12.522   0.840  1.00  0.00     0.100 A 
ENDROOT
BRANCH   1   8
HETATM    8  C3  UNL     1      20.037 -12.933  -1.635  1.00  0.00     0.133 A 
HETATM    9  C2  UNL     1      19.190 -12.070  -2.301  1.00  0.00     0.185 A 
HETATM   10  N2  UNL     1      18.677 -12.762  -3.326  1.00  0.00    -0.168 N 
HETATM   11  C1  UNL     1      19.188 -14.001  -3.291  1.00  0.00     0.680 A 
ATOM     12  H2  UNL     1      18.012 -12.408  -4.014  1.00  0.00     0.186 HD
HETATM   13  N11 UNL     1      20.044 -14.128  -2.236  1.00  0.00    -0.172 N 
BRANCH   9  14
HETATM   14  O1  UNL     1      18.910 -10.725  -1.974  1.00  0.00    -0.344 OA
ATOM     15  H1  UNL     1      18.211 -10.191  -2.332  1.00  0.00     0.219 HD
ENDBRANCH   9  14
BRANCH  11  16
HETATM   16  N1  UNL     1      18.942 -14.972  -4.111  1.00  0.00    -0.234 N 
ATOM     17  H12 UNL     1      19.647 -15.350  -4.744  1.00  0.00     0.174 HD
ATOM     18  H11 UNL     1      18.058 -15.468  -4.232  1.00  0.00     0.174 HD
ENDBRANCH  11  16
BRANCH  13  19
HETATM   19  C15 UNL     1      20.775 -15.346  -1.963  1.00  0.00     0.208 C 
BRANCH  19  20
HETATM   20  C16 UNL     1      22.038 -15.468  -2.764  1.00  0.00     0.272 C 
BRANCH  20  21
HETATM   21  O8  UNL     1      22.928 -14.426  -2.496  1.00  0.00    -0.370 OA
ATOM     22  H8  UNL     1      23.688 -14.725  -2.010  1.00  0.00     0.212 HD
ENDBRANCH  20  21
BRANCH  20  23
HETATM   23  O9  UNL     1      22.742 -16.640  -2.595  1.00  0.00    -0.370 OA
ATOM     24  H9  UNL     1      22.245 -17.441  -2.716  1.00  0.00     0.212 HD
ENDBRANCH  20  23
ENDBRANCH  19  20
ENDBRANCH  13  19
ENDBRANCH   1   8
BRANCH   7  25
HETATM   25  C9  UNL     1      19.002 -12.947   1.236  1.00  0.00     0.084 A 
HETATM   26  C10 UNL     1      17.826 -12.182   1.219  1.00  0.00     0.134 A 
HETATM   27  C11 UNL     1      16.769 -12.939   1.663  1.00  0.00     0.186 A 
HETATM   28  N10 UNL     1      17.258 -14.174   1.963  1.00  0.00    -0.236 N 
HETATM   29  C12 UNL     1      16.422 -15.216   2.450  1.00  0.00     0.255 C 
HETATM   30  C14 UNL     1      18.570 -14.173   1.711  1.00  0.00     0.167 A 
HETATM   31  O5  UNL     1      15.173 -15.033   2.622  1.00  0.00    -0.270 OA
BRANCH  26  32
HETATM   32  O3  UNL     1      17.744 -10.852   0.812  1.00  0.00    -0.356 OA
ATOM     33  H3  UNL     1      17.493 -10.564  -0.057  1.00  0.00     0.218 HD
ENDBRANCH  26  32
BRANCH  27  34
HETATM   34  O4  UNL     1      15.439 -12.506   1.781  1.00  0.00    -0.344 OA
ATOM     35  H4  UNL     1      14.672 -13.066   1.817  1.00  0.00     0.219 HD
ENDBRANCH  27  34
BRANCH  29  36
HETATM   36  C13 UNL     1      16.958 -16.568   2.780  1.00  0.00     0.267 C 
BRANCH  36  37
HETATM   37  O6  UNL     1      17.536 -16.542   4.068  1.00  0.00    -0.392 OA
ATOM     38  H6  UNL     1      17.212 -17.278   4.575  1.00  0.00     0.210 HD
ENDBRANCH  36  37
ENDBRANCH  29  36
BRANCH  30  39
HETATM   39  O7  UNL     1      19.385 -15.274   1.904  1.00  0.00    -0.345 OA
ATOM     40  H7  UNL     1      19.708 -15.836   1.210  1.00  0.00     0.219 HD
ENDBRANCH  30  39
ENDBRANCH   7  25
BRANCH   6  41
HETATM   41  C5  UNL     1      21.329 -11.893   3.027  1.00  0.00     0.190 C 
BRANCH  41  42
HETATM   42  C6  UNL     1      22.478 -12.597   3.698  1.00  0.00     0.208 C 
BRANCH  42  43
HETATM   43  O2  UNL     1      23.460 -13.054   2.849  1.00  0.00    -0.386 OA
ATOM     44  H2  UNL     1      24.094 -13.641   3.244  1.00  0.00     0.210 HD
ENDBRANCH  42  43
BRANCH  42  45
HETATM   45  C7  UNL     1      23.103 -11.771   4.743  1.00  0.00     0.144 A 
HETATM   46  N6  UNL     1      22.462 -11.318   5.829  1.00  0.00    -0.270 N 
HETATM   47  N7  UNL     1      23.284 -10.613   6.573  1.00  0.00    -0.227 N 
ATOM     48  H6  UNL     1      21.482 -11.495   6.045  1.00  0.00     0.190 HD
HETATM   49  N8  UNL     1      24.455 -10.609   5.968  1.00  0.00    -0.227 N 
ATOM     50  H7  UNL     1      23.058 -10.154   7.455  1.00  0.00     0.210 HD
HETATM   51  N9  UNL     1      24.364 -11.313   4.847  1.00  0.00    -0.270 N 
ATOM     52  H8  UNL     1      25.295 -10.141   6.307  1.00  0.00     0.210 HD
ATOM     53  H9  UNL     1      25.119 -11.478   4.180  1.00  0.00     0.190 HD
ENDBRANCH  42  45
ENDBRANCH  41  42
ENDBRANCH   6  41
TORSDOF 17
ENDMDL
MODEL 4
REMARK VINA RESULT: -6.844509396      0.895      2.615
REMARK  17 active torsions:
REMARK  status: ('A' for Active; 'I' for Inactive)
REMARK    1  A    between atoms: N1_1  and  C1_4 
REMARK    2  A    between atoms: C2_7  and  O1_8 
REMARK    3  A    between atoms: C3_10  and  C4_11 
REMARK    4  A    between atoms: N5_16  and  C5_17 
REMARK    5  A    between atoms: C5_17  and  C6_18 
REMARK    6  A    between atoms: C6_18  and  O2_19 
REMARK    7  A    between atoms: C6_18  and  C7_21 
REMARK    8  A    between atoms: C8_30  and  C9_31 
REMARK    9  A    between atoms: C10_32  and  O3_33 
REMARK   10  A    between atoms: C11_35  and  O4_36 
REMARK       I    between atoms: N10_38  and  C12_39 
REMARK   11  A    between atoms: C12_39  and  C13_41 
REMARK   12  A    between atoms: C13_41  and  O6_42 
REMARK   13  A    between atoms: C14_44  and  O7_45 
REMARK   14  A    between atoms: N11_47  and  C15_48 
REMARK   15  A    between atoms: C15_48  and  C16_49 
REMARK   16  A    between atoms: C16_49  and  O8_50 
REMARK   17  A    between atoms: C16_49  and  O9_52 
ROOT
HETATM    1  C4  UNL     1      24.035 -15.244   4.364  1.00  0.00     0.110 A 
HETATM    2  N3  UNL     1      23.246 -15.618   3.350  1.00  0.00    -0.282 N 
ATOM      3  H3  UNL     1      23.077 -16.576   3.044  1.00  0.00     0.188 HD
HETATM    4  N4  UNL     1      22.735 -14.553   2.827  1.00  0.00    -0.239 N 
ATOM      5  H4  UNL     1      22.094 -14.549   2.034  1.00  0.00     0.208 HD
HETATM    6  N5  UNL     1      23.160 -13.455   3.466  1.00  0.00    -0.272 N 
HETATM    7  C8  UNL     1      23.988 -13.837   4.447  1.00  0.00     0.100 A 
ENDROOT
BRANCH   1   8
HETATM    8  C3  UNL     1      24.833 -16.080   5.245  1.00  0.00     0.133 A 
HETATM    9  C2  UNL     1      24.432 -16.385   6.530  1.00  0.00     0.185 A 
HETATM   10  N2  UNL     1      25.365 -17.204   7.031  1.00  0.00    -0.168 N 
HETATM   11  C1  UNL     1      26.302 -17.394   6.091  1.00  0.00     0.680 A 
ATOM     12  H2  UNL     1      25.364 -17.613   7.966  1.00  0.00     0.186 HD
HETATM   13  N11 UNL     1      25.986 -16.696   4.963  1.00  0.00    -0.172 N 
BRANCH   9  14
HETATM   14  O1  UNL     1      23.272 -15.929   7.195  1.00  0.00    -0.344 OA
ATOM     15  H1  UNL     1      23.234 -15.258   7.867  1.00  0.00     0.219 HD
ENDBRANCH   9  14
BRANCH  11  16
HETATM   16  N1  UNL     1      27.369 -18.121   6.187  1.00  0.00    -0.234 N 
ATOM     17  H12 UNL     1      28.054 -18.195   5.434  1.00  0.00     0.174 HD
ATOM     18  H11 UNL     1      27.659 -18.690   6.983  1.00  0.00     0.174 HD
ENDBRANCH  11  16
BRANCH  13  19
HETATM   19  C15 UNL     1      26.796 -16.735   3.765  1.00  0.00     0.208 C 
BRANCH  19  20
HETATM   20  C16 UNL     1      26.397 -17.829   2.819  1.00  0.00     0.272 C 
BRANCH  20  21
HETATM   21  O8  UNL     1      25.337 -17.445   1.996  1.00  0.00    -0.370 OA
ATOM     22  H8  UNL     1      25.553 -17.534   1.075  1.00  0.00     0.212 HD
ENDBRANCH  20  21
BRANCH  20  23
HETATM   23  O9  UNL     1      27.394 -18.293   1.987  1.00  0.00    -0.370 OA
ATOM     24  H9  UNL     1      28.260 -17.936   2.144  1.00  0.00     0.212 HD
ENDBRANCH  20  23
ENDBRANCH  19  20
ENDBRANCH  13  19
ENDBRANCH   1   8
BRANCH   7  25
HETATM   25  C9  UNL     1      24.723 -13.034   5.406  1.00  0.00     0.084 A 
HETATM   26  C10 UNL     1      26.109 -12.819   5.449  1.00  0.00     0.134 A 
HETATM   27  C11 UNL     1      26.423 -11.996   6.502  1.00  0.00     0.186 A 
HETATM   28  N10 UNL     1      25.256 -11.684   7.130  1.00  0.00    -0.236 N 
HETATM   29  C12 UNL     1      25.217 -10.835   8.270  1.00  0.00     0.255 C 
HETATM   30  C14 UNL     1      24.260 -12.297   6.483  1.00  0.00     0.167 A 
HETATM   31  O5  UNL     1      26.283 -10.327   8.749  1.00  0.00    -0.270 OA
BRANCH  26  32
HETATM   32  O3  UNL     1      27.029 -13.364   4.556  1.00  0.00    -0.356 OA
ATOM     33  H3  UNL     1      27.816 -12.928   4.253  1.00  0.00     0.218 HD
ENDBRANCH  26  32
BRANCH  27  34
HETATM   34  O4  UNL     1      27.712 -11.564   6.854  1.00  0.00    -0.344 OA
ATOM     35  H4  UNL     1      28.042 -11.458   7.739  1.00  0.00     0.219 HD
ENDBRANCH  27  34
BRANCH  29  36
HETATM   36  C13 UNL     1      23.939 -10.495   8.959  1.00  0.00     0.267 C 
BRANCH  36  37
HETATM   37  O6  UNL     1      23.604 -11.527   9.863  1.00  0.00    -0.392 OA
ATOM     38  H6  UNL     1      22.668 -11.684   9.830  1.00  0.00     0.210 HD
ENDBRANCH  36  37
ENDBRANCH  29  36
BRANCH  30  39
HETATM   39  O7  UNL     1      22.932 -12.195   6.854  1.00  0.00    -0.345 OA
ATOM     40  H7  UNL     1      22.625 -12.124   7.751  1.00  0.00     0.219 HD
ENDBRANCH  30  39
ENDBRANCH   7  25
BRANCH   6  41
HETATM   41  C5  UNL     1      22.774 -12.092   3.161  1.00  0.00     0.190 C 
BRANCH  41  42
HETATM   42  C6  UNL     1      21.416 -11.761   3.719  1.00  0.00     0.208 C 
BRANCH  42  43
HETATM   43  O2  UNL     1      21.400 -10.761   4.664  1.00  0.00    -0.386 OA
ATOM     44  H2  UNL     1      20.987  -9.951   4.387  1.00  0.00     0.210 HD
ENDBRANCH  42  43
BRANCH  42  45
HETATM   45  C7  UNL     1      20.445 -11.431   2.664  1.00  0.00     0.144 A 
HETATM   46  N6  UNL     1      20.564 -11.813   1.386  1.00  0.00    -0.270 N 
HETATM   47  N7  UNL     1      19.543 -11.368   0.688  1.00  0.00    -0.227 N 
ATOM     48  H6  UNL     1      21.333 -12.367   1.009  1.00  0.00     0.190 HD
HETATM   49  N8  UNL     1      18.766 -10.698   1.516  1.00  0.00    -0.227 N 
ATOM     50  H7  UNL     1      19.382 -11.513  -0.308  1.00  0.00     0.210 HD
HETATM   51  N9  UNL     1      19.301 -10.726   2.729  1.00  0.00    -0.270 N 
ATOM     52  H8  UNL     1      17.894 -10.233   1.263  1.00  0.00     0.210 HD
ATOM     53  H9  UNL     1      18.912 -10.290   3.565  1.00  0.00     0.190 HD
ENDBRANCH  42  45
ENDBRANCH  41  42
ENDBRANCH   6  41
TORSDOF 17
ENDMDL
MODEL 5
REMARK VINA RESULT: -6.834503175      2.565      5.538
REMARK  17 active torsions:
REMARK  status: ('A' for Active; 'I' for Inactive)
REMARK    1  A    between atoms: N1_1  and  C1_4 
REMARK    2  A    between atoms: C2_7  and  O1_8 
REMARK    3  A    between atoms: C3_10  and  C4_11 
REMARK    4  A    between atoms: N5_16  and  C5_17 
REMARK    5  A    between atoms: C5_17  and  C6_18 
REMARK    6  A    between atoms: C6_18  and  O2_19 
REMARK    7  A    between atoms: C6_18  and  C7_21 
REMARK    8  A    between atoms: C8_30  and  C9_31 
REMARK    9  A    between atoms: C10_32  and  O3_33 
REMARK   10  A    between atoms: C11_35  and  O4_36 
REMARK       I    between atoms: N10_38  and  C12_39 
REMARK   11  A    between atoms: C12_39  and  C13_41 
REMARK   12  A    between atoms: C13_41  and  O6_42 
REMARK   13  A    between atoms: C14_44  and  O7_45 
REMARK   14  A    between atoms: N11_47  and  C15_48 
REMARK   15  A    between atoms: C15_48  and  C16_49 
REMARK   16  A    between atoms: C16_49  and  O8_50 
REMARK   17  A    between atoms: C16_49  and  O9_52 
ROOT
HETATM    1  C4  UNL     1      25.713 -16.398   5.923  1.00  0.00     0.110 A 
HETATM    2  N3  UNL     1      25.785 -17.107   7.055  1.00  0.00    -0.282 N 
ATOM      3  H3  UNL     1      26.251 -18.006   7.171  1.00  0.00     0.188 HD
HETATM    4  N4  UNL     1      25.160 -16.452   7.977  1.00  0.00    -0.239 N 
ATOM      5  H4  UNL     1      25.060 -16.766   8.943  1.00  0.00     0.208 HD
HETATM    6  N5  UNL     1      24.662 -15.306   7.496  1.00  0.00    -0.272 N 
HETATM    7  C8  UNL     1      24.983 -15.224   6.198  1.00  0.00     0.100 A 
ENDROOT
BRANCH   1   8
HETATM    8  C3  UNL     1      26.253 -16.727   4.614  1.00  0.00     0.133 A 
HETATM    9  C2  UNL     1      27.386 -16.120   4.113  1.00  0.00     0.185 A 
HETATM   10  N2  UNL     1      27.625 -16.690   2.925  1.00  0.00    -0.168 N 
HETATM   11  C1  UNL     1      26.676 -17.611   2.706  1.00  0.00     0.680 A 
ATOM     12  H2  UNL     1      28.395 -16.462   2.296  1.00  0.00     0.186 HD
HETATM   13  N11 UNL     1      25.804 -17.649   3.755  1.00  0.00    -0.172 N 
BRANCH   9  14
HETATM   14  O1  UNL     1      28.149 -15.098   4.721  1.00  0.00    -0.344 OA
ATOM     15  H1  UNL     1      28.439 -15.073   5.626  1.00  0.00     0.219 HD
ENDBRANCH   9  14
BRANCH  11  16
HETATM   16  N1  UNL     1      26.555 -18.378   1.669  1.00  0.00    -0.234 N 
ATOM     17  H12 UNL     1      26.605 -19.395   1.729  1.00  0.00     0.174 HD
ATOM     18  H11 UNL     1      26.401 -18.089   0.703  1.00  0.00     0.174 HD
ENDBRANCH  11  16
BRANCH  13  19
HETATM   19  C15 UNL     1      24.692 -18.572   3.817  1.00  0.00     0.208 C 
BRANCH  19  20
HETATM   20  C16 UNL     1      23.469 -18.070   3.108  1.00  0.00     0.272 C 
BRANCH  20  21
HETATM   21  O8  UNL     1      22.441 -17.757   3.999  1.00  0.00    -0.370 OA
ATOM     22  H8  UNL     1      21.586 -17.817   3.589  1.00  0.00     0.212 HD
ENDBRANCH  20  21
BRANCH  20  23
HETATM   23  O9  UNL     1      23.653 -16.959   2.313  1.00  0.00    -0.370 OA
ATOM     24  H9  UNL     1      22.870 -16.614   1.900  1.00  0.00     0.212 HD
ENDBRANCH  20  23
ENDBRANCH  19  20
ENDBRANCH  13  19
ENDBRANCH   1   8
BRANCH   7  25
HETATM   25  C9  UNL     1      24.665 -14.194   5.227  1.00  0.00     0.084 A 
HETATM   26  C10 UNL     1      25.388 -13.020   4.966  1.00  0.00     0.134 A 
HETATM   27  C11 UNL     1      24.770 -12.301   3.972  1.00  0.00     0.186 A 
HETATM   28  N10 UNL     1      23.665 -13.002   3.597  1.00  0.00    -0.236 N 
HETATM   29  C12 UNL     1      22.793 -12.540   2.573  1.00  0.00     0.255 C 
HETATM   30  C14 UNL     1      23.608 -14.113   4.336  1.00  0.00     0.167 A 
HETATM   31  O5  UNL     1      23.015 -11.445   1.962  1.00  0.00    -0.270 OA
BRANCH  26  32
HETATM   32  O3  UNL     1      26.556 -12.640   5.622  1.00  0.00    -0.356 OA
ATOM     33  H3  UNL     1      27.403 -12.534   5.206  1.00  0.00     0.218 HD
ENDBRANCH  26  32
BRANCH  27  34
HETATM   34  O4  UNL     1      25.208 -11.074   3.450  1.00  0.00    -0.344 OA
ATOM     35  H4  UNL     1      25.006 -10.731   2.587  1.00  0.00     0.219 HD
ENDBRANCH  27  34
BRANCH  29  36
HETATM   36  C13 UNL     1      21.581 -13.308   2.164  1.00  0.00     0.267 C 
BRANCH  36  37
HETATM   37  O6  UNL     1      21.974 -14.455   1.441  1.00  0.00    -0.392 OA
ATOM     38  H6  UNL     1      21.529 -14.467   0.602  1.00  0.00     0.210 HD
ENDBRANCH  36  37
ENDBRANCH  29  36
BRANCH  30  39
HETATM   39  O7  UNL     1      22.606 -15.060   4.215  1.00  0.00    -0.345 OA
ATOM     40  H7  UNL     1      21.858 -14.984   3.634  1.00  0.00     0.219 HD
ENDBRANCH  30  39
ENDBRANCH   7  25
BRANCH   6  41
HETATM   41  C5  UNL     1      23.923 -14.316   8.254  1.00  0.00     0.190 C 
BRANCH  41  42
HETATM   42  C6  UNL     1      24.839 -13.299   8.881  1.00  0.00     0.208 C 
BRANCH  42  43
HETATM   43  O2  UNL     1      26.137 -13.322   8.426  1.00  0.00    -0.386 OA
ATOM     44  H2  UNL     1      26.413 -12.546   7.953  1.00  0.00     0.210 HD
ENDBRANCH  42  43
BRANCH  42  45
HETATM   45  C7  UNL     1      24.318 -11.928   8.755  1.00  0.00     0.144 A 
HETATM   46  N6  UNL     1      24.184 -11.077   9.781  1.00  0.00    -0.270 N 
HETATM   47  N7  UNL     1      23.695  -9.934   9.354  1.00  0.00    -0.227 N 
ATOM     48  H6  UNL     1      24.424 -11.285  10.749  1.00  0.00     0.190 HD
HETATM   49  N8  UNL     1      23.514 -10.048   8.053  1.00  0.00    -0.227 N 
ATOM     50  H7  UNL     1      23.494  -9.112   9.923  1.00  0.00     0.210 HD
HETATM   51  N9  UNL     1      23.889 -11.261   7.668  1.00  0.00    -0.270 N 
ATOM     52  H8  UNL     1      23.144  -9.320   7.441  1.00  0.00     0.210 HD
ATOM     53  H9  UNL     1      23.859 -11.623   6.715  1.00  0.00     0.190 HD
ENDBRANCH  42  45
ENDBRANCH  41  42
ENDBRANCH   6  41
TORSDOF 17
ENDMDL
