MODEL 1
REMARK VINA RESULT: -6.221163154      0.000      0.000
REMARK  15 active torsions:
REMARK  status: ('A' for Active; 'I' for Inactive)
REMARK    1  A    between atoms: N1_1  and  C1_5 
REMARK    2  A    between atoms: C1_5  and  C2_6 
REMARK    3  A    between atoms: C2_6  and  C3_7 
REMARK    4  A    between atoms: C2_6  and  N5_23 
REMARK    5  A    between atoms: C3_7  and  N2_8 
REMARK    6  A    between atoms: C4_13  and  C5_14 
REMARK    7  A    between atoms: C11_20  and  O1_21 
REMARK    8  A    between atoms: N5_23  and  C12_25 
REMARK    9  A    between atoms: C13_28  and  C14_29 
REMARK   10  A    between atoms: N10_36  and  C15_37 
REMARK   11  A    between atoms: C17_42  and  O2_43 
REMARK   12  A    between atoms: C18_45  and  O3_46 
REMARK   13  A    between atoms: C19_48  and  O4_49 
REMARK   14  A    between atoms: C20_51  and  N12_52 
REMARK   15  A    between atoms: C21_56  and  O5_57 
ROOT
HETATM    1  C12 UNL     1       2.814  -3.626 -29.310  1.00  0.00     0.205 C 
HETATM    2  N6  UNL     1       1.989  -2.557 -28.825  1.00  0.00    -0.386 N 
ATOM      3  H6  UNL     1       0.983  -2.569 -28.994  1.00  0.00     0.156 HD
HETATM    4  C13 UNL     1       2.574  -1.497 -28.115  1.00  0.00     0.180 C 
HETATM    5  C19 UNL     1       3.892  -1.839 -27.544  1.00  0.00     0.181 C 
HETATM    6  C20 UNL     1       4.845  -2.390 -28.537  1.00  0.00     0.246 C 
HETATM    7  C21 UNL     1       4.212  -3.284 -29.586  1.00  0.00     0.192 C 
ENDROOT
BRANCH   1   8
HETATM    8  N5  UNL     1       2.575  -4.780 -28.572  1.00  0.00    -0.392 N 
ATOM      9  H5  UNL     1       3.100  -4.913 -27.708  1.00  0.00     0.155 HD
BRANCH   8  10
HETATM   10  C2  UNL     1       1.654  -5.770 -28.944  1.00  0.00     0.124 C 
BRANCH  10  11
HETATM   11  C1  UNL     1       2.415  -7.100 -28.968  1.00  0.00     0.256 C 
BRANCH  11  12
HETATM   12  N1  UNL     1       3.666  -6.887 -28.256  1.00  0.00    -0.077 N 
ATOM     13  H13 UNL     1       4.461  -6.738 -28.877  1.00  0.00     0.274 HD
ATOM     14  H12 UNL     1       3.705  -5.988 -27.775  1.00  0.00     0.274 HD
ATOM     15  H11 UNL     1       3.791  -7.682 -27.629  1.00  0.00     0.274 HD
ENDBRANCH  11  12
ENDBRANCH  10  11
BRANCH  10  16
HETATM   16  C3  UNL     1       0.525  -5.869 -27.905  1.00  0.00     0.179 C 
BRANCH  16  17
HETATM   17  N2  UNL     1       0.725  -4.975 -26.793  1.00  0.00    -0.253 N 
HETATM   18  N3  UNL     1       1.545  -5.191 -25.759  1.00  0.00    -0.238 N 
HETATM   19  N4  UNL     1       1.503  -4.185 -24.910  1.00  0.00    -0.281 N 
ATOM     20  H3  UNL     1       2.125  -6.022 -25.644  1.00  0.00     0.208 HD
HETATM   21  C4  UNL     1       0.627  -3.263 -25.386  1.00  0.00     0.112 A 
ATOM     22  H4  UNL     1       2.038  -4.110 -24.043  1.00  0.00     0.188 HD
HETATM   23  C11 UNL     1       0.152  -3.784 -26.568  1.00  0.00     0.188 A 
BRANCH  21  24
HETATM   24  C5  UNL     1       0.276  -1.987 -24.742  1.00  0.00    -0.004 A 
HETATM   25  C6  UNL     1      -0.997  -1.685 -24.314  1.00  0.00     0.014 A 
HETATM   26  C7  UNL     1      -1.296  -0.490 -23.709  1.00  0.00     0.001 A 
HETATM   27  C8  UNL     1      -0.302   0.438 -23.519  1.00  0.00     0.000 A 
HETATM   28  C9  UNL     1       0.970   0.146 -23.940  1.00  0.00     0.001 A 
HETATM   29  C10 UNL     1       1.266  -1.055 -24.549  1.00  0.00     0.014 A 
ENDBRANCH  21  24
BRANCH  23  30
HETATM   30  O1  UNL     1      -0.785  -3.128 -27.377  1.00  0.00    -0.343 OA
ATOM     31  H1  UNL     1      -1.703  -2.975 -27.185  1.00  0.00     0.219 HD
ENDBRANCH  23  30
ENDBRANCH  16  17
ENDBRANCH  10  16
ENDBRANCH   8  10
ENDBRANCH   1   8
BRANCH   7  32
HETATM   32  O5  UNL     1       5.022  -4.391 -29.695  1.00  0.00    -0.390 OA
ATOM     33  H5  UNL     1       5.689  -4.296 -30.364  1.00  0.00     0.210 HD
ENDBRANCH   7  32
BRANCH   4  34
HETATM   34  C14 UNL     1       2.532  -0.239 -28.899  1.00  0.00     0.143 A 
HETATM   35  N7  UNL     1       3.604   0.443 -29.292  1.00  0.00    -0.270 N 
HETATM   36  N8  UNL     1       3.188   1.491 -29.970  1.00  0.00    -0.227 N 
ATOM     37  H7  UNL     1       4.575   0.198 -29.101  1.00  0.00     0.190 HD
HETATM   38  N9  UNL     1       1.872   1.464 -29.998  1.00  0.00    -0.222 N 
ATOM     39  H8  UNL     1       3.781   2.200 -30.400  1.00  0.00     0.210 HD
HETATM   40  N10 UNL     1       1.453   0.405 -29.343  1.00  0.00    -0.227 N 
ATOM     41  H9  UNL     1       1.275   2.154 -30.454  1.00  0.00     0.210 HD
BRANCH  40  42
HETATM   42  C15 UNL     1       0.047   0.069 -29.187  1.00  0.00     0.340 C 
HETATM   43  N11 UNL     1      -0.221  -0.097 -27.795  1.00  0.00    -0.047 N 
HETATM   44  C16 UNL     1      -0.439   1.209 -27.228  1.00  0.00     0.269 C 
ATOM     45 2H11 UNL     1      -0.993  -0.739 -27.615  1.00  0.00     0.279 HD
ATOM     46 1H11 UNL     1       0.507  -0.622 -27.310  1.00  0.00     0.279 HD
HETATM   47  C17 UNL     1      -0.894   2.087 -28.357  1.00  0.00     0.176 C 
HETATM   48  C18 UNL     1      -0.836   1.252 -29.594  1.00  0.00     0.200 C 
BRANCH  47  49
HETATM   49  O2  UNL     1      -2.240   2.457 -28.172  1.00  0.00    -0.391 OA
ATOM     50  H2  UNL     1      -2.804   1.927 -28.722  1.00  0.00     0.210 HD
ENDBRANCH  47  49
BRANCH  48  51
HETATM   51  O3  UNL     1      -2.100   0.714 -29.872  1.00  0.00    -0.389 OA
ATOM     52  H3  UNL     1      -2.045   0.357 -30.751  1.00  0.00     0.210 HD
ENDBRANCH  48  51
ENDBRANCH  40  42
ENDBRANCH   4  34
BRANCH   6  53
HETATM   53  N12 UNL     1       5.882  -3.140 -27.799  1.00  0.00    -0.070 N 
ATOM     54 3H12 UNL     1       6.295  -2.601 -27.038  1.00  0.00     0.274 HD
ATOM     55 2H12 UNL     1       5.497  -3.898 -27.235  1.00  0.00     0.274 HD
ATOM     56 1H12 UNL     1       6.574  -3.463 -28.475  1.00  0.00     0.274 HD
ENDBRANCH   6  53
BRANCH   5  57
HETATM   57  O4  UNL     1       3.679  -2.812 -26.538  1.00  0.00    -0.391 OA
ATOM     58  H4  UNL     1       2.917  -3.321 -26.792  1.00  0.00     0.210 HD
ENDBRANCH   5  57
TORSDOF 15
ENDMDL
MODEL 2
REMARK VINA RESULT: -6.070654780      4.940      8.101
REMARK  15 active torsions:
REMARK  status: ('A' for Active; 'I' for Inactive)
REMARK    1  A    between atoms: N1_1  and  C1_5 
REMARK    2  A    between atoms: C1_5  and  C2_6 
REMARK    3  A    between atoms: C2_6  and  C3_7 
REMARK    4  A    between atoms: C2_6  and  N5_23 
REMARK    5  A    between atoms: C3_7  and  N2_8 
REMARK    6  A    between atoms: C4_13  and  C5_14 
REMARK    7  A    between atoms: C11_20  and  O1_21 
REMARK    8  A    between atoms: N5_23  and  C12_25 
REMARK    9  A    between atoms: C13_28  and  C14_29 
REMARK   10  A    between atoms: N10_36  and  C15_37 
REMARK   11  A    between atoms: C17_42  and  O2_43 
REMARK   12  A    between atoms: C18_45  and  O3_46 
REMARK   13  A    between atoms: C19_48  and  O4_49 
REMARK   14  A    between atoms: C20_51  and  N12_52 
REMARK   15  A    between atoms: C21_56  and  O5_57 
ROOT
HETATM    1  C12 UNL     1      -0.420  -0.614 -24.552  1.00  0.00     0.205 C 
HETATM    2  N6  UNL     1       0.313  -1.826 -24.322  1.00  0.00    -0.386 N 
ATOM      3  H6  UNL     1       0.482  -2.150 -23.370  1.00  0.00     0.156 HD
HETATM    4  C13 UNL     1       0.794  -2.563 -25.415  1.00  0.00     0.180 C 
HETATM    5  C19 UNL     1       0.088  -2.258 -26.676  1.00  0.00     0.181 C 
HETATM    6  C20 UNL     1       0.047  -0.813 -26.999  1.00  0.00     0.246 C 
HETATM    7  C21 UNL     1      -0.113   0.097 -25.796  1.00  0.00     0.192 C 
ENDROOT
BRANCH   1   8
HETATM    8  N5  UNL     1      -1.762  -0.808 -24.244  1.00  0.00    -0.392 N 
ATOM      9  H5  UNL     1      -2.331  -1.346 -24.898  1.00  0.00     0.155 HD
BRANCH   8  10
HETATM   10  C2  UNL     1      -2.380  -0.310 -23.088  1.00  0.00     0.124 C 
BRANCH  10  11
HETATM   11  C1  UNL     1      -2.944   1.070 -23.442  1.00  0.00     0.256 C 
BRANCH  11  12
HETATM   12  N1  UNL     1      -3.763   0.901 -24.633  1.00  0.00    -0.077 N 
ATOM     13  H13 UNL     1      -3.982  -0.075 -24.834  1.00  0.00     0.274 HD
ATOM     14  H12 UNL     1      -4.721   1.228 -24.510  1.00  0.00     0.274 HD
ATOM     15  H11 UNL     1      -3.276   1.367 -25.399  1.00  0.00     0.274 HD
ENDBRANCH  11  12
ENDBRANCH  10  11
BRANCH  10  16
HETATM   16  C3  UNL     1      -3.544  -1.223 -22.666  1.00  0.00     0.179 C 
BRANCH  16  17
HETATM   17  N2  UNL     1      -4.389  -0.609 -21.674  1.00  0.00    -0.253 N 
HETATM   18  N3  UNL     1      -4.047  -0.365 -20.405  1.00  0.00    -0.238 N 
HETATM   19  N4  UNL     1      -5.041   0.206 -19.753  1.00  0.00    -0.281 N 
ATOM     20  H3  UNL     1      -3.140  -0.590 -19.996  1.00  0.00     0.208 HD
HETATM   21  C4  UNL     1      -6.084   0.349 -20.612  1.00  0.00     0.112 A 
ATOM     22  H4  UNL     1      -5.028   0.491 -18.774  1.00  0.00     0.188 HD
HETATM   23  C11 UNL     1      -5.649  -0.170 -21.809  1.00  0.00     0.188 A 
BRANCH  21  24
HETATM   24  C5  UNL     1      -7.394   0.936 -20.290  1.00  0.00    -0.004 A 
HETATM   25  C6  UNL     1      -7.617   2.293 -20.235  1.00  0.00     0.014 A 
HETATM   26  C7  UNL     1      -8.853   2.816 -19.939  1.00  0.00     0.001 A 
HETATM   27  C8  UNL     1      -9.903   1.967 -19.692  1.00  0.00     0.000 A 
HETATM   28  C9  UNL     1      -9.691   0.613 -19.746  1.00  0.00     0.001 A 
HETATM   29  C10 UNL     1      -8.449   0.093 -20.042  1.00  0.00     0.014 A 
ENDBRANCH  21  24
BRANCH  23  30
HETATM   30  O1  UNL     1      -6.441  -0.210 -22.965  1.00  0.00    -0.343 OA
ATOM     31  H1  UNL     1      -6.498  -0.916 -23.598  1.00  0.00     0.219 HD
ENDBRANCH  23  30
ENDBRANCH  16  17
ENDBRANCH  10  16
ENDBRANCH   8  10
ENDBRANCH   1   8
BRANCH   7  32
HETATM   32  O5  UNL     1      -1.072   1.024 -26.132  1.00  0.00    -0.390 OA
ATOM     33  H5  UNL     1      -1.464   0.857 -26.981  1.00  0.00     0.210 HD
ENDBRANCH   7  32
BRANCH   4  34
HETATM   34  C14 UNL     1       2.275  -2.507 -25.490  1.00  0.00     0.143 A 
HETATM   35  N7  UNL     1       2.990  -1.386 -25.468  1.00  0.00    -0.270 N 
HETATM   36  N8  UNL     1       4.261  -1.718 -25.541  1.00  0.00    -0.227 N 
ATOM     37  H7  UNL     1       2.619  -0.438 -25.407  1.00  0.00     0.190 HD
HETATM   38  N9  UNL     1       4.337  -3.031 -25.610  1.00  0.00    -0.222 N 
ATOM     39  H8  UNL     1       5.049  -1.072 -25.543  1.00  0.00     0.210 HD
HETATM   40  N10 UNL     1       3.122  -3.531 -25.580  1.00  0.00    -0.227 N 
ATOM     41  H9  UNL     1       5.199  -3.571 -25.676  1.00  0.00     0.210 HD
BRANCH  40  42
HETATM   42  C15 UNL     1       2.845  -4.957 -25.630  1.00  0.00     0.340 C 
HETATM   43  N11 UNL     1       1.683  -5.159 -26.434  1.00  0.00    -0.047 N 
HETATM   44  C16 UNL     1       2.094  -5.158 -27.815  1.00  0.00     0.269 C 
ATOM     45 2H11 UNL     1       1.166  -5.999 -26.177  1.00  0.00     0.279 HD
ATOM     46 1H11 UNL     1       0.945  -4.481 -26.241  1.00  0.00     0.279 HD
HETATM   47  C17 UNL     1       3.541  -5.557 -27.822  1.00  0.00     0.176 C 
HETATM   48  C18 UNL     1       3.953  -5.691 -26.393  1.00  0.00     0.200 C 
BRANCH  47  49
HETATM   49  O2  UNL     1       3.692  -6.824 -28.416  1.00  0.00    -0.391 OA
ATOM     50  H2  UNL     1       4.381  -7.311 -27.980  1.00  0.00     0.210 HD
ENDBRANCH  47  49
BRANCH  48  51
HETATM   51  O3  UNL     1       3.873  -7.033 -25.993  1.00  0.00    -0.389 OA
ATOM     52  H3  UNL     1       3.588  -7.518 -26.758  1.00  0.00     0.210 HD
ENDBRANCH  48  51
ENDBRANCH  40  42
ENDBRANCH   4  34
BRANCH   6  53
HETATM   53  N12 UNL     1      -1.068  -0.593 -27.945  1.00  0.00    -0.070 N 
ATOM     54 3H12 UNL     1      -1.478  -1.463 -28.282  1.00  0.00     0.274 HD
ATOM     55 2H12 UNL     1      -1.901  -0.216 -27.493  1.00  0.00     0.274 HD
ATOM     56 1H12 UNL     1      -0.724   0.001 -28.700  1.00  0.00     0.274 HD
ENDBRANCH   6  53
BRANCH   5  57
HETATM   57  O4  UNL     1      -1.242  -2.727 -26.541  1.00  0.00    -0.391 OA
ATOM     58  H4  UNL     1      -1.632  -2.265 -25.807  1.00  0.00     0.210 HD
ENDBRANCH   5  57
TORSDOF 15
ENDMDL
MODEL 3
REMARK VINA RESULT: -6.027346744      2.711      5.031
REMARK  15 active torsions:
REMARK  status: ('A' for Active; 'I' for Inactive)
REMARK    1  A    between atoms: N1_1  and  C1_5 
REMARK    2  A    between atoms: C1_5  and  C2_6 
REMARK    3  A    between atoms: C2_6  and  C3_7 
REMARK    4  A    between atoms: C2_6  and  N5_23 
REMARK    5  A    between atoms: C3_7  and  N2_8 
REMARK    6  A    between atoms: C4_13  and  C5_14 
REMARK    7  A    between atoms: C11_20  and  O1_21 
REMARK    8  A    between atoms: N5_23  and  C12_25 
REMARK    9  A    between atoms: C13_28  and  C14_29 
REMARK   10  A    between atoms: N10_36  and  C15_37 
REMARK   11  A    between atoms: C17_42  and  O2_43 
REMARK   12  A    between atoms: C18_45  and  O3_46 
REMARK   13  A    between atoms: C19_48  and  O4_49 
REMARK   14  A    between atoms: C20_51  and  N12_52 
REMARK   15  A    between atoms: C21_56  and  O5_57 
ROOT
HETATM    1  C12 UNL     1       3.071  -4.884 -27.186  1.00  0.00     0.205 C 
HETATM    2  N6  UNL     1       1.818  -4.667 -27.850  1.00  0.00    -0.386 N 
ATOM      3  H6  UNL     1       1.391  -3.741 -27.849  1.00  0.00     0.156 HD
HETATM    4  C13 UNL     1       1.183  -5.737 -28.500  1.00  0.00     0.180 C 
HETATM    5  C19 UNL     1       2.103  -6.845 -28.827  1.00  0.00     0.181 C 
HETATM    6  C20 UNL     1       2.885  -7.330 -27.666  1.00  0.00     0.246 C 
HETATM    7  C21 UNL     1       3.312  -6.245 -26.697  1.00  0.00     0.192 C 
ENDROOT
BRANCH   1   8
HETATM    8  N5  UNL     1       4.096  -4.273 -27.901  1.00  0.00    -0.392 N 
ATOM      9  H5  UNL     1       4.368  -4.684 -28.794  1.00  0.00     0.155 HD
BRANCH   8  10
HETATM   10  C2  UNL     1       4.777  -3.127 -27.468  1.00  0.00     0.124 C 
BRANCH  10  11
HETATM   11  C1  UNL     1       6.078  -3.049 -28.273  1.00  0.00     0.256 C 
BRANCH  11  12
HETATM   12  N1  UNL     1       5.914  -3.917 -29.430  1.00  0.00    -0.077 N 
ATOM     13  H13 UNL     1       5.111  -4.541 -29.352  1.00  0.00     0.274 HD
ATOM     14  H12 UNL     1       5.610  -3.417 -30.266  1.00  0.00     0.274 HD
ATOM     15  H11 UNL     1       6.796  -4.413 -29.558  1.00  0.00     0.274 HD
ENDBRANCH  11  12
ENDBRANCH  10  11
BRANCH  10  16
HETATM   16  C3  UNL     1       3.943  -1.867 -27.757  1.00  0.00     0.179 C 
BRANCH  16  17
HETATM   17  N2  UNL     1       3.245  -1.393 -26.589  1.00  0.00    -0.253 N 
HETATM   18  N3  UNL     1       3.820  -0.909 -25.483  1.00  0.00    -0.238 N 
HETATM   19  N4  UNL     1       2.910  -0.559 -24.597  1.00  0.00    -0.281 N 
ATOM     20  H3  UNL     1       4.827  -0.823 -25.344  1.00  0.00     0.208 HD
HETATM   21  C4  UNL     1       1.684  -0.816 -25.123  1.00  0.00     0.112 A 
ATOM     22  H4  UNL     1       3.094  -0.163 -23.674  1.00  0.00     0.188 HD
HETATM   23  C11 UNL     1       1.924  -1.339 -26.373  1.00  0.00     0.188 A 
BRANCH  21  24
HETATM   24  C5  UNL     1       0.391  -0.578 -24.462  1.00  0.00    -0.004 A 
HETATM   25  C6  UNL     1      -0.592  -1.537 -24.367  1.00  0.00     0.014 A 
HETATM   26  C7  UNL     1      -1.788  -1.291 -23.738  1.00  0.00     0.001 A 
HETATM   27  C8  UNL     1      -2.018  -0.057 -23.183  1.00  0.00     0.000 A 
HETATM   28  C9  UNL     1      -1.044   0.905 -23.272  1.00  0.00     0.001 A 
HETATM   29  C10 UNL     1       0.154   0.655 -23.906  1.00  0.00     0.014 A 
ENDBRANCH  21  24
BRANCH  23  30
HETATM   30  O1  UNL     1       0.905  -1.737 -27.249  1.00  0.00    -0.343 OA
ATOM     31  H1  UNL     1       0.142  -2.264 -27.042  1.00  0.00     0.219 HD
ENDBRANCH  23  30
ENDBRANCH  16  17
ENDBRANCH  10  16
ENDBRANCH   8  10
ENDBRANCH   1   8
BRANCH   7  32
HETATM   32  O5  UNL     1       4.636  -6.480 -26.406  1.00  0.00    -0.390 OA
ATOM     33  H5  UNL     1       4.858  -7.404 -26.421  1.00  0.00     0.210 HD
ENDBRANCH   7  32
BRANCH   4  34
HETATM   34  C14 UNL     1      -0.058  -6.134 -27.791  1.00  0.00     0.143 A 
HETATM   35  N7  UNL     1      -0.205  -7.259 -27.097  1.00  0.00    -0.270 N 
HETATM   36  N8  UNL     1      -1.423  -7.270 -26.602  1.00  0.00    -0.227 N 
ATOM     37  H7  UNL     1       0.502  -7.984 -26.972  1.00  0.00     0.190 HD
HETATM   38  N9  UNL     1      -2.030  -6.167 -26.984  1.00  0.00    -0.222 N 
ATOM     39  H8  UNL     1      -1.827  -8.006 -26.022  1.00  0.00     0.210 HD
HETATM   40  N10 UNL     1      -1.203  -5.456 -27.717  1.00  0.00    -0.227 N 
ATOM     41  H9  UNL     1      -2.988  -5.906 -26.749  1.00  0.00     0.210 HD
BRANCH  40  42
HETATM   42  C15 UNL     1      -1.554  -4.170 -28.296  1.00  0.00     0.340 C 
HETATM   43  N11 UNL     1      -1.565  -4.307 -29.717  1.00  0.00    -0.047 N 
HETATM   44  C16 UNL     1      -2.838  -4.861 -30.098  1.00  0.00     0.269 C 
ATOM     45 2H11 UNL     1      -1.354  -3.434 -30.200  1.00  0.00     0.279 HD
ATOM     46 1H11 UNL     1      -0.776  -4.850 -30.069  1.00  0.00     0.279 HD
HETATM   47  C17 UNL     1      -3.799  -4.499 -29.003  1.00  0.00     0.176 C 
HETATM   48  C18 UNL     1      -3.000  -3.803 -27.950  1.00  0.00     0.200 C 
BRANCH  47  49
HETATM   49  O2  UNL     1      -4.750  -3.576 -29.477  1.00  0.00    -0.391 OA
ATOM     50  H2  UNL     1      -5.131  -3.096 -28.752  1.00  0.00     0.210 HD
ENDBRANCH  47  49
BRANCH  48  51
HETATM   51  O3  UNL     1      -3.096  -2.414 -28.113  1.00  0.00    -0.389 OA
ATOM     52  H3  UNL     1      -4.020  -2.228 -28.236  1.00  0.00     0.210 HD
ENDBRANCH  48  51
ENDBRANCH  40  42
ENDBRANCH   4  34
BRANCH   6  53
HETATM   53  N12 UNL     1       4.076  -8.034 -28.187  1.00  0.00    -0.070 N 
ATOM     54 3H12 UNL     1       4.012  -9.047 -28.088  1.00  0.00     0.274 HD
ATOM     55 2H12 UNL     1       4.141  -8.002 -29.204  1.00  0.00     0.274 HD
ATOM     56 1H12 UNL     1       4.897  -7.643 -27.724  1.00  0.00     0.274 HD
ENDBRANCH   6  53
BRANCH   5  57
HETATM   57  O4  UNL     1       3.005  -6.369 -29.810  1.00  0.00    -0.391 OA
ATOM     58  H4  UNL     1       2.698  -6.682 -30.653  1.00  0.00     0.210 HD
ENDBRANCH   5  57
TORSDOF 15
ENDMDL
MODEL 4
REMARK VINA RESULT: -6.003660931      3.148      6.780
REMARK  15 active torsions:
REMARK  status: ('A' for Active; 'I' for Inactive)
REMARK    1  A    between atoms: N1_1  and  C1_5 
REMARK    2  A    between atoms: C1_5  and  C2_6 
REMARK    3  A    between atoms: C2_6  and  C3_7 
REMARK    4  A    between atoms: C2_6  and  N5_23 
REMARK    5  A    between atoms: C3_7  and  N2_8 
REMARK    6  A    between atoms: C4_13  and  C5_14 
REMARK    7  A    between atoms: C11_20  and  O1_21 
REMARK    8  A    between atoms: N5_23  and  C12_25 
REMARK    9  A    between atoms: C13_28  and  C14_29 
REMARK   10  A    between atoms: N10_36  and  C15_37 
REMARK   11  A    between atoms: C17_42  and  O2_43 
REMARK   12  A    between atoms: C18_45  and  O3_46 
REMARK   13  A    between atoms: C19_48  and  O4_49 
REMARK   14  A    between atoms: C20_51  and  N12_52 
REMARK   15  A    between atoms: C21_56  and  O5_57 
ROOT
HETATM    1  C12 UNL     1      -3.437   1.858 -24.978  1.00  0.00     0.205 C 
HETATM    2  N6  UNL     1      -2.258   1.415 -25.665  1.00  0.00    -0.386 N 
ATOM      3  H6  UNL     1      -1.391   1.262 -25.149  1.00  0.00     0.156 HD
HETATM    4  C13 UNL     1      -2.304   1.193 -27.050  1.00  0.00     0.180 C 
HETATM    5  C19 UNL     1      -3.675   0.988 -27.559  1.00  0.00     0.181 C 
HETATM    6  C20 UNL     1      -4.620   2.061 -27.171  1.00  0.00     0.246 C 
HETATM    7  C21 UNL     1      -4.398   2.621 -25.779  1.00  0.00     0.192 C 
ENDROOT
BRANCH   1   8
HETATM    8  N5  UNL     1      -3.939   0.828 -24.190  1.00  0.00    -0.392 N 
ATOM      9  H5  UNL     1      -4.951   0.699 -24.158  1.00  0.00     0.155 HD
BRANCH   8  10
HETATM   10  C2  UNL     1      -3.139  -0.045 -23.438  1.00  0.00     0.124 C 
BRANCH  10  11
HETATM   11  C1  UNL     1      -3.680  -0.022 -22.005  1.00  0.00     0.256 C 
BRANCH  11  12
HETATM   12  N1  UNL     1      -2.748  -0.784 -21.187  1.00  0.00    -0.077 N 
ATOM     13  H13 UNL     1      -2.350  -1.586 -21.674  1.00  0.00     0.274 HD
ATOM     14  H12 UNL     1      -1.873  -0.289 -21.012  1.00  0.00     0.274 HD
ATOM     15  H11 UNL     1      -3.242  -1.040 -20.332  1.00  0.00     0.274 HD
ENDBRANCH  11  12
ENDBRANCH  10  11
BRANCH  10  16
HETATM   16  C3  UNL     1      -3.251  -1.478 -23.984  1.00  0.00     0.179 C 
BRANCH  16  17
HETATM   17  N2  UNL     1      -2.095  -1.862 -24.754  1.00  0.00    -0.253 N 
HETATM   18  N3  UNL     1      -2.117  -2.361 -25.994  1.00  0.00    -0.238 N 
HETATM   19  N4  UNL     1      -0.896  -2.610 -26.421  1.00  0.00    -0.281 N 
ATOM     20  H3  UNL     1      -2.966  -2.527 -26.536  1.00  0.00     0.208 HD
HETATM   21  C4  UNL     1      -0.024  -2.267 -25.438  1.00  0.00     0.112 A 
ATOM     22  H4  UNL     1      -0.647  -2.993 -27.334  1.00  0.00     0.188 HD
HETATM   23  C11 UNL     1      -0.802  -1.801 -24.403  1.00  0.00     0.188 A 
BRANCH  21  24
HETATM   24  C5  UNL     1       1.441  -2.389 -25.498  1.00  0.00    -0.004 A 
HETATM   25  C6  UNL     1       2.293  -1.320 -25.335  1.00  0.00     0.014 A 
HETATM   26  C7  UNL     1       3.657  -1.462 -25.389  1.00  0.00     0.001 A 
HETATM   27  C8  UNL     1       4.198  -2.705 -25.611  1.00  0.00     0.000 A 
HETATM   28  C9  UNL     1       3.358  -3.777 -25.774  1.00  0.00     0.001 A 
HETATM   29  C10 UNL     1       1.988  -3.629 -25.720  1.00  0.00     0.014 A 
ENDBRANCH  21  24
BRANCH  23  30
HETATM   30  O1  UNL     1      -0.275  -1.343 -23.188  1.00  0.00    -0.343 OA
ATOM     31  H1  UNL     1      -0.305  -0.457 -22.846  1.00  0.00     0.219 HD
ENDBRANCH  23  30
ENDBRANCH  16  17
ENDBRANCH  10  16
ENDBRANCH   8  10
ENDBRANCH   1   8
BRANCH   7  32
HETATM   32  O5  UNL     1      -5.639   2.703 -25.189  1.00  0.00    -0.390 OA
ATOM     33  H5  UNL     1      -5.988   3.586 -25.186  1.00  0.00     0.210 HD
ENDBRANCH   7  32
BRANCH   4  34
HETATM   34  C14 UNL     1      -1.503   2.204 -27.782  1.00  0.00     0.143 A 
HETATM   35  N7  UNL     1      -1.398   3.483 -27.432  1.00  0.00    -0.270 N 
HETATM   36  N8  UNL     1      -0.603   4.073 -28.298  1.00  0.00    -0.227 N 
ATOM     37  H7  UNL     1      -1.853   3.926 -26.634  1.00  0.00     0.190 HD
HETATM   38  N9  UNL     1      -0.219   3.174 -29.179  1.00  0.00    -0.222 N 
ATOM     39  H8  UNL     1      -0.332   5.056 -28.288  1.00  0.00     0.210 HD
HETATM   40  N10 UNL     1      -0.764   2.018 -28.876  1.00  0.00    -0.227 N 
ATOM     41  H9  UNL     1       0.402   3.347 -29.970  1.00  0.00     0.210 HD
BRANCH  40  42
HETATM   42  C15 UNL     1      -0.541   0.804 -29.643  1.00  0.00     0.340 C 
HETATM   43  N11 UNL     1       0.519   1.049 -30.569  1.00  0.00    -0.047 N 
HETATM   44  C16 UNL     1       1.766   0.874 -29.869  1.00  0.00     0.269 C 
ATOM     45 2H11 UNL     1       0.452   0.472 -31.407  1.00  0.00     0.279 HD
ATOM     46 1H11 UNL     1       0.445   1.959 -31.024  1.00  0.00     0.279 HD
HETATM   47  C17 UNL     1       1.477  -0.046 -28.719  1.00  0.00     0.176 C 
HETATM   48  C18 UNL     1       0.007  -0.307 -28.742  1.00  0.00     0.200 C 
BRANCH  47  49
HETATM   49  O2  UNL     1       2.119  -1.283 -28.913  1.00  0.00    -0.391 OA
ATOM     50  H2  UNL     1       1.622  -1.979 -28.501  1.00  0.00     0.210 HD
ENDBRANCH  47  49
BRANCH  48  51
HETATM   51  O3  UNL     1      -0.258  -1.512 -29.408  1.00  0.00    -0.389 OA
ATOM     52  H3  UNL     1       0.007  -2.203 -28.814  1.00  0.00     0.210 HD
ENDBRANCH  48  51
ENDBRANCH  40  42
ENDBRANCH   4  34
BRANCH   6  53
HETATM   53  N12 UNL     1      -5.990   1.518 -27.280  1.00  0.00    -0.070 N 
ATOM     54 3H12 UNL     1      -6.385   1.624 -28.214  1.00  0.00     0.274 HD
ATOM     55 2H12 UNL     1      -6.016   0.499 -27.238  1.00  0.00     0.274 HD
ATOM     56 1H12 UNL     1      -6.559   1.959 -26.557  1.00  0.00     0.274 HD
ENDBRANCH   6  53
BRANCH   5  57
HETATM   57  O4  UNL     1      -4.145  -0.239 -27.027  1.00  0.00    -0.391 OA
ATOM     58  H4  UNL     1      -4.613  -0.689 -27.721  1.00  0.00     0.210 HD
ENDBRANCH   5  57
TORSDOF 15
ENDMDL
MODEL 5
REMARK VINA RESULT: -5.874168837      3.305      6.212
REMARK  15 active torsions:
REMARK  status: ('A' for Active; 'I' for Inactive)
REMARK    1  A    between atoms: N1_1  and  C1_5 
REMARK    2  A    between atoms: C1_5  and  C2_6 
REMARK    3  A    between atoms: C2_6  and  C3_7 
REMARK    4  A    between atoms: C2_6  and  N5_23 
REMARK    5  A    between atoms: C3_7  and  N2_8 
REMARK    6  A    between atoms: C4_13  and  C5_14 
REMARK    7  A    between atoms: C11_20  and  O1_21 
REMARK    8  A    between atoms: N5_23  and  C12_25 
REMARK    9  A    between atoms: C13_28  and  C14_29 
REMARK   10  A    between atoms: N10_36  and  C15_37 
REMARK   11  A    between atoms: C17_42  and  O2_43 
REMARK   12  A    between atoms: C18_45  and  O3_46 
REMARK   13  A    between atoms: C19_48  and  O4_49 
REMARK   14  A    between atoms: C20_51  and  N12_52 
REMARK   15  A    between atoms: C21_56  and  O5_57 
ROOT
HETATM    1  C12 UNL     1       1.724  -3.860 -25.894  1.00  0.00     0.205 C 
HETATM    2  N6  UNL     1       0.471  -4.104 -26.548  1.00  0.00    -0.386 N 
ATOM      3  H6  UNL     1      -0.389  -3.702 -26.175  1.00  0.00     0.156 HD
HETATM    4  C13 UNL     1       0.435  -4.898 -27.705  1.00  0.00     0.180 C 
HETATM    5  C19 UNL     1       1.746  -5.000 -28.378  1.00  0.00     0.181 C 
HETATM    6  C20 UNL     1       2.842  -5.434 -27.481  1.00  0.00     0.246 C 
HETATM    7  C21 UNL     1       2.751  -4.891 -26.068  1.00  0.00     0.192 C 
ENDROOT
BRANCH   1   8
HETATM    8  N5  UNL     1       2.109  -2.538 -26.088  1.00  0.00    -0.392 N 
ATOM      9  H5  UNL     1       2.557  -2.294 -26.970  1.00  0.00     0.155 HD
BRANCH   8  10
HETATM   10  C2  UNL     1       1.916  -1.520 -25.143  1.00  0.00     0.124 C 
BRANCH  10  11
HETATM   11  C1  UNL     1       3.190  -0.669 -25.138  1.00  0.00     0.256 C 
BRANCH  11  12
HETATM   12  N1  UNL     1       4.317  -1.590 -25.130  1.00  0.00    -0.077 N 
ATOM     13  H13 UNL     1       4.783  -1.645 -24.225  1.00  0.00     0.274 HD
ATOM     14  H12 UNL     1       4.035  -2.568 -25.192  1.00  0.00     0.274 HD
ATOM     15  H11 UNL     1       4.941  -1.304 -25.885  1.00  0.00     0.274 HD
ENDBRANCH  11  12
ENDBRANCH  10  11
BRANCH  10  16
HETATM   16  C3  UNL     1       0.731  -0.628 -25.550  1.00  0.00     0.179 C 
BRANCH  16  17
HETATM   17  N2  UNL     1      -0.368  -0.722 -24.622  1.00  0.00    -0.253 N 
HETATM   18  N3  UNL     1      -0.272  -0.627 -23.292  1.00  0.00    -0.238 N 
HETATM   19  N4  UNL     1      -1.456  -0.754 -22.727  1.00  0.00    -0.281 N 
ATOM     20  H3  UNL     1       0.599  -0.477 -22.783  1.00  0.00     0.208 HD
HETATM   21  C4  UNL     1      -2.377  -0.941 -23.708  1.00  0.00     0.112 A 
ATOM     22  H4  UNL     1      -1.648  -0.718 -21.725  1.00  0.00     0.188 HD
HETATM   23  C11 UNL     1      -1.668  -0.917 -24.886  1.00  0.00     0.188 A 
BRANCH  21  24
HETATM   24  C5  UNL     1      -3.823  -1.133 -23.513  1.00  0.00    -0.004 A 
HETATM   25  C6  UNL     1      -4.525  -2.177 -24.070  1.00  0.00     0.014 A 
HETATM   26  C7  UNL     1      -5.874  -2.338 -23.867  1.00  0.00     0.001 A 
HETATM   27  C8  UNL     1      -6.550  -1.435 -23.084  1.00  0.00     0.000 A 
HETATM   28  C9  UNL     1      -5.859  -0.391 -22.523  1.00  0.00     0.001 A 
HETATM   29  C10 UNL     1      -4.506  -0.233 -22.731  1.00  0.00     0.014 A 
ENDBRANCH  21  24
BRANCH  23  30
HETATM   30  O1  UNL     1      -2.262  -1.076 -26.146  1.00  0.00    -0.343 OA
ATOM     31  H1  UNL     1      -3.164  -0.896 -26.383  1.00  0.00     0.219 HD
ENDBRANCH  23  30
ENDBRANCH  16  17
ENDBRANCH  10  16
ENDBRANCH   8  10
ENDBRANCH   1   8
BRANCH   7  32
HETATM   32  O5  UNL     1       4.012  -4.450 -25.737  1.00  0.00    -0.390 OA
ATOM     33  H5  UNL     1       4.094  -4.225 -24.818  1.00  0.00     0.210 HD
ENDBRANCH   7  32
BRANCH   4  34
HETATM   34  C14 UNL     1      -0.245  -6.191 -27.447  1.00  0.00     0.143 A 
HETATM   35  N7  UNL     1       0.317  -7.233 -26.841  1.00  0.00    -0.270 N 
HETATM   36  N8  UNL     1      -0.581  -8.192 -26.777  1.00  0.00    -0.227 N 
ATOM     37  H7  UNL     1       1.273  -7.280 -26.490  1.00  0.00     0.190 HD
HETATM   38  N9  UNL     1      -1.689  -7.755 -27.338  1.00  0.00    -0.222 N 
ATOM     39  H8  UNL     1      -0.443  -9.115 -26.364  1.00  0.00     0.210 HD
HETATM   40  N10 UNL     1      -1.498  -6.524 -27.755  1.00  0.00    -0.227 N 
ATOM     41  H9  UNL     1      -2.554  -8.287 -27.433  1.00  0.00     0.210 HD
BRANCH  40  42
HETATM   42  C15 UNL     1      -2.526  -5.738 -28.417  1.00  0.00     0.340 C 
HETATM   43  N11 UNL     1      -2.026  -5.327 -29.689  1.00  0.00    -0.047 N 
HETATM   44  C16 UNL     1      -2.218  -6.415 -30.613  1.00  0.00     0.269 C 
ATOM     45 2H11 UNL     1      -2.442  -4.454 -30.014  1.00  0.00     0.279 HD
ATOM     46 1H11 UNL     1      -1.057  -5.008 -29.650  1.00  0.00     0.279 HD
HETATM   47  C17 UNL     1      -3.355  -7.231 -30.070  1.00  0.00     0.176 C 
HETATM   48  C18 UNL     1      -3.733  -6.617 -28.763  1.00  0.00     0.200 C 
BRANCH  47  49
HETATM   49  O2  UNL     1      -4.476  -7.125 -30.916  1.00  0.00    -0.391 OA
ATOM     50  H2  UNL     1      -4.827  -6.242 -30.885  1.00  0.00     0.210 HD
ENDBRANCH  47  49
BRANCH  48  51
HETATM   51  O3  UNL     1      -4.813  -5.739 -28.937  1.00  0.00    -0.389 OA
ATOM     52  H3  UNL     1      -5.546  -6.133 -28.478  1.00  0.00     0.210 HD
ENDBRANCH  48  51
ENDBRANCH  40  42
ENDBRANCH   4  34
BRANCH   6  53
HETATM   53  N12 UNL     1       4.120  -5.017 -28.096  1.00  0.00    -0.070 N 
ATOM     54 3H12 UNL     1       4.029  -4.800 -29.089  1.00  0.00     0.274 HD
ATOM     55 2H12 UNL     1       4.427  -4.096 -27.784  1.00  0.00     0.274 HD
ATOM     56 1H12 UNL     1       4.808  -5.747 -27.912  1.00  0.00     0.274 HD
ENDBRANCH   6  53
BRANCH   5  57
HETATM   57  O4  UNL     1       2.061  -3.716 -28.887  1.00  0.00    -0.391 OA
ATOM     58  H4  UNL     1       2.970  -3.541 -28.672  1.00  0.00     0.210 HD
ENDBRANCH   5  57
TORSDOF 15
ENDMDL
