MODEL 1
REMARK VINA RESULT: -6.875354130      0.000      0.000
REMARK  12 active torsions:
REMARK  status: ('A' for Active; 'I' for Inactive)
REMARK    1  A    between atoms: N1_1  and  O1_4 
REMARK    2  A    between atoms: O1_4  and  C1_5 
REMARK       I    between atoms: C1_5  and  N2_7 
REMARK    3  A    between atoms: N2_7  and  C2_9 
REMARK    4  A    between atoms: C5_16  and  N5_17 
REMARK    5  A    between atoms: C6_18  and  C7_19 
REMARK    6  A    between atoms: C9_23  and  N6_24 
REMARK       I    between atoms: N6_24  and  C10_26 
REMARK       I    between atoms: C10_26  and  N7_27 
REMARK       I    between atoms: C10_26  and  N8_31 
REMARK    7  A    between atoms: N8_31  and  C11_33 
REMARK    8  A    between atoms: C11_33  and  O5_34 
REMARK    9  A    between atoms: C11_33  and  C12_36 
REMARK   10  A    between atoms: C14_43  and  C15_44 
REMARK   11  A    between atoms: C15_44  and  O9_45 
REMARK   12  A    between atoms: C15_44  and  O10_47 
ROOT
HETATM    1  N5  UNL     1      -1.664  -1.753 -25.631  1.00  0.00    -0.276 N 
HETATM    2  C6  UNL     1      -2.889  -1.751 -26.173  1.00  0.00     0.120 A 
HETATM    3  C8  UNL     1      -3.941  -1.281 -25.354  1.00  0.00     0.085 A 
HETATM    4  C9  UNL     1      -3.782  -0.836 -24.071  1.00  0.00     0.110 A 
HETATM    5  N9  UNL     1      -2.526  -0.865 -23.594  1.00  0.00    -0.294 N 
ATOM      6  H9  UNL     1      -2.343  -0.545 -22.643  1.00  0.00     0.172 HD
HETATM    7  C13 UNL     1      -1.499  -1.310 -24.353  1.00  0.00     0.329 A 
HETATM    8  O8  UNL     1      -0.368  -1.284 -23.791  1.00  0.00    -0.246 OA
ENDROOT
BRANCH   1   9
HETATM    9  C5  UNL     1      -0.485  -2.229 -26.311  1.00  0.00     0.193 C 
HETATM   10  S1  UNL     1       0.765  -0.876 -26.274  1.00  0.00    -0.064 SA
HETATM   11  C4  UNL     1       2.358  -1.653 -26.526  1.00  0.00     0.169 A 
HETATM   12  N3  UNL     1       2.502  -2.866 -25.911  1.00  0.00    -0.245 N 
HETATM   13  N4  UNL     1       3.496  -1.377 -27.159  1.00  0.00    -0.320 N 
HETATM   14  C3  UNL     1       3.763  -3.312 -26.191  1.00  0.00     0.167 A 
HETATM   15  N10 UNL     1       1.431  -3.364 -25.185  1.00  0.00    -0.316 N 
HETATM   16  C2  UNL     1       4.385  -2.386 -26.968  1.00  0.00     0.129 A 
HETATM   17  C14 UNL     1       0.098  -3.454 -25.664  1.00  0.00     0.188 C 
ATOM     18  H10 UNL     1       1.614  -3.688 -24.236  1.00  0.00     0.181 HD
ATOM     19  H4  UNL     1       3.673  -0.533 -27.704  1.00  0.00     0.169 HD
BRANCH  16  20
HETATM   20  N2  UNL     1       5.692  -2.417 -27.501  1.00  0.00    -0.286 N 
HETATM   21  C1  UNL     1       6.058  -3.084 -28.690  1.00  0.00     0.387 C 
HETATM   22  O2  UNL     1       5.290  -3.730 -29.428  1.00  0.00    -0.236 OA
ATOM     23  H2  UNL     1       6.424  -1.922 -26.991  1.00  0.00     0.172 HD
BRANCH  21  24
HETATM   24  O1  UNL     1       7.392  -3.038 -29.108  1.00  0.00    -0.188 OA
BRANCH  24  25
HETATM   25  N1  UNL     1       7.960  -1.877 -29.559  1.00  0.00    -0.301 N 
ATOM     26  H12 UNL     1       7.837  -1.629 -30.540  1.00  0.00     0.184 HD
ATOM     27  H11 UNL     1       8.493  -1.269 -28.938  1.00  0.00     0.184 HD
ENDBRANCH  24  25
ENDBRANCH  21  24
ENDBRANCH  16  20
BRANCH  17  28
HETATM   28  C15 UNL     1      -0.029  -4.623 -26.670  1.00  0.00     0.280 C 
BRANCH  28  29
HETATM   29  O9  UNL     1       0.697  -5.712 -26.170  1.00  0.00    -0.369 OA
ATOM     30  H9  UNL     1       1.505  -5.381 -25.792  1.00  0.00     0.212 HD
ENDBRANCH  28  29
BRANCH  28  31
HETATM   31  O10 UNL     1      -1.341  -5.072 -26.763  1.00  0.00    -0.369 OA
ATOM     32  H10 UNL     1      -1.376  -6.007 -26.930  1.00  0.00     0.212 HD
ENDBRANCH  28  31
ENDBRANCH  17  28
ENDBRANCH   1   9
BRANCH   2  33
HETATM   33  C7  UNL     1      -3.219  -2.133 -27.522  1.00  0.00     0.227 C 
HETATM   34  O3  UNL     1      -3.179  -1.410 -28.507  1.00  0.00    -0.643 OA
HETATM   35  O4  UNL     1      -3.629  -3.450 -27.761  1.00  0.00    -0.643 OA
ENDBRANCH   2  33
BRANCH   4  36
HETATM   36  N6  UNL     1      -4.755  -0.411 -23.347  1.00  0.00    -0.333 N 
HETATM   37  C10 UNL     1      -6.110  -0.813 -23.532  1.00  0.00     0.386 C 
HETATM   38  N7  UNL     1      -6.379  -2.183 -23.161  1.00  0.00    -0.041 N 
HETATM   39  N8  UNL     1      -7.071   0.084 -22.946  1.00  0.00    -0.346 N 
ATOM     40  H73 UNL     1      -5.749  -2.815 -23.653  1.00  0.00     0.279 HD
ATOM     41  H72 UNL     1      -6.083  -2.357 -22.201  1.00  0.00     0.279 HD
ATOM     42  H71 UNL     1      -7.348  -2.470 -23.293  1.00  0.00     0.279 HD
ATOM     43  H8  UNL     1      -7.785   0.559 -23.498  1.00  0.00     0.160 HD
ATOM     44  H6  UNL     1      -4.545   0.250 -22.599  1.00  0.00     0.164 HD
BRANCH  39  45
HETATM   45  C11 UNL     1      -6.949   0.261 -21.527  1.00  0.00     0.319 C 
BRANCH  45  46
HETATM   46  O5  UNL     1      -5.690  -0.034 -21.039  1.00  0.00    -0.367 OA
ATOM     47  H5  UNL     1      -5.400  -0.915 -21.242  1.00  0.00     0.212 HD
ENDBRANCH  45  46
BRANCH  45  48
HETATM   48  C12 UNL     1      -7.967  -0.410 -20.722  1.00  0.00     0.223 C 
HETATM   49  O6  UNL     1      -7.764  -1.607 -20.373  1.00  0.00    -0.645 OA
HETATM   50  O7  UNL     1      -9.151   0.157 -20.301  1.00  0.00    -0.645 OA
ENDBRANCH  45  48
ENDBRANCH  39  45
ENDBRANCH   4  36
TORSDOF 12
ENDMDL
MODEL 2
REMARK VINA RESULT: -6.796872461      4.286     10.442
REMARK  12 active torsions:
REMARK  status: ('A' for Active; 'I' for Inactive)
REMARK    1  A    between atoms: N1_1  and  O1_4 
REMARK    2  A    between atoms: O1_4  and  C1_5 
REMARK       I    between atoms: C1_5  and  N2_7 
REMARK    3  A    between atoms: N2_7  and  C2_9 
REMARK    4  A    between atoms: C5_16  and  N5_17 
REMARK    5  A    between atoms: C6_18  and  C7_19 
REMARK    6  A    between atoms: C9_23  and  N6_24 
REMARK       I    between atoms: N6_24  and  C10_26 
REMARK       I    between atoms: C10_26  and  N7_27 
REMARK       I    between atoms: C10_26  and  N8_31 
REMARK    7  A    between atoms: N8_31  and  C11_33 
REMARK    8  A    between atoms: C11_33  and  O5_34 
REMARK    9  A    between atoms: C11_33  and  C12_36 
REMARK   10  A    between atoms: C14_43  and  C15_44 
REMARK   11  A    between atoms: C15_44  and  O9_45 
REMARK   12  A    between atoms: C15_44  and  O10_47 
ROOT
HETATM    1  N5  UNL     1      -2.280   0.171 -24.999  1.00  0.00    -0.276 N 
HETATM    2  C6  UNL     1      -1.913  -0.761 -24.111  1.00  0.00     0.120 A 
HETATM    3  C8  UNL     1      -0.762  -1.519 -24.429  1.00  0.00     0.085 A 
HETATM    4  C9  UNL     1      -0.019  -1.354 -25.564  1.00  0.00     0.110 A 
HETATM    5  N9  UNL     1      -0.443  -0.399 -26.408  1.00  0.00    -0.294 N 
ATOM      6  H9  UNL     1       0.071  -0.228 -27.272  1.00  0.00     0.172 HD
HETATM    7  C13 UNL     1      -1.541   0.341 -26.132  1.00  0.00     0.329 A 
HETATM    8  O8  UNL     1      -1.835   1.208 -27.002  1.00  0.00    -0.246 OA
ENDROOT
BRANCH   1   9
HETATM    9  C5  UNL     1      -3.444   1.010 -24.850  1.00  0.00     0.193 C 
HETATM   10  S1  UNL     1      -2.898   2.760 -25.036  1.00  0.00    -0.064 SA
HETATM   11  C4  UNL     1      -4.357   3.699 -25.478  1.00  0.00     0.169 A 
HETATM   12  N3  UNL     1      -5.213   3.053 -26.328  1.00  0.00    -0.245 N 
HETATM   13  N4  UNL     1      -4.869   4.899 -25.215  1.00  0.00    -0.320 N 
HETATM   14  C3  UNL     1      -6.256   3.903 -26.570  1.00  0.00     0.167 A 
HETATM   15  N10 UNL     1      -4.882   1.772 -26.741  1.00  0.00    -0.316 N 
HETATM   16  C2  UNL     1      -6.044   5.054 -25.878  1.00  0.00     0.129 A 
HETATM   17  C14 UNL     1      -4.501   0.713 -25.876  1.00  0.00     0.188 C 
ATOM     18  H10 UNL     1      -4.915   1.576 -27.741  1.00  0.00     0.181 HD
ATOM     19  H4  UNL     1      -4.442   5.598 -24.607  1.00  0.00     0.169 HD
BRANCH  16  20
HETATM   20  N2  UNL     1      -6.852   6.210 -25.822  1.00  0.00    -0.286 N 
HETATM   21  C1  UNL     1      -6.589   7.334 -25.010  1.00  0.00     0.387 C 
HETATM   22  O2  UNL     1      -5.619   7.464 -24.240  1.00  0.00    -0.236 OA
ATOM     23  H2  UNL     1      -7.686   6.234 -26.411  1.00  0.00     0.172 HD
BRANCH  21  24
HETATM   24  O1  UNL     1      -7.473   8.418 -25.048  1.00  0.00    -0.188 OA
BRANCH  24  25
HETATM   25  N1  UNL     1      -8.763   8.272 -25.482  1.00  0.00    -0.301 N 
ATOM     26  H12 UNL     1      -8.933   7.697 -26.306  1.00  0.00     0.184 HD
ATOM     27  H11 UNL     1      -9.540   8.724 -25.002  1.00  0.00     0.184 HD
ENDBRANCH  24  25
ENDBRANCH  21  24
ENDBRANCH  16  20
BRANCH  17  28
HETATM   28  C15 UNL     1      -5.740   0.162 -25.130  1.00  0.00     0.280 C 
BRANCH  28  29
HETATM   29  O9  UNL     1      -5.712  -1.236 -25.209  1.00  0.00    -0.369 OA
ATOM     30  H9  UNL     1      -4.944  -1.545 -24.742  1.00  0.00     0.212 HD
ENDBRANCH  28  29
BRANCH  28  31
HETATM   31  O10 UNL     1      -5.684   0.452 -23.773  1.00  0.00    -0.369 OA
ATOM     32  H10 UNL     1      -6.148   1.257 -23.571  1.00  0.00     0.212 HD
ENDBRANCH  28  31
ENDBRANCH  17  28
ENDBRANCH   1   9
BRANCH   2  33
HETATM   33  C7  UNL     1      -2.551  -1.025 -22.847  1.00  0.00     0.227 C 
HETATM   34  O3  UNL     1      -2.147  -0.677 -21.747  1.00  0.00    -0.643 OA
HETATM   35  O4  UNL     1      -3.751  -1.747 -22.842  1.00  0.00    -0.643 OA
ENDBRANCH   2  33
BRANCH   4  36
HETATM   36  N6  UNL     1       1.025  -2.055 -25.829  1.00  0.00    -0.333 N 
HETATM   37  C10 UNL     1       2.240  -1.503 -26.331  1.00  0.00     0.386 C 
HETATM   38  N7  UNL     1       2.970  -0.705 -25.374  1.00  0.00    -0.041 N 
HETATM   39  N8  UNL     1       3.099  -2.464 -26.972  1.00  0.00    -0.346 N 
ATOM     40  H73 UNL     1       2.374   0.030 -24.995  1.00  0.00     0.279 HD
ATOM     41  H72 UNL     1       3.146  -1.241 -24.524  1.00  0.00     0.279 HD
ATOM     42  H71 UNL     1       3.838  -0.310 -25.733  1.00  0.00     0.279 HD
ATOM     43  H8  UNL     1       3.381  -2.381 -27.948  1.00  0.00     0.160 HD
ATOM     44  H6  UNL     1       0.982  -3.062 -25.672  1.00  0.00     0.164 HD
BRANCH  39  45
HETATM   45  C11 UNL     1       3.527  -3.547 -26.134  1.00  0.00     0.319 C 
BRANCH  45  46
HETATM   46  O5  UNL     1       4.637  -3.247 -25.366  1.00  0.00    -0.367 OA
ATOM     47  H5  UNL     1       5.381  -3.811 -25.538  1.00  0.00     0.212 HD
ENDBRANCH  45  46
BRANCH  45  48
HETATM   48  C12 UNL     1       3.720  -4.827 -26.812  1.00  0.00     0.223 C 
HETATM   49  O6  UNL     1       3.567  -4.871 -28.065  1.00  0.00    -0.645 OA
HETATM   50  O7  UNL     1       4.059  -6.012 -26.195  1.00  0.00    -0.645 OA
ENDBRANCH  45  48
ENDBRANCH  39  45
ENDBRANCH   4  36
TORSDOF 12
ENDMDL
MODEL 3
REMARK VINA RESULT: -6.675679663      4.753      5.850
REMARK  12 active torsions:
REMARK  status: ('A' for Active; 'I' for Inactive)
REMARK    1  A    between atoms: N1_1  and  O1_4 
REMARK    2  A    between atoms: O1_4  and  C1_5 
REMARK       I    between atoms: C1_5  and  N2_7 
REMARK    3  A    between atoms: N2_7  and  C2_9 
REMARK    4  A    between atoms: C5_16  and  N5_17 
REMARK    5  A    between atoms: C6_18  and  C7_19 
REMARK    6  A    between atoms: C9_23  and  N6_24 
REMARK       I    between atoms: N6_24  and  C10_26 
REMARK       I    between atoms: C10_26  and  N7_27 
REMARK       I    between atoms: C10_26  and  N8_31 
REMARK    7  A    between atoms: N8_31  and  C11_33 
REMARK    8  A    between atoms: C11_33  and  O5_34 
REMARK    9  A    between atoms: C11_33  and  C12_36 
REMARK   10  A    between atoms: C14_43  and  C15_44 
REMARK   11  A    between atoms: C15_44  and  O9_45 
REMARK   12  A    between atoms: C15_44  and  O10_47 
ROOT
HETATM    1  N5  UNL     1      -3.683   1.720 -25.146  1.00  0.00    -0.276 N 
HETATM    2  C6  UNL     1      -4.992   1.453 -25.225  1.00  0.00     0.120 A 
HETATM    3  C8  UNL     1      -5.854   2.562 -25.397  1.00  0.00     0.085 A 
HETATM    4  C9  UNL     1      -5.434   3.859 -25.489  1.00  0.00     0.110 A 
HETATM    5  N9  UNL     1      -4.106   4.052 -25.404  1.00  0.00    -0.294 N 
ATOM      6  H9  UNL     1      -3.732   4.998 -25.466  1.00  0.00     0.172 HD
HETATM    7  C13 UNL     1      -3.258   3.012 -25.238  1.00  0.00     0.329 A 
HETATM    8  O8  UNL     1      -2.036   3.324 -25.176  1.00  0.00    -0.246 OA
ENDROOT
BRANCH   1   9
HETATM    9  C5  UNL     1      -2.669   0.716 -24.938  1.00  0.00     0.193 C 
HETATM   10  S1  UNL     1      -1.430   0.886 -26.292  1.00  0.00    -0.064 SA
HETATM   11  C4  UNL     1       0.075   0.118 -25.697  1.00  0.00     0.169 A 
HETATM   12  N3  UNL     1       0.334   0.327 -24.371  1.00  0.00    -0.245 N 
HETATM   13  N4  UNL     1       1.062  -0.622 -26.196  1.00  0.00    -0.320 N 
HETATM   14  C3  UNL     1       1.509  -0.309 -24.086  1.00  0.00     0.167 A 
HETATM   15  N10 UNL     1      -0.571   1.079 -23.638  1.00  0.00    -0.316 N 
HETATM   16  C2  UNL     1       1.965  -0.902 -25.221  1.00  0.00     0.129 A 
HETATM   17  C14 UNL     1      -1.974   0.865 -23.614  1.00  0.00     0.188 C 
ATOM     18  H10 UNL     1      -0.201   1.844 -23.074  1.00  0.00     0.181 HD
ATOM     19  H4  UNL     1       1.130  -0.933 -27.166  1.00  0.00     0.169 HD
BRANCH  16  20
HETATM   20  N2  UNL     1       3.137  -1.667 -25.406  1.00  0.00    -0.286 N 
HETATM   21  C1  UNL     1       3.154  -3.038 -25.745  1.00  0.00     0.387 C 
HETATM   22  O2  UNL     1       2.152  -3.754 -25.928  1.00  0.00    -0.236 OA
ATOM     23  H2  UNL     1       4.035  -1.197 -25.286  1.00  0.00     0.172 HD
BRANCH  21  24
HETATM   24  O1  UNL     1       4.387  -3.681 -25.898  1.00  0.00    -0.188 OA
BRANCH  24  25
HETATM   25  N1  UNL     1       4.781  -4.192 -27.105  1.00  0.00    -0.301 N 
ATOM     26  H12 UNL     1       4.072  -4.335 -27.823  1.00  0.00     0.184 HD
ATOM     27  H11 UNL     1       5.756  -4.427 -27.291  1.00  0.00     0.184 HD
ENDBRANCH  24  25
ENDBRANCH  21  24
ENDBRANCH  16  20
BRANCH  17  28
HETATM   28  C15 UNL     1      -2.309  -0.382 -22.763  1.00  0.00     0.280 C 
BRANCH  28  29
HETATM   29  O9  UNL     1      -3.393  -0.068 -21.933  1.00  0.00    -0.369 OA
ATOM     30  H9  UNL     1      -3.152  -0.275 -21.038  1.00  0.00     0.212 HD
ENDBRANCH  28  29
BRANCH  28  31
HETATM   31  O10 UNL     1      -2.748  -1.434 -23.556  1.00  0.00    -0.369 OA
ATOM     32  H10 UNL     1      -2.030  -1.830 -24.036  1.00  0.00     0.212 HD
ENDBRANCH  28  31
ENDBRANCH  17  28
ENDBRANCH   1   9
BRANCH   2  33
HETATM   33  C7  UNL     1      -5.594   0.144 -25.202  1.00  0.00     0.227 C 
HETATM   34  O3  UNL     1      -6.049  -0.459 -26.163  1.00  0.00    -0.643 OA
HETATM   35  O4  UNL     1      -5.680  -0.528 -23.977  1.00  0.00    -0.643 OA
ENDBRANCH   2  33
BRANCH   4  36
HETATM   36  N6  UNL     1      -6.237   4.850 -25.648  1.00  0.00    -0.333 N 
HETATM   37  C10 UNL     1      -7.061   5.021 -26.798  1.00  0.00     0.386 C 
HETATM   38  N7  UNL     1      -8.147   4.074 -26.897  1.00  0.00    -0.041 N 
HETATM   39  N8  UNL     1      -7.527   6.370 -26.987  1.00  0.00    -0.346 N 
ATOM     40  H73 UNL     1      -7.792   3.119 -26.852  1.00  0.00     0.279 HD
ATOM     41  H72 UNL     1      -8.712   4.088 -26.048  1.00  0.00     0.279 HD
ATOM     42  H71 UNL     1      -8.736   4.196 -27.720  1.00  0.00     0.279 HD
ATOM     43  H8  UNL     1      -7.313   6.911 -27.825  1.00  0.00     0.160 HD
ATOM     44  H6  UNL     1      -6.287   5.552 -24.909  1.00  0.00     0.164 HD
BRANCH  39  45
HETATM   45  C11 UNL     1      -8.316   6.895 -25.910  1.00  0.00     0.319 C 
BRANCH  45  46
HETATM   46  O5  UNL     1      -9.540   7.395 -26.313  1.00  0.00    -0.367 OA
ATOM     47  H5  UNL     1     -10.131   7.581 -25.593  1.00  0.00     0.212 HD
ENDBRANCH  45  46
BRANCH  45  48
HETATM   48  C12 UNL     1      -7.639   7.865 -25.051  1.00  0.00     0.223 C 
HETATM   49  O6  UNL     1      -8.310   8.831 -24.592  1.00  0.00    -0.645 OA
HETATM   50  O7  UNL     1      -6.309   7.816 -24.690  1.00  0.00    -0.645 OA
ENDBRANCH  45  48
ENDBRANCH  39  45
ENDBRANCH   4  36
TORSDOF 12
ENDMDL
MODEL 4
REMARK VINA RESULT: -6.669576559      4.739      5.923
REMARK  12 active torsions:
REMARK  status: ('A' for Active; 'I' for Inactive)
REMARK    1  A    between atoms: N1_1  and  O1_4 
REMARK    2  A    between atoms: O1_4  and  C1_5 
REMARK       I    between atoms: C1_5  and  N2_7 
REMARK    3  A    between atoms: N2_7  and  C2_9 
REMARK    4  A    between atoms: C5_16  and  N5_17 
REMARK    5  A    between atoms: C6_18  and  C7_19 
REMARK    6  A    between atoms: C9_23  and  N6_24 
REMARK       I    between atoms: N6_24  and  C10_26 
REMARK       I    between atoms: C10_26  and  N7_27 
REMARK       I    between atoms: C10_26  and  N8_31 
REMARK    7  A    between atoms: N8_31  and  C11_33 
REMARK    8  A    between atoms: C11_33  and  O5_34 
REMARK    9  A    between atoms: C11_33  and  C12_36 
REMARK   10  A    between atoms: C14_43  and  C15_44 
REMARK   11  A    between atoms: C15_44  and  O9_45 
REMARK   12  A    between atoms: C15_44  and  O10_47 
ROOT
HETATM    1  N5  UNL     1      -4.058   1.501 -25.047  1.00  0.00    -0.276 N 
HETATM    2  C6  UNL     1      -5.347   1.139 -25.053  1.00  0.00     0.120 A 
HETATM    3  C8  UNL     1      -6.289   2.165 -25.297  1.00  0.00     0.085 A 
HETATM    4  C9  UNL     1      -5.966   3.472 -25.526  1.00  0.00     0.110 A 
HETATM    5  N9  UNL     1      -4.653   3.762 -25.507  1.00  0.00    -0.294 N 
ATOM      6  H9  UNL     1      -4.350   4.722 -25.672  1.00  0.00     0.172 HD
HETATM    7  C13 UNL     1      -3.728   2.803 -25.275  1.00  0.00     0.329 A 
HETATM    8  O8  UNL     1      -2.530   3.202 -25.287  1.00  0.00    -0.246 OA
ENDROOT
BRANCH   1   9
HETATM    9  C5  UNL     1      -2.969   0.593 -24.782  1.00  0.00     0.193 C 
HETATM   10  S1  UNL     1      -1.788   0.712 -26.192  1.00  0.00    -0.064 SA
HETATM   11  C4  UNL     1      -0.215   0.110 -25.584  1.00  0.00     0.169 A 
HETATM   12  N3  UNL     1       0.070   0.465 -24.294  1.00  0.00    -0.245 N 
HETATM   13  N4  UNL     1       0.807  -0.607 -26.047  1.00  0.00    -0.320 N 
HETATM   14  C3  UNL     1       1.296  -0.059 -23.994  1.00  0.00     0.167 A 
HETATM   15  N10 UNL     1      -0.863   1.223 -23.603  1.00  0.00    -0.316 N 
HETATM   16  C2  UNL     1       1.757  -0.728 -25.084  1.00  0.00     0.129 A 
HETATM   17  C14 UNL     1      -2.246   0.918 -23.505  1.00  0.00     0.188 C 
ATOM     18  H10 UNL     1      -0.530   2.062 -23.129  1.00  0.00     0.181 HD
ATOM     19  H4  UNL     1       0.866  -1.006 -26.984  1.00  0.00     0.169 HD
BRANCH  16  20
HETATM   20  N2  UNL     1       2.974  -1.427 -25.240  1.00  0.00    -0.286 N 
HETATM   21  C1  UNL     1       3.076  -2.795 -25.574  1.00  0.00     0.387 C 
HETATM   22  O2  UNL     1       2.120  -3.567 -25.779  1.00  0.00    -0.236 OA
ATOM     23  H2  UNL     1       3.841  -0.907 -25.100  1.00  0.00     0.172 HD
BRANCH  21  24
HETATM   24  O1  UNL     1       4.346  -3.368 -25.696  1.00  0.00    -0.188 OA
BRANCH  24  25
HETATM   25  N1  UNL     1       5.042  -3.318 -26.873  1.00  0.00    -0.301 N 
ATOM     26  H12 UNL     1       4.912  -4.075 -27.544  1.00  0.00     0.184 HD
ATOM     27  H11 UNL     1       5.678  -2.549 -27.083  1.00  0.00     0.184 HD
ENDBRANCH  24  25
ENDBRANCH  21  24
ENDBRANCH  16  20
BRANCH  17  28
HETATM   28  C15 UNL     1      -2.465  -0.260 -22.527  1.00  0.00     0.280 C 
BRANCH  28  29
HETATM   29  O9  UNL     1      -3.530   0.067 -21.679  1.00  0.00    -0.369 OA
ATOM     30  H9  UNL     1      -3.314  -0.229 -20.802  1.00  0.00     0.212 HD
ENDBRANCH  28  29
BRANCH  28  31
HETATM   31  O10 UNL     1      -2.870  -1.407 -23.197  1.00  0.00    -0.369 OA
ATOM     32  H10 UNL     1      -3.817  -1.487 -23.206  1.00  0.00     0.212 HD
ENDBRANCH  28  31
ENDBRANCH  17  28
ENDBRANCH   1   9
BRANCH   2  33
HETATM   33  C7  UNL     1      -5.852  -0.199 -24.885  1.00  0.00     0.227 C 
HETATM   34  O3  UNL     1      -6.279  -0.927 -25.770  1.00  0.00    -0.643 OA
HETATM   35  O4  UNL     1      -5.870  -0.749 -23.597  1.00  0.00    -0.643 OA
ENDBRANCH   2  33
BRANCH   4  36
HETATM   36  N6  UNL     1      -6.842   4.386 -25.747  1.00  0.00    -0.333 N 
HETATM   37  C10 UNL     1      -6.977   5.064 -26.994  1.00  0.00     0.386 C 
HETATM   38  N7  UNL     1      -7.503   4.244 -28.061  1.00  0.00    -0.041 N 
HETATM   39  N8  UNL     1      -7.679   6.317 -26.905  1.00  0.00    -0.346 N 
ATOM     40  H73 UNL     1      -6.942   3.401 -28.173  1.00  0.00     0.279 HD
ATOM     41  H72 UNL     1      -8.391   3.826 -27.784  1.00  0.00     0.279 HD
ATOM     42  H71 UNL     1      -7.601   4.729 -28.952  1.00  0.00     0.279 HD
ATOM     43  H8  UNL     1      -7.253   7.204 -27.175  1.00  0.00     0.160 HD
ATOM     44  H6  UNL     1      -7.475   4.641 -24.989  1.00  0.00     0.164 HD
BRANCH  39  45
HETATM   45  C11 UNL     1      -9.022   6.227 -26.409  1.00  0.00     0.319 C 
BRANCH  45  46
HETATM   46  O5  UNL     1      -9.951   5.911 -27.381  1.00  0.00    -0.367 OA
ATOM     47  H5  UNL     1     -10.635   5.326 -27.078  1.00  0.00     0.212 HD
ENDBRANCH  45  46
BRANCH  45  48
HETATM   48  C12 UNL     1      -9.482   7.376 -25.632  1.00  0.00     0.223 C 
HETATM   49  O6  UNL     1      -8.858   7.675 -24.575  1.00  0.00    -0.645 OA
HETATM   50  O7  UNL     1     -10.557   8.177 -25.955  1.00  0.00    -0.645 OA
ENDBRANCH  45  48
ENDBRANCH  39  45
ENDBRANCH   4  36
TORSDOF 12
ENDMDL
MODEL 5
REMARK VINA RESULT: -6.584237187      2.059      2.892
REMARK  12 active torsions:
REMARK  status: ('A' for Active; 'I' for Inactive)
REMARK    1  A    between atoms: N1_1  and  O1_4 
REMARK    2  A    between atoms: O1_4  and  C1_5 
REMARK       I    between atoms: C1_5  and  N2_7 
REMARK    3  A    between atoms: N2_7  and  C2_9 
REMARK    4  A    between atoms: C5_16  and  N5_17 
REMARK    5  A    between atoms: C6_18  and  C7_19 
REMARK    6  A    between atoms: C9_23  and  N6_24 
REMARK       I    between atoms: N6_24  and  C10_26 
REMARK       I    between atoms: C10_26  and  N7_27 
REMARK       I    between atoms: C10_26  and  N8_31 
REMARK    7  A    between atoms: N8_31  and  C11_33 
REMARK    8  A    between atoms: C11_33  and  O5_34 
REMARK    9  A    between atoms: C11_33  and  C12_36 
REMARK   10  A    between atoms: C14_43  and  C15_44 
REMARK   11  A    between atoms: C15_44  and  O9_45 
REMARK   12  A    between atoms: C15_44  and  O10_47 
ROOT
HETATM    1  N5  UNL     1      -1.658   0.203 -25.234  1.00  0.00    -0.276 N 
HETATM    2  C6  UNL     1      -2.517   1.229 -25.258  1.00  0.00     0.120 A 
HETATM    3  C8  UNL     1      -3.710   1.072 -24.515  1.00  0.00     0.085 A 
HETATM    4  C9  UNL     1      -4.025  -0.042 -23.788  1.00  0.00     0.110 A 
HETATM    5  N9  UNL     1      -3.116  -1.031 -23.807  1.00  0.00    -0.294 N 
ATOM      6  H9  UNL     1      -3.295  -1.887 -23.283  1.00  0.00     0.172 HD
HETATM    7  C13 UNL     1      -1.966  -0.910 -24.510  1.00  0.00     0.329 A 
HETATM    8  O8  UNL     1      -1.194  -1.907 -24.446  1.00  0.00    -0.246 OA
ENDROOT
BRANCH   1   9
HETATM    9  C5  UNL     1      -0.412   0.180 -25.960  1.00  0.00     0.193 C 
HETATM   10  S1  UNL     1       0.903  -0.372 -24.794  1.00  0.00    -0.064 SA
HETATM   11  C4  UNL     1       2.246  -0.991 -25.804  1.00  0.00     0.169 A 
HETATM   12  N3  UNL     1       1.849  -1.681 -26.916  1.00  0.00    -0.245 N 
HETATM   13  N4  UNL     1       3.577  -0.982 -25.781  1.00  0.00    -0.320 N 
HETATM   14  C3  UNL     1       2.983  -2.089 -27.562  1.00  0.00     0.167 A 
HETATM   15  N10 UNL     1       0.490  -1.819 -27.150  1.00  0.00    -0.316 N 
HETATM   16  C2  UNL     1       4.061  -1.654 -26.856  1.00  0.00     0.129 A 
HETATM   17  C14 UNL     1      -0.449  -0.754 -27.137  1.00  0.00     0.188 C 
ATOM     18  H10 UNL     1       0.138  -2.756 -27.347  1.00  0.00     0.181 HD
ATOM     19  H4  UNL     1       4.148  -0.536 -25.062  1.00  0.00     0.169 HD
BRANCH  16  20
HETATM   20  N2  UNL     1       5.432  -1.837 -27.141  1.00  0.00    -0.286 N 
HETATM   21  C1  UNL     1       5.933  -2.607 -28.212  1.00  0.00     0.387 C 
HETATM   22  O2  UNL     1       5.246  -3.225 -29.047  1.00  0.00    -0.236 OA
ATOM     23  H2  UNL     1       6.108  -1.379 -26.529  1.00  0.00     0.172 HD
BRANCH  21  24
HETATM   24  O1  UNL     1       7.318  -2.708 -28.383  1.00  0.00    -0.188 OA
BRANCH  24  25
HETATM   25  N1  UNL     1       7.950  -2.128 -29.449  1.00  0.00    -0.301 N 
ATOM     26  H12 UNL     1       8.706  -2.643 -29.900  1.00  0.00     0.184 HD
ATOM     27  H11 UNL     1       7.681  -1.206 -29.790  1.00  0.00     0.184 HD
ENDBRANCH  24  25
ENDBRANCH  21  24
ENDBRANCH  16  20
BRANCH  17  28
HETATM   28  C15 UNL     1      -0.305   0.099 -28.420  1.00  0.00     0.280 C 
BRANCH  28  29
HETATM   29  O9  UNL     1      -1.585   0.314 -28.948  1.00  0.00    -0.369 OA
ATOM     30  H9  UNL     1      -1.627  -0.099 -29.803  1.00  0.00     0.212 HD
ENDBRANCH  28  29
BRANCH  28  31
HETATM   31  O10 UNL     1       0.189   1.365 -28.134  1.00  0.00    -0.369 OA
ATOM     32  H10 UNL     1       0.398   1.843 -28.929  1.00  0.00     0.212 HD
ENDBRANCH  28  31
ENDBRANCH  17  28
ENDBRANCH   1   9
BRANCH   2  33
HETATM   33  C7  UNL     1      -2.314   2.489 -25.926  1.00  0.00     0.227 C 
HETATM   34  O3  UNL     1      -2.028   3.551 -25.393  1.00  0.00    -0.643 OA
HETATM   35  O4  UNL     1      -2.450   2.536 -27.318  1.00  0.00    -0.643 OA
ENDBRANCH   2  33
BRANCH   4  36
HETATM   36  N6  UNL     1      -5.116  -0.160 -23.118  1.00  0.00    -0.333 N 
HETATM   37  C10 UNL     1      -6.276  -0.826 -23.610  1.00  0.00     0.386 C 
HETATM   38  N7  UNL     1      -6.137  -2.260 -23.714  1.00  0.00    -0.041 N 
HETATM   39  N8  UNL     1      -7.490  -0.468 -22.926  1.00  0.00    -0.346 N 
ATOM     40  H73 UNL     1      -5.323  -2.499 -24.278  1.00  0.00     0.279 HD
ATOM     41  H72 UNL     1      -5.851  -2.656 -22.819  1.00  0.00     0.279 HD
ATOM     42  H71 UNL     1      -6.967  -2.737 -24.065  1.00  0.00     0.279 HD
ATOM     43  H8  UNL     1      -8.286  -0.048 -23.406  1.00  0.00     0.160 HD
ATOM     44  H6  UNL     1      -5.153   0.247 -22.183  1.00  0.00     0.164 HD
BRANCH  39  45
HETATM   45  C11 UNL     1      -7.498  -0.746 -21.519  1.00  0.00     0.319 C 
BRANCH  45  46
HETATM   46  O5  UNL     1      -8.128  -1.931 -21.192  1.00  0.00    -0.367 OA
ATOM     47  H5  UNL     1      -9.064  -1.923 -21.356  1.00  0.00     0.212 HD
ENDBRANCH  45  46
BRANCH  45  48
HETATM   48  C12 UNL     1      -7.995   0.335 -20.668  1.00  0.00     0.223 C 
HETATM   49  O6  UNL     1      -7.282   1.369 -20.535  1.00  0.00    -0.645 OA
HETATM   50  O7  UNL     1      -9.194   0.326 -19.987  1.00  0.00    -0.645 OA
ENDBRANCH  45  48
ENDBRANCH  39  45
ENDBRANCH   4  36
TORSDOF 12
ENDMDL
