MODEL 1
REMARK VINA RESULT: -6.329655429      0.000      0.000
REMARK  16 active torsions:
REMARK  status: ('A' for Active; 'I' for Inactive)
REMARK    1  A    between atoms: C2_2  and  O1_3 
REMARK    2  A    between atoms: C4_6  and  O2_7 
REMARK    3  A    between atoms: O2_7  and  C5_8 
REMARK    4  A    between atoms: C6_9  and  O3_10 
REMARK    5  A    between atoms: C7_12  and  N1_13 
REMARK    6  A    between atoms: C9_18  and  N2_19 
REMARK    7  A    between atoms: C10_23  and  O4_24 
REMARK    8  A    between atoms: O4_24  and  C11_25 
REMARK    9  A    between atoms: C11_25  and  C12_26 
REMARK   10  A    between atoms: C12_26  and  O5_27 
REMARK   11  A    between atoms: C12_26  and  C13_29 
REMARK   12  A    between atoms: C13_29  and  C14_30 
REMARK   13  A    between atoms: C14_30  and  O6_31 
REMARK   14  A    between atoms: C17_41  and  N5_42 
REMARK   15  A    between atoms: N5_42  and  O7_43 
REMARK   16  A    between atoms: C18_45  and  O8_47 
ROOT
HETATM    1  C1  UNL     1      -0.987  -0.825 -22.814  1.00  0.00     0.054 C 
HETATM    2  C2  UNL     1      -0.522  -0.265 -24.139  1.00  0.00     0.114 C 
HETATM    3  C3  UNL     1      -0.293  -1.362 -25.076  1.00  0.00     0.052 C 
HETATM    4  C4  UNL     1      -1.123  -2.076 -25.862  1.00  0.00     0.098 C 
HETATM    5  C15 UNL     1      -2.556  -1.850 -25.919  1.00  0.00     0.129 C 
HETATM    6  N3  UNL     1      -3.202  -2.754 -26.564  1.00  0.00    -0.394 N 
ATOM      7  H31 UNL     1      -4.209  -2.595 -26.604  1.00  0.00     0.156 HD
ATOM      8  H32 UNL     1      -2.610  -3.494 -26.943  1.00  0.00     0.156 HD
HETATM    9  C16 UNL     1      -3.414  -0.775 -25.369  1.00  0.00     0.391 C 
HETATM   10  N4  UNL     1      -4.290  -0.207 -26.373  1.00  0.00     0.015 N 
ATOM     11  H41 UNL     1      -4.638  -0.867 -27.068  1.00  0.00     0.286 HD
ATOM     12  H42 UNL     1      -3.835   0.408 -27.047  1.00  0.00     0.286 HD
HETATM   13  C17 UNL     1      -5.309   0.421 -25.553  1.00  0.00     0.372 C 
HETATM   14  C18 UNL     1      -5.374  -0.528 -24.374  1.00  0.00     0.209 C 
HETATM   15  C19 UNL     1      -6.727  -1.191 -24.371  1.00  0.00     0.083 C 
HETATM   16  O9  UNL     1      -4.386  -1.484 -24.601  1.00  0.00    -0.288 OA
HETATM   17  O10 UNL     1      -2.853   0.106 -24.534  1.00  0.00    -0.304 OA
HETATM   18  C20 UNL     1      -1.629   0.621 -24.728  1.00  0.00     0.271 C 
HETATM   19  C21 UNL     1      -1.281   1.063 -26.047  1.00  0.00     0.095 C 
HETATM   20  N6  UNL     1      -0.988   1.434 -27.097  1.00  0.00    -0.194 NA
ENDROOT
BRANCH   2  21
HETATM   21  O1  UNL     1       0.633   0.484 -24.017  1.00  0.00    -0.382 OA
ATOM     22  H1  UNL     1       1.348   0.133 -24.533  1.00  0.00     0.211 HD
ENDBRANCH   2  21
BRANCH   4  23
HETATM   23  O2  UNL     1      -0.506  -3.002 -26.575  1.00  0.00    -0.339 OA
BRANCH  23  24
HETATM   24  C5  UNL     1       0.368  -4.031 -26.414  1.00  0.00     0.190 C 
HETATM   25  C6  UNL     1      -0.205  -5.405 -26.326  1.00  0.00     0.180 C 
HETATM   26  C7  UNL     1       0.470  -6.430 -27.199  1.00  0.00     0.216 C 
HETATM   27  C8  UNL     1       0.568  -6.013 -28.637  1.00  0.00     0.071 C 
HETATM   28  C9  UNL     1       0.837  -4.554 -28.819  1.00  0.00     0.217 C 
HETATM   29  C10 UNL     1       1.457  -4.034 -27.532  1.00  0.00     0.183 C 
BRANCH  25  30
HETATM   30  O3  UNL     1      -1.602  -5.426 -26.554  1.00  0.00    -0.391 OA
ATOM     31  H3  UNL     1      -1.821  -5.613 -27.460  1.00  0.00     0.210 HD
ENDBRANCH  25  30
BRANCH  26  32
HETATM   32  N1  UNL     1      -0.391  -7.623 -27.170  1.00  0.00    -0.072 N 
ATOM     33  H13 UNL     1      -0.518  -8.009 -26.235  1.00  0.00     0.274 HD
ATOM     34  H12 UNL     1      -1.373  -7.420 -27.356  1.00  0.00     0.274 HD
ATOM     35  H11 UNL     1       0.019  -8.285 -27.829  1.00  0.00     0.274 HD
ENDBRANCH  26  32
BRANCH  28  36
HETATM   36  N2  UNL     1      -0.359  -3.889 -29.199  1.00  0.00    -0.072 N 
ATOM     37  H23 UNL     1      -0.267  -3.417 -30.100  1.00  0.00     0.274 HD
ATOM     38  H22 UNL     1      -1.099  -4.544 -29.452  1.00  0.00     0.274 HD
ATOM     39  H21 UNL     1      -0.649  -3.249 -28.460  1.00  0.00     0.274 HD
ENDBRANCH  28  36
BRANCH  29  40
HETATM   40  O4  UNL     1       2.124  -2.919 -27.616  1.00  0.00    -0.379 OA
BRANCH  40  41
HETATM   41  C11 UNL     1       3.225  -2.461 -27.096  1.00  0.00     0.200 C 
BRANCH  41  42
HETATM   42  C12 UNL     1       3.396  -2.325 -25.613  1.00  0.00     0.144 C 
BRANCH  42  43
HETATM   43  O5  UNL     1       4.612  -3.045 -25.334  1.00  0.00    -0.393 OA
ATOM     44  H5  UNL     1       4.831  -2.791 -24.446  1.00  0.00     0.210 HD
ENDBRANCH  42  43
BRANCH  42  45
HETATM   45  C13 UNL     1       3.511  -0.956 -25.053  1.00  0.00     0.060 C 
BRANCH  45  46
HETATM   46  C14 UNL     1       4.597  -0.185 -25.765  1.00  0.00     0.166 C 
BRANCH  46  47
HETATM   47  O6  UNL     1       5.461   0.387 -24.820  1.00  0.00    -0.401 OA
ATOM     48  H6  UNL     1       6.076   0.961 -25.260  1.00  0.00     0.209 HD
ENDBRANCH  46  47
ENDBRANCH  45  46
ENDBRANCH  42  45
ENDBRANCH  41  42
ENDBRANCH  40  41
ENDBRANCH  29  40
ENDBRANCH  23  24
ENDBRANCH   4  23
BRANCH  13  49
HETATM   49  N5  UNL     1      -4.908   1.742 -25.176  1.00  0.00    -0.064 NA
BRANCH  49  50
HETATM   50  O7  UNL     1      -5.912   2.538 -24.819  1.00  0.00    -0.294 OA
ATOM     51  H7  UNL     1      -6.709   2.411 -25.319  1.00  0.00     0.238 HD
ENDBRANCH  49  50
ENDBRANCH  13  49
BRANCH  14  52
HETATM   52  O8  UNL     1      -5.097   0.105 -23.169  1.00  0.00    -0.363 OA
ATOM     53  H8  UNL     1      -5.751   0.756 -22.942  1.00  0.00     0.213 HD
ENDBRANCH  14  52
TORSDOF 16
ENDMDL
MODEL 2
REMARK VINA RESULT: -6.295397719      1.061      1.223
REMARK  16 active torsions:
REMARK  status: ('A' for Active; 'I' for Inactive)
REMARK    1  A    between atoms: C2_2  and  O1_3 
REMARK    2  A    between atoms: C4_6  and  O2_7 
REMARK    3  A    between atoms: O2_7  and  C5_8 
REMARK    4  A    between atoms: C6_9  and  O3_10 
REMARK    5  A    between atoms: C7_12  and  N1_13 
REMARK    6  A    between atoms: C9_18  and  N2_19 
REMARK    7  A    between atoms: C10_23  and  O4_24 
REMARK    8  A    between atoms: O4_24  and  C11_25 
REMARK    9  A    between atoms: C11_25  and  C12_26 
REMARK   10  A    between atoms: C12_26  and  O5_27 
REMARK   11  A    between atoms: C12_26  and  C13_29 
REMARK   12  A    between atoms: C13_29  and  C14_30 
REMARK   13  A    between atoms: C14_30  and  O6_31 
REMARK   14  A    between atoms: C17_41  and  N5_42 
REMARK   15  A    between atoms: N5_42  and  O7_43 
REMARK   16  A    between atoms: C18_45  and  O8_47 
ROOT
HETATM    1  C1  UNL     1      -1.192  -0.935 -22.735  1.00  0.00     0.054 C 
HETATM    2  C2  UNL     1      -0.454  -0.510 -23.984  1.00  0.00     0.114 C 
HETATM    3  C3  UNL     1      -0.242  -1.674 -24.841  1.00  0.00     0.052 C 
HETATM    4  C4  UNL     1      -1.034  -2.306 -25.730  1.00  0.00     0.098 C 
HETATM    5  C15 UNL     1      -2.394  -1.890 -26.021  1.00  0.00     0.129 C 
HETATM    6  N3  UNL     1      -3.055  -2.728 -26.735  1.00  0.00    -0.394 N 
ATOM      7  H31 UNL     1      -4.011  -2.436 -26.940  1.00  0.00     0.156 HD
ATOM      8  H32 UNL     1      -2.524  -3.560 -26.994  1.00  0.00     0.156 HD
HETATM    9  C16 UNL     1      -3.165  -0.682 -25.645  1.00  0.00     0.391 C 
HETATM   10  N4  UNL     1      -3.786  -0.051 -26.791  1.00  0.00     0.015 N 
ATOM     11  H41 UNL     1      -4.113  -0.691 -27.514  1.00  0.00     0.286 HD
ATOM     12  H42 UNL     1      -3.150   0.462 -27.401  1.00  0.00     0.286 HD
HETATM   13  C17 UNL     1      -4.819   0.751 -26.162  1.00  0.00     0.372 C 
HETATM   14  C18 UNL     1      -5.199  -0.120 -24.982  1.00  0.00     0.209 C 
HETATM   15  C19 UNL     1      -6.617  -0.592 -25.176  1.00  0.00     0.083 C 
HETATM   16  O9  UNL     1      -4.334  -1.212 -25.022  1.00  0.00    -0.288 OA
HETATM   17  O10 UNL     1      -2.619   0.155 -24.756  1.00  0.00    -0.304 OA
HETATM   18  C20 UNL     1      -1.319   0.488 -24.766  1.00  0.00     0.271 C 
HETATM   19  C21 UNL     1      -0.712   0.812 -26.025  1.00  0.00     0.095 C 
HETATM   20  N6  UNL     1      -0.212   1.086 -27.024  1.00  0.00    -0.194 NA
ENDROOT
BRANCH   2  21
HETATM   21  O1  UNL     1       0.763   0.080 -23.701  1.00  0.00    -0.382 OA
ATOM     22  H1  UNL     1       0.673   0.855 -23.159  1.00  0.00     0.211 HD
ENDBRANCH   2  21
BRANCH   4  23
HETATM   23  O2  UNL     1      -0.454  -3.341 -26.309  1.00  0.00    -0.339 OA
BRANCH  23  24
HETATM   24  C5  UNL     1      -0.079  -4.619 -26.029  1.00  0.00     0.190 C 
HETATM   25  C6  UNL     1      -0.887  -5.715 -26.637  1.00  0.00     0.180 C 
HETATM   26  C7  UNL     1      -0.082  -6.803 -27.298  1.00  0.00     0.216 C 
HETATM   27  C8  UNL     1       0.905  -6.284 -28.302  1.00  0.00     0.071 C 
HETATM   28  C9  UNL     1       1.544  -4.994 -27.900  1.00  0.00     0.217 C 
HETATM   29  C10 UNL     1       1.419  -4.867 -26.390  1.00  0.00     0.183 C 
BRANCH  25  30
HETATM   30  O3  UNL     1      -1.869  -5.232 -27.535  1.00  0.00    -0.391 OA
ATOM     31  H3  UNL     1      -2.751  -5.473 -27.275  1.00  0.00     0.210 HD
ENDBRANCH  25  30
BRANCH  26  32
HETATM   32  N1  UNL     1      -1.044  -7.625 -28.048  1.00  0.00    -0.072 N 
ATOM     33  H13 UNL     1      -1.380  -8.434 -27.526  1.00  0.00     0.274 HD
ATOM     34  H12 UNL     1      -1.950  -7.175 -28.177  1.00  0.00     0.274 HD
ATOM     35  H11 UNL     1      -0.585  -7.872 -28.925  1.00  0.00     0.274 HD
ENDBRANCH  26  32
BRANCH  28  36
HETATM   36  N2  UNL     1       0.959  -3.921 -28.626  1.00  0.00    -0.072 N 
ATOM     37  H23 UNL     1       0.076  -3.615 -28.214  1.00  0.00     0.274 HD
ATOM     38  H22 UNL     1       1.482  -3.053 -28.516  1.00  0.00     0.274 HD
ATOM     39  H21 UNL     1       0.854  -4.185 -29.606  1.00  0.00     0.274 HD
ENDBRANCH  28  36
BRANCH  29  40
HETATM   40  O4  UNL     1       2.242  -4.043 -25.806  1.00  0.00    -0.379 OA
BRANCH  40  41
HETATM   41  C11 UNL     1       3.535  -3.915 -25.755  1.00  0.00     0.200 C 
BRANCH  41  42
HETATM   42  C12 UNL     1       4.186  -2.570 -25.624  1.00  0.00     0.144 C 
BRANCH  42  43
HETATM   43  O5  UNL     1       4.854  -2.381 -26.886  1.00  0.00    -0.393 OA
ATOM     44  H5  UNL     1       4.279  -1.796 -27.365  1.00  0.00     0.210 HD
ENDBRANCH  42  43
BRANCH  42  45
HETATM   45  C13 UNL     1       3.311  -1.400 -25.365  1.00  0.00     0.060 C 
BRANCH  45  46
HETATM   46  C14 UNL     1       2.981  -0.692 -26.658  1.00  0.00     0.166 C 
BRANCH  46  47
HETATM   47  O6  UNL     1       1.947  -1.375 -27.314  1.00  0.00    -0.401 OA
ATOM     48  H6  UNL     1       2.215  -1.579 -28.202  1.00  0.00     0.209 HD
ENDBRANCH  46  47
ENDBRANCH  45  46
ENDBRANCH  42  45
ENDBRANCH  41  42
ENDBRANCH  40  41
ENDBRANCH  29  40
ENDBRANCH  23  24
ENDBRANCH   4  23
BRANCH  13  49
HETATM   49  N5  UNL     1      -4.296   2.022 -25.763  1.00  0.00    -0.064 NA
BRANCH  49  50
HETATM   50  O7  UNL     1      -5.194   2.834 -25.211  1.00  0.00    -0.294 OA
ATOM     51  H7  UNL     1      -4.979   3.757 -25.279  1.00  0.00     0.238 HD
ENDBRANCH  49  50
ENDBRANCH  13  49
BRANCH  14  52
HETATM   52  O8  UNL     1      -5.024   0.529 -23.766  1.00  0.00    -0.363 OA
ATOM     53  H8  UNL     1      -5.327   1.428 -23.788  1.00  0.00     0.213 HD
ENDBRANCH  14  52
TORSDOF 16
ENDMDL
MODEL 3
REMARK VINA RESULT: -6.254438735      2.376      4.537
REMARK  16 active torsions:
REMARK  status: ('A' for Active; 'I' for Inactive)
REMARK    1  A    between atoms: C2_2  and  O1_3 
REMARK    2  A    between atoms: C4_6  and  O2_7 
REMARK    3  A    between atoms: O2_7  and  C5_8 
REMARK    4  A    between atoms: C6_9  and  O3_10 
REMARK    5  A    between atoms: C7_12  and  N1_13 
REMARK    6  A    between atoms: C9_18  and  N2_19 
REMARK    7  A    between atoms: C10_23  and  O4_24 
REMARK    8  A    between atoms: O4_24  and  C11_25 
REMARK    9  A    between atoms: C11_25  and  C12_26 
REMARK   10  A    between atoms: C12_26  and  O5_27 
REMARK   11  A    between atoms: C12_26  and  C13_29 
REMARK   12  A    between atoms: C13_29  and  C14_30 
REMARK   13  A    between atoms: C14_30  and  O6_31 
REMARK   14  A    between atoms: C17_41  and  N5_42 
REMARK   15  A    between atoms: N5_42  and  O7_43 
REMARK   16  A    between atoms: C18_45  and  O8_47 
ROOT
HETATM    1  C1  UNL     1       3.238  -0.695 -25.130  1.00  0.00     0.054 C 
HETATM    2  C2  UNL     1       2.725  -0.797 -26.548  1.00  0.00     0.114 C 
HETATM    3  C3  UNL     1       2.415  -2.192 -26.852  1.00  0.00     0.052 C 
HETATM    4  C4  UNL     1       1.342  -2.965 -26.588  1.00  0.00     0.098 C 
HETATM    5  C15 UNL     1       0.174  -2.487 -25.872  1.00  0.00     0.129 C 
HETATM    6  N3  UNL     1      -0.652  -3.414 -25.541  1.00  0.00    -0.394 N 
ATOM      7  H31 UNL     1      -1.473  -3.078 -25.037  1.00  0.00     0.156 HD
ATOM      8  H32 UNL     1      -0.363  -4.348 -25.834  1.00  0.00     0.156 HD
HETATM    9  C16 UNL     1      -0.245  -1.130 -25.448  1.00  0.00     0.391 C 
HETATM   10  N4  UNL     1      -1.601  -0.825 -25.854  1.00  0.00     0.015 N 
ATOM     11  H41 UNL     1      -2.247  -1.613 -25.838  1.00  0.00     0.286 HD
ATOM     12  H42 UNL     1      -1.722  -0.625 -26.847  1.00  0.00     0.286 HD
HETATM   13  C17 UNL     1      -1.937   0.267 -24.960  1.00  0.00     0.372 C 
HETATM   14  C18 UNL     1      -1.169  -0.119 -23.712  1.00  0.00     0.209 C 
HETATM   15  C19 UNL     1      -2.161  -0.434 -22.622  1.00  0.00     0.083 C 
HETATM   16  O9  UNL     1      -0.459  -1.271 -24.044  1.00  0.00    -0.288 OA
HETATM   17  O10 UNL     1       0.634  -0.132 -25.591  1.00  0.00    -0.304 OA
HETATM   18  C20 UNL     1       1.419   0.002 -26.671  1.00  0.00     0.271 C 
HETATM   19  C21 UNL     1       0.829  -0.180 -27.965  1.00  0.00     0.095 C 
HETATM   20  N6  UNL     1       0.370  -0.311 -29.012  1.00  0.00    -0.194 NA
ENDROOT
BRANCH   2  21
HETATM   21  O1  UNL     1       3.632  -0.316 -27.473  1.00  0.00    -0.382 OA
ATOM     22  H1  UNL     1       3.908   0.572 -27.280  1.00  0.00     0.211 HD
ENDBRANCH   2  21
BRANCH   4  23
HETATM   23  O2  UNL     1       1.458  -4.200 -27.044  1.00  0.00    -0.339 OA
BRANCH  23  24
HETATM   24  C5  UNL     1       2.130  -4.901 -27.996  1.00  0.00     0.190 C 
HETATM   25  C6  UNL     1       3.252  -5.769 -27.538  1.00  0.00     0.180 C 
HETATM   26  C7  UNL     1       3.240  -7.167 -28.099  1.00  0.00     0.216 C 
HETATM   27  C8  UNL     1       1.934  -7.877 -27.895  1.00  0.00     0.071 C 
HETATM   28  C9  UNL     1       0.742  -6.986 -28.032  1.00  0.00     0.217 C 
HETATM   29  C10 UNL     1       1.161  -5.775 -28.851  1.00  0.00     0.183 C 
BRANCH  25  30
HETATM   30  O3  UNL     1       3.360  -5.819 -26.128  1.00  0.00    -0.391 OA
ATOM     31  H3  UNL     1       3.156  -6.678 -25.777  1.00  0.00     0.210 HD
ENDBRANCH  25  30
BRANCH  26  32
HETATM   32  N1  UNL     1       4.247  -7.923 -27.337  1.00  0.00    -0.072 N 
ATOM     33  H13 UNL     1       5.076  -7.376 -27.108  1.00  0.00     0.274 HD
ATOM     34  H12 UNL     1       3.962  -8.125 -26.378  1.00  0.00     0.274 HD
ATOM     35  H11 UNL     1       4.450  -8.758 -27.885  1.00  0.00     0.274 HD
ENDBRANCH  26  32
BRANCH  28  36
HETATM   36  N2  UNL     1       0.229  -6.669 -26.745  1.00  0.00    -0.072 N 
ATOM     37  H23 UNL     1       0.457  -7.384 -26.054  1.00  0.00     0.274 HD
ATOM     38  H22 UNL     1       0.724  -5.887 -26.317  1.00  0.00     0.274 HD
ATOM     39  H21 UNL     1      -0.775  -6.501 -26.806  1.00  0.00     0.274 HD
ENDBRANCH  28  36
BRANCH  29  40
HETATM   40  O4  UNL     1       0.205  -5.097 -29.418  1.00  0.00    -0.379 OA
BRANCH  40  41
HETATM   41  C11 UNL     1      -1.047  -5.321 -29.691  1.00  0.00     0.200 C 
BRANCH  41  42
HETATM   42  C12 UNL     1      -2.150  -4.612 -28.962  1.00  0.00     0.144 C 
BRANCH  42  43
HETATM   43  O5  UNL     1      -2.119  -5.186 -27.641  1.00  0.00    -0.393 OA
ATOM     44  H5  UNL     1      -2.545  -4.534 -27.097  1.00  0.00     0.210 HD
ENDBRANCH  42  43
BRANCH  42  45
HETATM   45  C13 UNL     1      -2.064  -3.136 -28.845  1.00  0.00     0.060 C 
BRANCH  45  46
HETATM   46  C14 UNL     1      -3.368  -2.570 -28.337  1.00  0.00     0.166 C 
BRANCH  46  47
HETATM   47  O6  UNL     1      -3.505  -2.863 -26.972  1.00  0.00    -0.401 OA
ATOM     48  H6  UNL     1      -3.204  -2.124 -26.458  1.00  0.00     0.209 HD
ENDBRANCH  46  47
ENDBRANCH  45  46
ENDBRANCH  42  45
ENDBRANCH  41  42
ENDBRANCH  40  41
ENDBRANCH  29  40
ENDBRANCH  23  24
ENDBRANCH   4  23
BRANCH  13  49
HETATM   49  N5  UNL     1      -1.506   1.517 -25.507  1.00  0.00    -0.064 NA
BRANCH  49  50
HETATM   50  O7  UNL     1      -1.977   2.586 -24.870  1.00  0.00    -0.294 OA
ATOM     51  H7  UNL     1      -1.401   2.924 -24.194  1.00  0.00     0.238 HD
ENDBRANCH  49  50
ENDBRANCH  13  49
BRANCH  14  52
HETATM   52  O8  UNL     1      -0.259   0.857 -23.327  1.00  0.00    -0.363 OA
ATOM     53  H8  UNL     1       0.228   0.613 -22.549  1.00  0.00     0.213 HD
ENDBRANCH  14  52
TORSDOF 16
ENDMDL
MODEL 4
REMARK VINA RESULT: -6.248770614      1.469      1.578
REMARK  16 active torsions:
REMARK  status: ('A' for Active; 'I' for Inactive)
REMARK    1  A    between atoms: C2_2  and  O1_3 
REMARK    2  A    between atoms: C4_6  and  O2_7 
REMARK    3  A    between atoms: O2_7  and  C5_8 
REMARK    4  A    between atoms: C6_9  and  O3_10 
REMARK    5  A    between atoms: C7_12  and  N1_13 
REMARK    6  A    between atoms: C9_18  and  N2_19 
REMARK    7  A    between atoms: C10_23  and  O4_24 
REMARK    8  A    between atoms: O4_24  and  C11_25 
REMARK    9  A    between atoms: C11_25  and  C12_26 
REMARK   10  A    between atoms: C12_26  and  O5_27 
REMARK   11  A    between atoms: C12_26  and  C13_29 
REMARK   12  A    between atoms: C13_29  and  C14_30 
REMARK   13  A    between atoms: C14_30  and  O6_31 
REMARK   14  A    between atoms: C17_41  and  N5_42 
REMARK   15  A    between atoms: N5_42  and  O7_43 
REMARK   16  A    between atoms: C18_45  and  O8_47 
ROOT
HETATM    1  C1  UNL     1       0.177  -1.118 -23.326  1.00  0.00     0.054 C 
HETATM    2  C2  UNL     1       0.652  -0.859 -24.737  1.00  0.00     0.114 C 
HETATM    3  C3  UNL     1       0.468  -2.067 -25.539  1.00  0.00     0.052 C 
HETATM    4  C4  UNL     1      -0.603  -2.584 -26.175  1.00  0.00     0.098 C 
HETATM    5  C15 UNL     1      -1.911  -1.954 -26.171  1.00  0.00     0.129 C 
HETATM    6  N3  UNL     1      -2.846  -2.691 -26.654  1.00  0.00    -0.394 N 
ATOM      7  H31 UNL     1      -3.765  -2.249 -26.651  1.00  0.00     0.156 HD
ATOM      8  H32 UNL     1      -2.528  -3.607 -26.972  1.00  0.00     0.156 HD
HETATM    9  C16 UNL     1      -2.372  -0.624 -25.710  1.00  0.00     0.391 C 
HETATM   10  N4  UNL     1      -3.143   0.069 -26.722  1.00  0.00     0.015 N 
ATOM     11  H41 UNL     1      -3.729  -0.528 -27.304  1.00  0.00     0.286 HD
ATOM     12  H42 UNL     1      -2.599   0.450 -27.496  1.00  0.00     0.286 HD
HETATM   13  C17 UNL     1      -3.857   1.050 -25.927  1.00  0.00     0.372 C 
HETATM   14  C18 UNL     1      -4.075   0.290 -24.634  1.00  0.00     0.209 C 
HETATM   15  C19 UNL     1      -5.553   0.057 -24.463  1.00  0.00     0.083 C 
HETATM   16  O9  UNL     1      -3.426  -0.932 -24.799  1.00  0.00    -0.288 OA
HETATM   17  O10 UNL     1      -1.505   0.136 -25.031  1.00  0.00    -0.304 OA
HETATM   18  C20 UNL     1      -0.210   0.246 -25.365  1.00  0.00     0.271 C 
HETATM   19  C21 UNL     1       0.121   0.427 -26.748  1.00  0.00     0.095 C 
HETATM   20  N6  UNL     1       0.404   0.584 -27.853  1.00  0.00    -0.194 NA
ENDROOT
BRANCH   2  21
HETATM   21  O1  UNL     1       1.977  -0.473 -24.784  1.00  0.00    -0.382 OA
ATOM     22  H1  UNL     1       2.122   0.376 -24.384  1.00  0.00     0.211 HD
ENDBRANCH   2  21
BRANCH   4  23
HETATM   23  O2  UNL     1      -0.346  -3.718 -26.801  1.00  0.00    -0.339 OA
BRANCH  23  24
HETATM   24  C5  UNL     1       0.101  -4.976 -26.539  1.00  0.00     0.190 C 
HETATM   25  C6  UNL     1      -0.914  -6.067 -26.509  1.00  0.00     0.180 C 
HETATM   26  C7  UNL     1      -0.545  -7.297 -27.296  1.00  0.00     0.216 C 
HETATM   27  C8  UNL     1      -0.161  -7.000 -28.716  1.00  0.00     0.071 C 
HETATM   28  C9  UNL     1       0.609  -5.729 -28.873  1.00  0.00     0.217 C 
HETATM   29  C10 UNL     1       1.233  -5.397 -27.527  1.00  0.00     0.183 C 
BRANCH  25  30
HETATM   30  O3  UNL     1      -2.202  -5.622 -26.892  1.00  0.00    -0.391 OA
ATOM     31  H3  UNL     1      -2.170  -4.908 -27.519  1.00  0.00     0.210 HD
ENDBRANCH  25  30
BRANCH  26  32
HETATM   32  N1  UNL     1      -1.760  -8.124 -27.359  1.00  0.00    -0.072 N 
ATOM     33  H13 UNL     1      -1.691  -8.987 -26.820  1.00  0.00     0.274 HD
ATOM     34  H12 UNL     1      -2.550  -7.724 -26.853  1.00  0.00     0.274 HD
ATOM     35  H11 UNL     1      -1.948  -8.278 -28.349  1.00  0.00     0.274 HD
ENDBRANCH  26  32
BRANCH  28  36
HETATM   36  N2  UNL     1      -0.240  -4.713 -29.388  1.00  0.00    -0.072 N 
ATOM     37  H23 UNL     1       0.281  -3.879 -29.662  1.00  0.00     0.274 HD
ATOM     38  H22 UNL     1      -0.619  -4.957 -30.303  1.00  0.00     0.274 HD
ATOM     39  H21 UNL     1      -0.974  -4.502 -28.713  1.00  0.00     0.274 HD
ENDBRANCH  28  36
BRANCH  29  40
HETATM   40  O4  UNL     1       2.246  -4.579 -27.541  1.00  0.00    -0.379 OA
BRANCH  40  41
HETATM   41  C11 UNL     1       3.281  -4.380 -26.779  1.00  0.00     0.200 C 
BRANCH  41  42
HETATM   42  C12 UNL     1       3.779  -2.999 -26.473  1.00  0.00     0.144 C 
BRANCH  42  43
HETATM   43  O5  UNL     1       4.634  -3.182 -25.328  1.00  0.00    -0.393 OA
ATOM     44  H5  UNL     1       5.436  -3.534 -25.694  1.00  0.00     0.210 HD
ENDBRANCH  42  43
BRANCH  42  45
HETATM   45  C13 UNL     1       4.540  -2.288 -27.530  1.00  0.00     0.060 C 
BRANCH  45  46
HETATM   46  C14 UNL     1       3.693  -1.203 -28.150  1.00  0.00     0.166 C 
BRANCH  46  47
HETATM   47  O6  UNL     1       3.507  -0.168 -27.223  1.00  0.00    -0.401 OA
ATOM     48  H6  UNL     1       2.582  -0.082 -27.026  1.00  0.00     0.209 HD
ENDBRANCH  46  47
ENDBRANCH  45  46
ENDBRANCH  42  45
ENDBRANCH  41  42
ENDBRANCH  40  41
ENDBRANCH  29  40
ENDBRANCH  23  24
ENDBRANCH   4  23
BRANCH  13  49
HETATM   49  N5  UNL     1      -3.063   2.227 -25.747  1.00  0.00    -0.064 NA
BRANCH  49  50
HETATM   50  O7  UNL     1      -3.672   3.202 -25.079  1.00  0.00    -0.294 OA
ATOM     51  H7  UNL     1      -4.618   3.204 -25.166  1.00  0.00     0.238 HD
ENDBRANCH  49  50
ENDBRANCH  13  49
BRANCH  14  52
HETATM   52  O8  UNL     1      -3.514   0.936 -23.540  1.00  0.00    -0.363 OA
ATOM     53  H8  UNL     1      -3.684   0.480 -22.724  1.00  0.00     0.213 HD
ENDBRANCH  14  52
TORSDOF 16
ENDMDL
MODEL 5
REMARK VINA RESULT: -6.180433985      2.536      7.112
REMARK  16 active torsions:
REMARK  status: ('A' for Active; 'I' for Inactive)
REMARK    1  A    between atoms: C2_2  and  O1_3 
REMARK    2  A    between atoms: C4_6  and  O2_7 
REMARK    3  A    between atoms: O2_7  and  C5_8 
REMARK    4  A    between atoms: C6_9  and  O3_10 
REMARK    5  A    between atoms: C7_12  and  N1_13 
REMARK    6  A    between atoms: C9_18  and  N2_19 
REMARK    7  A    between atoms: C10_23  and  O4_24 
REMARK    8  A    between atoms: O4_24  and  C11_25 
REMARK    9  A    between atoms: C11_25  and  C12_26 
REMARK   10  A    between atoms: C12_26  and  O5_27 
REMARK   11  A    between atoms: C12_26  and  C13_29 
REMARK   12  A    between atoms: C13_29  and  C14_30 
REMARK   13  A    between atoms: C14_30  and  O6_31 
REMARK   14  A    between atoms: C17_41  and  N5_42 
REMARK   15  A    between atoms: N5_42  and  O7_43 
REMARK   16  A    between atoms: C18_45  and  O8_47 
ROOT
HETATM    1  C1  UNL     1       0.748  -4.554 -25.407  1.00  0.00     0.054 C 
HETATM    2  C2  UNL     1       0.099  -3.985 -26.648  1.00  0.00     0.114 C 
HETATM    3  C3  UNL     1      -0.952  -3.048 -26.258  1.00  0.00     0.052 C 
HETATM    4  C4  UNL     1      -0.925  -1.753 -25.884  1.00  0.00     0.098 C 
HETATM    5  C15 UNL     1       0.298  -0.977 -25.793  1.00  0.00     0.129 C 
HETATM    6  N3  UNL     1       0.149   0.168 -25.229  1.00  0.00    -0.394 N 
ATOM      7  H31 UNL     1       1.008   0.714 -25.165  1.00  0.00     0.156 HD
ATOM      8  H32 UNL     1      -0.808   0.361 -24.932  1.00  0.00     0.156 HD
HETATM    9  C16 UNL     1       1.687  -1.257 -26.225  1.00  0.00     0.391 C 
HETATM   10  N4  UNL     1       2.240  -0.181 -27.021  1.00  0.00     0.015 N 
ATOM     11  H41 UNL     1       1.943   0.756 -26.749  1.00  0.00     0.286 HD
ATOM     12  H42 UNL     1       1.884  -0.119 -27.974  1.00  0.00     0.286 HD
HETATM   13  C17 UNL     1       3.664  -0.434 -26.909  1.00  0.00     0.372 C 
HETATM   14  C18 UNL     1       3.761  -0.994 -25.504  1.00  0.00     0.209 C 
HETATM   15  C19 UNL     1       4.545  -0.023 -24.658  1.00  0.00     0.083 C 
HETATM   16  O9  UNL     1       2.451  -1.070 -25.035  1.00  0.00    -0.288 OA
HETATM   17  O10 UNL     1       1.969  -2.492 -26.657  1.00  0.00    -0.304 OA
HETATM   18  C20 UNL     1       1.146  -3.197 -27.448  1.00  0.00     0.271 C 
HETATM   19  C21 UNL     1       0.539  -2.528 -28.562  1.00  0.00     0.095 C 
HETATM   20  N6  UNL     1       0.052  -2.010 -29.468  1.00  0.00    -0.194 NA
ENDROOT
BRANCH   2  21
HETATM   21  O1  UNL     1      -0.437  -4.966 -27.459  1.00  0.00    -0.382 OA
ATOM     22  H1  UNL     1      -0.831  -5.673 -26.961  1.00  0.00     0.211 HD
ENDBRANCH   2  21
BRANCH   4  23
HETATM   23  O2  UNL     1      -2.119  -1.260 -25.608  1.00  0.00    -0.339 OA
BRANCH  23  24
HETATM   24  C5  UNL     1      -3.216  -0.767 -26.243  1.00  0.00     0.190 C 
HETATM   25  C6  UNL     1      -4.535  -1.368 -25.892  1.00  0.00     0.180 C 
HETATM   26  C7  UNL     1      -5.627  -0.373 -25.603  1.00  0.00     0.216 C 
HETATM   27  C8  UNL     1      -5.244   0.646 -24.570  1.00  0.00     0.071 C 
HETATM   28  C9  UNL     1      -3.816   1.079 -24.660  1.00  0.00     0.217 C 
HETATM   29  C10 UNL     1      -3.329   0.779 -26.069  1.00  0.00     0.183 C 
BRANCH  25  30
HETATM   30  O3  UNL     1      -4.442  -2.300 -24.831  1.00  0.00    -0.391 OA
ATOM     31  H3  UNL     1      -5.090  -2.991 -24.895  1.00  0.00     0.210 HD
ENDBRANCH  25  30
BRANCH  26  32
HETATM   32  N1  UNL     1      -6.743  -1.143 -25.031  1.00  0.00    -0.072 N 
ATOM     33  H13 UNL     1      -7.236  -1.713 -25.718  1.00  0.00     0.274 HD
ATOM     34  H12 UNL     1      -6.441  -1.909 -24.428  1.00  0.00     0.274 HD
ATOM     35  H11 UNL     1      -7.343  -0.468 -24.559  1.00  0.00     0.274 HD
ENDBRANCH  26  32
BRANCH  28  36
HETATM   36  N2  UNL     1      -3.058   0.450 -23.635  1.00  0.00    -0.072 N 
ATOM     37  H23 UNL     1      -2.137   0.159 -23.963  1.00  0.00     0.274 HD
ATOM     38  H22 UNL     1      -2.758   1.111 -22.920  1.00  0.00     0.274 HD
ATOM     39  H21 UNL     1      -3.588  -0.328 -23.242  1.00  0.00     0.274 HD
ENDBRANCH  28  36
BRANCH  29  40
HETATM   40  O4  UNL     1      -2.276   1.430 -26.471  1.00  0.00    -0.379 OA
BRANCH  40  41
HETATM   41  C11 UNL     1      -2.052   2.624 -26.937  1.00  0.00     0.200 C 
BRANCH  41  42
HETATM   42  C12 UNL     1      -0.948   2.892 -27.916  1.00  0.00     0.144 C 
BRANCH  42  43
HETATM   43  O5  UNL     1      -0.139   1.700 -27.864  1.00  0.00    -0.393 OA
ATOM     44  H5  UNL     1       0.747   2.028 -27.770  1.00  0.00     0.210 HD
ENDBRANCH  42  43
BRANCH  42  45
HETATM   45  C13 UNL     1      -1.323   3.154 -29.327  1.00  0.00     0.060 C 
BRANCH  45  46
HETATM   46  C14 UNL     1      -0.580   4.356 -29.856  1.00  0.00     0.166 C 
BRANCH  46  47
HETATM   47  O6  UNL     1      -0.194   5.176 -28.785  1.00  0.00    -0.401 OA
ATOM     48  H6  UNL     1       0.653   4.896 -28.461  1.00  0.00     0.209 HD
ENDBRANCH  46  47
ENDBRANCH  45  46
ENDBRANCH  42  45
ENDBRANCH  41  42
ENDBRANCH  40  41
ENDBRANCH  29  40
ENDBRANCH  23  24
ENDBRANCH   4  23
BRANCH  13  49
HETATM   49  N5  UNL     1       4.089  -1.369 -27.905  1.00  0.00    -0.064 NA
BRANCH  49  50
HETATM   50  O7  UNL     1       3.641  -1.108 -29.130  1.00  0.00    -0.294 OA
ATOM     51  H7  UNL     1       3.650  -0.187 -29.361  1.00  0.00     0.238 HD
ENDBRANCH  49  50
ENDBRANCH  13  49
BRANCH  14  52
HETATM   52  O8  UNL     1       4.307  -2.271 -25.479  1.00  0.00    -0.363 OA
ATOM     53  H8  UNL     1       4.613  -2.518 -24.614  1.00  0.00     0.213 HD
ENDBRANCH  14  52
TORSDOF 16
ENDMDL
