MODEL 1
REMARK VINA RESULT: -7.034079804      0.000      0.000
REMARK  13 active torsions:
REMARK  status: ('A' for Active; 'I' for Inactive)
REMARK    1  A    between atoms: O1_2  and  N1_3 
REMARK    2  A    between atoms: C3_6  and  S1_7 
REMARK    3  A    between atoms: S1_7  and  C4_8 
REMARK    4  A    between atoms: C4_8  and  C5_9 
REMARK    5  A    between atoms: C6_12  and  N3_13 
REMARK    6  A    between atoms: C11_28  and  N10_29 
REMARK    7  A    between atoms: C12_34  and  N12_35 
REMARK    8  A    between atoms: C14_40  and  C15_41 
REMARK    9  A    between atoms: C15_41  and  O3_42 
REMARK   10  A    between atoms: C16_44  and  N13_45 
REMARK   11  A    between atoms: N13_45  and  C17_48 
REMARK   12  A    between atoms: C17_48  and  O4_49 
REMARK   13  A    between atoms: C17_48  and  O5_51 
ROOT
HETATM    1  C5  UNL     1      -0.888   0.438 -24.756  1.00  0.00     0.053 A 
HETATM    2  N2  UNL     1      -0.074  -0.667 -24.763  1.00  0.00    -0.193 N 
ATOM      3  H2  UNL     1      -0.059  -1.251 -23.928  1.00  0.00     0.184 HD
HETATM    4  C6  UNL     1       0.699  -1.029 -25.788  1.00  0.00     0.690 A 
HETATM    5  N8  UNL     1       0.651  -0.222 -26.891  1.00  0.00    -0.175 N 
ATOM      6  H8  UNL     1       1.227  -0.467 -27.696  1.00  0.00     0.186 HD
HETATM    7  C10 UNL     1      -0.112   0.872 -26.968  1.00  0.00     0.152 A 
HETATM    8  N9  UNL     1      -0.146   1.639 -28.081  1.00  0.00    -0.175 N 
ATOM      9  H9  UNL     1       0.433   1.390 -28.883  1.00  0.00     0.186 HD
HETATM   10  C11 UNL     1      -0.934   2.725 -28.141  1.00  0.00     0.679 A 
HETATM   11  N11 UNL     1      -1.711   3.095 -27.116  1.00  0.00    -0.176 N 
ATOM     12  H11 UNL     1      -2.298   3.925 -27.194  1.00  0.00     0.186 HD
HETATM   13  C12 UNL     1      -1.716   2.353 -25.957  1.00  0.00     0.130 A 
HETATM   14  C13 UNL     1      -0.913   1.240 -25.890  1.00  0.00     0.077 A 
ENDROOT
BRANCH   1  15
HETATM   15  C4  UNL     1      -1.721   0.816 -23.620  1.00  0.00     0.135 C 
BRANCH  15  16
HETATM   16  S1  UNL     1      -2.232  -0.769 -22.806  1.00  0.00    -0.125 SA
BRANCH  16  17
HETATM   17  C3  UNL     1      -3.619  -1.382 -23.658  1.00  0.00     0.233 C 
HETATM   18  C2  UNL     1      -4.988  -1.122 -23.120  1.00  0.00     0.082 C 
HETATM   19  N1  UNL     1      -5.389  -0.503 -22.176  1.00  0.00    -0.270 N 
HETATM   20  C16 UNL     1      -5.771  -1.828 -24.212  1.00  0.00     0.273 C 
ATOM     21  H1  UNL     1      -6.406  -0.593 -22.182  1.00  0.00     0.194 HD
HETATM   22  C14 UNL     1      -5.016  -1.241 -25.391  1.00  0.00     0.183 C 
HETATM   23  O2  UNL     1      -3.714  -0.947 -24.976  1.00  0.00    -0.360 OA
BRANCH  19  24
HETATM   24  O1  UNL     1      -5.091   0.234 -21.150  1.00  0.00    -0.285 OA
HETATM   25  C1  UNL     1      -5.542   0.158 -19.831  1.00  0.00     0.237 C 
ENDBRANCH  19  24
BRANCH  20  26
HETATM   26  N13 UNL     1      -7.151  -1.673 -24.192  1.00  0.00    -0.013 N 
ATOM     27 2H13 UNL     1      -7.402  -0.727 -23.903  1.00  0.00     0.284 HD
ATOM     28 1H13 UNL     1      -7.526  -1.666 -25.140  1.00  0.00     0.284 HD
BRANCH  26  29
HETATM   29  C17 UNL     1      -7.827  -2.644 -23.387  1.00  0.00     0.465 C 
BRANCH  29  30
HETATM   30  O4  UNL     1      -9.061  -3.009 -23.928  1.00  0.00    -0.350 OA
ATOM     31  H4  UNL     1      -9.626  -3.420 -23.284  1.00  0.00     0.214 HD
ENDBRANCH  29  30
BRANCH  29  32
HETATM   32  O5  UNL     1      -8.151  -2.096 -22.121  1.00  0.00    -0.350 OA
ATOM     33  H5  UNL     1      -9.067  -1.846 -22.093  1.00  0.00     0.214 HD
ENDBRANCH  29  32
ENDBRANCH  26  29
ENDBRANCH  20  26
BRANCH  22  34
HETATM   34  C15 UNL     1      -5.718  -0.033 -25.950  1.00  0.00     0.198 C 
BRANCH  34  35
HETATM   35  O3  UNL     1      -5.023   1.134 -25.776  1.00  0.00    -0.398 OA
ATOM     36  H3  UNL     1      -5.207   1.788 -26.441  1.00  0.00     0.209 HD
ENDBRANCH  34  35
ENDBRANCH  22  34
ENDBRANCH  16  17
ENDBRANCH  15  16
ENDBRANCH   1  15
BRANCH   4  37
HETATM   37  N3  UNL     1       1.565  -2.164 -25.835  1.00  0.00    -0.138 N 
HETATM   38  C7  UNL     1       0.962  -3.411 -26.264  1.00  0.00     0.276 A 
HETATM   39  N4  UNL     1       1.902  -4.493 -26.265  1.00  0.00    -0.347 N 
HETATM   40  C8  UNL     1       3.134  -4.439 -25.953  1.00  0.00     0.191 A 
ATOM     41  H4  UNL     1       1.544  -5.405 -26.547  1.00  0.00     0.163 HD
HETATM   42  N5  UNL     1       3.893  -5.641 -26.025  1.00  0.00    -0.063 NA
HETATM   43  N6  UNL     1       3.720  -3.205 -25.540  1.00  0.00    -0.304 N 
HETATM   44  C9  UNL     1       2.931  -2.154 -25.503  1.00  0.00     0.213 A 
ATOM     45  H6  UNL     1       4.706  -3.142 -25.286  1.00  0.00     0.171 HD
HETATM   46  N7  UNL     1       3.476  -0.906 -25.100  1.00  0.00    -0.062 NA
ENDBRANCH   4  37
BRANCH  13  47
HETATM   47  N12 UNL     1      -2.469   2.730 -24.994  1.00  0.00    -0.384 N 
ATOM     48 2H12 UNL     1      -3.462   2.503 -24.942  1.00  0.00     0.157 HD
ATOM     49 1H12 UNL     1      -2.058   3.285 -24.243  1.00  0.00     0.157 HD
ENDBRANCH  13  47
BRANCH  10  50
HETATM   50  N10 UNL     1      -0.924   3.419 -29.229  1.00  0.00    -0.234 N 
ATOM     51 2H10 UNL     1      -0.951   4.437 -29.186  1.00  0.00     0.174 HD
ATOM     52 1H10 UNL     1      -0.887   2.916 -30.115  1.00  0.00     0.174 HD
ENDBRANCH  10  50
TORSDOF 13
ENDMDL
MODEL 2
REMARK VINA RESULT: -6.998164135      4.937      9.468
REMARK  13 active torsions:
REMARK  status: ('A' for Active; 'I' for Inactive)
REMARK    1  A    between atoms: O1_2  and  N1_3 
REMARK    2  A    between atoms: C3_6  and  S1_7 
REMARK    3  A    between atoms: S1_7  and  C4_8 
REMARK    4  A    between atoms: C4_8  and  C5_9 
REMARK    5  A    between atoms: C6_12  and  N3_13 
REMARK    6  A    between atoms: C11_28  and  N10_29 
REMARK    7  A    between atoms: C12_34  and  N12_35 
REMARK    8  A    between atoms: C14_40  and  C15_41 
REMARK    9  A    between atoms: C15_41  and  O3_42 
REMARK   10  A    between atoms: C16_44  and  N13_45 
REMARK   11  A    between atoms: N13_45  and  C17_48 
REMARK   12  A    between atoms: C17_48  and  O4_49 
REMARK   13  A    between atoms: C17_48  and  O5_51 
ROOT
HETATM    1  C5  UNL     1       0.810  -3.097 -25.531  1.00  0.00     0.053 A 
HETATM    2  N2  UNL     1      -0.421  -2.507 -25.388  1.00  0.00    -0.193 N 
ATOM      3  H2  UNL     1      -1.246  -3.092 -25.517  1.00  0.00     0.184 HD
HETATM    4  C6  UNL     1      -0.614  -1.221 -25.092  1.00  0.00     0.690 A 
HETATM    5  N8  UNL     1       0.517  -0.468 -24.927  1.00  0.00    -0.175 N 
ATOM      6  H8  UNL     1       0.410   0.520 -24.698  1.00  0.00     0.186 HD
HETATM    7  C10 UNL     1       1.752  -0.961 -25.049  1.00  0.00     0.152 A 
HETATM    8  N9  UNL     1       2.847  -0.190 -24.862  1.00  0.00    -0.175 N 
ATOM      9  H9  UNL     1       2.736   0.798 -24.634  1.00  0.00     0.186 HD
HETATM   10  C11 UNL     1       4.080  -0.712 -24.973  1.00  0.00     0.679 A 
HETATM   11  N11 UNL     1       4.279  -2.001 -25.270  1.00  0.00    -0.176 N 
ATOM     12  H11 UNL     1       5.228  -2.367 -25.347  1.00  0.00     0.186 HD
HETATM   13  C12 UNL     1       3.202  -2.834 -25.472  1.00  0.00     0.130 A 
HETATM   14  C13 UNL     1       1.938  -2.305 -25.358  1.00  0.00     0.077 A 
ENDROOT
BRANCH   1  15
HETATM   15  C4  UNL     1       0.994  -4.506 -25.859  1.00  0.00     0.135 C 
BRANCH  15  16
HETATM   16  S1  UNL     1       0.495  -4.691 -27.635  1.00  0.00    -0.125 SA
BRANCH  16  17
HETATM   17  C3  UNL     1       1.420  -6.000 -28.313  1.00  0.00     0.233 C 
HETATM   18  C2  UNL     1       2.744  -5.718 -28.942  1.00  0.00     0.082 C 
HETATM   19  N1  UNL     1       3.392  -4.718 -29.065  1.00  0.00    -0.270 N 
HETATM   20  C16 UNL     1       3.093  -7.144 -29.324  1.00  0.00     0.273 C 
ATOM     21  H1  UNL     1       4.240  -4.982 -29.567  1.00  0.00     0.194 HD
HETATM   22  C14 UNL     1       2.715  -7.789 -28.002  1.00  0.00     0.183 C 
HETATM   23  O2  UNL     1       1.713  -7.016 -27.409  1.00  0.00    -0.360 OA
BRANCH  19  24
HETATM   24  O1  UNL     1       3.482  -3.443 -28.835  1.00  0.00    -0.285 OA
HETATM   25  C1  UNL     1       4.572  -2.582 -28.977  1.00  0.00     0.237 C 
ENDBRANCH  19  24
BRANCH  20  26
HETATM   26  N13 UNL     1       4.378  -7.367 -29.801  1.00  0.00    -0.013 N 
ATOM     27 2H13 UNL     1       4.827  -6.485 -30.052  1.00  0.00     0.284 HD
ATOM     28 1H13 UNL     1       4.997  -7.664 -29.046  1.00  0.00     0.284 HD
BRANCH  26  29
HETATM   29  C17 UNL     1       4.434  -8.291 -30.893  1.00  0.00     0.465 C 
BRANCH  29  30
HETATM   30  O4  UNL     1       3.794  -9.495 -30.596  1.00  0.00    -0.350 OA
ATOM     31  H4  UNL     1       3.760 -10.077 -31.346  1.00  0.00     0.214 HD
ENDBRANCH  29  30
BRANCH  29  32
HETATM   32  O5  UNL     1       5.775  -8.665 -31.155  1.00  0.00    -0.350 OA
ATOM     33  H5  UNL     1       5.826  -9.175 -31.955  1.00  0.00     0.214 HD
ENDBRANCH  29  32
ENDBRANCH  26  29
ENDBRANCH  20  26
BRANCH  22  34
HETATM   34  C15 UNL     1       3.911  -7.952 -27.105  1.00  0.00     0.198 C 
BRANCH  34  35
HETATM   35  O3  UNL     1       3.938  -7.066 -26.061  1.00  0.00    -0.398 OA
ATOM     36  H3  UNL     1       3.797  -7.473 -25.214  1.00  0.00     0.209 HD
ENDBRANCH  34  35
ENDBRANCH  22  34
ENDBRANCH  16  17
ENDBRANCH  15  16
ENDBRANCH   1  15
BRANCH   4  37
HETATM   37  N3  UNL     1      -1.874  -0.566 -24.943  1.00  0.00    -0.138 N 
HETATM   38  C7  UNL     1      -2.612  -0.314 -26.165  1.00  0.00     0.276 A 
HETATM   39  N4  UNL     1      -3.852   0.359 -25.918  1.00  0.00    -0.347 N 
HETATM   40  C8  UNL     1      -4.322   0.711 -24.790  1.00  0.00     0.191 A 
ATOM     41  H4  UNL     1      -4.421   0.579 -26.736  1.00  0.00     0.163 HD
HETATM   42  N5  UNL     1      -5.583   1.371 -24.769  1.00  0.00    -0.063 NA
HETATM   43  N6  UNL     1      -3.593   0.451 -23.591  1.00  0.00    -0.304 N 
HETATM   44  C9  UNL     1      -2.435  -0.160 -23.720  1.00  0.00     0.213 A 
ATOM     45  H6  UNL     1      -3.952   0.725 -22.678  1.00  0.00     0.171 HD
HETATM   46  N7  UNL     1      -1.679  -0.441 -22.551  1.00  0.00    -0.062 NA
ENDBRANCH   4  37
BRANCH  13  47
HETATM   47  N12 UNL     1       3.423  -4.062 -25.754  1.00  0.00    -0.384 N 
ATOM     48 2H12 UNL     1       4.263  -4.380 -26.237  1.00  0.00     0.157 HD
ATOM     49 1H12 UNL     1       2.725  -4.757 -25.486  1.00  0.00     0.157 HD
ENDBRANCH  13  47
BRANCH  10  50
HETATM   50  N10 UNL     1       5.087   0.072 -24.785  1.00  0.00    -0.234 N 
ATOM     51 2H10 UNL     1       5.961  -0.090 -25.285  1.00  0.00     0.174 HD
ATOM     52 1H10 UNL     1       4.974   0.846 -24.130  1.00  0.00     0.174 HD
ENDBRANCH  10  50
TORSDOF 13
ENDMDL
MODEL 3
REMARK VINA RESULT: -6.982382622      2.465      4.218
REMARK  13 active torsions:
REMARK  status: ('A' for Active; 'I' for Inactive)
REMARK    1  A    between atoms: O1_2  and  N1_3 
REMARK    2  A    between atoms: C3_6  and  S1_7 
REMARK    3  A    between atoms: S1_7  and  C4_8 
REMARK    4  A    between atoms: C4_8  and  C5_9 
REMARK    5  A    between atoms: C6_12  and  N3_13 
REMARK    6  A    between atoms: C11_28  and  N10_29 
REMARK    7  A    between atoms: C12_34  and  N12_35 
REMARK    8  A    between atoms: C14_40  and  C15_41 
REMARK    9  A    between atoms: C15_41  and  O3_42 
REMARK   10  A    between atoms: C16_44  and  N13_45 
REMARK   11  A    between atoms: N13_45  and  C17_48 
REMARK   12  A    between atoms: C17_48  and  O4_49 
REMARK   13  A    between atoms: C17_48  and  O5_51 
ROOT
HETATM    1  C5  UNL     1      -0.008  -1.935 -24.800  1.00  0.00     0.053 A 
HETATM    2  N2  UNL     1      -0.210  -3.143 -25.420  1.00  0.00    -0.193 N 
ATOM      3  H2  UNL     1      -1.155  -3.526 -25.417  1.00  0.00     0.184 HD
HETATM    4  C6  UNL     1       0.744  -3.851 -26.026  1.00  0.00     0.690 A 
HETATM    5  N8  UNL     1       1.998  -3.305 -26.010  1.00  0.00    -0.175 N 
ATOM      6  H8  UNL     1       2.754  -3.816 -26.465  1.00  0.00     0.186 HD
HETATM    7  C10 UNL     1       2.283  -2.136 -25.430  1.00  0.00     0.152 A 
HETATM    8  N9  UNL     1       3.532  -1.619 -25.447  1.00  0.00    -0.175 N 
ATOM      9  H9  UNL     1       4.285  -2.134 -25.903  1.00  0.00     0.186 HD
HETATM   10  C11 UNL     1       3.791  -0.433 -24.872  1.00  0.00     0.679 A 
HETATM   11  N11 UNL     1       2.839   0.282 -24.262  1.00  0.00    -0.176 N 
ATOM     12  H11 UNL     1       3.068   1.179 -23.835  1.00  0.00     0.186 HD
HETATM   13  C12 UNL     1       1.549  -0.195 -24.212  1.00  0.00     0.130 A 
HETATM   14  C13 UNL     1       1.278  -1.408 -24.800  1.00  0.00     0.077 A 
ENDROOT
BRANCH   1  15
HETATM   15  C4  UNL     1      -1.068  -1.181 -24.141  1.00  0.00     0.135 C 
BRANCH  15  16
HETATM   16  S1  UNL     1      -2.627  -1.568 -25.066  1.00  0.00    -0.125 SA
BRANCH  16  17
HETATM   17  C3  UNL     1      -3.931  -1.610 -23.916  1.00  0.00     0.233 C 
HETATM   18  C2  UNL     1      -4.649  -0.347 -23.569  1.00  0.00     0.082 C 
HETATM   19  N1  UNL     1      -4.553   0.780 -23.963  1.00  0.00    -0.270 N 
HETATM   20  C16 UNL     1      -5.644  -0.944 -22.591  1.00  0.00     0.273 C 
ATOM     21  H1  UNL     1      -5.243   1.326 -23.447  1.00  0.00     0.194 HD
HETATM   22  C14 UNL     1      -6.044  -2.139 -23.438  1.00  0.00     0.183 C 
HETATM   23  O2  UNL     1      -4.965  -2.474 -24.261  1.00  0.00    -0.360 OA
BRANCH  19  24
HETATM   24  O1  UNL     1      -3.951   1.607 -24.762  1.00  0.00    -0.285 OA
HETATM   25  C1  UNL     1      -2.669   2.155 -24.685  1.00  0.00     0.237 C 
ENDBRANCH  19  24
BRANCH  20  26
HETATM   26  N13 UNL     1      -6.658  -0.108 -22.142  1.00  0.00    -0.013 N 
ATOM     27 2H13 UNL     1      -6.448   0.865 -22.367  1.00  0.00     0.284 HD
ATOM     28 1H13 UNL     1      -7.503  -0.233 -22.701  1.00  0.00     0.284 HD
BRANCH  26  29
HETATM   29  C17 UNL     1      -6.949  -0.253 -20.748  1.00  0.00     0.465 C 
BRANCH  29  30
HETATM   30  O4  UNL     1      -5.790  -0.374 -19.980  1.00  0.00    -0.350 OA
ATOM     31  H4  UNL     1      -5.853  -1.079 -19.347  1.00  0.00     0.214 HD
ENDBRANCH  29  30
BRANCH  29  32
HETATM   32  O5  UNL     1      -7.649  -1.462 -20.513  1.00  0.00    -0.350 OA
ATOM     33  H5  UNL     1      -8.482  -1.285 -20.093  1.00  0.00     0.214 HD
ENDBRANCH  29  32
ENDBRANCH  26  29
ENDBRANCH  20  26
BRANCH  22  34
HETATM   34  C15 UNL     1      -7.295  -1.862 -24.227  1.00  0.00     0.198 C 
BRANCH  34  35
HETATM   35  O3  UNL     1      -8.448  -2.080 -23.520  1.00  0.00    -0.398 OA
ATOM     36  H3  UNL     1      -9.232  -1.794 -23.974  1.00  0.00     0.209 HD
ENDBRANCH  34  35
ENDBRANCH  22  34
ENDBRANCH  16  17
ENDBRANCH  15  16
ENDBRANCH   1  15
BRANCH   4  37
HETATM   37  N3  UNL     1       0.579  -5.113 -26.674  1.00  0.00    -0.138 N 
HETATM   38  C7  UNL     1       1.785  -5.895 -26.866  1.00  0.00     0.276 A 
HETATM   39  N4  UNL     1       1.524  -7.135 -27.535  1.00  0.00    -0.347 N 
HETATM   40  C8  UNL     1       0.396  -7.569 -27.931  1.00  0.00     0.191 A 
ATOM     41  H4  UNL     1       2.330  -7.733 -27.714  1.00  0.00     0.163 HD
HETATM   42  N5  UNL     1       0.360  -8.837 -28.578  1.00  0.00    -0.063 NA
HETATM   43  N6  UNL     1      -0.786  -6.797 -27.729  1.00  0.00    -0.304 N 
HETATM   44  C9  UNL     1      -0.644  -5.637 -27.126  1.00  0.00     0.213 A 
ATOM     45  H6  UNL     1      -1.700  -7.129 -28.039  1.00  0.00     0.171 HD
HETATM   46  N7  UNL     1      -1.797  -4.839 -26.903  1.00  0.00    -0.062 NA
ENDBRANCH   4  37
BRANCH  13  47
HETATM   47  N12 UNL     1       0.659   0.509 -23.622  1.00  0.00    -0.384 N 
ATOM     48 2H12 UNL     1       0.184   1.294 -24.069  1.00  0.00     0.157 HD
ATOM     49 1H12 UNL     1       0.414   0.278 -22.659  1.00  0.00     0.157 HD
ENDBRANCH  13  47
BRANCH  10  50
HETATM   50  N10 UNL     1       5.002   0.009 -24.920  1.00  0.00    -0.234 N 
ATOM     51 2H10 UNL     1       5.765  -0.616 -25.179  1.00  0.00     0.174 HD
ATOM     52 1H10 UNL     1       5.161   0.990 -24.693  1.00  0.00     0.174 HD
ENDBRANCH  10  50
TORSDOF 13
ENDMDL
MODEL 4
REMARK VINA RESULT: -6.921439625      4.257      8.575
REMARK  13 active torsions:
REMARK  status: ('A' for Active; 'I' for Inactive)
REMARK    1  A    between atoms: O1_2  and  N1_3 
REMARK    2  A    between atoms: C3_6  and  S1_7 
REMARK    3  A    between atoms: S1_7  and  C4_8 
REMARK    4  A    between atoms: C4_8  and  C5_9 
REMARK    5  A    between atoms: C6_12  and  N3_13 
REMARK    6  A    between atoms: C11_28  and  N10_29 
REMARK    7  A    between atoms: C12_34  and  N12_35 
REMARK    8  A    between atoms: C14_40  and  C15_41 
REMARK    9  A    between atoms: C15_41  and  O3_42 
REMARK   10  A    between atoms: C16_44  and  N13_45 
REMARK   11  A    between atoms: N13_45  and  C17_48 
REMARK   12  A    between atoms: C17_48  and  O4_49 
REMARK   13  A    between atoms: C17_48  and  O5_51 
ROOT
HETATM    1  C5  UNL     1       0.804  -0.723 -27.242  1.00  0.00     0.053 A 
HETATM    2  N2  UNL     1      -0.361  -0.710 -26.516  1.00  0.00    -0.193 N 
ATOM      3  H2  UNL     1      -1.235  -0.862 -27.018  1.00  0.00     0.184 HD
HETATM    4  C6  UNL     1      -0.428  -0.514 -25.199  1.00  0.00     0.690 A 
HETATM    5  N8  UNL     1       0.765  -0.315 -24.559  1.00  0.00    -0.175 N 
ATOM      6  H8  UNL     1       0.754  -0.163 -23.551  1.00  0.00     0.186 HD
HETATM    7  C10 UNL     1       1.943  -0.311 -25.188  1.00  0.00     0.152 A 
HETATM    8  N9  UNL     1       3.105  -0.128 -24.521  1.00  0.00    -0.175 N 
ATOM      9  H9  UNL     1       3.089   0.025 -23.513  1.00  0.00     0.186 HD
HETATM   10  C11 UNL     1       4.279  -0.145 -25.172  1.00  0.00     0.679 A 
HETATM   11  N11 UNL     1       4.354  -0.340 -26.494  1.00  0.00    -0.176 N 
ATOM     12  H11 UNL     1       5.262  -0.348 -26.959  1.00  0.00     0.186 HD
HETATM   13  C12 UNL     1       3.204  -0.532 -27.225  1.00  0.00     0.130 A 
HETATM   14  C13 UNL     1       1.999  -0.517 -26.564  1.00  0.00     0.077 A 
ENDROOT
BRANCH   1  15
HETATM   15  C4  UNL     1       0.852  -0.937 -28.684  1.00  0.00     0.135 C 
BRANCH  15  16
HETATM   16  S1  UNL     1      -0.149  -2.462 -29.012  1.00  0.00    -0.125 SA
BRANCH  16  17
HETATM   17  C3  UNL     1       0.689  -3.811 -28.302  1.00  0.00     0.233 C 
HETATM   18  C2  UNL     1       2.001  -4.245 -28.868  1.00  0.00     0.082 C 
HETATM   19  N1  UNL     1       2.689  -3.817 -29.751  1.00  0.00    -0.270 N 
HETATM   20  C16 UNL     1       2.271  -5.384 -27.903  1.00  0.00     0.273 C 
ATOM     21  H1  UNL     1       3.505  -4.427 -29.803  1.00  0.00     0.194 HD
HETATM   22  C14 UNL     1       1.912  -4.638 -26.630  1.00  0.00     0.183 C 
HETATM   23  O2  UNL     1       0.968  -3.657 -26.948  1.00  0.00    -0.360 OA
BRANCH  19  24
HETATM   24  O1  UNL     1       2.846  -2.913 -30.670  1.00  0.00    -0.285 OA
HETATM   25  C1  UNL     1       3.947  -2.645 -31.484  1.00  0.00     0.237 C 
ENDBRANCH  19  24
BRANCH  20  26
HETATM   26  N13 UNL     1       3.526  -5.975 -27.968  1.00  0.00    -0.013 N 
ATOM     27 2H13 UNL     1       3.865  -5.994 -28.931  1.00  0.00     0.284 HD
ATOM     28 1H13 UNL     1       4.232  -5.368 -27.551  1.00  0.00     0.284 HD
BRANCH  26  29
HETATM   29  C17 UNL     1       3.576  -7.283 -27.388  1.00  0.00     0.465 C 
BRANCH  29  30
HETATM   30  O4  UNL     1       4.278  -7.296 -26.182  1.00  0.00    -0.350 OA
ATOM     31  H4  UNL     1       5.203  -7.471 -26.309  1.00  0.00     0.214 HD
ENDBRANCH  29  30
BRANCH  29  32
HETATM   32  O5  UNL     1       4.305  -8.165 -28.224  1.00  0.00    -0.350 OA
ATOM     33  H5  UNL     1       5.014  -8.570 -27.739  1.00  0.00     0.214 HD
ENDBRANCH  29  32
ENDBRANCH  26  29
ENDBRANCH  20  26
BRANCH  22  34
HETATM   34  C15 UNL     1       3.132  -4.059 -25.968  1.00  0.00     0.198 C 
BRANCH  34  35
HETATM   35  O3  UNL     1       3.994  -3.453 -26.842  1.00  0.00    -0.398 OA
ATOM     36  H3  UNL     1       4.904  -3.504 -26.575  1.00  0.00     0.209 HD
ENDBRANCH  34  35
ENDBRANCH  22  34
ENDBRANCH  16  17
ENDBRANCH  15  16
ENDBRANCH   1  15
BRANCH   4  37
HETATM   37  N3  UNL     1      -1.617  -0.484 -24.407  1.00  0.00    -0.138 N 
HETATM   38  C7  UNL     1      -1.645   0.489 -23.333  1.00  0.00     0.276 A 
HETATM   39  N4  UNL     1      -2.867   0.434 -22.586  1.00  0.00    -0.347 N 
HETATM   40  C8  UNL     1      -3.856  -0.338 -22.791  1.00  0.00     0.191 A 
ATOM     41  H4  UNL     1      -2.952   1.085 -21.806  1.00  0.00     0.163 HD
HETATM   42  N5  UNL     1      -4.981  -0.225 -21.926  1.00  0.00    -0.063 NA
HETATM   43  N6  UNL     1      -3.824  -1.286 -23.857  1.00  0.00    -0.304 N 
HETATM   44  C9  UNL     1      -2.736  -1.313 -24.596  1.00  0.00     0.213 A 
ATOM     45  H6  UNL     1      -4.607  -1.913 -24.037  1.00  0.00     0.171 HD
HETATM   46  N7  UNL     1      -2.664  -2.241 -25.669  1.00  0.00    -0.062 NA
ENDBRANCH   4  37
BRANCH  13  47
HETATM   47  N12 UNL     1       3.306  -0.717 -28.487  1.00  0.00    -0.384 N 
ATOM     48 2H12 UNL     1       4.011  -1.323 -28.906  1.00  0.00     0.157 HD
ATOM     49 1H12 UNL     1       2.652  -0.235 -29.105  1.00  0.00     0.157 HD
ENDBRANCH  13  47
BRANCH  10  50
HETATM   50  N10 UNL     1       5.355   0.037 -24.483  1.00  0.00    -0.234 N 
ATOM     51 2H10 UNL     1       6.250   0.161 -24.956  1.00  0.00     0.174 HD
ATOM     52 1H10 UNL     1       5.273   0.054 -23.467  1.00  0.00     0.174 HD
ENDBRANCH  10  50
TORSDOF 13
ENDMDL
MODEL 5
REMARK VINA RESULT: -6.848288003      1.548      2.720
REMARK  13 active torsions:
REMARK  status: ('A' for Active; 'I' for Inactive)
REMARK    1  A    between atoms: O1_2  and  N1_3 
REMARK    2  A    between atoms: C3_6  and  S1_7 
REMARK    3  A    between atoms: S1_7  and  C4_8 
REMARK    4  A    between atoms: C4_8  and  C5_9 
REMARK    5  A    between atoms: C6_12  and  N3_13 
REMARK    6  A    between atoms: C11_28  and  N10_29 
REMARK    7  A    between atoms: C12_34  and  N12_35 
REMARK    8  A    between atoms: C14_40  and  C15_41 
REMARK    9  A    between atoms: C15_41  and  O3_42 
REMARK   10  A    between atoms: C16_44  and  N13_45 
REMARK   11  A    between atoms: N13_45  and  C17_48 
REMARK   12  A    between atoms: C17_48  and  O4_49 
REMARK   13  A    between atoms: C17_48  and  O5_51 
ROOT
HETATM    1  C5  UNL     1      -0.577  -0.180 -24.329  1.00  0.00     0.053 A 
HETATM    2  N2  UNL     1       0.215  -1.296 -24.437  1.00  0.00    -0.193 N 
ATOM      3  H2  UNL     1       0.281  -1.911 -23.626  1.00  0.00     0.184 HD
HETATM    4  C6  UNL     1       0.905  -1.632 -25.527  1.00  0.00     0.690 A 
HETATM    5  N8  UNL     1       0.791  -0.783 -26.594  1.00  0.00    -0.175 N 
ATOM      6  H8  UNL     1       1.303  -1.007 -27.447  1.00  0.00     0.186 HD
HETATM    7  C10 UNL     1       0.044   0.324 -26.576  1.00  0.00     0.152 A 
HETATM    8  N9  UNL     1      -0.058   1.132 -27.655  1.00  0.00    -0.175 N 
ATOM      9  H9  UNL     1       0.456   0.904 -28.506  1.00  0.00     0.186 HD
HETATM   10  C11 UNL     1      -0.829   2.231 -27.618  1.00  0.00     0.679 A 
HETATM   11  N11 UNL     1      -1.522   2.574 -26.526  1.00  0.00    -0.176 N 
ATOM     12  H11 UNL     1      -2.100   3.415 -26.531  1.00  0.00     0.186 HD
HETATM   13  C12 UNL     1      -1.457   1.790 -25.397  1.00  0.00     0.130 A 
HETATM   14  C13 UNL     1      -0.670   0.663 -25.430  1.00  0.00     0.077 A 
ENDROOT
BRANCH   1  15
HETATM   15  C4  UNL     1      -1.319   0.167 -23.123  1.00  0.00     0.135 C 
BRANCH  15  16
HETATM   16  S1  UNL     1      -2.671  -1.091 -22.970  1.00  0.00    -0.125 SA
BRANCH  16  17
HETATM   17  C3  UNL     1      -4.192  -0.249 -23.041  1.00  0.00     0.233 C 
HETATM   18  C2  UNL     1      -5.117  -0.495 -24.187  1.00  0.00     0.082 C 
HETATM   19  N1  UNL     1      -5.069  -1.231 -25.131  1.00  0.00    -0.270 N 
HETATM   20  C16 UNL     1      -6.233   0.436 -23.748  1.00  0.00     0.273 C 
ATOM     21  H1  UNL     1      -5.920  -1.069 -25.669  1.00  0.00     0.194 HD
HETATM   22  C14 UNL     1      -6.278  -0.002 -22.295  1.00  0.00     0.183 C 
HETATM   23  O2  UNL     1      -5.006  -0.452 -21.932  1.00  0.00    -0.360 OA
BRANCH  19  24
HETATM   24  O1  UNL     1      -4.402  -2.147 -25.765  1.00  0.00    -0.285 OA
HETATM   25  C1  UNL     1      -3.279  -2.030 -26.587  1.00  0.00     0.237 C 
ENDBRANCH  19  24
BRANCH  20  26
HETATM   26  N13 UNL     1      -7.416   0.378 -24.473  1.00  0.00    -0.013 N 
ATOM     27 2H13 UNL     1      -7.258  -0.047 -25.387  1.00  0.00     0.284 HD
ATOM     28 1H13 UNL     1      -8.051  -0.312 -24.071  1.00  0.00     0.284 HD
BRANCH  26  29
HETATM   29  C17 UNL     1      -8.068   1.645 -24.610  1.00  0.00     0.465 C 
BRANCH  29  30
HETATM   30  O4  UNL     1      -7.200   2.712 -24.372  1.00  0.00    -0.350 OA
ATOM     31  H4  UNL     1      -7.603   3.551 -24.560  1.00  0.00     0.214 HD
ENDBRANCH  29  30
BRANCH  29  32
HETATM   32  O5  UNL     1      -9.075   1.791 -23.624  1.00  0.00    -0.350 OA
ATOM     33  H5  UNL     1      -9.805   2.293 -23.969  1.00  0.00     0.214 HD
ENDBRANCH  29  32
ENDBRANCH  26  29
ENDBRANCH  20  26
BRANCH  22  34
HETATM   34  C15 UNL     1      -7.336  -1.047 -22.066  1.00  0.00     0.198 C 
BRANCH  34  35
HETATM   35  O3  UNL     1      -8.572  -0.524 -21.791  1.00  0.00    -0.398 OA
ATOM     36  H3  UNL     1      -9.223  -0.718 -22.455  1.00  0.00     0.209 HD
ENDBRANCH  34  35
ENDBRANCH  22  34
ENDBRANCH  16  17
ENDBRANCH  15  16
ENDBRANCH   1  15
BRANCH   4  37
HETATM   37  N3  UNL     1       1.745  -2.777 -25.679  1.00  0.00    -0.138 N 
HETATM   38  C7  UNL     1       1.069  -4.052 -25.822  1.00  0.00     0.276 A 
HETATM   39  N4  UNL     1       1.991  -5.140 -25.952  1.00  0.00    -0.347 N 
HETATM   40  C8  UNL     1       3.261  -5.072 -25.963  1.00  0.00     0.191 A 
ATOM     41  H4  UNL     1       1.585  -6.071 -26.046  1.00  0.00     0.163 HD
HETATM   42  N5  UNL     1       3.993  -6.285 -26.105  1.00  0.00    -0.063 NA
HETATM   43  N6  UNL     1       3.918  -3.813 -25.831  1.00  0.00    -0.304 N 
HETATM   44  C9  UNL     1       3.150  -2.752 -25.700  1.00  0.00     0.213 A 
ATOM     45  H6  UNL     1       4.935  -3.737 -25.837  1.00  0.00     0.171 HD
HETATM   46  N7  UNL     1       3.764  -1.479 -25.568  1.00  0.00    -0.062 NA
ENDBRANCH   4  37
BRANCH  13  47
HETATM   47  N12 UNL     1      -2.131   2.142 -24.369  1.00  0.00    -0.384 N 
ATOM     48 2H12 UNL     1      -1.841   2.894 -23.743  1.00  0.00     0.157 HD
ATOM     49 1H12 UNL     1      -2.999   1.647 -24.162  1.00  0.00     0.157 HD
ENDBRANCH  13  47
BRANCH  10  50
HETATM   50  N10 UNL     1      -0.886   2.964 -28.678  1.00  0.00    -0.234 N 
ATOM     51 2H10 UNL     1      -0.210   2.830 -29.429  1.00  0.00     0.174 HD
ATOM     52 1H10 UNL     1      -1.622   3.668 -28.732  1.00  0.00     0.174 HD
ENDBRANCH  10  50
TORSDOF 13
ENDMDL
