MODEL 1
REMARK VINA RESULT: -6.836009414      0.000      0.000
REMARK  14 active torsions:
REMARK  status: ('A' for Active; 'I' for Inactive)
REMARK    1  A    between atoms: C4_6  and  N2_7 
REMARK    2  A    between atoms: N2_7  and  C5_9 
REMARK    3  A    between atoms: C6_12  and  C7_13 
REMARK    4  A    between atoms: C8_18  and  N6_19 
REMARK    5  A    between atoms: N6_19  and  N7_21 
REMARK    6  A    between atoms: N7_21  and  C9_23 
REMARK    7  A    between atoms: C10_26  and  N10_27 
REMARK    8  A    between atoms: N10_27  and  C11_29 
REMARK    9  A    between atoms: C12_30  and  C13_31 
REMARK   10  A    between atoms: C13_31  and  O3_32 
REMARK   11  A    between atoms: C13_31  and  O4_34 
REMARK   12  A    between atoms: C14_37  and  C15_38 
REMARK   13  A    between atoms: C15_38  and  O6_39 
REMARK   14  A    between atoms: C15_38  and  O7_41 
ROOT
HETATM    1  C5  UNL     1      -0.936  -0.421 -25.476  1.00  0.00     0.139 A 
HETATM    2  N3  UNL     1      -1.296   0.740 -26.034  1.00  0.00    -0.322 N 
ATOM      3  H3  UNL     1      -2.126   1.207 -25.667  1.00  0.00     0.169 HD
HETATM    4  C6  UNL     1      -0.630   1.344 -27.062  1.00  0.00     0.175 A 
HETATM    5  N5  UNL     1       0.454   0.745 -27.551  1.00  0.00    -0.321 N 
ATOM      6  H5  UNL     1       0.968   1.176 -28.319  1.00  0.00     0.169 HD
HETATM    7  C8  UNL     1       0.875  -0.425 -27.039  1.00  0.00     0.152 A 
HETATM    8  C10 UNL     1       0.222  -1.048 -26.007  1.00  0.00     0.123 A 
ENDROOT
BRANCH   8   9
HETATM    9  N10 UNL     1       0.664  -2.280 -25.463  1.00  0.00    -0.345 N 
ATOM     10  H10 UNL     1       1.227  -2.238 -24.613  1.00  0.00     0.166 HD
BRANCH   9  11
HETATM   11  C11 UNL     1       0.394  -3.555 -25.992  1.00  0.00     0.118 A 
HETATM   12  C12 UNL     1       1.373  -4.500 -26.108  1.00  0.00     0.138 A 
HETATM   13  O5  UNL     1       1.110  -5.716 -26.605  1.00  0.00    -0.307 OA
HETATM   14  C14 UNL     1      -0.055  -6.095 -27.008  1.00  0.00     0.112 A 
HETATM   15  C16 UNL     1      -1.095  -5.211 -26.928  1.00  0.00     0.095 A 
HETATM   16  C17 UNL     1      -0.872  -3.926 -26.416  1.00  0.00     0.203 A 
HETATM   17  O8  UNL     1      -1.798  -3.110 -26.334  1.00  0.00    -0.286 OA
BRANCH  12  18
HETATM   18  C13 UNL     1       2.769  -4.268 -25.707  1.00  0.00     0.315 C 
BRANCH  18  19
HETATM   19  O3  UNL     1       3.404  -3.496 -26.718  1.00  0.00    -0.365 OA
ATOM     20  H3  UNL     1       3.979  -4.066 -27.214  1.00  0.00     0.213 HD
ENDBRANCH  18  19
BRANCH  18  21
HETATM   21  O4  UNL     1       3.395  -5.532 -25.632  1.00  0.00    -0.365 OA
ATOM     22  H4  UNL     1       3.254  -5.862 -24.753  1.00  0.00     0.213 HD
ENDBRANCH  18  21
ENDBRANCH  12  18
BRANCH  14  23
HETATM   23  C15 UNL     1      -0.272  -7.451 -27.545  1.00  0.00     0.312 C 
BRANCH  23  24
HETATM   24  O6  UNL     1      -1.445  -8.032 -27.016  1.00  0.00    -0.365 OA
ATOM     25  H6  UNL     1      -1.454  -8.973 -27.148  1.00  0.00     0.213 HD
ENDBRANCH  23  24
BRANCH  23  26
HETATM   26  O7  UNL     1       0.771  -8.317 -27.206  1.00  0.00    -0.365 OA
ATOM     27  H7  UNL     1       0.452  -9.111 -26.792  1.00  0.00     0.213 HD
ENDBRANCH  23  26
ENDBRANCH  14  23
ENDBRANCH   9  11
ENDBRANCH   8   9
BRANCH   1  28
HETATM   28  N2  UNL     1      -1.582  -1.077 -24.416  1.00  0.00    -0.326 N 
ATOM     29  H2  UNL     1      -1.001  -1.796 -23.983  1.00  0.00     0.169 HD
BRANCH  28  30
HETATM   30  C4  UNL     1      -2.844  -0.968 -23.819  1.00  0.00     0.116 A 
HETATM   31  C3  UNL     1      -3.164  -0.456 -22.604  1.00  0.00     0.123 A 
HETATM   32  C2  UNL     1      -4.494  -0.438 -22.184  1.00  0.00     0.254 A 
HETATM   33  N1  UNL     1      -5.501  -0.904 -22.921  1.00  0.00    -0.271 N 
HETATM   34  O1  UNL     1      -4.801   0.042 -21.044  1.00  0.00    -0.268 OA
HETATM   35  C1  UNL     1      -6.876  -0.859 -22.432  1.00  0.00     0.164 C 
HETATM   36  C18 UNL     1      -5.188  -1.407 -24.116  1.00  0.00     0.330 A 
HETATM   37  N11 UNL     1      -3.930  -1.436 -24.539  1.00  0.00    -0.294 N 
HETATM   38  O9  UNL     1      -6.110  -1.856 -24.840  1.00  0.00    -0.246 OA
ATOM     39  H11 UNL     1      -3.751  -1.833 -25.462  1.00  0.00     0.172 HD
ENDBRANCH  28  30
ENDBRANCH   1  28
BRANCH   7  40
HETATM   40  N6  UNL     1       1.948  -1.015 -27.515  1.00  0.00    -0.285 N 
ATOM     41  H6  UNL     1       1.904  -1.934 -27.954  1.00  0.00     0.188 HD
BRANCH  40  42
HETATM   42  N7  UNL     1       3.152  -0.319 -27.391  1.00  0.00    -0.298 N 
ATOM     43  H7  UNL     1       3.305   0.502 -27.976  1.00  0.00     0.183 HD
BRANCH  42  44
HETATM   44  C9  UNL     1       4.188  -0.716 -26.465  1.00  0.00     0.318 A 
HETATM   45  N8  UNL     1       3.664  -0.887 -25.095  1.00  0.00    -0.100 NA
HETATM   46  N9  UNL     1       4.585   0.093 -25.397  1.00  0.00    -0.100 NA
ENDBRANCH  42  44
ENDBRANCH  40  42
ENDBRANCH   7  40
BRANCH   4  47
HETATM   47  C7  UNL     1      -1.115   2.632 -27.607  1.00  0.00     0.298 C 
HETATM   48  N4  UNL     1      -0.968   2.896 -28.993  1.00  0.00    -0.054 NA
HETATM   49  O2  UNL     1      -1.648   3.487 -26.884  1.00  0.00    -0.268 OA
ENDBRANCH   4  47
TORSDOF 14
ENDMDL
MODEL 2
REMARK VINA RESULT: -6.667914011      0.960      1.205
REMARK  14 active torsions:
REMARK  status: ('A' for Active; 'I' for Inactive)
REMARK    1  A    between atoms: C4_6  and  N2_7 
REMARK    2  A    between atoms: N2_7  and  C5_9 
REMARK    3  A    between atoms: C6_12  and  C7_13 
REMARK    4  A    between atoms: C8_18  and  N6_19 
REMARK    5  A    between atoms: N6_19  and  N7_21 
REMARK    6  A    between atoms: N7_21  and  C9_23 
REMARK    7  A    between atoms: C10_26  and  N10_27 
REMARK    8  A    between atoms: N10_27  and  C11_29 
REMARK    9  A    between atoms: C12_30  and  C13_31 
REMARK   10  A    between atoms: C13_31  and  O3_32 
REMARK   11  A    between atoms: C13_31  and  O4_34 
REMARK   12  A    between atoms: C14_37  and  C15_38 
REMARK   13  A    between atoms: C15_38  and  O6_39 
REMARK   14  A    between atoms: C15_38  and  O7_41 
ROOT
HETATM    1  C5  UNL     1      -0.704  -0.051 -25.501  1.00  0.00     0.139 A 
HETATM    2  N3  UNL     1      -1.109   1.063 -26.120  1.00  0.00    -0.322 N 
ATOM      3  H3  UNL     1      -1.885   1.581 -25.706  1.00  0.00     0.169 HD
HETATM    4  C6  UNL     1      -0.557   1.555 -27.268  1.00  0.00     0.175 A 
HETATM    5  N5  UNL     1       0.455   0.888 -27.818  1.00  0.00    -0.321 N 
ATOM      6  H5  UNL     1       0.884   1.236 -28.677  1.00  0.00     0.169 HD
HETATM    7  C8  UNL     1       0.916  -0.241 -27.251  1.00  0.00     0.152 A 
HETATM    8  C10 UNL     1       0.376  -0.752 -26.099  1.00  0.00     0.123 A 
ENDROOT
BRANCH   8   9
HETATM    9  N10 UNL     1       0.860  -1.940 -25.496  1.00  0.00    -0.345 N 
ATOM     10  H10 UNL     1       1.382  -1.841 -24.625  1.00  0.00     0.166 HD
BRANCH   9  11
HETATM   11  C11 UNL     1       0.684  -3.243 -25.994  1.00  0.00     0.118 A 
HETATM   12  C12 UNL     1       1.737  -4.103 -26.129  1.00  0.00     0.138 A 
HETATM   13  O5  UNL     1       1.564  -5.347 -26.596  1.00  0.00    -0.307 OA
HETATM   14  C14 UNL     1       0.422  -5.832 -26.952  1.00  0.00     0.112 A 
HETATM   15  C16 UNL     1      -0.687  -5.039 -26.850  1.00  0.00     0.095 A 
HETATM   16  C17 UNL     1      -0.558  -3.730 -26.367  1.00  0.00     0.203 A 
HETATM   17  O8  UNL     1      -1.548  -2.995 -26.266  1.00  0.00    -0.286 OA
BRANCH  12  18
HETATM   18  C13 UNL     1       3.121  -3.745 -25.782  1.00  0.00     0.315 C 
BRANCH  18  19
HETATM   19  O3  UNL     1       3.624  -2.874 -26.786  1.00  0.00    -0.365 OA
ATOM     20  H3  UNL     1       2.934  -2.270 -27.032  1.00  0.00     0.213 HD
ENDBRANCH  18  19
BRANCH  18  21
HETATM   21  O4  UNL     1       3.874  -4.940 -25.788  1.00  0.00    -0.365 OA
ATOM     22  H4  UNL     1       3.255  -5.660 -25.791  1.00  0.00     0.213 HD
ENDBRANCH  18  21
ENDBRANCH  12  18
BRANCH  14  23
HETATM   23  C15 UNL     1       0.306  -7.212 -27.459  1.00  0.00     0.312 C 
BRANCH  23  24
HETATM   24  O6  UNL     1      -0.609  -7.965 -26.691  1.00  0.00    -0.365 OA
ATOM     25  H6  UNL     1      -0.332  -8.025 -25.784  1.00  0.00     0.213 HD
ENDBRANCH  23  24
BRANCH  23  26
HETATM   26  O7  UNL     1       1.522  -7.897 -27.385  1.00  0.00    -0.365 OA
ATOM     27  H7  UNL     1       1.578  -8.590 -28.033  1.00  0.00     0.213 HD
ENDBRANCH  23  26
ENDBRANCH  14  23
ENDBRANCH   9  11
ENDBRANCH   8   9
BRANCH   1  28
HETATM   28  N2  UNL     1      -1.234  -0.593 -24.319  1.00  0.00    -0.326 N 
ATOM     29  H2  UNL     1      -0.526  -1.046 -23.739  1.00  0.00     0.169 HD
BRANCH  28  30
HETATM   30  C4  UNL     1      -2.514  -0.653 -23.756  1.00  0.00     0.116 A 
HETATM   31  C3  UNL     1      -2.924  -0.220 -22.537  1.00  0.00     0.123 A 
HETATM   32  C2  UNL     1      -4.257  -0.372 -22.155  1.00  0.00     0.254 A 
HETATM   33  N1  UNL     1      -5.182  -0.933 -22.933  1.00  0.00    -0.271 N 
HETATM   34  O1  UNL     1      -4.648   0.032 -21.012  1.00  0.00    -0.268 OA
HETATM   35  C1  UNL     1      -6.564  -1.067 -22.483  1.00  0.00     0.164 C 
HETATM   36  C18 UNL     1      -4.781  -1.359 -24.132  1.00  0.00     0.330 A 
HETATM   37  N11 UNL     1      -3.518  -1.225 -24.519  1.00  0.00    -0.294 N 
HETATM   38  O9  UNL     1      -5.624  -1.893 -24.894  1.00  0.00    -0.246 OA
ATOM     39  H11 UNL     1      -3.269  -1.569 -25.447  1.00  0.00     0.172 HD
ENDBRANCH  28  30
ENDBRANCH   1  28
BRANCH   7  40
HETATM   40  N6  UNL     1       1.919  -0.897 -27.789  1.00  0.00    -0.285 N 
ATOM     41  H6  UNL     1       1.866  -1.899 -27.976  1.00  0.00     0.188 HD
BRANCH  40  42
HETATM   42  N7  UNL     1       3.062  -0.155 -28.092  1.00  0.00    -0.298 N 
ATOM     43  H7  UNL     1       3.313   0.627 -27.487  1.00  0.00     0.183 HD
BRANCH  42  44
HETATM   44  C9  UNL     1       3.902  -0.451 -29.230  1.00  0.00     0.318 A 
HETATM   45  N8  UNL     1       3.705  -1.832 -29.714  1.00  0.00    -0.100 NA
HETATM   46  N9  UNL     1       4.908  -1.420 -29.183  1.00  0.00    -0.100 NA
ENDBRANCH  42  44
ENDBRANCH  40  42
ENDBRANCH   7  40
BRANCH   4  47
HETATM   47  C7  UNL     1      -1.083   2.800 -27.872  1.00  0.00     0.298 C 
HETATM   48  N4  UNL     1      -0.947   3.003 -29.269  1.00  0.00    -0.054 NA
HETATM   49  O2  UNL     1      -1.641   3.671 -27.188  1.00  0.00    -0.268 OA
ENDBRANCH   4  47
TORSDOF 14
ENDMDL
MODEL 3
REMARK VINA RESULT: -6.643493967      0.514      1.306
REMARK  14 active torsions:
REMARK  status: ('A' for Active; 'I' for Inactive)
REMARK    1  A    between atoms: C4_6  and  N2_7 
REMARK    2  A    between atoms: N2_7  and  C5_9 
REMARK    3  A    between atoms: C6_12  and  C7_13 
REMARK    4  A    between atoms: C8_18  and  N6_19 
REMARK    5  A    between atoms: N6_19  and  N7_21 
REMARK    6  A    between atoms: N7_21  and  C9_23 
REMARK    7  A    between atoms: C10_26  and  N10_27 
REMARK    8  A    between atoms: N10_27  and  C11_29 
REMARK    9  A    between atoms: C12_30  and  C13_31 
REMARK   10  A    between atoms: C13_31  and  O3_32 
REMARK   11  A    between atoms: C13_31  and  O4_34 
REMARK   12  A    between atoms: C14_37  and  C15_38 
REMARK   13  A    between atoms: C15_38  and  O6_39 
REMARK   14  A    between atoms: C15_38  and  O7_41 
ROOT
HETATM    1  C5  UNL     1      -1.009  -0.568 -25.609  1.00  0.00     0.139 A 
HETATM    2  N3  UNL     1      -1.341   0.600 -26.170  1.00  0.00    -0.322 N 
ATOM      3  H3  UNL     1      -2.200   1.052 -25.855  1.00  0.00     0.169 HD
HETATM    4  C6  UNL     1      -0.610   1.229 -27.137  1.00  0.00     0.175 A 
HETATM    5  N5  UNL     1       0.512   0.649 -27.558  1.00  0.00    -0.321 N 
ATOM      6  H5  UNL     1       1.075   1.100 -28.279  1.00  0.00     0.169 HD
HETATM    7  C8  UNL     1       0.908  -0.526 -27.038  1.00  0.00     0.152 A 
HETATM    8  C10 UNL     1       0.190  -1.174 -26.067  1.00  0.00     0.123 A 
ENDROOT
BRANCH   8   9
HETATM    9  N10 UNL     1       0.604  -2.412 -25.515  1.00  0.00    -0.345 N 
ATOM     10  H10 UNL     1       1.094  -2.382 -24.620  1.00  0.00     0.166 HD
BRANCH   9  11
HETATM   11  C11 UNL     1       0.400  -3.678 -26.093  1.00  0.00     0.118 A 
HETATM   12  C12 UNL     1       1.413  -4.590 -26.185  1.00  0.00     0.138 A 
HETATM   13  O5  UNL     1       1.212  -5.799 -26.729  1.00  0.00    -0.307 OA
HETATM   14  C14 UNL     1       0.080  -6.199 -27.202  1.00  0.00     0.112 A 
HETATM   15  C16 UNL     1      -0.988  -5.348 -27.150  1.00  0.00     0.095 A 
HETATM   16  C17 UNL     1      -0.831  -4.073 -26.591  1.00  0.00     0.203 A 
HETATM   17  O8  UNL     1      -1.784  -3.288 -26.533  1.00  0.00    -0.286 OA
BRANCH  12  18
HETATM   18  C13 UNL     1       2.779  -4.330 -25.708  1.00  0.00     0.315 C 
BRANCH  18  19
HETATM   19  O3  UNL     1       3.444  -3.521 -26.670  1.00  0.00    -0.365 OA
ATOM     20  H3  UNL     1       4.289  -3.269 -26.317  1.00  0.00     0.213 HD
ENDBRANCH  18  19
BRANCH  18  21
HETATM   21  O4  UNL     1       3.435  -5.578 -25.624  1.00  0.00    -0.365 OA
ATOM     22  H4  UNL     1       2.850  -6.227 -25.996  1.00  0.00     0.213 HD
ENDBRANCH  18  21
ENDBRANCH  12  18
BRANCH  14  23
HETATM   23  C15 UNL     1      -0.067  -7.545 -27.787  1.00  0.00     0.312 C 
BRANCH  23  24
HETATM   24  O6  UNL     1      -0.271  -8.520 -26.787  1.00  0.00    -0.365 OA
ATOM     25  H6  UNL     1      -0.332  -9.391 -27.161  1.00  0.00     0.213 HD
ENDBRANCH  23  24
BRANCH  23  26
HETATM   26  O7  UNL     1       1.081  -7.940 -28.479  1.00  0.00    -0.365 OA
ATOM     27  H7  UNL     1       1.036  -7.711 -29.400  1.00  0.00     0.213 HD
ENDBRANCH  23  26
ENDBRANCH  14  23
ENDBRANCH   9  11
ENDBRANCH   8   9
BRANCH   1  28
HETATM   28  N2  UNL     1      -1.723  -1.250 -24.610  1.00  0.00    -0.326 N 
ATOM     29  H2  UNL     1      -1.159  -1.953 -24.131  1.00  0.00     0.169 HD
BRANCH  28  30
HETATM   30  C4  UNL     1      -3.034  -1.184 -24.124  1.00  0.00     0.116 A 
HETATM   31  C3  UNL     1      -4.177  -1.620 -24.710  1.00  0.00     0.123 A 
HETATM   32  C2  UNL     1      -5.400  -1.459 -24.058  1.00  0.00     0.254 A 
HETATM   33  N1  UNL     1      -5.522  -0.888 -22.861  1.00  0.00    -0.271 N 
HETATM   34  O1  UNL     1      -6.477  -1.867 -24.603  1.00  0.00    -0.268 OA
HETATM   35  C1  UNL     1      -6.828  -0.745 -22.224  1.00  0.00     0.164 C 
HETATM   36  C18 UNL     1      -4.399  -0.458 -22.283  1.00  0.00     0.330 A 
HETATM   37  N11 UNL     1      -3.223  -0.599 -22.883  1.00  0.00    -0.294 N 
HETATM   38  O9  UNL     1      -4.473   0.087 -21.155  1.00  0.00    -0.246 OA
ATOM     39  H11 UNL     1      -2.398  -0.252 -22.393  1.00  0.00     0.172 HD
ENDBRANCH  28  30
ENDBRANCH   1  28
BRANCH   7  40
HETATM   40  N6  UNL     1       2.019  -1.097 -27.447  1.00  0.00    -0.285 N 
ATOM     41  H6  UNL     1       2.026  -2.041 -27.833  1.00  0.00     0.188 HD
BRANCH  40  42
HETATM   42  N7  UNL     1       3.189  -0.346 -27.327  1.00  0.00    -0.298 N 
ATOM     43  H7  UNL     1       3.313   0.469 -27.928  1.00  0.00     0.183 HD
BRANCH  42  44
HETATM   44  C9  UNL     1       4.233  -0.677 -26.383  1.00  0.00     0.318 A 
HETATM   45  N8  UNL     1       3.688  -0.974 -25.043  1.00  0.00    -0.100 NA
HETATM   46  N9  UNL     1       4.505   0.113 -25.263  1.00  0.00    -0.100 NA
ENDBRANCH  42  44
ENDBRANCH  40  42
ENDBRANCH   7  40
BRANCH   4  47
HETATM   47  C7  UNL     1      -1.068   2.523 -27.692  1.00  0.00     0.298 C 
HETATM   48  N4  UNL     1      -0.939   2.763 -29.084  1.00  0.00    -0.054 NA
HETATM   49  O2  UNL     1      -1.563   3.402 -26.972  1.00  0.00    -0.268 OA
ENDBRANCH   4  47
TORSDOF 14
ENDMDL
MODEL 4
REMARK VINA RESULT: -6.562764611      2.401      6.749
REMARK  14 active torsions:
REMARK  status: ('A' for Active; 'I' for Inactive)
REMARK    1  A    between atoms: C4_6  and  N2_7 
REMARK    2  A    between atoms: N2_7  and  C5_9 
REMARK    3  A    between atoms: C6_12  and  C7_13 
REMARK    4  A    between atoms: C8_18  and  N6_19 
REMARK    5  A    between atoms: N6_19  and  N7_21 
REMARK    6  A    between atoms: N7_21  and  C9_23 
REMARK    7  A    between atoms: C10_26  and  N10_27 
REMARK    8  A    between atoms: N10_27  and  C11_29 
REMARK    9  A    between atoms: C12_30  and  C13_31 
REMARK   10  A    between atoms: C13_31  and  O3_32 
REMARK   11  A    between atoms: C13_31  and  O4_34 
REMARK   12  A    between atoms: C14_37  and  C15_38 
REMARK   13  A    between atoms: C15_38  and  O6_39 
REMARK   14  A    between atoms: C15_38  and  O7_41 
ROOT
HETATM    1  C5  UNL     1      -2.691  -1.573 -26.204  1.00  0.00     0.139 A 
HETATM    2  N3  UNL     1      -3.766  -2.113 -25.621  1.00  0.00    -0.322 N 
ATOM      3  H3  UNL     1      -4.034  -3.057 -25.900  1.00  0.00     0.169 HD
HETATM    4  C6  UNL     1      -4.532  -1.487 -24.679  1.00  0.00     0.175 A 
HETATM    5  N5  UNL     1      -4.194  -0.254 -24.307  1.00  0.00    -0.321 N 
ATOM      6  H5  UNL     1      -4.751   0.234 -23.605  1.00  0.00     0.169 HD
HETATM    7  C8  UNL     1      -3.124   0.352 -24.851  1.00  0.00     0.152 A 
HETATM    8  C10 UNL     1      -2.342  -0.258 -25.798  1.00  0.00     0.123 A 
ENDROOT
BRANCH   8   9
HETATM    9  N10 UNL     1      -1.212   0.376 -26.371  1.00  0.00    -0.345 N 
ATOM     10  H10 UNL     1      -1.385   1.179 -26.976  1.00  0.00     0.166 HD
BRANCH   9  11
HETATM   11  C11 UNL     1       0.129  -0.005 -26.180  1.00  0.00     0.118 A 
HETATM   12  C12 UNL     1       1.028   0.013 -27.207  1.00  0.00     0.138 A 
HETATM   13  O5  UNL     1       2.306  -0.343 -27.019  1.00  0.00    -0.307 OA
HETATM   14  C14 UNL     1       2.790  -0.725 -25.885  1.00  0.00     0.112 A 
HETATM   15  C16 UNL     1       1.958  -0.773 -24.801  1.00  0.00     0.095 A 
HETATM   16  C17 UNL     1       0.612  -0.410 -24.946  1.00  0.00     0.203 A 
HETATM   17  O8  UNL     1      -0.158  -0.446 -23.979  1.00  0.00    -0.286 OA
BRANCH  12  18
HETATM   18  C13 UNL     1       0.679   0.415 -28.578  1.00  0.00     0.315 C 
BRANCH  18  19
HETATM   19  O3  UNL     1       0.080   1.703 -28.530  1.00  0.00    -0.365 OA
ATOM     20  H3  UNL     1      -0.348   1.865 -29.362  1.00  0.00     0.213 HD
ENDBRANCH  18  19
BRANCH  18  21
HETATM   21  O4  UNL     1      -0.268  -0.517 -29.056  1.00  0.00    -0.365 OA
ATOM     22  H4  UNL     1      -0.736  -0.099 -29.769  1.00  0.00     0.213 HD
ENDBRANCH  18  21
ENDBRANCH  12  18
BRANCH  14  23
HETATM   23  C15 UNL     1       4.209  -1.104 -25.751  1.00  0.00     0.312 C 
BRANCH  23  24
HETATM   24  O6  UNL     1       4.345  -2.461 -25.387  1.00  0.00    -0.365 OA
ATOM     25  H6  UNL     1       5.044  -2.580 -24.755  1.00  0.00     0.213 HD
ENDBRANCH  23  24
BRANCH  23  26
HETATM   26  O7  UNL     1       4.850  -0.372 -24.749  1.00  0.00    -0.365 OA
ATOM     27  H7  UNL     1       5.178  -0.933 -24.056  1.00  0.00     0.213 HD
ENDBRANCH  23  26
ENDBRANCH  14  23
ENDBRANCH   9  11
ENDBRANCH   8   9
BRANCH   1  28
HETATM   28  N2  UNL     1      -1.870  -2.176 -27.171  1.00  0.00    -0.326 N 
ATOM     29  H2  UNL     1      -1.902  -1.697 -28.071  1.00  0.00     0.169 HD
BRANCH  28  30
HETATM   30  C4  UNL     1      -1.017  -3.286 -27.177  1.00  0.00     0.116 A 
HETATM   31  C3  UNL     1      -1.324  -4.591 -26.970  1.00  0.00     0.123 A 
HETATM   32  C2  UNL     1      -0.322  -5.559 -27.016  1.00  0.00     0.254 A 
HETATM   33  N1  UNL     1       0.958  -5.278 -27.256  1.00  0.00    -0.271 N 
HETATM   34  O1  UNL     1      -0.604  -6.787 -26.823  1.00  0.00    -0.268 OA
HETATM   35  C1  UNL     1       1.968  -6.332 -27.293  1.00  0.00     0.164 C 
HETATM   36  C18 UNL     1       1.263  -3.995 -27.460  1.00  0.00     0.330 A 
HETATM   37  N11 UNL     1       0.327  -3.055 -27.422  1.00  0.00    -0.294 N 
HETATM   38  O9  UNL     1       2.458  -3.689 -27.689  1.00  0.00    -0.246 OA
ATOM     39  H11 UNL     1       0.618  -2.090 -27.585  1.00  0.00     0.172 HD
ENDBRANCH  28  30
ENDBRANCH   1  28
BRANCH   7  40
HETATM   40  N6  UNL     1      -2.784   1.566 -24.481  1.00  0.00    -0.285 N 
ATOM     41  H6  UNL     1      -2.053   1.731 -23.789  1.00  0.00     0.188 HD
BRANCH  40  42
HETATM   42  N7  UNL     1      -3.475   2.620 -25.082  1.00  0.00    -0.298 N 
ATOM     43  H7  UNL     1      -4.452   2.771 -24.831  1.00  0.00     0.183 HD
BRANCH  42  44
HETATM   44  C9  UNL     1      -2.859   3.504 -26.045  1.00  0.00     0.318 A 
HETATM   45  N8  UNL     1      -2.683   2.849 -27.357  1.00  0.00    -0.100 NA
HETATM   46  N9  UNL     1      -1.602   3.244 -26.600  1.00  0.00    -0.100 NA
ENDBRANCH  42  44
ENDBRANCH  40  42
ENDBRANCH   7  40
BRANCH   4  47
HETATM   47  C7  UNL     1      -5.705  -2.178 -24.096  1.00  0.00     0.298 C 
HETATM   48  N4  UNL     1      -7.008  -1.761 -24.469  1.00  0.00    -0.054 NA
HETATM   49  O2  UNL     1      -5.578  -3.111 -23.290  1.00  0.00    -0.268 OA
ENDBRANCH   4  47
TORSDOF 14
ENDMDL
MODEL 5
REMARK VINA RESULT: -6.560723656      2.413      6.800
REMARK  14 active torsions:
REMARK  status: ('A' for Active; 'I' for Inactive)
REMARK    1  A    between atoms: C4_6  and  N2_7 
REMARK    2  A    between atoms: N2_7  and  C5_9 
REMARK    3  A    between atoms: C6_12  and  C7_13 
REMARK    4  A    between atoms: C8_18  and  N6_19 
REMARK    5  A    between atoms: N6_19  and  N7_21 
REMARK    6  A    between atoms: N7_21  and  C9_23 
REMARK    7  A    between atoms: C10_26  and  N10_27 
REMARK    8  A    between atoms: N10_27  and  C11_29 
REMARK    9  A    between atoms: C12_30  and  C13_31 
REMARK   10  A    between atoms: C13_31  and  O3_32 
REMARK   11  A    between atoms: C13_31  and  O4_34 
REMARK   12  A    between atoms: C14_37  and  C15_38 
REMARK   13  A    between atoms: C15_38  and  O6_39 
REMARK   14  A    between atoms: C15_38  and  O7_41 
ROOT
HETATM    1  C5  UNL     1      -0.687  -1.887 -24.914  1.00  0.00     0.139 A 
HETATM    2  N3  UNL     1      -1.983  -2.197 -24.806  1.00  0.00    -0.322 N 
ATOM      3  H3  UNL     1      -2.225  -3.171 -24.617  1.00  0.00     0.169 HD
HETATM    4  C6  UNL     1      -3.007  -1.301 -24.930  1.00  0.00     0.175 A 
HETATM    5  N5  UNL     1      -2.705  -0.028 -25.177  1.00  0.00    -0.321 N 
ATOM      6  H5  UNL     1      -3.452   0.659 -25.274  1.00  0.00     0.169 HD
HETATM    7  C8  UNL     1      -1.422   0.357 -25.298  1.00  0.00     0.152 A 
HETATM    8  C10 UNL     1      -0.380  -0.526 -25.177  1.00  0.00     0.123 A 
ENDROOT
BRANCH   8   9
HETATM    9  N10 UNL     1       0.973  -0.124 -25.301  1.00  0.00    -0.345 N 
ATOM     10  H10 UNL     1       1.404   0.321 -24.491  1.00  0.00     0.166 HD
BRANCH   9  11
HETATM   11  C11 UNL     1       1.775  -0.285 -26.446  1.00  0.00     0.118 A 
HETATM   12  C12 UNL     1       3.101  -0.598 -26.349  1.00  0.00     0.138 A 
HETATM   13  O5  UNL     1       3.859  -0.757 -27.442  1.00  0.00    -0.307 OA
HETATM   14  C14 UNL     1       3.421  -0.634 -28.650  1.00  0.00     0.112 A 
HETATM   15  C16 UNL     1       2.104  -0.322 -28.839  1.00  0.00     0.095 A 
HETATM   16  C17 UNL     1       1.269  -0.143 -27.728  1.00  0.00     0.203 A 
HETATM   17  O8  UNL     1       0.074   0.139 -27.876  1.00  0.00    -0.286 OA
BRANCH  12  18
HETATM   18  C13 UNL     1       3.795  -0.780 -25.066  1.00  0.00     0.315 C 
BRANCH  18  19
HETATM   19  O3  UNL     1       4.879   0.138 -25.007  1.00  0.00    -0.365 OA
ATOM     20  H3  UNL     1       5.631  -0.260 -25.429  1.00  0.00     0.213 HD
ENDBRANCH  18  19
BRANCH  18  21
HETATM   21  O4  UNL     1       4.306  -2.097 -25.052  1.00  0.00    -0.365 OA
ATOM     22  H4  UNL     1       4.803  -2.196 -24.249  1.00  0.00     0.213 HD
ENDBRANCH  18  21
ENDBRANCH  12  18
BRANCH  14  23
HETATM   23  C15 UNL     1       4.315  -0.825 -29.807  1.00  0.00     0.312 C 
BRANCH  23  24
HETATM   24  O6  UNL     1       5.452  -1.585 -29.457  1.00  0.00    -0.365 OA
ATOM     25  H6  UNL     1       5.969  -1.806 -30.224  1.00  0.00     0.213 HD
ENDBRANCH  23  24
BRANCH  23  26
HETATM   26  O7  UNL     1       4.802   0.391 -30.293  1.00  0.00    -0.365 OA
ATOM     27  H7  UNL     1       5.734   0.488 -30.136  1.00  0.00     0.213 HD
ENDBRANCH  23  26
ENDBRANCH  14  23
ENDBRANCH   9  11
ENDBRANCH   8   9
BRANCH   1  28
HETATM   28  N2  UNL     1       0.399  -2.768 -24.788  1.00  0.00    -0.326 N 
ATOM     29  H2  UNL     1       0.946  -2.605 -23.942  1.00  0.00     0.169 HD
BRANCH  28  30
HETATM   30  C4  UNL     1       0.902  -3.820 -25.563  1.00  0.00     0.116 A 
HETATM   31  C3  UNL     1       0.218  -4.718 -26.316  1.00  0.00     0.123 A 
HETATM   32  C2  UNL     1       0.907  -5.705 -27.022  1.00  0.00     0.254 A 
HETATM   33  N1  UNL     1       2.233  -5.826 -27.004  1.00  0.00    -0.271 N 
HETATM   34  O1  UNL     1       0.271  -6.551 -27.731  1.00  0.00    -0.268 OA
HETATM   35  C1  UNL     1       2.904  -6.878 -27.763  1.00  0.00     0.164 C 
HETATM   36  C18 UNL     1       2.907  -4.944 -26.264  1.00  0.00     0.330 A 
HETATM   37  N11 UNL     1       2.275  -3.996 -25.584  1.00  0.00    -0.294 N 
HETATM   38  O9  UNL     1       4.159  -5.026 -26.222  1.00  0.00    -0.246 OA
ATOM     39  H11 UNL     1       2.843  -3.349 -25.036  1.00  0.00     0.172 HD
ENDBRANCH  28  30
ENDBRANCH   1  28
BRANCH   7  40
HETATM   40  N6  UNL     1      -1.122   1.614 -25.535  1.00  0.00    -0.285 N 
ATOM     41  H6  UNL     1      -0.385   1.875 -26.191  1.00  0.00     0.188 HD
BRANCH  40  42
HETATM   42  N7  UNL     1      -1.862   2.575 -24.844  1.00  0.00    -0.298 N 
ATOM     43  H7  UNL     1      -1.649   2.743 -23.860  1.00  0.00     0.183 HD
BRANCH  42  44
HETATM   44  C9  UNL     1      -2.917   3.340 -25.467  1.00  0.00     0.318 A 
HETATM   45  N8  UNL     1      -4.252   2.799 -25.144  1.00  0.00    -0.100 NA
HETATM   46  N9  UNL     1      -3.766   2.792 -26.433  1.00  0.00    -0.100 NA
ENDBRANCH  42  44
ENDBRANCH  40  42
ENDBRANCH   7  40
BRANCH   4  47
HETATM   47  C7  UNL     1      -4.410  -1.752 -24.792  1.00  0.00     0.298 C 
HETATM   48  N4  UNL     1      -5.402  -1.195 -25.638  1.00  0.00    -0.054 NA
HETATM   49  O2  UNL     1      -4.741  -2.604 -23.955  1.00  0.00    -0.268 OA
ENDBRANCH   4  47
TORSDOF 14
ENDMDL
