MODEL 1
REMARK VINA RESULT: -7.705324247      0.000      0.000
REMARK  12 active torsions:
REMARK  status: ('A' for Active; 'I' for Inactive)
REMARK    1  A    between atoms: O1_2  and  C2_3 
REMARK    2  A    between atoms: C2_3  and  N15_45 
REMARK    3  A    between atoms: N1_4  and  C3_6 
REMARK    4  A    between atoms: C4_9  and  N3_10 
REMARK    5  A    between atoms: C6_12  and  C7_13 
REMARK    6  A    between atoms: N4_15  and  C9_16 
REMARK    7  A    between atoms: C9_16  and  C10_17 
REMARK    8  A    between atoms: C10_17  and  O2_18 
REMARK    9  A    between atoms: C11_28  and  O3_29 
REMARK   10  A    between atoms: C13_31  and  N9_32 
REMARK   11  A    between atoms: N9_32  and  C14_34 
REMARK   12  A    between atoms: N13_41  and  N14_42 
REMARK       I    between atoms: N15_45  and  C16_47 
ROOT
HETATM    1  C3  UNL     1      17.332 -13.710   1.539  1.00  0.00     0.709 A 
HETATM    2  N2  UNL     1      16.770 -12.707   2.208  1.00  0.00    -0.170 N 
ATOM      3  H2  UNL     1      17.318 -11.860   2.359  1.00  0.00     0.186 HD
HETATM    4  C4  UNL     1      15.521 -12.751   2.693  1.00  0.00     0.180 A 
HETATM    5  C11 UNL     1      14.793 -13.897   2.483  1.00  0.00     0.162 A 
HETATM    6  C13 UNL     1      15.341 -14.987   1.782  1.00  0.00     0.184 A 
HETATM    7  N13 UNL     1      16.588 -14.835   1.345  1.00  0.00    -0.073 N 
ENDROOT
BRANCH   4   8
HETATM    8  N3  UNL     1      15.012 -11.626   3.390  1.00  0.00    -0.231 N 
HETATM    9  C5  UNL     1      15.695 -10.483   3.707  1.00  0.00     0.153 A 
HETATM   10  C6  UNL     1      14.825  -9.681   4.368  1.00  0.00     0.096 A 
HETATM   11  N7  UNL     1      13.668 -10.364   4.422  1.00  0.00    -0.282 N 
HETATM   12  N8  UNL     1      13.770 -11.541   3.835  1.00  0.00    -0.234 N 
ATOM     13  H7  UNL     1      12.817 -10.016   4.863  1.00  0.00     0.188 HD
ATOM     14  H8  UNL     1      13.037 -12.244   3.742  1.00  0.00     0.209 HD
BRANCH  10  15
HETATM   15  C7  UNL     1      15.044  -8.351   4.920  1.00  0.00     0.096 A 
HETATM   16  C8  UNL     1      15.898  -7.381   4.406  1.00  0.00     0.145 A 
HETATM   17  N4  UNL     1      15.835  -6.288   5.187  1.00  0.00    -0.285 N 
HETATM   18  N5  UNL     1      14.981  -6.546   6.153  1.00  0.00    -0.240 N 
HETATM   19  N6  UNL     1      14.494  -7.786   6.008  1.00  0.00    -0.283 N 
ATOM     20  H5  UNL     1      14.728  -5.899   6.901  1.00  0.00     0.208 HD
ATOM     21  H6  UNL     1      13.814  -8.230   6.625  1.00  0.00     0.188 HD
BRANCH  17  22
HETATM   22  C9  UNL     1      16.593  -5.077   4.957  1.00  0.00     0.175 C 
BRANCH  22  23
HETATM   23  C10 UNL     1      15.855  -4.184   3.983  1.00  0.00     0.185 C 
BRANCH  23  24
HETATM   24  O2  UNL     1      14.486  -4.173   4.186  1.00  0.00    -0.399 OA
ATOM     25  H2  UNL     1      14.192  -3.442   4.716  1.00  0.00     0.209 HD
ENDBRANCH  23  24
ENDBRANCH  22  23
ENDBRANCH  17  22
ENDBRANCH  10  15
ENDBRANCH   4   8
BRANCH   5  26
HETATM   26  O3  UNL     1      13.492 -14.030   2.950  1.00  0.00    -0.349 OA
HETATM   27  C12 UNL     1      12.402 -13.863   2.064  1.00  0.00     0.210 C 
ENDBRANCH   5  26
BRANCH   1  28
HETATM   28  N1  UNL     1      18.659 -13.604   1.049  1.00  0.00    -0.153 N 
HETATM   29  C2  UNL     1      19.017 -12.908   0.053  1.00  0.00     0.239 C 
ATOM     30  H1  UNL     1      19.383 -14.129   1.539  1.00  0.00     0.188 HD
BRANCH  29  31
HETATM   31  O1  UNL     1      20.336 -12.874  -0.340  1.00  0.00    -0.327 OA
HETATM   32  C1  UNL     1      21.331 -12.148   0.357  1.00  0.00     0.213 C 
ENDBRANCH  29  31
BRANCH  29  33
HETATM   33  N15 UNL     1      18.066 -12.155  -0.670  1.00  0.00    -0.296 N 
HETATM   34  C16 UNL     1      17.922 -10.763  -0.415  1.00  0.00     0.189 C 
HETATM   35  N16 UNL     1      17.593  -9.939  -1.349  1.00  0.00    -0.373 N 
HETATM   36  N17 UNL     1      18.138 -10.229   0.876  1.00  0.00    -0.064 NA
ATOM     37 2H16 UNL     1      17.438 -10.325  -2.280  1.00  0.00     0.158 HD
ATOM     38 1H16 UNL     1      17.490  -8.941  -1.166  1.00  0.00     0.158 HD
ATOM     39  H15 UNL     1      17.483 -12.609  -1.374  1.00  0.00     0.172 HD
ENDBRANCH  29  33
ENDBRANCH   1  28
BRANCH   6  40
HETATM   40  N9  UNL     1      14.631 -16.003   1.624  1.00  0.00    -0.320 N 
ATOM     41  H9  UNL     1      14.108 -15.996   0.748  1.00  0.00     0.169 HD
BRANCH  40  42
HETATM   42  C14 UNL     1      14.405 -17.137   2.386  1.00  0.00     0.165 A 
HETATM   43  N10 UNL     1      13.661 -18.247   2.252  1.00  0.00    -0.281 N 
HETATM   44  N11 UNL     1      14.089 -18.664   3.419  1.00  0.00    -0.283 N 
ATOM     45  H10 UNL     1      13.027 -18.613   1.541  1.00  0.00     0.188 HD
HETATM   46  C15 UNL     1      14.854 -17.594   3.628  1.00  0.00     0.176 A 
ATOM     47  H11 UNL     1      13.904 -19.503   3.968  1.00  0.00     0.188 HD
HETATM   48  N12 UNL     1      15.721 -17.142   4.651  1.00  0.00    -0.077 NA
ENDBRANCH  40  42
ENDBRANCH   6  40
BRANCH   7  49
HETATM   49  N14 UNL     1      17.203 -15.872   0.641  1.00  0.00    -0.322 N 
ATOM     50 2H14 UNL     1      18.156 -15.751   0.297  1.00  0.00     0.178 HD
ATOM     51 1H14 UNL     1      16.650 -16.718   0.505  1.00  0.00     0.178 HD
ENDBRANCH   7  49
TORSDOF 12
ENDMDL
MODEL 2
REMARK VINA RESULT: -7.599356990      2.990      8.036
REMARK  12 active torsions:
REMARK  status: ('A' for Active; 'I' for Inactive)
REMARK    1  A    between atoms: O1_2  and  C2_3 
REMARK    2  A    between atoms: C2_3  and  N15_45 
REMARK    3  A    between atoms: N1_4  and  C3_6 
REMARK    4  A    between atoms: C4_9  and  N3_10 
REMARK    5  A    between atoms: C6_12  and  C7_13 
REMARK    6  A    between atoms: N4_15  and  C9_16 
REMARK    7  A    between atoms: C9_16  and  C10_17 
REMARK    8  A    between atoms: C10_17  and  O2_18 
REMARK    9  A    between atoms: C11_28  and  O3_29 
REMARK   10  A    between atoms: C13_31  and  N9_32 
REMARK   11  A    between atoms: N9_32  and  C14_34 
REMARK   12  A    between atoms: N13_41  and  N14_42 
REMARK       I    between atoms: N15_45  and  C16_47 
ROOT
HETATM    1  C3  UNL     1      15.803  -9.740   3.460  1.00  0.00     0.709 A 
HETATM    2  N2  UNL     1      14.997 -10.796   3.381  1.00  0.00    -0.170 N 
ATOM      3  H2  UNL     1      14.080 -10.738   3.822  1.00  0.00     0.186 HD
HETATM    4  C4  UNL     1      15.329 -11.932   2.752  1.00  0.00     0.180 A 
HETATM    5  C11 UNL     1      16.568 -11.998   2.162  1.00  0.00     0.162 A 
HETATM    6  C13 UNL     1      17.458 -10.909   2.217  1.00  0.00     0.184 A 
HETATM    7  N13 UNL     1      17.025  -9.832   2.867  1.00  0.00    -0.073 N 
ENDROOT
BRANCH   4   8
HETATM    8  N3  UNL     1      14.398 -13.001   2.721  1.00  0.00    -0.231 N 
HETATM    9  C5  UNL     1      13.226 -13.043   2.017  1.00  0.00     0.153 A 
HETATM   10  C6  UNL     1      12.658 -14.246   2.278  1.00  0.00     0.096 A 
HETATM   11  N7  UNL     1      13.501 -14.872   3.119  1.00  0.00    -0.282 N 
HETATM   12  N8  UNL     1      14.555 -14.128   3.393  1.00  0.00    -0.234 N 
ATOM     13  H7  UNL     1      13.345 -15.806   3.497  1.00  0.00     0.188 HD
ATOM     14  H8  UNL     1      15.336 -14.374   4.002  1.00  0.00     0.209 HD
BRANCH  10  15
HETATM   15  C7  UNL     1      11.405 -14.795   1.778  1.00  0.00     0.096 A 
HETATM   16  C8  UNL     1      10.246 -14.076   1.507  1.00  0.00     0.145 A 
HETATM   17  N4  UNL     1       9.302 -14.925   1.065  1.00  0.00    -0.285 N 
HETATM   18  N5  UNL     1       9.831 -16.129   1.054  1.00  0.00    -0.240 N 
HETATM   19  N6  UNL     1      11.100 -16.070   1.480  1.00  0.00    -0.283 N 
ATOM     20  H5  UNL     1       9.348 -16.980   0.764  1.00  0.00     0.208 HD
ATOM     21  H6  UNL     1      11.733 -16.865   1.566  1.00  0.00     0.188 HD
BRANCH  17  22
HETATM   22  C9  UNL     1       7.962 -14.529   0.686  1.00  0.00     0.175 C 
BRANCH  22  23
HETATM   23  C10 UNL     1       8.012 -13.258  -0.132  1.00  0.00     0.185 C 
BRANCH  23  24
HETATM   24  O2  UNL     1       7.144 -12.282   0.324  1.00  0.00    -0.399 OA
ATOM     25  H2  UNL     1       7.584 -11.573   0.779  1.00  0.00     0.209 HD
ENDBRANCH  23  24
ENDBRANCH  22  23
ENDBRANCH  17  22
ENDBRANCH  10  15
ENDBRANCH   4   8
BRANCH   5  26
HETATM   26  O3  UNL     1      16.996 -13.135   1.489  1.00  0.00    -0.349 OA
HETATM   27  C12 UNL     1      16.600 -13.355   0.149  1.00  0.00     0.210 C 
ENDBRANCH   5  26
BRANCH   1  28
HETATM   28  N1  UNL     1      15.394  -8.564   4.140  1.00  0.00    -0.153 N 
HETATM   29  C2  UNL     1      14.829  -8.534   5.274  1.00  0.00     0.239 C 
ATOM     30  H1  UNL     1      15.568  -7.671   3.679  1.00  0.00     0.188 HD
BRANCH  29  31
HETATM   31  O1  UNL     1      14.472  -7.334   5.847  1.00  0.00    -0.327 OA
HETATM   32  C1  UNL     1      15.409  -6.328   6.180  1.00  0.00     0.213 C 
ENDBRANCH  29  31
BRANCH  29  33
HETATM   33  N15 UNL     1      14.557  -9.734   5.968  1.00  0.00    -0.296 N 
HETATM   34  C16 UNL     1      13.236 -10.007   6.419  1.00  0.00     0.189 C 
HETATM   35  N16 UNL     1      12.783 -11.211   6.479  1.00  0.00    -0.373 N 
HETATM   36  N17 UNL     1      12.368  -8.965   6.818  1.00  0.00    -0.064 NA
ATOM     37 2H16 UNL     1      13.409 -11.962   6.191  1.00  0.00     0.158 HD
ATOM     38 1H16 UNL     1      11.835 -11.406   6.802  1.00  0.00     0.158 HD
ATOM     39  H15 UNL     1      15.307 -10.402   6.146  1.00  0.00     0.172 HD
ENDBRANCH  29  33
ENDBRANCH   1  28
BRANCH   6  40
HETATM   40  N9  UNL     1      18.571 -11.029   1.664  1.00  0.00    -0.320 N 
ATOM     41  H9  UNL     1      18.534 -10.895   0.653  1.00  0.00     0.169 HD
BRANCH  40  42
HETATM   42  C14 UNL     1      19.845 -11.304   2.132  1.00  0.00     0.165 A 
HETATM   43  N10 UNL     1      20.799 -12.205   1.840  1.00  0.00    -0.281 N 
HETATM   44  N11 UNL     1      21.561 -11.685   2.771  1.00  0.00    -0.283 N 
ATOM     45  H10 UNL     1      20.890 -12.972   1.174  1.00  0.00     0.188 HD
HETATM   46  C15 UNL     1      20.669 -10.759   3.120  1.00  0.00     0.176 A 
ATOM     47  H11 UNL     1      22.498 -11.908   3.106  1.00  0.00     0.188 HD
HETATM   48  N12 UNL     1      20.604  -9.709   4.067  1.00  0.00    -0.077 NA
ENDBRANCH  40  42
ENDBRANCH   6  40
BRANCH   7  49
HETATM   49  N14 UNL     1      17.849  -8.709   2.966  1.00  0.00    -0.322 N 
ATOM     50 2H14 UNL     1      17.464  -7.783   2.778  1.00  0.00     0.178 HD
ATOM     51 1H14 UNL     1      18.820  -8.881   3.229  1.00  0.00     0.178 HD
ENDBRANCH   7  49
TORSDOF 12
ENDMDL
MODEL 3
REMARK VINA RESULT: -7.470673183      2.804      8.130
REMARK  12 active torsions:
REMARK  status: ('A' for Active; 'I' for Inactive)
REMARK    1  A    between atoms: O1_2  and  C2_3 
REMARK    2  A    between atoms: C2_3  and  N15_45 
REMARK    3  A    between atoms: N1_4  and  C3_6 
REMARK    4  A    between atoms: C4_9  and  N3_10 
REMARK    5  A    between atoms: C6_12  and  C7_13 
REMARK    6  A    between atoms: N4_15  and  C9_16 
REMARK    7  A    between atoms: C9_16  and  C10_17 
REMARK    8  A    between atoms: C10_17  and  O2_18 
REMARK    9  A    between atoms: C11_28  and  O3_29 
REMARK   10  A    between atoms: C13_31  and  N9_32 
REMARK   11  A    between atoms: N9_32  and  C14_34 
REMARK   12  A    between atoms: N13_41  and  N14_42 
REMARK       I    between atoms: N15_45  and  C16_47 
ROOT
HETATM    1  C3  UNL     1      15.831  -9.977   3.349  1.00  0.00     0.709 A 
HETATM    2  N2  UNL     1      14.973 -10.992   3.274  1.00  0.00    -0.170 N 
ATOM      3  H2  UNL     1      14.048 -10.875   3.687  1.00  0.00     0.186 HD
HETATM    4  C4  UNL     1      15.262 -12.160   2.684  1.00  0.00     0.180 A 
HETATM    5  C11 UNL     1      16.511 -12.306   2.131  1.00  0.00     0.162 A 
HETATM    6  C13 UNL     1      17.456 -11.264   2.184  1.00  0.00     0.184 A 
HETATM    7  N13 UNL     1      17.063 -10.149   2.794  1.00  0.00    -0.073 N 
ENDROOT
BRANCH   4   8
HETATM    8  N3  UNL     1      14.277 -13.179   2.653  1.00  0.00    -0.231 N 
HETATM    9  C5  UNL     1      13.101 -13.159   1.953  1.00  0.00     0.153 A 
HETATM   10  C6  UNL     1      12.473 -14.331   2.213  1.00  0.00     0.096 A 
HETATM   11  N7  UNL     1      13.286 -15.003   3.048  1.00  0.00    -0.282 N 
HETATM   12  N8  UNL     1      14.378 -14.315   3.320  1.00  0.00    -0.234 N 
ATOM     13  H7  UNL     1      13.083 -15.929   3.424  1.00  0.00     0.188 HD
ATOM     14  H8  UNL     1      15.147 -14.604   3.925  1.00  0.00     0.209 HD
BRANCH  10  15
HETATM   15  C7  UNL     1      11.191 -14.814   1.716  1.00  0.00     0.096 A 
HETATM   16  C8  UNL     1      10.096 -14.027   1.376  1.00  0.00     0.145 A 
HETATM   17  N4  UNL     1       9.098 -14.827   0.962  1.00  0.00    -0.285 N 
HETATM   18  N5  UNL     1       9.534 -16.066   1.033  1.00  0.00    -0.240 N 
HETATM   19  N6  UNL     1      10.795 -16.077   1.486  1.00  0.00    -0.283 N 
ATOM     20  H5  UNL     1       8.993 -16.894   0.782  1.00  0.00     0.208 HD
ATOM     21  H6  UNL     1      11.364 -16.911   1.632  1.00  0.00     0.188 HD
BRANCH  17  22
HETATM   22  C9  UNL     1       7.800 -14.355   0.529  1.00  0.00     0.175 C 
BRANCH  22  23
HETATM   23  C10 UNL     1       7.894 -13.809  -0.878  1.00  0.00     0.185 C 
BRANCH  23  24
HETATM   24  O2  UNL     1       9.004 -14.265  -1.567  1.00  0.00    -0.399 OA
ATOM     25  H2  UNL     1       9.822 -14.084  -1.119  1.00  0.00     0.209 HD
ENDBRANCH  23  24
ENDBRANCH  22  23
ENDBRANCH  17  22
ENDBRANCH  10  15
ENDBRANCH   4   8
BRANCH   5  26
HETATM   26  O3  UNL     1      16.896 -13.482   1.499  1.00  0.00    -0.349 OA
HETATM   27  C12 UNL     1      16.473 -13.745   0.176  1.00  0.00     0.210 C 
ENDBRANCH   5  26
BRANCH   1  28
HETATM   28  N1  UNL     1      15.466  -8.764   3.987  1.00  0.00    -0.153 N 
HETATM   29  C2  UNL     1      14.913  -8.673   5.123  1.00  0.00     0.239 C 
ATOM     30  H1  UNL     1      15.665  -7.896   3.492  1.00  0.00     0.188 HD
BRANCH  29  31
HETATM   31  O1  UNL     1      14.599  -7.441   5.653  1.00  0.00    -0.327 OA
HETATM   32  C1  UNL     1      15.540  -6.391   5.776  1.00  0.00     0.213 C 
ENDBRANCH  29  31
BRANCH  29  33
HETATM   33  N15 UNL     1      14.608  -9.836   5.864  1.00  0.00    -0.296 N 
HETATM   34  C16 UNL     1      13.283 -10.048   6.336  1.00  0.00     0.189 C 
HETATM   35  N16 UNL     1      12.790 -11.233   6.445  1.00  0.00    -0.373 N 
HETATM   36  N17 UNL     1      12.454  -8.963   6.703  1.00  0.00    -0.064 NA
ATOM     37 2H16 UNL     1      13.388 -12.015   6.180  1.00  0.00     0.158 HD
ATOM     38 1H16 UNL     1      11.840 -11.384   6.783  1.00  0.00     0.158 HD
ATOM     39  H15 UNL     1      15.337 -10.522   6.061  1.00  0.00     0.172 HD
ENDBRANCH  29  33
ENDBRANCH   1  28
BRANCH   6  40
HETATM   40  N9  UNL     1      18.576 -11.456   1.666  1.00  0.00    -0.320 N 
ATOM     41  H9  UNL     1      19.205 -11.997   2.259  1.00  0.00     0.169 HD
BRANCH  40  42
HETATM   42  C14 UNL     1      19.144 -11.091   0.458  1.00  0.00     0.165 A 
HETATM   43  N10 UNL     1      20.395 -11.009  -0.027  1.00  0.00    -0.281 N 
HETATM   44  N11 UNL     1      19.914 -10.587  -1.170  1.00  0.00    -0.283 N 
ATOM     45  H10 UNL     1      21.327 -11.196   0.342  1.00  0.00     0.188 HD
HETATM   46  C15 UNL     1      18.646 -10.641  -0.768  1.00  0.00     0.176 A 
ATOM     47  H11 UNL     1      20.353 -10.315  -2.050  1.00  0.00     0.188 HD
HETATM   48  N12 UNL     1      17.380 -10.363  -1.338  1.00  0.00    -0.077 NA
ENDBRANCH  40  42
ENDBRANCH   6  40
BRANCH   7  49
HETATM   49  N14 UNL     1      17.942  -9.068   2.888  1.00  0.00    -0.322 N 
ATOM     50 2H14 UNL     1      17.706  -8.277   3.488  1.00  0.00     0.178 HD
ATOM     51 1H14 UNL     1      18.798  -9.131   2.336  1.00  0.00     0.178 HD
ENDBRANCH   7  49
TORSDOF 12
ENDMDL
MODEL 4
REMARK VINA RESULT: -7.394556664      4.746      7.931
REMARK  12 active torsions:
REMARK  status: ('A' for Active; 'I' for Inactive)
REMARK    1  A    between atoms: O1_2  and  C2_3 
REMARK    2  A    between atoms: C2_3  and  N15_45 
REMARK    3  A    between atoms: N1_4  and  C3_6 
REMARK    4  A    between atoms: C4_9  and  N3_10 
REMARK    5  A    between atoms: C6_12  and  C7_13 
REMARK    6  A    between atoms: N4_15  and  C9_16 
REMARK    7  A    between atoms: C9_16  and  C10_17 
REMARK    8  A    between atoms: C10_17  and  O2_18 
REMARK    9  A    between atoms: C11_28  and  O3_29 
REMARK   10  A    between atoms: C13_31  and  N9_32 
REMARK   11  A    between atoms: N9_32  and  C14_34 
REMARK   12  A    between atoms: N13_41  and  N14_42 
REMARK       I    between atoms: N15_45  and  C16_47 
ROOT
HETATM    1  C3  UNL     1      20.625 -11.863   1.786  1.00  0.00     0.709 A 
HETATM    2  N2  UNL     1      19.761 -12.860   1.959  1.00  0.00    -0.170 N 
ATOM      3  H2  UNL     1      19.097 -13.060   1.212  1.00  0.00     0.186 HD
HETATM    4  C4  UNL     1      19.718 -13.615   3.066  1.00  0.00     0.180 A 
HETATM    5  C11 UNL     1      20.618 -13.336   4.067  1.00  0.00     0.162 A 
HETATM    6  C13 UNL     1      21.552 -12.292   3.933  1.00  0.00     0.184 A 
HETATM    7  N13 UNL     1      21.506 -11.608   2.793  1.00  0.00    -0.073 N 
ENDROOT
BRANCH   4   8
HETATM    8  N3  UNL     1      18.761 -14.658   3.153  1.00  0.00    -0.231 N 
HETATM    9  C5  UNL     1      17.400 -14.522   3.119  1.00  0.00     0.153 A 
HETATM   10  C6  UNL     1      16.882 -15.769   3.232  1.00  0.00     0.096 A 
HETATM   11  N7  UNL     1      17.938 -16.595   3.329  1.00  0.00    -0.282 N 
HETATM   12  N8  UNL     1      19.078 -15.934   3.283  1.00  0.00    -0.234 N 
ATOM     13  H7  UNL     1      17.867 -17.608   3.426  1.00  0.00     0.188 HD
ATOM     14  H8  UNL     1      20.017 -16.329   3.337  1.00  0.00     0.209 HD
BRANCH  10  15
HETATM   15  C7  UNL     1      15.485 -16.183   3.247  1.00  0.00     0.096 A 
HETATM   16  C8  UNL     1      14.464 -15.647   2.469  1.00  0.00     0.145 A 
HETATM   17  N4  UNL     1      13.315 -16.281   2.762  1.00  0.00    -0.285 N 
HETATM   18  N5  UNL     1      13.588 -17.180   3.683  1.00  0.00    -0.240 N 
HETATM   19  N6  UNL     1      14.892 -17.135   3.987  1.00  0.00    -0.283 N 
ATOM     20  H5  UNL     1      12.909 -17.816   4.102  1.00  0.00     0.208 HD
ATOM     21  H6  UNL     1      15.361 -17.728   4.672  1.00  0.00     0.188 HD
BRANCH  17  22
HETATM   22  C9  UNL     1      12.040 -15.986   2.146  1.00  0.00     0.175 C 
BRANCH  22  23
HETATM   23  C10 UNL     1      11.984 -14.527   1.750  1.00  0.00     0.185 C 
BRANCH  23  24
HETATM   24  O2  UNL     1      10.742 -14.137   1.280  1.00  0.00    -0.399 OA
ATOM     25  H2  UNL     1      10.373 -14.746   0.651  1.00  0.00     0.209 HD
ENDBRANCH  23  24
ENDBRANCH  22  23
ENDBRANCH  17  22
ENDBRANCH  10  15
ENDBRANCH   4   8
BRANCH   5  26
HETATM   26  O3  UNL     1      20.645 -14.067   5.247  1.00  0.00    -0.349 OA
HETATM   27  C12 UNL     1      21.595 -15.101   5.418  1.00  0.00     0.210 C 
ENDBRANCH   5  26
BRANCH   1  28
HETATM   28  N1  UNL     1      20.622 -11.100   0.591  1.00  0.00    -0.153 N 
HETATM   29  C2  UNL     1      21.237 -11.405  -0.474  1.00  0.00     0.239 C 
ATOM     30  H1  UNL     1      20.080 -10.236   0.588  1.00  0.00     0.188 HD
BRANCH  29  31
HETATM   31  O1  UNL     1      21.167 -10.590  -1.582  1.00  0.00    -0.327 OA
HETATM   32  C1  UNL     1      19.971  -9.962  -2.003  1.00  0.00     0.213 C 
ENDBRANCH  29  31
BRANCH  29  33
HETATM   33  N15 UNL     1      22.007 -12.588  -0.540  1.00  0.00    -0.296 N 
HETATM   34  C16 UNL     1      21.653 -13.612  -1.460  1.00  0.00     0.189 C 
HETATM   35  N16 UNL     1      22.546 -14.361  -2.008  1.00  0.00    -0.373 N 
HETATM   36  N17 UNL     1      20.304 -13.847  -1.811  1.00  0.00    -0.064 NA
ATOM     37 2H16 UNL     1      23.519 -14.191  -1.754  1.00  0.00     0.158 HD
ATOM     38 1H16 UNL     1      22.292 -15.096  -2.668  1.00  0.00     0.158 HD
ATOM     39  H15 UNL     1      22.815 -12.706   0.072  1.00  0.00     0.172 HD
ENDBRANCH  29  33
ENDBRANCH   1  28
BRANCH   6  40
HETATM   40  N9  UNL     1      22.343 -12.085   4.877  1.00  0.00    -0.320 N 
ATOM     41  H9  UNL     1      23.160 -12.695   4.858  1.00  0.00     0.169 HD
BRANCH  40  42
HETATM   42  C14 UNL     1      22.346 -11.201   5.943  1.00  0.00     0.165 A 
HETATM   43  N10 UNL     1      22.996 -10.064   6.243  1.00  0.00    -0.281 N 
HETATM   44  N11 UNL     1      22.360 -10.013   7.387  1.00  0.00    -0.283 N 
ATOM     45  H10 UNL     1      23.692  -9.484   5.775  1.00  0.00     0.188 HD
HETATM   46  C15 UNL     1      21.674 -11.133   7.167  1.00  0.00     0.176 A 
ATOM     47  H11 UNL     1      22.381  -9.353   8.165  1.00  0.00     0.188 HD
HETATM   48  N12 UNL     1      20.708 -11.895   7.867  1.00  0.00    -0.077 NA
ENDBRANCH  40  42
ENDBRANCH   6  40
BRANCH   7  49
HETATM   49  N14 UNL     1      22.400 -10.556   2.584  1.00  0.00    -0.322 N 
ATOM     50 2H14 UNL     1      22.454  -9.798   3.264  1.00  0.00     0.178 HD
ATOM     51 1H14 UNL     1      22.967 -10.605   1.737  1.00  0.00     0.178 HD
ENDBRANCH   7  49
TORSDOF 12
ENDMDL
MODEL 5
REMARK VINA RESULT: -7.350932242      1.575      1.699
REMARK  12 active torsions:
REMARK  status: ('A' for Active; 'I' for Inactive)
REMARK    1  A    between atoms: O1_2  and  C2_3 
REMARK    2  A    between atoms: C2_3  and  N15_45 
REMARK    3  A    between atoms: N1_4  and  C3_6 
REMARK    4  A    between atoms: C4_9  and  N3_10 
REMARK    5  A    between atoms: C6_12  and  C7_13 
REMARK    6  A    between atoms: N4_15  and  C9_16 
REMARK    7  A    between atoms: C9_16  and  C10_17 
REMARK    8  A    between atoms: C10_17  and  O2_18 
REMARK    9  A    between atoms: C11_28  and  O3_29 
REMARK   10  A    between atoms: C13_31  and  N9_32 
REMARK   11  A    between atoms: N9_32  and  C14_34 
REMARK   12  A    between atoms: N13_41  and  N14_42 
REMARK       I    between atoms: N15_45  and  C16_47 
ROOT
HETATM    1  C3  UNL     1      17.749 -13.012   1.066  1.00  0.00     0.709 A 
HETATM    2  N2  UNL     1      17.080 -12.266   1.941  1.00  0.00    -0.170 N 
ATOM      3  H2  UNL     1      17.601 -11.588   2.497  1.00  0.00     0.186 HD
HETATM    4  C4  UNL     1      15.756 -12.358   2.129  1.00  0.00     0.180 A 
HETATM    5  C11 UNL     1      15.065 -13.275   1.374  1.00  0.00     0.162 A 
HETATM    6  C13 UNL     1      15.725 -14.089   0.435  1.00  0.00     0.184 A 
HETATM    7  N13 UNL     1      17.040 -13.913   0.330  1.00  0.00    -0.073 N 
ENDROOT
BRANCH   4   8
HETATM    8  N3  UNL     1      15.135 -11.515   3.085  1.00  0.00    -0.231 N 
HETATM    9  C5  UNL     1      15.577 -10.290   3.504  1.00  0.00     0.153 A 
HETATM   10  C6  UNL     1      14.680  -9.845   4.418  1.00  0.00     0.096 A 
HETATM   11  N7  UNL     1      13.746 -10.807   4.511  1.00  0.00    -0.282 N 
HETATM   12  N8  UNL     1      14.012 -11.821   3.711  1.00  0.00    -0.234 N 
ATOM     13  H7  UNL     1      12.933 -10.759   5.125  1.00  0.00     0.188 HD
ATOM     14  H8  UNL     1      13.459 -12.672   3.597  1.00  0.00     0.209 HD
BRANCH  10  15
HETATM   15  C7  UNL     1      14.679  -8.594   5.166  1.00  0.00     0.096 A 
HETATM   16  C8  UNL     1      15.505  -7.500   4.933  1.00  0.00     0.145 A 
HETATM   17  N4  UNL     1      15.214  -6.538   5.826  1.00  0.00    -0.285 N 
HETATM   18  N5  UNL     1      14.247  -6.994   6.592  1.00  0.00    -0.240 N 
HETATM   19  N6  UNL     1      13.912  -8.233   6.208  1.00  0.00    -0.283 N 
ATOM     20  H5  UNL     1      13.818  -6.482   7.363  1.00  0.00     0.208 HD
ATOM     21  H6  UNL     1      13.190  -8.811   6.639  1.00  0.00     0.188 HD
BRANCH  17  22
HETATM   22  C9  UNL     1      15.877  -5.253   5.885  1.00  0.00     0.175 C 
BRANCH  22  23
HETATM   23  C10 UNL     1      15.775  -4.557   4.546  1.00  0.00     0.185 C 
BRANCH  23  24
HETATM   24  O2  UNL     1      14.477  -4.219   4.205  1.00  0.00    -0.399 OA
ATOM     25  H2  UNL     1      14.429  -3.501   3.586  1.00  0.00     0.209 HD
ENDBRANCH  23  24
ENDBRANCH  22  23
ENDBRANCH  17  22
ENDBRANCH  10  15
ENDBRANCH   4   8
BRANCH   5  26
HETATM   26  O3  UNL     1      13.691 -13.439   1.503  1.00  0.00    -0.349 OA
HETATM   27  C12 UNL     1      13.176 -14.438   2.360  1.00  0.00     0.210 C 
ENDBRANCH   5  26
BRANCH   1  28
HETATM   28  N1  UNL     1      19.151 -12.866   0.911  1.00  0.00    -0.153 N 
HETATM   29  C2  UNL     1      19.736 -11.827   0.484  1.00  0.00     0.239 C 
ATOM     30  H1  UNL     1      19.736 -13.663   1.164  1.00  0.00     0.188 HD
BRANCH  29  31
HETATM   31  O1  UNL     1      21.108 -11.791   0.372  1.00  0.00    -0.327 OA
HETATM   32  C1  UNL     1      21.830 -12.596  -0.541  1.00  0.00     0.213 C 
ENDBRANCH  29  31
BRANCH  29  33
HETATM   33  N15 UNL     1      18.988 -10.687   0.116  1.00  0.00    -0.296 N 
HETATM   34  C16 UNL     1      18.093 -10.754  -0.987  1.00  0.00     0.189 C 
HETATM   35  N16 UNL     1      17.006 -10.064  -1.013  1.00  0.00    -0.373 N 
HETATM   36  N17 UNL     1      18.362 -11.584  -2.100  1.00  0.00    -0.064 NA
ATOM     37 2H16 UNL     1      16.812  -9.466  -0.210  1.00  0.00     0.158 HD
ATOM     38 1H16 UNL     1      16.364 -10.113  -1.804  1.00  0.00     0.158 HD
ATOM     39  H15 UNL     1      19.090  -9.818   0.640  1.00  0.00     0.172 HD
ENDBRANCH  29  33
ENDBRANCH   1  28
BRANCH   6  40
HETATM   40  N9  UNL     1      15.044 -14.905  -0.220  1.00  0.00    -0.320 N 
ATOM     41  H9  UNL     1      14.553 -14.479  -1.006  1.00  0.00     0.169 HD
BRANCH  40  42
HETATM   42  C14 UNL     1      14.815 -16.266  -0.106  1.00  0.00     0.165 A 
HETATM   43  N10 UNL     1      13.751 -17.073  -0.251  1.00  0.00    -0.281 N 
HETATM   44  N11 UNL     1      14.501 -18.102   0.059  1.00  0.00    -0.283 N 
ATOM     45  H10 UNL     1      12.770 -16.940  -0.498  1.00  0.00     0.188 HD
HETATM   46  C15 UNL     1      15.603 -17.372   0.222  1.00  0.00     0.176 A 
ATOM     47  H11 UNL     1      14.310 -19.100   0.145  1.00  0.00     0.188 HD
HETATM   48  N12 UNL     1      16.951 -17.622   0.571  1.00  0.00    -0.077 NA
ENDBRANCH  40  42
ENDBRANCH   6  40
BRANCH   7  49
HETATM   49  N14 UNL     1      17.768 -14.682  -0.579  1.00  0.00    -0.322 N 
ATOM     50 2H14 UNL     1      18.734 -14.931  -0.368  1.00  0.00     0.178 HD
ATOM     51 1H14 UNL     1      17.279 -14.960  -1.431  1.00  0.00     0.178 HD
ENDBRANCH   7  49
TORSDOF 12
ENDMDL
