MODEL 1
REMARK VINA RESULT: -7.998517313      0.000      0.000
REMARK  12 active torsions:
REMARK  status: ('A' for Active; 'I' for Inactive)
REMARK    1  A    between atoms: C3_4  and  C4_5 
REMARK    2  A    between atoms: C4_5  and  O1_6 
REMARK    3  A    between atoms: N2_8  and  O2_10 
REMARK    4  A    between atoms: C5_14  and  O3_15 
REMARK    5  A    between atoms: C6_17  and  C7_18 
REMARK    6  A    between atoms: C8_19  and  N4_20 
REMARK    7  A    between atoms: C9_25  and  C10_26 
REMARK    8  A    between atoms: C10_26  and  O4_27 
REMARK    9  A    between atoms: O4_27  and  C11_28 
REMARK   10  A    between atoms: C11_28  and  C12_29 
REMARK   11  A    between atoms: N10_36  and  C13_37 
REMARK   12  A    between atoms: C14_43  and  N13_44 
ROOT
HETATM    1  N1  UNL     1      21.921 -10.109   4.770  1.00  0.00    -0.191 NA
HETATM    2  C1  UNL     1      21.206 -10.835   4.182  1.00  0.00     0.106 C 
HETATM    3  C2  UNL     1      20.309 -11.700   3.448  1.00  0.00     0.126 A 
HETATM    4  C3  UNL     1      20.498 -13.058   3.526  1.00  0.00     0.112 A 
HETATM    5  N3  UNL     1      19.621 -13.826   2.813  1.00  0.00    -0.331 N 
ATOM      6  H3  UNL     1      19.714 -14.841   2.833  1.00  0.00     0.168 HD
HETATM    7  C5  UNL     1      18.643 -13.270   2.090  1.00  0.00     0.157 A 
HETATM    8  C6  UNL     1      18.424 -11.915   1.986  1.00  0.00     0.099 A 
HETATM    9  C15 UNL     1      19.289 -11.105   2.692  1.00  0.00     0.211 A 
HETATM   10  O8  UNL     1      19.216  -9.870   2.691  1.00  0.00    -0.286 OA
ENDROOT
BRANCH   4  11
HETATM   11  C4  UNL     1      21.543 -13.702   4.296  1.00  0.00     0.189 C 
HETATM   12  N2  UNL     1      21.438 -14.113   5.490  1.00  0.00    -0.246 N 
ATOM     13  H2  UNL     1      20.547 -13.990   5.973  1.00  0.00     0.196 HD
BRANCH  11  14
HETATM   14  O1  UNL     1      22.784 -13.893   3.673  1.00  0.00    -0.343 OA
ATOM     15  H1  UNL     1      23.395 -13.166   3.678  1.00  0.00     0.219 HD
ENDBRANCH  11  14
BRANCH  12  16
HETATM   16  O2  UNL     1      22.468 -14.717   6.161  1.00  0.00    -0.288 OA
ATOM     17  H2  UNL     1      23.322 -14.314   6.264  1.00  0.00     0.244 HD
ENDBRANCH  12  16
ENDBRANCH   4  11
BRANCH   8  18
HETATM   18  C7  UNL     1      17.419 -11.366   1.053  1.00  0.00     0.125 A 
HETATM   19  C8  UNL     1      16.111 -11.105   1.398  1.00  0.00     0.173 A 
HETATM   20  N8  UNL     1      15.596 -10.419   0.317  1.00  0.00    -0.267 N 
HETATM   21  N9  UNL     1      16.528 -10.291  -0.596  1.00  0.00    -0.232 N 
ATOM     22  H8  UNL     1      14.642 -10.068   0.240  1.00  0.00     0.190 HD
HETATM   23  N10 UNL     1      17.677 -10.875  -0.159  1.00  0.00    -0.215 N 
ATOM     24  H9  UNL     1      16.410  -9.826  -1.495  1.00  0.00     0.209 HD
BRANCH  19  25
HETATM   25  N4  UNL     1      15.336 -11.534   2.506  1.00  0.00    -0.207 N 
HETATM   26  N5  UNL     1      14.917 -12.845   2.750  1.00  0.00     0.002 NA
HETATM   27  N6  UNL     1      13.813 -12.736   3.609  1.00  0.00    -0.007 NA
HETATM   28  N7  UNL     1      13.954 -11.483   4.197  1.00  0.00    -0.272 N 
HETATM   29  C9  UNL     1      14.824 -10.754   3.593  1.00  0.00     0.140 C 
ATOM     30  H7  UNL     1      13.427 -11.178   5.016  1.00  0.00     0.185 HD
BRANCH  29  31
HETATM   31  C10 UNL     1      15.274  -9.389   3.921  1.00  0.00     0.247 C 
BRANCH  31  32
HETATM   32  O4  UNL     1      15.439  -9.147   5.261  1.00  0.00    -0.373 OA
BRANCH  32  33
HETATM   33  C11 UNL     1      14.619  -8.218   5.811  1.00  0.00     0.281 C 
BRANCH  33  34
HETATM   34  C12 UNL     1      15.273  -6.885   5.968  1.00  0.00     0.197 C 
HETATM   35  O5  UNL     1      16.178  -6.807   6.839  1.00  0.00    -0.646 OA
HETATM   36  O6  UNL     1      14.923  -5.786   5.215  1.00  0.00    -0.646 OA
ENDBRANCH  33  34
ENDBRANCH  32  33
ENDBRANCH  31  32
ENDBRANCH  29  31
ENDBRANCH  19  25
BRANCH  23  37
HETATM   37  C13 UNL     1      18.874 -10.875  -0.899  1.00  0.00     0.196 A 
HETATM   38  N11 UNL     1      19.645  -9.809  -1.273  1.00  0.00    -0.220 N 
HETATM   39  O7  UNL     1      20.682 -10.199  -1.918  1.00  0.00    -0.153 OA
ATOM     40  H11 UNL     1      19.425  -8.835  -1.065  1.00  0.00     0.198 HD
HETATM   41  N12 UNL     1      20.669 -11.493  -2.011  1.00  0.00    -0.222 N 
HETATM   42  C14 UNL     1      19.554 -11.978  -1.388  1.00  0.00     0.169 A 
ATOM     43  H12 UNL     1      21.380 -12.058  -2.476  1.00  0.00     0.198 HD
BRANCH  42  44
HETATM   44  N13 UNL     1      19.252 -13.210  -1.299  1.00  0.00    -0.381 N 
ATOM     45 2H13 UNL     1      18.794 -13.639  -0.495  1.00  0.00     0.157 HD
ATOM     46 1H13 UNL     1      19.397 -13.959  -1.977  1.00  0.00     0.157 HD
ENDBRANCH  42  44
ENDBRANCH  23  37
ENDBRANCH   8  18
BRANCH   7  47
HETATM   47  O3  UNL     1      17.798 -14.166   1.415  1.00  0.00    -0.345 OA
ATOM     48  H3  UNL     1      17.109 -13.772   0.894  1.00  0.00     0.219 HD
ENDBRANCH   7  47
TORSDOF 12
ENDMDL
MODEL 2
REMARK VINA RESULT: -7.924147703      3.141      5.248
REMARK  12 active torsions:
REMARK  status: ('A' for Active; 'I' for Inactive)
REMARK    1  A    between atoms: C3_4  and  C4_5 
REMARK    2  A    between atoms: C4_5  and  O1_6 
REMARK    3  A    between atoms: N2_8  and  O2_10 
REMARK    4  A    between atoms: C5_14  and  O3_15 
REMARK    5  A    between atoms: C6_17  and  C7_18 
REMARK    6  A    between atoms: C8_19  and  N4_20 
REMARK    7  A    between atoms: C9_25  and  C10_26 
REMARK    8  A    between atoms: C10_26  and  O4_27 
REMARK    9  A    between atoms: O4_27  and  C11_28 
REMARK   10  A    between atoms: C11_28  and  C12_29 
REMARK   11  A    between atoms: N10_36  and  C13_37 
REMARK   12  A    between atoms: C14_43  and  N13_44 
ROOT
HETATM    1  N1  UNL     1      11.022 -15.054   1.327  1.00  0.00    -0.191 NA
HETATM    2  C1  UNL     1      12.124 -14.826   1.669  1.00  0.00     0.106 C 
HETATM    3  C2  UNL     1      13.474 -14.511   2.080  1.00  0.00     0.126 A 
HETATM    4  C3  UNL     1      14.253 -15.518   2.596  1.00  0.00     0.112 A 
HETATM    5  N3  UNL     1      15.520 -15.164   2.966  1.00  0.00    -0.331 N 
ATOM      6  H3  UNL     1      16.143 -15.871   3.356  1.00  0.00     0.168 HD
HETATM    7  C5  UNL     1      15.957 -13.908   2.826  1.00  0.00     0.157 A 
HETATM    8  C6  UNL     1      15.205 -12.874   2.317  1.00  0.00     0.099 A 
HETATM    9  C15 UNL     1      13.920 -13.190   1.931  1.00  0.00     0.211 A 
HETATM   10  O8  UNL     1      13.129 -12.364   1.460  1.00  0.00    -0.286 OA
ENDROOT
BRANCH   4  11
HETATM   11  C4  UNL     1      13.821 -16.891   2.764  1.00  0.00     0.189 C 
HETATM   12  N2  UNL     1      13.970 -17.824   1.919  1.00  0.00    -0.246 N 
ATOM     13  H2  UNL     1      14.431 -17.613   1.034  1.00  0.00     0.196 HD
BRANCH  11  14
HETATM   14  O1  UNL     1      13.182 -17.227   3.966  1.00  0.00    -0.343 OA
ATOM     15  H1  UNL     1      13.624 -17.839   4.542  1.00  0.00     0.219 HD
ENDBRANCH  11  14
BRANCH  12  16
HETATM   16  O2  UNL     1      13.537 -19.104   2.143  1.00  0.00    -0.288 OA
ATOM     17  H2  UNL     1      13.794 -19.838   1.597  1.00  0.00     0.244 HD
ENDBRANCH  12  16
ENDBRANCH   4  11
BRANCH   8  18
HETATM   18  C7  UNL     1      15.701 -11.482   2.330  1.00  0.00     0.125 A 
HETATM   19  C8  UNL     1      15.379 -10.559   3.300  1.00  0.00     0.173 A 
HETATM   20  N8  UNL     1      16.208  -9.485   3.047  1.00  0.00    -0.267 N 
HETATM   21  N9  UNL     1      16.956  -9.753   2.005  1.00  0.00    -0.232 N 
ATOM     22  H8  UNL     1      16.234  -8.619   3.586  1.00  0.00     0.190 HD
HETATM   23  N10 UNL     1      16.658 -10.996   1.538  1.00  0.00    -0.215 N 
ATOM     24  H9  UNL     1      17.654  -9.127   1.605  1.00  0.00     0.209 HD
BRANCH  19  25
HETATM   25  N4  UNL     1      14.349 -10.552   4.274  1.00  0.00    -0.207 N 
HETATM   26  N5  UNL     1      13.337 -11.509   4.399  1.00  0.00     0.002 NA
HETATM   27  N6  UNL     1      12.305 -10.878   5.109  1.00  0.00    -0.007 NA
HETATM   28  N7  UNL     1      12.929  -9.825   5.768  1.00  0.00    -0.272 N 
HETATM   29  C9  UNL     1      14.113  -9.600   5.318  1.00  0.00     0.140 C 
ATOM     30  H7  UNL     1      12.498  -9.291   6.523  1.00  0.00     0.185 HD
BRANCH  29  31
HETATM   31  C10 UNL     1      15.097  -8.598   5.767  1.00  0.00     0.247 C 
BRANCH  31  32
HETATM   32  O4  UNL     1      15.013  -7.386   5.129  1.00  0.00    -0.373 OA
BRANCH  32  33
HETATM   33  C11 UNL     1      15.523  -6.319   5.790  1.00  0.00     0.281 C 
BRANCH  33  34
HETATM   34  C12 UNL     1      15.667  -5.112   4.924  1.00  0.00     0.197 C 
HETATM   35  O5  UNL     1      16.842  -4.713   4.713  1.00  0.00    -0.646 OA
HETATM   36  O6  UNL     1      14.590  -4.452   4.376  1.00  0.00    -0.646 OA
ENDBRANCH  33  34
ENDBRANCH  32  33
ENDBRANCH  31  32
ENDBRANCH  29  31
ENDBRANCH  19  25
BRANCH  23  37
HETATM   37  C13 UNL     1      17.316 -11.590   0.445  1.00  0.00     0.196 A 
HETATM   38  N11 UNL     1      16.896 -11.686  -0.853  1.00  0.00    -0.220 N 
HETATM   39  O7  UNL     1      17.778 -12.272  -1.576  1.00  0.00    -0.153 OA
ATOM     40  H11 UNL     1      16.002 -11.339  -1.199  1.00  0.00     0.198 HD
HETATM   41  N12 UNL     1      18.798 -12.589  -0.839  1.00  0.00    -0.222 N 
HETATM   42  C14 UNL     1      18.567 -12.185   0.446  1.00  0.00     0.169 A 
ATOM     43  H12 UNL     1      19.639 -13.064  -1.167  1.00  0.00     0.198 HD
BRANCH  42  44
HETATM   44  N13 UNL     1      19.378 -12.344   1.412  1.00  0.00    -0.381 N 
ATOM     45 2H13 UNL     1      19.768 -11.587   1.974  1.00  0.00     0.157 HD
ATOM     46 1H13 UNL     1      19.767 -13.208   1.790  1.00  0.00     0.157 HD
ENDBRANCH  42  44
ENDBRANCH  23  37
ENDBRANCH   8  18
BRANCH   7  47
HETATM   47  O3  UNL     1      17.282 -13.675   3.229  1.00  0.00    -0.345 OA
ATOM     48  H3  UNL     1      17.955 -14.008   2.648  1.00  0.00     0.219 HD
ENDBRANCH   7  47
TORSDOF 12
ENDMDL
MODEL 3
REMARK VINA RESULT: -7.915492951      3.125      6.819
REMARK  12 active torsions:
REMARK  status: ('A' for Active; 'I' for Inactive)
REMARK    1  A    between atoms: C3_4  and  C4_5 
REMARK    2  A    between atoms: C4_5  and  O1_6 
REMARK    3  A    between atoms: N2_8  and  O2_10 
REMARK    4  A    between atoms: C5_14  and  O3_15 
REMARK    5  A    between atoms: C6_17  and  C7_18 
REMARK    6  A    between atoms: C8_19  and  N4_20 
REMARK    7  A    between atoms: C9_25  and  C10_26 
REMARK    8  A    between atoms: C10_26  and  O4_27 
REMARK    9  A    between atoms: O4_27  and  C11_28 
REMARK   10  A    between atoms: C11_28  and  C12_29 
REMARK   11  A    between atoms: N10_36  and  C13_37 
REMARK   12  A    between atoms: C14_43  and  N13_44 
ROOT
HETATM    1  N1  UNL     1      20.216 -12.963   1.487  1.00  0.00    -0.191 NA
HETATM    2  C1  UNL     1      19.187 -12.421   1.309  1.00  0.00     0.106 C 
HETATM    3  C2  UNL     1      17.910 -11.770   1.121  1.00  0.00     0.126 A 
HETATM    4  C3  UNL     1      17.713 -11.031  -0.019  1.00  0.00     0.112 A 
HETATM    5  N3  UNL     1      16.488 -10.439  -0.144  1.00  0.00    -0.331 N 
ATOM      6  H3  UNL     1      16.286  -9.877  -0.971  1.00  0.00     0.168 HD
HETATM    7  C5  UNL     1      15.550 -10.582   0.797  1.00  0.00     0.157 A 
HETATM    8  C6  UNL     1      15.712 -11.312   1.953  1.00  0.00     0.099 A 
HETATM    9  C15 UNL     1      16.936 -11.926   2.117  1.00  0.00     0.211 A 
HETATM   10  O8  UNL     1      17.225 -12.611   3.105  1.00  0.00    -0.286 OA
ENDROOT
BRANCH   4  11
HETATM   11  C4  UNL     1      18.700 -10.848  -1.064  1.00  0.00     0.189 C 
HETATM   12  N2  UNL     1      19.922 -10.558  -0.889  1.00  0.00    -0.246 N 
ATOM     13  H2  UNL     1      20.263 -10.437   0.066  1.00  0.00     0.196 HD
BRANCH  11  14
HETATM   14  O1  UNL     1      18.277 -11.005  -2.391  1.00  0.00    -0.343 OA
ATOM     15  H1  UNL     1      17.950 -10.236  -2.842  1.00  0.00     0.219 HD
ENDBRANCH  11  14
BRANCH  12  16
HETATM   16  O2  UNL     1      20.804 -10.400  -1.924  1.00  0.00    -0.288 OA
ATOM     17  H2  UNL     1      20.905  -9.582  -2.395  1.00  0.00     0.244 HD
ENDBRANCH  12  16
ENDBRANCH   4  11
BRANCH   8  18
HETATM   18  C7  UNL     1      14.687 -11.307   3.018  1.00  0.00     0.125 A 
HETATM   19  C8  UNL     1      13.830 -12.356   3.266  1.00  0.00     0.173 A 
HETATM   20  N8  UNL     1      13.205 -12.022   4.450  1.00  0.00    -0.267 N 
HETATM   21  N9  UNL     1      13.655 -10.862   4.863  1.00  0.00    -0.232 N 
ATOM     22  H8  UNL     1      12.503 -12.587   4.928  1.00  0.00     0.190 HD
HETATM   23  N10 UNL     1      14.584 -10.394   3.985  1.00  0.00    -0.215 N 
ATOM     24  H9  UNL     1      13.357 -10.384   5.713  1.00  0.00     0.209 HD
BRANCH  19  25
HETATM   25  N4  UNL     1      13.482 -13.481   2.477  1.00  0.00    -0.207 N 
HETATM   26  N5  UNL     1      12.526 -13.498   1.456  1.00  0.00     0.002 NA
HETATM   27  N6  UNL     1      12.154 -14.842   1.307  1.00  0.00    -0.007 NA
HETATM   28  N7  UNL     1      13.215 -15.558   1.852  1.00  0.00    -0.272 N 
HETATM   29  C9  UNL     1      14.008 -14.812   2.537  1.00  0.00     0.140 C 
ATOM     30  H7  UNL     1      13.349 -16.561   1.723  1.00  0.00     0.185 HD
BRANCH  29  31
HETATM   31  C10 UNL     1      15.248 -15.184   3.242  1.00  0.00     0.247 C 
BRANCH  31  32
HETATM   32  O4  UNL     1      15.633 -16.490   3.074  1.00  0.00    -0.373 OA
BRANCH  32  33
HETATM   33  C11 UNL     1      15.462 -17.311   4.139  1.00  0.00     0.281 C 
BRANCH  33  34
HETATM   34  C12 UNL     1      14.504 -18.424   3.868  1.00  0.00     0.197 C 
HETATM   35  O5  UNL     1      13.919 -18.395   2.754  1.00  0.00    -0.646 OA
HETATM   36  O6  UNL     1      14.257 -19.434   4.768  1.00  0.00    -0.646 OA
ENDBRANCH  33  34
ENDBRANCH  32  33
ENDBRANCH  31  32
ENDBRANCH  29  31
ENDBRANCH  19  25
BRANCH  23  37
HETATM   37  C13 UNL     1      15.280  -9.185   4.167  1.00  0.00     0.196 A 
HETATM   38  N11 UNL     1      16.322  -8.684   3.437  1.00  0.00    -0.220 N 
HETATM   39  O7  UNL     1      16.682  -7.538   3.883  1.00  0.00    -0.153 OA
ATOM     40  H11 UNL     1      16.754  -9.159   2.644  1.00  0.00     0.198 HD
HETATM   41  N12 UNL     1      15.936  -7.215   4.894  1.00  0.00    -0.222 N 
HETATM   42  C14 UNL     1      15.032  -8.214   5.123  1.00  0.00     0.169 A 
ATOM     43  H12 UNL     1      16.012  -6.352   5.433  1.00  0.00     0.198 HD
BRANCH  42  44
HETATM   44  N13 UNL     1      14.154  -8.200   6.043  1.00  0.00    -0.381 N 
ATOM     45 2H13 UNL     1      14.290  -7.795   6.969  1.00  0.00     0.157 HD
ATOM     46 1H13 UNL     1      13.202  -8.566   6.029  1.00  0.00     0.157 HD
ENDBRANCH  42  44
ENDBRANCH  23  37
ENDBRANCH   8  18
BRANCH   7  47
HETATM   47  O3  UNL     1      14.328  -9.938   0.545  1.00  0.00    -0.345 OA
ATOM     48  H3  UNL     1      14.287  -9.021   0.790  1.00  0.00     0.219 HD
ENDBRANCH   7  47
TORSDOF 12
ENDMDL
MODEL 4
REMARK VINA RESULT: -7.858786201      3.232      6.704
REMARK  12 active torsions:
REMARK  status: ('A' for Active; 'I' for Inactive)
REMARK    1  A    between atoms: C3_4  and  C4_5 
REMARK    2  A    between atoms: C4_5  and  O1_6 
REMARK    3  A    between atoms: N2_8  and  O2_10 
REMARK    4  A    between atoms: C5_14  and  O3_15 
REMARK    5  A    between atoms: C6_17  and  C7_18 
REMARK    6  A    between atoms: C8_19  and  N4_20 
REMARK    7  A    between atoms: C9_25  and  C10_26 
REMARK    8  A    between atoms: C10_26  and  O4_27 
REMARK    9  A    between atoms: O4_27  and  C11_28 
REMARK   10  A    between atoms: C11_28  and  C12_29 
REMARK   11  A    between atoms: N10_36  and  C13_37 
REMARK   12  A    between atoms: C14_43  and  N13_44 
ROOT
HETATM    1  N1  UNL     1      17.482 -17.030   4.118  1.00  0.00    -0.191 NA
HETATM    2  C1  UNL     1      16.622 -16.381   3.647  1.00  0.00     0.106 C 
HETATM    3  C2  UNL     1      15.585 -15.555   3.069  1.00  0.00     0.126 A 
HETATM    4  C3  UNL     1      14.365 -16.125   2.803  1.00  0.00     0.112 A 
HETATM    5  N3  UNL     1      13.424 -15.298   2.258  1.00  0.00    -0.331 N 
ATOM      6  H3  UNL     1      12.499 -15.667   2.040  1.00  0.00     0.168 HD
HETATM    7  C5  UNL     1      13.694 -14.013   2.006  1.00  0.00     0.157 A 
HETATM    8  C6  UNL     1      14.905 -13.408   2.256  1.00  0.00     0.099 A 
HETATM    9  C15 UNL     1      15.882 -14.210   2.807  1.00  0.00     0.211 A 
HETATM   10  O8  UNL     1      17.018 -13.804   3.081  1.00  0.00    -0.286 OA
ENDROOT
BRANCH   4  11
HETATM   11  C4  UNL     1      14.029 -17.511   3.060  1.00  0.00     0.189 C 
HETATM   12  N2  UNL     1      14.055 -18.451   2.209  1.00  0.00    -0.246 N 
ATOM     13  H2  UNL     1      14.333 -18.234   1.251  1.00  0.00     0.196 HD
BRANCH  11  14
HETATM   14  O1  UNL     1      13.641 -17.854   4.362  1.00  0.00    -0.343 OA
ATOM     15  H1  UNL     1      12.890 -18.427   4.461  1.00  0.00     0.219 HD
ENDBRANCH  11  14
BRANCH  12  16
HETATM   16  O2  UNL     1      13.725 -19.743   2.519  1.00  0.00    -0.288 OA
ATOM     17  H2  UNL     1      14.333 -20.346   2.930  1.00  0.00     0.244 HD
ENDBRANCH  12  16
ENDBRANCH   4  11
BRANCH   8  18
HETATM   18  C7  UNL     1      15.180 -12.024   1.816  1.00  0.00     0.125 A 
HETATM   19  C8  UNL     1      15.782 -11.702   0.620  1.00  0.00     0.173 A 
HETATM   20  N8  UNL     1      15.651 -10.332   0.522  1.00  0.00    -0.267 N 
HETATM   21  N9  UNL     1      15.025  -9.882   1.582  1.00  0.00    -0.232 N 
ATOM     22  H8  UNL     1      15.988  -9.760  -0.253  1.00  0.00     0.190 HD
HETATM   23  N10 UNL     1      14.719 -10.920   2.406  1.00  0.00    -0.215 N 
ATOM     24  H9  UNL     1      14.801  -8.903   1.761  1.00  0.00     0.209 HD
BRANCH  19  25
HETATM   25  N4  UNL     1      16.527 -12.493  -0.291  1.00  0.00    -0.207 N 
HETATM   26  N5  UNL     1      16.127 -13.723  -0.821  1.00  0.00     0.002 NA
HETATM   27  N6  UNL     1      17.307 -14.359  -1.236  1.00  0.00    -0.007 NA
HETATM   28  N7  UNL     1      18.222 -13.324  -1.392  1.00  0.00    -0.272 N 
HETATM   29  C9  UNL     1      17.814 -12.226  -0.861  1.00  0.00     0.140 C 
ATOM     30  H7  UNL     1      19.116 -13.424  -1.873  1.00  0.00     0.185 HD
BRANCH  29  31
HETATM   31  C10 UNL     1      18.476 -10.908  -0.837  1.00  0.00     0.247 C 
BRANCH  31  32
HETATM   32  O4  UNL     1      18.463 -10.283   0.384  1.00  0.00    -0.373 OA
BRANCH  32  33
HETATM   33  C11 UNL     1      19.197 -10.861   1.366  1.00  0.00     0.281 C 
BRANCH  33  34
HETATM   34  C12 UNL     1      18.947 -10.261   2.710  1.00  0.00     0.197 C 
HETATM   35  O5  UNL     1      17.767  -9.891   2.944  1.00  0.00    -0.646 OA
HETATM   36  O6  UNL     1      19.933 -10.108   3.657  1.00  0.00    -0.646 OA
ENDBRANCH  33  34
ENDBRANCH  32  33
ENDBRANCH  31  32
ENDBRANCH  29  31
ENDBRANCH  19  25
BRANCH  23  37
HETATM   37  C13 UNL     1      14.013 -10.767   3.614  1.00  0.00     0.196 A 
HETATM   38  N11 UNL     1      12.899 -11.436   4.040  1.00  0.00    -0.220 N 
HETATM   39  O7  UNL     1      12.553 -11.046   5.211  1.00  0.00    -0.153 OA
ATOM     40  H11 UNL     1      12.410 -12.148   3.498  1.00  0.00     0.198 HD
HETATM   41  N12 UNL     1      13.377 -10.133   5.623  1.00  0.00    -0.222 N 
HETATM   42  C14 UNL     1      14.322  -9.913   4.659  1.00  0.00     0.169 A 
ATOM     43  H12 UNL     1      13.329  -9.656   6.523  1.00  0.00     0.198 HD
BRANCH  42  44
HETATM   44  N13 UNL     1      15.277  -9.080   4.759  1.00  0.00    -0.381 N 
ATOM     45 2H13 UNL     1      15.894  -8.809   3.993  1.00  0.00     0.157 HD
ATOM     46 1H13 UNL     1      15.589  -8.553   5.575  1.00  0.00     0.157 HD
ENDBRANCH  42  44
ENDBRANCH  23  37
ENDBRANCH   8  18
BRANCH   7  47
HETATM   47  O3  UNL     1      12.639 -13.263   1.460  1.00  0.00    -0.345 OA
ATOM     48  H3  UNL     1      11.825 -13.276   1.951  1.00  0.00     0.219 HD
ENDBRANCH   7  47
TORSDOF 12
ENDMDL
MODEL 5
REMARK VINA RESULT: -7.841021436      2.800      7.496
REMARK  12 active torsions:
REMARK  status: ('A' for Active; 'I' for Inactive)
REMARK    1  A    between atoms: C3_4  and  C4_5 
REMARK    2  A    between atoms: C4_5  and  O1_6 
REMARK    3  A    between atoms: N2_8  and  O2_10 
REMARK    4  A    between atoms: C5_14  and  O3_15 
REMARK    5  A    between atoms: C6_17  and  C7_18 
REMARK    6  A    between atoms: C8_19  and  N4_20 
REMARK    7  A    between atoms: C9_25  and  C10_26 
REMARK    8  A    between atoms: C10_26  and  O4_27 
REMARK    9  A    between atoms: O4_27  and  C11_28 
REMARK   10  A    between atoms: C11_28  and  C12_29 
REMARK   11  A    between atoms: N10_36  and  C13_37 
REMARK   12  A    between atoms: C14_43  and  N13_44 
ROOT
HETATM    1  N1  UNL     1      15.426 -13.854   2.533  1.00  0.00    -0.191 NA
HETATM    2  C1  UNL     1      16.441 -13.265   2.445  1.00  0.00     0.106 C 
HETATM    3  C2  UNL     1      17.705 -12.570   2.353  1.00  0.00     0.126 A 
HETATM    4  C3  UNL     1      17.724 -11.317   1.791  1.00  0.00     0.112 A 
HETATM    5  N3  UNL     1      18.945 -10.706   1.730  1.00  0.00    -0.331 N 
ATOM      6  H3  UNL     1      19.019  -9.775   1.322  1.00  0.00     0.168 HD
HETATM    7  C5  UNL     1      20.044 -11.308   2.197  1.00  0.00     0.157 A 
HETATM    8  C6  UNL     1      20.064 -12.563   2.763  1.00  0.00     0.099 A 
HETATM    9  C15 UNL     1      18.851 -13.212   2.843  1.00  0.00     0.211 A 
HETATM   10  O8  UNL     1      18.717 -14.344   3.324  1.00  0.00    -0.286 OA
ENDROOT
BRANCH   4  11
HETATM   11  C4  UNL     1      16.559 -10.628   1.274  1.00  0.00     0.189 C 
HETATM   12  N2  UNL     1      16.209 -10.572   0.056  1.00  0.00    -0.246 N 
ATOM     13  H2  UNL     1      16.785 -11.048  -0.640  1.00  0.00     0.196 HD
BRANCH  11  14
HETATM   14  O1  UNL     1      15.738  -9.961   2.193  1.00  0.00    -0.343 OA
ATOM     15  H1  UNL     1      14.825 -10.219   2.235  1.00  0.00     0.219 HD
ENDBRANCH  11  14
BRANCH  12  16
HETATM   16  O2  UNL     1      15.092  -9.902  -0.366  1.00  0.00    -0.288 OA
ATOM     17  H2  UNL     1      15.067  -9.397  -1.170  1.00  0.00     0.244 HD
ENDBRANCH  12  16
ENDBRANCH   4  11
BRANCH   8  18
HETATM   18  C7  UNL     1      21.336 -13.226   3.121  1.00  0.00     0.125 A 
HETATM   19  C8  UNL     1      22.044 -14.042   2.268  1.00  0.00     0.173 A 
HETATM   20  N8  UNL     1      23.242 -14.267   2.916  1.00  0.00    -0.267 N 
HETATM   21  N9  UNL     1      23.236 -13.635   4.065  1.00  0.00    -0.232 N 
ATOM     22  H8  UNL     1      24.010 -14.834   2.558  1.00  0.00     0.190 HD
HETATM   23  N10 UNL     1      22.055 -12.977   4.217  1.00  0.00    -0.215 N 
ATOM     24  H9  UNL     1      23.999 -13.637   4.741  1.00  0.00     0.209 HD
BRANCH  19  25
HETATM   25  N4  UNL     1      21.664 -14.685   1.063  1.00  0.00    -0.207 N 
HETATM   26  N5  UNL     1      21.170 -15.988   0.954  1.00  0.00     0.002 NA
HETATM   27  N6  UNL     1      21.403 -16.371  -0.376  1.00  0.00    -0.007 NA
HETATM   28  N7  UNL     1      21.539 -15.170  -1.064  1.00  0.00    -0.272 N 
HETATM   29  C9  UNL     1      21.693 -14.168  -0.273  1.00  0.00     0.140 C 
ATOM     30  H7  UNL     1      21.520 -15.093  -2.081  1.00  0.00     0.185 HD
BRANCH  29  31
HETATM   31  C10 UNL     1      21.843 -12.740  -0.608  1.00  0.00     0.247 C 
BRANCH  31  32
HETATM   32  O4  UNL     1      20.669 -12.031  -0.631  1.00  0.00    -0.373 OA
BRANCH  32  33
HETATM   33  C11 UNL     1      20.510 -11.160  -1.658  1.00  0.00     0.281 C 
BRANCH  33  34
HETATM   34  C12 UNL     1      19.132 -10.589  -1.730  1.00  0.00     0.197 C 
HETATM   35  O5  UNL     1      18.957  -9.482  -1.157  1.00  0.00    -0.646 OA
HETATM   36  O6  UNL     1      18.094 -11.219  -2.378  1.00  0.00    -0.646 OA
ENDBRANCH  33  34
ENDBRANCH  32  33
ENDBRANCH  31  32
ENDBRANCH  29  31
ENDBRANCH  19  25
BRANCH  23  37
HETATM   37  C13 UNL     1      21.754 -12.175   5.333  1.00  0.00     0.196 A 
HETATM   38  N11 UNL     1      21.212 -12.552   6.531  1.00  0.00    -0.220 N 
HETATM   39  O7  UNL     1      21.109 -11.548   7.321  1.00  0.00    -0.153 OA
ATOM     40  H11 UNL     1      20.929 -13.504   6.764  1.00  0.00     0.198 HD
HETATM   41  N12 UNL     1      21.556 -10.485   6.728  1.00  0.00    -0.222 N 
HETATM   42  C14 UNL     1      21.978 -10.815   5.470  1.00  0.00     0.169 A 
ATOM     43  H12 UNL     1      21.588  -9.550   7.135  1.00  0.00     0.198 HD
BRANCH  42  44
HETATM   44  N13 UNL     1      22.474  -9.996   4.634  1.00  0.00    -0.381 N 
ATOM     45 2H13 UNL     1      22.737 -10.231   3.677  1.00  0.00     0.157 HD
ATOM     46 1H13 UNL     1      22.689  -9.006   4.753  1.00  0.00     0.157 HD
ENDBRANCH  42  44
ENDBRANCH  23  37
ENDBRANCH   8  18
BRANCH   7  47
HETATM   47  O3  UNL     1      21.235 -10.571   2.091  1.00  0.00    -0.345 OA
ATOM     48  H3  UNL     1      21.717 -10.447   2.900  1.00  0.00     0.219 HD
ENDBRANCH   7  47
TORSDOF 12
ENDMDL
