MODEL 1
REMARK VINA RESULT: -9.445515063      0.000      0.000
REMARK  10 active torsions:
REMARK  status: ('A' for Active; 'I' for Inactive)
REMARK    1  A    between atoms: O1_2  and  C2_3 
REMARK    2  A    between atoms: C3_4  and  C4_5 
REMARK    3  A    between atoms: C4_5  and  C5_6 
REMARK    4  A    between atoms: C6_9  and  C7_10 
REMARK    5  A    between atoms: C8_20  and  N6_21 
REMARK       I    between atoms: N6_21  and  C9_23 
REMARK    6  A    between atoms: C9_23  and  C10_25 
REMARK    7  A    between atoms: C11_29  and  C12_30 
REMARK    8  A    between atoms: C13_44  and  C14_45 
REMARK    9  A    between atoms: C14_45  and  O4_46 
REMARK   10  A    between atoms: C15_48  and  O5_49 
ROOT
HETATM    1  C5  UNL     1      16.586 -10.625   2.507  1.00  0.00     0.046 A 
HETATM    2  N1  UNL     1      15.979 -11.779   2.371  1.00  0.00    -0.348 N 
ATOM      3  H1  UNL     1      16.456 -12.539   1.883  1.00  0.00     0.166 HD
HETATM    4  C6  UNL     1      14.785 -11.979   2.841  1.00  0.00     0.123 A 
HETATM    5  S1  UNL     1      14.421 -10.486   3.539  1.00  0.00    -0.049 SA
HETATM    6  C8  UNL     1      15.940  -9.631   3.156  1.00  0.00     0.102 A 
ENDROOT
BRANCH   6   7
HETATM    7  N6  UNL     1      16.180  -8.305   3.558  1.00  0.00    -0.313 N 
HETATM    8  C9  UNL     1      15.953  -7.488   4.636  1.00  0.00     0.292 C 
HETATM    9  O2  UNL     1      15.390  -7.743   5.699  1.00  0.00    -0.264 OA
ATOM     10  H6  UNL     1      16.673  -7.795   2.824  1.00  0.00     0.170 HD
BRANCH   8  11
HETATM   11  C10 UNL     1      16.444  -6.057   4.565  1.00  0.00     0.197 A 
HETATM   12  N7  UNL     1      16.829  -5.301   5.567  1.00  0.00    -0.238 N 
HETATM   13  O3  UNL     1      17.181  -4.132   5.136  1.00  0.00    -0.219 OA
ATOM     14  H7  UNL     1      16.848  -5.592   6.545  1.00  0.00     0.196 HD
HETATM   15  C11 UNL     1      17.029  -4.113   3.839  1.00  0.00     0.190 A 
HETATM   16  N13 UNL     1      16.567  -5.312   3.454  1.00  0.00    -0.316 N 
ATOM     17  H13 UNL     1      16.350  -5.602   2.501  1.00  0.00     0.169 HD
BRANCH  15  18
HETATM   18  C12 UNL     1      17.319  -2.968   2.965  1.00  0.00     0.288 C 
HETATM   19  N8  UNL     1      17.606  -3.348   1.596  1.00  0.00    -0.292 N 
HETATM   20  N9  UNL     1      18.348  -2.618   0.843  1.00  0.00    -0.232 N 
ATOM     21  H8  UNL     1      17.211  -4.212   1.223  1.00  0.00     0.184 HD
HETATM   22  N10 UNL     1      18.890  -1.440   1.340  1.00  0.00    -0.215 N 
ATOM     23  H9  UNL     1      18.537  -2.902  -0.118  1.00  0.00     0.209 HD
HETATM   24  N11 UNL     1      18.696  -1.080   2.662  1.00  0.00    -0.012 NA
ATOM     25  H10 UNL     1      19.437  -0.837   0.726  1.00  0.00     0.206 HD
HETATM   26  N12 UNL     1      18.454  -2.192   3.451  1.00  0.00    -0.089 NA
ENDBRANCH  15  18
ENDBRANCH   8  11
ENDBRANCH   6   7
BRANCH   1  27
HETATM   27  C4  UNL     1      17.966 -10.474   1.884  1.00  0.00     0.096 C 
BRANCH  27  28
HETATM   28  C3  UNL     1      18.110 -11.470   0.795  1.00  0.00     0.223 C 
HETATM   29  C2  UNL     1      17.994 -10.879  -0.584  1.00  0.00     0.182 C 
HETATM   30  C15 UNL     1      18.573 -11.960  -1.446  1.00  0.00     0.181 C 
HETATM   31  C13 UNL     1      19.390 -12.796  -0.503  1.00  0.00     0.240 C 
HETATM   32  N14 UNL     1      19.414 -12.109   0.770  1.00  0.00    -0.059 N 
ATOM     33 2H14 UNL     1      20.205 -11.480   0.907  1.00  0.00     0.278 HD
ATOM     34 1H14 UNL     1      19.621 -12.699   1.576  1.00  0.00     0.278 HD
BRANCH  29  35
HETATM   35  O1  UNL     1      18.610  -9.655  -0.708  1.00  0.00    -0.386 OA
HETATM   36  C1  UNL     1      19.102  -9.397  -1.972  1.00  0.00     0.202 C 
ENDBRANCH  29  35
BRANCH  30  37
HETATM   37  O5  UNL     1      17.588 -12.779  -1.997  1.00  0.00    -0.391 OA
ATOM     38  H5  UNL     1      17.957 -13.481  -2.519  1.00  0.00     0.210 HD
ENDBRANCH  30  37
BRANCH  31  39
HETATM   39  C14 UNL     1      20.784 -13.058  -1.028  1.00  0.00     0.199 C 
BRANCH  39  40
HETATM   40  O4  UNL     1      20.864 -12.419  -2.275  1.00  0.00    -0.399 OA
ATOM     41  H4  UNL     1      21.718 -12.003  -2.308  1.00  0.00     0.209 HD
ENDBRANCH  39  40
ENDBRANCH  31  39
ENDBRANCH  27  28
ENDBRANCH   1  27
BRANCH   4  42
HETATM   42  C7  UNL     1      14.008 -13.230   2.748  1.00  0.00     0.171 A 
HETATM   43  N2  UNL     1      12.835 -13.359   2.120  1.00  0.00    -0.266 N 
HETATM   44  N3  UNL     1      12.447 -14.619   2.249  1.00  0.00    -0.227 N 
ATOM     45  H2  UNL     1      12.330 -12.620   1.630  1.00  0.00     0.190 HD
HETATM   46  N4  UNL     1      13.370 -15.245   2.947  1.00  0.00    -0.227 N 
ATOM     47  H3  UNL     1      11.590 -15.028   1.877  1.00  0.00     0.210 HD
HETATM   48  N5  UNL     1      14.360 -14.399   3.272  1.00  0.00    -0.266 N 
ATOM     49  H4  UNL     1      13.339 -16.231   3.204  1.00  0.00     0.210 HD
ATOM     50  H5  UNL     1      15.203 -14.609   3.807  1.00  0.00     0.190 HD
ENDBRANCH   4  42
TORSDOF 10
ENDMDL
MODEL 2
REMARK VINA RESULT: -8.965455732      0.999      1.177
REMARK  10 active torsions:
REMARK  status: ('A' for Active; 'I' for Inactive)
REMARK    1  A    between atoms: O1_2  and  C2_3 
REMARK    2  A    between atoms: C3_4  and  C4_5 
REMARK    3  A    between atoms: C4_5  and  C5_6 
REMARK    4  A    between atoms: C6_9  and  C7_10 
REMARK    5  A    between atoms: C8_20  and  N6_21 
REMARK       I    between atoms: N6_21  and  C9_23 
REMARK    6  A    between atoms: C9_23  and  C10_25 
REMARK    7  A    between atoms: C11_29  and  C12_30 
REMARK    8  A    between atoms: C13_44  and  C14_45 
REMARK    9  A    between atoms: C14_45  and  O4_46 
REMARK   10  A    between atoms: C15_48  and  O5_49 
ROOT
HETATM    1  C5  UNL     1      16.790 -10.691   2.464  1.00  0.00     0.046 A 
HETATM    2  N1  UNL     1      16.213 -11.855   2.289  1.00  0.00    -0.348 N 
ATOM      3  H1  UNL     1      16.738 -12.610   1.845  1.00  0.00     0.166 HD
HETATM    4  C6  UNL     1      14.990 -12.071   2.668  1.00  0.00     0.123 A 
HETATM    5  S1  UNL     1      14.550 -10.580   3.326  1.00  0.00    -0.049 SA
HETATM    6  C8  UNL     1      16.082  -9.704   3.055  1.00  0.00     0.102 A 
ENDROOT
BRANCH   6   7
HETATM    7  N6  UNL     1      16.270  -8.371   3.465  1.00  0.00    -0.313 N 
HETATM    8  C9  UNL     1      16.010  -7.571   4.547  1.00  0.00     0.292 C 
HETATM    9  O2  UNL     1      15.454  -7.853   5.607  1.00  0.00    -0.264 OA
ATOM     10  H6  UNL     1      16.744  -7.839   2.735  1.00  0.00     0.170 HD
BRANCH   8  11
HETATM   11  C10 UNL     1      16.446  -6.122   4.487  1.00  0.00     0.197 A 
HETATM   12  N7  UNL     1      16.701  -5.327   5.500  1.00  0.00    -0.238 N 
HETATM   13  O3  UNL     1      17.045  -4.154   5.074  1.00  0.00    -0.219 OA
ATOM     14  H7  UNL     1      16.638  -5.595   6.482  1.00  0.00     0.196 HD
HETATM   15  C11 UNL     1      17.018  -4.170   3.768  1.00  0.00     0.190 A 
HETATM   16  N13 UNL     1      16.644  -5.397   3.373  1.00  0.00    -0.316 N 
ATOM     17  H13 UNL     1      16.531  -5.717   2.411  1.00  0.00     0.169 HD
BRANCH  15  18
HETATM   18  C12 UNL     1      17.342  -3.033   2.896  1.00  0.00     0.288 C 
HETATM   19  N8  UNL     1      17.795  -3.432   1.577  1.00  0.00    -0.292 N 
HETATM   20  N9  UNL     1      18.577  -2.682   0.887  1.00  0.00    -0.232 N 
ATOM     21  H8  UNL     1      17.487  -4.324   1.191  1.00  0.00     0.184 HD
HETATM   22  N10 UNL     1      19.002  -1.465   1.404  1.00  0.00    -0.215 N 
ATOM     23  H9  UNL     1      18.884  -2.979  -0.039  1.00  0.00     0.209 HD
HETATM   24  N11 UNL     1      18.647  -1.083   2.685  1.00  0.00    -0.012 NA
ATOM     25  H10 UNL     1      19.581  -0.848   0.834  1.00  0.00     0.206 HD
HETATM   26  N12 UNL     1      18.377  -2.186   3.477  1.00  0.00    -0.089 NA
ENDBRANCH  15  18
ENDBRANCH   8  11
ENDBRANCH   6   7
BRANCH   1  27
HETATM   27  C4  UNL     1      18.211 -10.522   1.948  1.00  0.00     0.096 C 
BRANCH  27  28
HETATM   28  C3  UNL     1      18.267 -10.986   0.540  1.00  0.00     0.223 C 
HETATM   29  C2  UNL     1      19.584 -10.709  -0.135  1.00  0.00     0.182 C 
HETATM   30  C15 UNL     1      19.524 -11.609  -1.332  1.00  0.00     0.181 C 
HETATM   31  C13 UNL     1      18.483 -12.633  -0.982  1.00  0.00     0.240 C 
HETATM   32  N14 UNL     1      18.123 -12.423   0.403  1.00  0.00    -0.059 N 
ATOM     33 2H14 UNL     1      18.654 -12.976   1.076  1.00  0.00     0.278 HD
ATOM     34 1H14 UNL     1      17.211 -12.793   0.673  1.00  0.00     0.278 HD
BRANCH  29  35
HETATM   35  O1  UNL     1      20.671 -10.913   0.682  1.00  0.00    -0.386 OA
HETATM   36  C1  UNL     1      21.793 -11.376   0.023  1.00  0.00     0.202 C 
ENDBRANCH  29  35
BRANCH  30  37
HETATM   37  O5  UNL     1      19.093 -10.937  -2.475  1.00  0.00    -0.391 OA
ATOM     38  H5  UNL     1      18.622 -10.139  -2.266  1.00  0.00     0.210 HD
ENDBRANCH  30  37
BRANCH  31  39
HETATM   39  C14 UNL     1      18.960 -14.046  -1.233  1.00  0.00     0.199 C 
BRANCH  39  40
HETATM   40  O4  UNL     1      20.049 -13.946  -2.114  1.00  0.00    -0.399 OA
ATOM     41  H4  UNL     1      20.830 -13.928  -1.573  1.00  0.00     0.209 HD
ENDBRANCH  39  40
ENDBRANCH  31  39
ENDBRANCH  27  28
ENDBRANCH   1  27
BRANCH   4  42
HETATM   42  C7  UNL     1      14.241 -13.334   2.524  1.00  0.00     0.171 A 
HETATM   43  N2  UNL     1      14.023 -13.969   1.368  1.00  0.00    -0.266 N 
HETATM   44  N3  UNL     1      13.320 -15.059   1.635  1.00  0.00    -0.227 N 
ATOM     45  H2  UNL     1      14.341 -13.667   0.446  1.00  0.00     0.190 HD
HETATM   46  N4  UNL     1      13.113 -15.085   2.934  1.00  0.00    -0.227 N 
ATOM     47  H3  UNL     1      12.998 -15.751   0.958  1.00  0.00     0.210 HD
HETATM   48  N5  UNL     1      13.679 -14.017   3.516  1.00  0.00    -0.266 N 
ATOM     49  H4  UNL     1      12.597 -15.812   3.428  1.00  0.00     0.210 HD
ATOM     50  H5  UNL     1      13.679 -13.780   4.508  1.00  0.00     0.190 HD
ENDBRANCH   4  42
TORSDOF 10
ENDMDL
MODEL 3
REMARK VINA RESULT: -8.923067825      1.874      2.373
REMARK  10 active torsions:
REMARK  status: ('A' for Active; 'I' for Inactive)
REMARK    1  A    between atoms: O1_2  and  C2_3 
REMARK    2  A    between atoms: C3_4  and  C4_5 
REMARK    3  A    between atoms: C4_5  and  C5_6 
REMARK    4  A    between atoms: C6_9  and  C7_10 
REMARK    5  A    between atoms: C8_20  and  N6_21 
REMARK       I    between atoms: N6_21  and  C9_23 
REMARK    6  A    between atoms: C9_23  and  C10_25 
REMARK    7  A    between atoms: C11_29  and  C12_30 
REMARK    8  A    between atoms: C13_44  and  C14_45 
REMARK    9  A    between atoms: C14_45  and  O4_46 
REMARK   10  A    between atoms: C15_48  and  O5_49 
ROOT
HETATM    1  C5  UNL     1      16.186 -11.361   1.994  1.00  0.00     0.046 A 
HETATM    2  N1  UNL     1      15.708 -12.581   2.033  1.00  0.00    -0.348 N 
ATOM      3  H1  UNL     1      16.080 -13.282   1.391  1.00  0.00     0.166 HD
HETATM    4  C6  UNL     1      14.774 -12.919   2.869  1.00  0.00     0.123 A 
HETATM    5  S1  UNL     1      14.493 -11.474   3.695  1.00  0.00    -0.049 SA
HETATM    6  C8  UNL     1      15.683 -10.445   2.852  1.00  0.00     0.102 A 
ENDROOT
BRANCH   6   7
HETATM    7  N6  UNL     1      15.886  -9.095   3.191  1.00  0.00    -0.313 N 
HETATM    8  C9  UNL     1      16.918  -8.240   3.481  1.00  0.00     0.292 C 
HETATM    9  O2  UNL     1      18.126  -8.468   3.530  1.00  0.00    -0.264 OA
ATOM     10  H6  UNL     1      14.994  -8.602   3.234  1.00  0.00     0.170 HD
BRANCH   8  11
HETATM   11  C10 UNL     1      16.585  -6.796   3.793  1.00  0.00     0.197 A 
HETATM   12  N7  UNL     1      15.760  -6.354   4.713  1.00  0.00    -0.238 N 
HETATM   13  O3  UNL     1      15.719  -5.060   4.692  1.00  0.00    -0.219 OA
ATOM     14  H7  UNL     1      15.227  -6.944   5.353  1.00  0.00     0.196 HD
HETATM   15  C11 UNL     1      16.524  -4.641   3.752  1.00  0.00     0.190 A 
HETATM   16  N13 UNL     1      17.081  -5.714   3.170  1.00  0.00    -0.316 N 
ATOM     17  H13 UNL     1      17.753  -5.708   2.403  1.00  0.00     0.169 HD
BRANCH  15  18
HETATM   18  C12 UNL     1      16.765  -3.235   3.403  1.00  0.00     0.288 C 
HETATM   19  N8  UNL     1      16.472  -2.929   2.016  1.00  0.00    -0.292 N 
HETATM   20  N9  UNL     1      17.067  -1.967   1.406  1.00  0.00    -0.232 N 
ATOM     21  H8  UNL     1      15.781  -3.487   1.516  1.00  0.00     0.184 HD
HETATM   22  N10 UNL     1      18.010  -1.201   2.079  1.00  0.00    -0.215 N 
ATOM     23  H9  UNL     1      16.848  -1.767   0.431  1.00  0.00     0.209 HD
HETATM   24  N11 UNL     1      18.366  -1.506   3.381  1.00  0.00    -0.012 NA
ATOM     25  H10 UNL     1      18.444  -0.406   1.609  1.00  0.00     0.206 HD
HETATM   26  N12 UNL     1      18.147  -2.845   3.655  1.00  0.00    -0.089 NA
ENDBRANCH  15  18
ENDBRANCH   8  11
ENDBRANCH   6   7
BRANCH   1  27
HETATM   27  C4  UNL     1      17.248 -11.050   0.950  1.00  0.00     0.096 C 
BRANCH  27  28
HETATM   28  C3  UNL     1      18.549 -11.587   1.417  1.00  0.00     0.223 C 
HETATM   29  C2  UNL     1      19.633 -11.537   0.374  1.00  0.00     0.182 C 
HETATM   30  C15 UNL     1      20.874 -11.727   1.193  1.00  0.00     0.181 C 
HETATM   31  C13 UNL     1      20.460 -11.371   2.591  1.00  0.00     0.240 C 
HETATM   32  N14 UNL     1      19.119 -10.834   2.520  1.00  0.00    -0.059 N 
ATOM     33 2H14 UNL     1      19.064  -9.820   2.423  1.00  0.00     0.278 HD
ATOM     34 1H14 UNL     1      18.590 -10.877   3.390  1.00  0.00     0.278 HD
BRANCH  29  35
HETATM   35  O1  UNL     1      19.613 -10.387  -0.380  1.00  0.00    -0.386 OA
HETATM   36  C1  UNL     1      20.305 -10.481  -1.572  1.00  0.00     0.202 C 
ENDBRANCH  29  35
BRANCH  30  37
HETATM   37  O5  UNL     1      21.302 -13.054   1.200  1.00  0.00    -0.391 OA
ATOM     38  H5  UNL     1      21.331 -13.417   2.077  1.00  0.00     0.210 HD
ENDBRANCH  30  37
BRANCH  31  39
HETATM   39  C14 UNL     1      21.421 -10.403   3.246  1.00  0.00     0.199 C 
BRANCH  39  40
HETATM   40  O4  UNL     1      20.693  -9.741   4.249  1.00  0.00    -0.399 OA
ATOM     41  H4  UNL     1      20.238 -10.415   4.738  1.00  0.00     0.209 HD
ENDBRANCH  39  40
ENDBRANCH  31  39
ENDBRANCH  27  28
ENDBRANCH   1  27
BRANCH   4  42
HETATM   42  C7  UNL     1      14.163 -14.256   3.003  1.00  0.00     0.171 A 
HETATM   43  N2  UNL     1      14.819 -15.366   3.353  1.00  0.00    -0.266 N 
HETATM   44  N3  UNL     1      13.945 -16.361   3.366  1.00  0.00    -0.227 N 
ATOM     45  H2  UNL     1      15.814 -15.435   3.569  1.00  0.00     0.190 HD
HETATM   46  N4  UNL     1      12.776 -15.861   3.029  1.00  0.00    -0.227 N 
ATOM     47  H3  UNL     1      14.142 -17.335   3.596  1.00  0.00     0.210 HD
HETATM   48  N5  UNL     1      12.883 -14.544   2.796  1.00  0.00    -0.266 N 
ATOM     49  H4  UNL     1      11.912 -16.398   2.955  1.00  0.00     0.210 HD
ATOM     50  H5  UNL     1      12.140 -13.902   2.520  1.00  0.00     0.190 HD
ENDBRANCH   4  42
TORSDOF 10
ENDMDL
MODEL 4
REMARK VINA RESULT: -8.776070630      1.582      2.115
REMARK  10 active torsions:
REMARK  status: ('A' for Active; 'I' for Inactive)
REMARK    1  A    between atoms: O1_2  and  C2_3 
REMARK    2  A    between atoms: C3_4  and  C4_5 
REMARK    3  A    between atoms: C4_5  and  C5_6 
REMARK    4  A    between atoms: C6_9  and  C7_10 
REMARK    5  A    between atoms: C8_20  and  N6_21 
REMARK       I    between atoms: N6_21  and  C9_23 
REMARK    6  A    between atoms: C9_23  and  C10_25 
REMARK    7  A    between atoms: C11_29  and  C12_30 
REMARK    8  A    between atoms: C13_44  and  C14_45 
REMARK    9  A    between atoms: C14_45  and  O4_46 
REMARK   10  A    between atoms: C15_48  and  O5_49 
ROOT
HETATM    1  C5  UNL     1      15.332 -11.318   1.627  1.00  0.00     0.046 A 
HETATM    2  N1  UNL     1      14.915 -12.560   1.681  1.00  0.00    -0.348 N 
ATOM      3  H1  UNL     1      14.998 -13.150   0.853  1.00  0.00     0.166 HD
HETATM    4  C6  UNL     1      14.400 -13.057   2.765  1.00  0.00     0.123 A 
HETATM    5  S1  UNL     1      14.472 -11.748   3.829  1.00  0.00    -0.049 SA
HETATM    6  C8  UNL     1      15.216 -10.551   2.733  1.00  0.00     0.102 A 
ENDROOT
BRANCH   6   7
HETATM    7  N6  UNL     1      15.534  -9.245   3.149  1.00  0.00    -0.313 N 
HETATM    8  C9  UNL     1      16.638  -8.491   3.451  1.00  0.00     0.292 C 
HETATM    9  O2  UNL     1      17.826  -8.811   3.437  1.00  0.00    -0.264 OA
ATOM     10  H6  UNL     1      14.685  -8.691   3.259  1.00  0.00     0.170 HD
BRANCH   8  11
HETATM   11  C10 UNL     1      16.429  -7.050   3.867  1.00  0.00     0.197 A 
HETATM   12  N7  UNL     1      15.804  -6.616   4.937  1.00  0.00    -0.238 N 
HETATM   13  O3  UNL     1      15.814  -5.322   4.967  1.00  0.00    -0.219 OA
ATOM     14  H7  UNL     1      15.371  -7.212   5.642  1.00  0.00     0.196 HD
HETATM   15  C11 UNL     1      16.452  -4.894   3.910  1.00  0.00     0.190 A 
HETATM   16  N13 UNL     1      16.849  -5.961   3.200  1.00  0.00    -0.316 N 
ATOM     17  H13 UNL     1      17.369  -5.948   2.324  1.00  0.00     0.169 HD
BRANCH  15  18
HETATM   18  C12 UNL     1      16.685  -3.484   3.570  1.00  0.00     0.288 C 
HETATM   19  N8  UNL     1      16.306  -3.151   2.211  1.00  0.00    -0.292 N 
HETATM   20  N9  UNL     1      16.870  -2.184   1.580  1.00  0.00    -0.232 N 
ATOM     21  H8  UNL     1      15.578  -3.693   1.746  1.00  0.00     0.184 HD
HETATM   22  N10 UNL     1      17.863  -1.439   2.202  1.00  0.00    -0.215 N 
ATOM     23  H9  UNL     1      16.590  -1.965   0.624  1.00  0.00     0.209 HD
HETATM   24  N11 UNL     1      18.299  -1.770   3.473  1.00  0.00    -0.012 NA
ATOM     25  H10 UNL     1      18.274  -0.640   1.719  1.00  0.00     0.206 HD
HETATM   26  N12 UNL     1      18.084  -3.112   3.738  1.00  0.00    -0.089 NA
ENDBRANCH  15  18
ENDBRANCH   8  11
ENDBRANCH   6   7
BRANCH   1  27
HETATM   27  C4  UNL     1      15.880 -10.814   0.300  1.00  0.00     0.096 C 
BRANCH  27  28
HETATM   28  C3  UNL     1      17.336 -11.091   0.248  1.00  0.00     0.223 C 
HETATM   29  C2  UNL     1      17.685 -12.355  -0.490  1.00  0.00     0.182 C 
HETATM   30  C15 UNL     1      19.151 -12.180  -0.750  1.00  0.00     0.181 C 
HETATM   31  C13 UNL     1      19.384 -10.703  -0.609  1.00  0.00     0.240 C 
HETATM   32  N14 UNL     1      18.089 -10.075  -0.465  1.00  0.00    -0.059 N 
ATOM     33 2H14 UNL     1      17.664  -9.756  -1.336  1.00  0.00     0.278 HD
ATOM     34 1H14 UNL     1      18.101  -9.157  -0.023  1.00  0.00     0.278 HD
BRANCH  29  35
HETATM   35  O1  UNL     1      16.923 -12.558  -1.617  1.00  0.00    -0.386 OA
HETATM   36  C1  UNL     1      16.472 -13.855  -1.767  1.00  0.00     0.202 C 
ENDBRANCH  29  35
BRANCH  30  37
HETATM   37  O5  UNL     1      19.936 -12.828   0.203  1.00  0.00    -0.391 OA
ATOM     38  H5  UNL     1      20.847 -12.561   0.158  1.00  0.00     0.210 HD
ENDBRANCH  30  37
BRANCH  31  39
HETATM   39  C14 UNL     1      20.162 -10.130  -1.773  1.00  0.00     0.199 C 
BRANCH  39  40
HETATM   40  O4  UNL     1      19.403 -10.393  -2.925  1.00  0.00    -0.399 OA
ATOM     41  H4  UNL     1      18.493 -10.392  -2.651  1.00  0.00     0.209 HD
ENDBRANCH  39  40
ENDBRANCH  31  39
ENDBRANCH  27  28
ENDBRANCH   1  27
BRANCH   4  42
HETATM   42  C7  UNL     1      13.901 -14.434   2.943  1.00  0.00     0.171 A 
HETATM   43  N2  UNL     1      14.653 -15.483   3.288  1.00  0.00    -0.266 N 
HETATM   44  N3  UNL     1      13.860 -16.543   3.349  1.00  0.00    -0.227 N 
ATOM     45  H2  UNL     1      15.656 -15.471   3.471  1.00  0.00     0.190 HD
HETATM   46  N4  UNL     1      12.644 -16.141   3.044  1.00  0.00    -0.227 N 
ATOM     47  H3  UNL     1      14.139 -17.494   3.588  1.00  0.00     0.210 HD
HETATM   48  N5  UNL     1      12.641 -14.825   2.786  1.00  0.00    -0.266 N 
ATOM     49  H4  UNL     1      11.823 -16.744   3.009  1.00  0.00     0.210 HD
ATOM     50  H5  UNL     1      11.841 -14.248   2.525  1.00  0.00     0.190 HD
ENDBRANCH   4  42
TORSDOF 10
ENDMDL
MODEL 5
REMARK VINA RESULT: -8.767936343      2.088      2.460
REMARK  10 active torsions:
REMARK  status: ('A' for Active; 'I' for Inactive)
REMARK    1  A    between atoms: O1_2  and  C2_3 
REMARK    2  A    between atoms: C3_4  and  C4_5 
REMARK    3  A    between atoms: C4_5  and  C5_6 
REMARK    4  A    between atoms: C6_9  and  C7_10 
REMARK    5  A    between atoms: C8_20  and  N6_21 
REMARK       I    between atoms: N6_21  and  C9_23 
REMARK    6  A    between atoms: C9_23  and  C10_25 
REMARK    7  A    between atoms: C11_29  and  C12_30 
REMARK    8  A    between atoms: C13_44  and  C14_45 
REMARK    9  A    between atoms: C14_45  and  O4_46 
REMARK   10  A    between atoms: C15_48  and  O5_49 
ROOT
HETATM    1  C5  UNL     1      16.904 -10.611   2.379  1.00  0.00     0.046 A 
HETATM    2  N1  UNL     1      16.383 -11.808   2.258  1.00  0.00    -0.348 N 
ATOM      3  H1  UNL     1      16.895 -12.524   1.742  1.00  0.00     0.166 HD
HETATM    4  C6  UNL     1      15.231 -12.104   2.780  1.00  0.00     0.123 A 
HETATM    5  S1  UNL     1      14.784 -10.648   3.510  1.00  0.00    -0.049 SA
HETATM    6  C8  UNL     1      16.213  -9.675   3.067  1.00  0.00     0.102 A 
ENDROOT
BRANCH   6   7
HETATM    7  N6  UNL     1      16.367  -8.336   3.471  1.00  0.00    -0.313 N 
HETATM    8  C9  UNL     1      16.025  -7.521   4.519  1.00  0.00     0.292 C 
HETATM    9  O2  UNL     1      15.394  -7.791   5.539  1.00  0.00    -0.264 OA
ATOM     10  H6  UNL     1      16.893  -7.813   2.771  1.00  0.00     0.170 HD
BRANCH   8  11
HETATM   11  C10 UNL     1      16.462  -6.072   4.470  1.00  0.00     0.197 A 
HETATM   12  N7  UNL     1      16.732  -5.290   5.490  1.00  0.00    -0.238 N 
HETATM   13  O3  UNL     1      17.069  -4.112   5.074  1.00  0.00    -0.219 OA
ATOM     14  H7  UNL     1      16.683  -5.571   6.470  1.00  0.00     0.196 HD
HETATM   15  C11 UNL     1      17.023  -4.112   3.768  1.00  0.00     0.190 A 
HETATM   16  N13 UNL     1      16.644  -5.333   3.363  1.00  0.00    -0.316 N 
ATOM     17  H13 UNL     1      16.517  -5.641   2.399  1.00  0.00     0.169 HD
BRANCH  15  18
HETATM   18  C12 UNL     1      17.336  -2.964   2.907  1.00  0.00     0.288 C 
HETATM   19  N8  UNL     1      17.654  -3.340   1.542  1.00  0.00    -0.292 N 
HETATM   20  N9  UNL     1      18.415  -2.608   0.810  1.00  0.00    -0.232 N 
ATOM     21  H8  UNL     1      17.266  -4.201   1.157  1.00  0.00     0.184 HD
HETATM   22  N10 UNL     1      18.949  -1.434   1.325  1.00  0.00    -0.215 N 
ATOM     23  H9  UNL     1      18.626  -2.889  -0.147  1.00  0.00     0.209 HD
HETATM   24  N11 UNL     1      18.724  -1.078   2.643  1.00  0.00    -0.012 NA
ATOM     25  H10 UNL     1      19.511  -0.829   0.726  1.00  0.00     0.206 HD
HETATM   26  N12 UNL     1      18.461  -2.193   3.421  1.00  0.00    -0.089 NA
ENDBRANCH  15  18
ENDBRANCH   8  11
ENDBRANCH   6   7
BRANCH   1  27
HETATM   27  C4  UNL     1      18.238 -10.348   1.696  1.00  0.00     0.096 C 
BRANCH  27  28
HETATM   28  C3  UNL     1      19.299 -11.095   2.414  1.00  0.00     0.223 C 
HETATM   29  C2  UNL     1      20.223 -11.857   1.502  1.00  0.00     0.182 C 
HETATM   30  C15 UNL     1      21.386 -12.152   2.400  1.00  0.00     0.181 C 
HETATM   31  C13 UNL     1      21.263 -11.154   3.515  1.00  0.00     0.240 C 
HETATM   32  N14 UNL     1      20.203 -10.237   3.157  1.00  0.00    -0.059 N 
ATOM     33 2H14 UNL     1      20.506  -9.399   2.662  1.00  0.00     0.278 HD
ATOM     34 1H14 UNL     1      19.780  -9.739   3.940  1.00  0.00     0.278 HD
BRANCH  29  35
HETATM   35  O1  UNL     1      20.545 -11.173   0.354  1.00  0.00    -0.386 OA
HETATM   36  C1  UNL     1      21.794 -11.474  -0.152  1.00  0.00     0.202 C 
ENDBRANCH  29  35
BRANCH  30  37
HETATM   37  O5  UNL     1      21.309 -13.427   2.960  1.00  0.00    -0.391 OA
ATOM     38  H5  UNL     1      21.734 -14.082   2.419  1.00  0.00     0.210 HD
ENDBRANCH  30  37
BRANCH  31  39
HETATM   39  C14 UNL     1      22.565 -10.432   3.786  1.00  0.00     0.199 C 
BRANCH  39  40
HETATM   40  O4  UNL     1      23.559 -11.128   3.078  1.00  0.00    -0.399 OA
ATOM     41  H4  UNL     1      23.134 -11.495   2.312  1.00  0.00     0.209 HD
ENDBRANCH  39  40
ENDBRANCH  31  39
ENDBRANCH  27  28
ENDBRANCH   1  27
BRANCH   4  42
HETATM   42  C7  UNL     1      14.551 -13.411   2.710  1.00  0.00     0.171 A 
HETATM   43  N2  UNL     1      14.839 -14.379   1.835  1.00  0.00    -0.266 N 
HETATM   44  N3  UNL     1      14.024 -15.395   2.077  1.00  0.00    -0.227 N 
ATOM     45  H2  UNL     1      15.557 -14.342   1.111  1.00  0.00     0.190 HD
HETATM   46  N4  UNL     1      13.251 -15.047   3.084  1.00  0.00    -0.227 N 
ATOM     47  H3  UNL     1      13.999 -16.283   1.576  1.00  0.00     0.210 HD
HETATM   48  N5  UNL     1      13.560 -13.810   3.501  1.00  0.00    -0.266 N 
ATOM     49  H4  UNL     1      12.523 -15.634   3.490  1.00  0.00     0.210 HD
ATOM     50  H5  UNL     1      13.127 -13.287   4.262  1.00  0.00     0.190 HD
ENDBRANCH   4  42
TORSDOF 10
ENDMDL
