MODEL 1
REMARK VINA RESULT: -8.331394117      0.000      0.000
REMARK  7 active torsions:
REMARK  status: ('A' for Active; 'I' for Inactive)
REMARK    1  A    between atoms: O1_2  and  N1_3 
REMARK       I    between atoms: N1_3  and  C2_5 
REMARK    2  A    between atoms: C2_5  and  C3_7 
REMARK    3  A    between atoms: C3_7  and  N2_8 
REMARK    4  A    between atoms: N2_8  and  C6_11 
REMARK    5  A    between atoms: C6_11  and  C7_12 
REMARK    6  A    between atoms: C7_12  and  C10_15 
REMARK    7  A    between atoms: C18_26  and  O3_27 
ROOT
HETATM    1  C10 UNL     1      36.034  56.081  59.082  1.00  0.00     0.003 C 
HETATM    2  C11 UNL     1      36.925  56.125  60.314  1.00  0.00     0.006 C 
HETATM    3  C12 UNL     1      37.498  54.713  60.251  1.00  0.00     0.006 C 
HETATM    4  C13 UNL     1      37.284  54.226  58.852  1.00  0.00    -0.002 C 
HETATM    5  C14 UNL     1      38.301  53.371  58.267  1.00  0.00    -0.005 C 
HETATM    6  C15 UNL     1      38.652  52.307  59.304  1.00  0.00     0.007 C 
HETATM    7  C16 UNL     1      39.642  51.319  58.786  1.00  0.00     0.034 C 
HETATM    8  C17 UNL     1      40.582  51.865  57.770  1.00  0.00     0.197 C 
HETATM    9  N3  UNL     1      41.903  51.248  57.918  1.00  0.00    -0.044 N 
ATOM     10  H31 UNL     1      41.876  50.293  58.275  1.00  0.00     0.280 HD
ATOM     11  H32 UNL     1      42.460  51.640  58.678  1.00  0.00     0.280 HD
HETATM   12  C18 UNL     1      42.526  51.372  56.597  1.00  0.00     0.319 C 
HETATM   13  C19 UNL     1      42.076  52.632  55.927  1.00  0.00     0.062 C 
HETATM   14  C20 UNL     1      41.804  53.767  56.897  1.00  0.00     0.016 C 
HETATM   15  C21 UNL     1      40.794  53.359  57.968  1.00  0.00    -0.011 C 
HETATM   16  C22 UNL     1      41.403  53.656  59.283  1.00  0.00     0.018 C 
HETATM   17  C23 UNL     1      39.488  54.039  57.669  1.00  0.00     0.000 C 
HETATM   18  C24 UNL     1      39.534  55.494  58.029  1.00  0.00     0.006 C 
HETATM   19  C25 UNL     1      38.273  56.245  57.875  1.00  0.00     0.010 C 
HETATM   20  C26 UNL     1      36.983  55.544  58.105  1.00  0.00    -0.036 C 
HETATM   21  C27 UNL     1      36.386  55.086  56.783  1.00  0.00     0.016 C 
ENDROOT
BRANCH   1  22
HETATM   22  C7  UNL     1      35.186  57.263  58.878  1.00  0.00    -0.019 C 
HETATM   23  C8  UNL     1      34.347  57.263  60.194  1.00  0.00     0.017 C 
HETATM   24  C9  UNL     1      34.102  56.922  57.867  1.00  0.00     0.017 C 
BRANCH  22  25
HETATM   25  C6  UNL     1      35.901  58.500  58.658  1.00  0.00     0.251 C 
BRANCH  25  26
HETATM   26  N2  UNL     1      35.918  59.233  57.442  1.00  0.00    -0.049 N 
HETATM   27  C4  UNL     1      37.243  59.857  57.324  1.00  0.00     0.278 C 
HETATM   28  C5  UNL     1      35.573  58.547  56.252  1.00  0.00     0.278 C 
BRANCH  26  29
HETATM   29  C3  UNL     1      35.015  60.331  57.734  1.00  0.00     0.277 C 
BRANCH  29  30
HETATM   30  C2  UNL     1      34.499  61.127  56.661  1.00  0.00     0.288 C 
HETATM   31  N1  UNL     1      33.069  61.081  56.385  1.00  0.00    -0.231 N 
ATOM     32  H1  UNL     1      32.483  60.483  56.967  1.00  0.00     0.197 HD
HETATM   33  O2  UNL     1      35.102  61.899  55.876  1.00  0.00    -0.265 OA
BRANCH  31  34
HETATM   34  O1  UNL     1      32.486  61.781  55.410  1.00  0.00    -0.282 OA
HETATM   35  C1  UNL     1      31.417  62.563  55.855  1.00  0.00     0.237 C 
ENDBRANCH  31  34
ENDBRANCH  29  30
ENDBRANCH  26  29
ENDBRANCH  25  26
ENDBRANCH  22  25
ENDBRANCH   1  22
BRANCH  12  36
HETATM   36  O3  UNL     1      43.889  51.230  56.699  1.00  0.00    -0.370 OA
ATOM     37  H3  UNL     1      44.328  51.914  56.206  1.00  0.00     0.212 HD
ENDBRANCH  12  36
TORSDOF 7
ENDMDL
MODEL 2
REMARK VINA RESULT: -7.985963462      4.274     10.291
REMARK  7 active torsions:
REMARK  status: ('A' for Active; 'I' for Inactive)
REMARK    1  A    between atoms: O1_2  and  N1_3 
REMARK       I    between atoms: N1_3  and  C2_5 
REMARK    2  A    between atoms: C2_5  and  C3_7 
REMARK    3  A    between atoms: C3_7  and  N2_8 
REMARK    4  A    between atoms: N2_8  and  C6_11 
REMARK    5  A    between atoms: C6_11  and  C7_12 
REMARK    6  A    between atoms: C7_12  and  C10_15 
REMARK    7  A    between atoms: C18_26  and  O3_27 
ROOT
HETATM    1  C10 UNL     1      40.767  52.918  56.683  1.00  0.00     0.003 C 
HETATM    2  C11 UNL     1      41.056  54.322  57.190  1.00  0.00     0.006 C 
HETATM    3  C12 UNL     1      39.624  54.807  57.396  1.00  0.00     0.006 C 
HETATM    4  C13 UNL     1      38.763  53.584  57.456  1.00  0.00    -0.002 C 
HETATM    5  C14 UNL     1      37.622  53.600  58.353  1.00  0.00    -0.005 C 
HETATM    6  C15 UNL     1      36.895  54.926  58.140  1.00  0.00     0.007 C 
HETATM    7  C16 UNL     1      35.654  55.027  58.961  1.00  0.00     0.034 C 
HETATM    8  C17 UNL     1      35.702  54.276  60.244  1.00  0.00     0.197 C 
HETATM    9  N3  UNL     1      34.965  55.000  61.284  1.00  0.00    -0.044 N 
ATOM     10  H31 UNL     1      34.186  55.555  60.929  1.00  0.00     0.280 HD
ATOM     11  H32 UNL     1      35.484  55.778  61.693  1.00  0.00     0.280 HD
HETATM   12  C18 UNL     1      34.572  53.972  62.251  1.00  0.00     0.319 C 
HETATM   13  C19 UNL     1      35.613  52.899  62.321  1.00  0.00     0.062 C 
HETATM   14  C20 UNL     1      37.022  53.408  62.082  1.00  0.00     0.016 C 
HETATM   15  C21 UNL     1      37.131  54.153  60.753  1.00  0.00    -0.011 C 
HETATM   16  C22 UNL     1      37.727  55.477  61.037  1.00  0.00     0.018 C 
HETATM   17  C23 UNL     1      37.877  53.280  59.783  1.00  0.00     0.000 C 
HETATM   18  C24 UNL     1      39.345  53.260  60.084  1.00  0.00     0.006 C 
HETATM   19  C25 UNL     1      40.196  52.517  59.134  1.00  0.00     0.010 C 
HETATM   20  C26 UNL     1      39.811  52.476  57.700  1.00  0.00    -0.036 C 
HETATM   21  C27 UNL     1      39.060  51.189  57.389  1.00  0.00     0.016 C 
ENDROOT
BRANCH   1  22
HETATM   22  C7  UNL     1      41.942  52.158  56.237  1.00  0.00    -0.019 C 
HETATM   23  C8  UNL     1      42.963  53.308  55.973  1.00  0.00     0.017 C 
HETATM   24  C9  UNL     1      41.704  51.676  54.813  1.00  0.00     0.017 C 
BRANCH  22  25
HETATM   25  C6  UNL     1      42.426  51.171  57.175  1.00  0.00     0.251 C 
BRANCH  25  26
HETATM   26  N2  UNL     1      42.693  49.810  56.870  1.00  0.00    -0.049 N 
HETATM   27  C4  UNL     1      41.853  48.989  57.752  1.00  0.00     0.278 C 
HETATM   28  C5  UNL     1      42.566  49.398  55.521  1.00  0.00     0.278 C 
BRANCH  26  29
HETATM   29  C3  UNL     1      44.042  49.642  57.378  1.00  0.00     0.277 C 
BRANCH  29  30
HETATM   30  C2  UNL     1      44.886  48.627  56.823  1.00  0.00     0.288 C 
HETATM   31  N1  UNL     1      44.769  47.267  57.334  1.00  0.00    -0.231 N 
ATOM     32  H1  UNL     1      44.088  47.085  58.070  1.00  0.00     0.197 HD
HETATM   33  O2  UNL     1      45.757  48.714  55.922  1.00  0.00    -0.265 OA
BRANCH  31  34
HETATM   34  O1  UNL     1      45.507  46.249  56.888  1.00  0.00    -0.282 OA
HETATM   35  C1  UNL     1      44.743  45.181  56.409  1.00  0.00     0.237 C 
ENDBRANCH  31  34
ENDBRANCH  29  30
ENDBRANCH  26  29
ENDBRANCH  25  26
ENDBRANCH  22  25
ENDBRANCH   1  22
BRANCH  12  36
HETATM   36  O3  UNL     1      34.260  54.549  63.458  1.00  0.00    -0.370 OA
ATOM     37  H3  UNL     1      34.410  53.933  64.166  1.00  0.00     0.212 HD
ENDBRANCH  12  36
TORSDOF 7
ENDMDL
MODEL 3
REMARK VINA RESULT: -7.925553840      4.210      9.216
REMARK  7 active torsions:
REMARK  status: ('A' for Active; 'I' for Inactive)
REMARK    1  A    between atoms: O1_2  and  N1_3 
REMARK       I    between atoms: N1_3  and  C2_5 
REMARK    2  A    between atoms: C2_5  and  C3_7 
REMARK    3  A    between atoms: C3_7  and  N2_8 
REMARK    4  A    between atoms: N2_8  and  C6_11 
REMARK    5  A    between atoms: C6_11  and  C7_12 
REMARK    6  A    between atoms: C7_12  and  C10_15 
REMARK    7  A    between atoms: C18_26  and  O3_27 
ROOT
HETATM    1  C10 UNL     1      40.974  53.432  56.583  1.00  0.00     0.003 C 
HETATM    2  C11 UNL     1      41.208  54.795  57.216  1.00  0.00     0.006 C 
HETATM    3  C12 UNL     1      39.757  55.230  57.402  1.00  0.00     0.006 C 
HETATM    4  C13 UNL     1      38.925  53.987  57.324  1.00  0.00    -0.002 C 
HETATM    5  C14 UNL     1      37.749  53.904  58.171  1.00  0.00    -0.005 C 
HETATM    6  C15 UNL     1      36.998  55.227  58.038  1.00  0.00     0.007 C 
HETATM    7  C16 UNL     1      35.723  55.233  58.812  1.00  0.00     0.034 C 
HETATM    8  C17 UNL     1      35.739  54.377  60.029  1.00  0.00     0.197 C 
HETATM    9  N3  UNL     1      34.943  54.996  61.094  1.00  0.00    -0.044 N 
ATOM     10  H31 UNL     1      34.166  55.562  60.754  1.00  0.00     0.280 HD
ATOM     11  H32 UNL     1      35.426  55.747  61.588  1.00  0.00     0.280 HD
HETATM   12  C18 UNL     1      34.537  53.882  61.955  1.00  0.00     0.319 C 
HETATM   13  C19 UNL     1      35.601  52.829  61.979  1.00  0.00     0.062 C 
HETATM   14  C20 UNL     1      37.005  53.387  61.842  1.00  0.00     0.016 C 
HETATM   15  C21 UNL     1      37.149  54.242  60.585  1.00  0.00    -0.011 C 
HETATM   16  C22 UNL     1      37.700  55.550  61.003  1.00  0.00     0.018 C 
HETATM   17  C23 UNL     1      37.954  53.471  59.578  1.00  0.00     0.000 C 
HETATM   18  C24 UNL     1      39.410  53.456  59.938  1.00  0.00     0.006 C 
HETATM   19  C25 UNL     1      40.315  52.814  58.966  1.00  0.00     0.010 C 
HETATM   20  C26 UNL     1      39.989  52.886  57.519  1.00  0.00    -0.036 C 
HETATM   21  C27 UNL     1      39.284  51.614  57.071  1.00  0.00     0.016 C 
ENDROOT
BRANCH   1  22
HETATM   22  C7  UNL     1      42.184  52.737  56.125  1.00  0.00    -0.019 C 
HETATM   23  C8  UNL     1      43.225  53.900  56.143  1.00  0.00     0.017 C 
HETATM   24  C9  UNL     1      42.076  52.497  54.626  1.00  0.00     0.017 C 
BRANCH  22  25
HETATM   25  C6  UNL     1      42.582  51.605  56.929  1.00  0.00     0.251 C 
BRANCH  25  26
HETATM   26  N2  UNL     1      43.231  50.438  56.441  1.00  0.00    -0.049 N 
HETATM   27  C4  UNL     1      42.387  49.880  55.376  1.00  0.00     0.278 C 
HETATM   28  C5  UNL     1      44.575  50.560  56.012  1.00  0.00     0.278 C 
BRANCH  26  29
HETATM   29  C3  UNL     1      43.082  49.518  57.553  1.00  0.00     0.277 C 
BRANCH  29  30
HETATM   30  C2  UNL     1      41.817  48.888  57.787  1.00  0.00     0.288 C 
HETATM   31  N1  UNL     1      40.958  49.418  58.837  1.00  0.00    -0.231 N 
ATOM     32  H1  UNL     1      41.287  50.223  59.370  1.00  0.00     0.197 HD
HETATM   33  O2  UNL     1      41.296  47.903  57.208  1.00  0.00    -0.265 OA
BRANCH  31  34
HETATM   34  O1  UNL     1      39.763  48.907  59.137  1.00  0.00    -0.282 OA
HETATM   35  C1  UNL     1      39.111  49.593  60.164  1.00  0.00     0.237 C 
ENDBRANCH  31  34
ENDBRANCH  29  30
ENDBRANCH  26  29
ENDBRANCH  25  26
ENDBRANCH  22  25
ENDBRANCH   1  22
BRANCH  12  36
HETATM   36  O3  UNL     1      34.163  54.348  63.192  1.00  0.00    -0.370 OA
ATOM     37  H3  UNL     1      34.673  55.116  63.422  1.00  0.00     0.212 HD
ENDBRANCH  12  36
TORSDOF 7
ENDMDL
MODEL 4
REMARK VINA RESULT: -7.880591427      4.307      9.631
REMARK  7 active torsions:
REMARK  status: ('A' for Active; 'I' for Inactive)
REMARK    1  A    between atoms: O1_2  and  N1_3 
REMARK       I    between atoms: N1_3  and  C2_5 
REMARK    2  A    between atoms: C2_5  and  C3_7 
REMARK    3  A    between atoms: C3_7  and  N2_8 
REMARK    4  A    between atoms: N2_8  and  C6_11 
REMARK    5  A    between atoms: C6_11  and  C7_12 
REMARK    6  A    between atoms: C7_12  and  C10_15 
REMARK    7  A    between atoms: C18_26  and  O3_27 
ROOT
HETATM    1  C10 UNL     1      41.119  51.049  57.136  1.00  0.00     0.003 C 
HETATM    2  C11 UNL     1      41.765  52.364  57.542  1.00  0.00     0.006 C 
HETATM    3  C12 UNL     1      40.537  53.268  57.483  1.00  0.00     0.006 C 
HETATM    4  C13 UNL     1      39.341  52.368  57.530  1.00  0.00    -0.002 C 
HETATM    5  C14 UNL     1      38.165  52.839  58.239  1.00  0.00    -0.005 C 
HETATM    6  C15 UNL     1      37.909  54.276  57.792  1.00  0.00     0.007 C 
HETATM    7  C16 UNL     1      36.674  54.846  58.402  1.00  0.00     0.034 C 
HETATM    8  C17 UNL     1      36.342  54.297  59.745  1.00  0.00     0.197 C 
HETATM    9  N3  UNL     1      35.749  55.340  60.587  1.00  0.00    -0.044 N 
ATOM     10  H31 UNL     1      35.224  56.043  60.067  1.00  0.00     0.280 HD
ATOM     11  H32 UNL     1      36.431  55.982  60.992  1.00  0.00     0.280 HD
HETATM   12  C18 UNL     1      34.951  54.614  61.578  1.00  0.00     0.319 C 
HETATM   13  C19 UNL     1      35.597  53.305  61.908  1.00  0.00     0.062 C 
HETATM   14  C20 UNL     1      37.112  53.345  61.836  1.00  0.00     0.016 C 
HETATM   15  C21 UNL     1      37.596  53.835  60.473  1.00  0.00    -0.011 C 
HETATM   16  C22 UNL     1      38.532  54.955  60.714  1.00  0.00     0.018 C 
HETATM   17  C23 UNL     1      38.144  52.659  59.715  1.00  0.00     0.000 C 
HETATM   18  C24 UNL     1      39.491  52.254  60.235  1.00  0.00     0.006 C 
HETATM   19  C25 UNL     1      40.175  51.172  59.500  1.00  0.00     0.010 C 
HETATM   20  C26 UNL     1      39.963  51.048  58.035  1.00  0.00    -0.036 C 
HETATM   21  C27 UNL     1      38.895  50.005  57.741  1.00  0.00     0.016 C 
ENDROOT
BRANCH   1  22
HETATM   22  C7  UNL     1      42.047  49.926  56.947  1.00  0.00    -0.019 C 
HETATM   23  C8  UNL     1      41.486  48.895  57.977  1.00  0.00     0.017 C 
HETATM   24  C9  UNL     1      43.374  50.270  57.606  1.00  0.00     0.017 C 
BRANCH  22  25
HETATM   25  C6  UNL     1      42.115  49.406  55.601  1.00  0.00     0.251 C 
BRANCH  25  26
HETATM   26  N2  UNL     1      42.761  50.041  54.507  1.00  0.00    -0.049 N 
HETATM   27  C4  UNL     1      41.959  51.218  54.146  1.00  0.00     0.278 C 
HETATM   28  C5  UNL     1      44.127  50.384  54.655  1.00  0.00     0.278 C 
BRANCH  26  29
HETATM   29  C3  UNL     1      42.539  49.095  53.429  1.00  0.00     0.277 C 
BRANCH  29  30
HETATM   30  C2  UNL     1      42.428  49.570  52.082  1.00  0.00     0.288 C 
HETATM   31  N1  UNL     1      41.149  49.430  51.398  1.00  0.00    -0.231 N 
ATOM     32  H1  UNL     1      40.375  48.999  51.903  1.00  0.00     0.197 HD
HETATM   33  O2  UNL     1      43.292  50.115  51.352  1.00  0.00    -0.265 OA
BRANCH  31  34
HETATM   34  O1  UNL     1      40.938  49.837  50.145  1.00  0.00    -0.282 OA
HETATM   35  C1  UNL     1      40.687  48.787  49.259  1.00  0.00     0.237 C 
ENDBRANCH  31  34
ENDBRANCH  29  30
ENDBRANCH  26  29
ENDBRANCH  25  26
ENDBRANCH  22  25
ENDBRANCH   1  22
BRANCH  12  36
HETATM   36  O3  UNL     1      34.695  55.417  62.663  1.00  0.00    -0.370 OA
ATOM     37  H3  UNL     1      35.367  56.083  62.746  1.00  0.00     0.212 HD
ENDBRANCH  12  36
TORSDOF 7
ENDMDL
MODEL 5
REMARK VINA RESULT: -7.858093064      4.245      9.853
REMARK  7 active torsions:
REMARK  status: ('A' for Active; 'I' for Inactive)
REMARK    1  A    between atoms: O1_2  and  N1_3 
REMARK       I    between atoms: N1_3  and  C2_5 
REMARK    2  A    between atoms: C2_5  and  C3_7 
REMARK    3  A    between atoms: C3_7  and  N2_8 
REMARK    4  A    between atoms: N2_8  and  C6_11 
REMARK    5  A    between atoms: C6_11  and  C7_12 
REMARK    6  A    between atoms: C7_12  and  C10_15 
REMARK    7  A    between atoms: C18_26  and  O3_27 
ROOT
HETATM    1  C10 UNL     1      40.856  52.853  56.649  1.00  0.00     0.003 C 
HETATM    2  C11 UNL     1      41.176  54.241  57.182  1.00  0.00     0.006 C 
HETATM    3  C12 UNL     1      39.755  54.759  57.385  1.00  0.00     0.006 C 
HETATM    4  C13 UNL     1      38.863  53.556  57.417  1.00  0.00    -0.002 C 
HETATM    5  C14 UNL     1      37.715  53.586  58.305  1.00  0.00    -0.005 C 
HETATM    6  C15 UNL     1      37.023  54.933  58.109  1.00  0.00     0.007 C 
HETATM    7  C16 UNL     1      35.778  55.053  58.921  1.00  0.00     0.034 C 
HETATM    8  C17 UNL     1      35.796  54.279  60.191  1.00  0.00     0.197 C 
HETATM    9  N3  UNL     1      35.069  55.004  61.237  1.00  0.00    -0.044 N 
ATOM     10  H31 UNL     1      34.308  55.584  60.886  1.00  0.00     0.280 HD
ATOM     11  H32 UNL     1      35.604  55.761  61.664  1.00  0.00     0.280 HD
HETATM   12  C18 UNL     1      34.642  53.970  62.184  1.00  0.00     0.319 C 
HETATM   13  C19 UNL     1      35.655  52.870  62.244  1.00  0.00     0.062 C 
HETATM   14  C20 UNL     1      37.078  53.348  62.025  1.00  0.00     0.016 C 
HETATM   15  C21 UNL     1      37.217  54.111  60.710  1.00  0.00    -0.011 C 
HETATM   16  C22 UNL     1      37.844  55.415  61.021  1.00  0.00     0.018 C 
HETATM   17  C23 UNL     1      37.949  53.236  59.731  1.00  0.00     0.000 C 
HETATM   18  C24 UNL     1      39.414  53.174  60.044  1.00  0.00     0.006 C 
HETATM   19  C25 UNL     1      40.254  52.425  59.089  1.00  0.00     0.010 C 
HETATM   20  C26 UNL     1      39.880  52.418  57.650  1.00  0.00    -0.036 C 
HETATM   21  C27 UNL     1      39.100  51.156  57.312  1.00  0.00     0.016 C 
ENDROOT
BRANCH   1  22
HETATM   22  C7  UNL     1      42.015  52.071  56.200  1.00  0.00    -0.019 C 
HETATM   23  C8  UNL     1      43.066  53.199  55.960  1.00  0.00     0.017 C 
HETATM   24  C9  UNL     1      41.776  51.617  54.767  1.00  0.00     0.017 C 
BRANCH  22  25
HETATM   25  C6  UNL     1      42.468  51.059  57.126  1.00  0.00     0.251 C 
BRANCH  25  26
HETATM   26  N2  UNL     1      42.606  49.677  56.830  1.00  0.00    -0.049 N 
HETATM   27  C4  UNL     1      41.764  48.938  57.779  1.00  0.00     0.278 C 
HETATM   28  C5  UNL     1      42.358  49.259  55.499  1.00  0.00     0.278 C 
BRANCH  26  29
HETATM   29  C3  UNL     1      43.968  49.408  57.253  1.00  0.00     0.277 C 
BRANCH  29  30
HETATM   30  C2  UNL     1      45.055  50.086  56.613  1.00  0.00     0.288 C 
HETATM   31  N1  UNL     1      46.117  50.638  57.445  1.00  0.00    -0.231 N 
ATOM     32  H1  UNL     1      46.050  50.521  58.455  1.00  0.00     0.197 HD
HETATM   33  O2  UNL     1      45.259  50.298  55.393  1.00  0.00    -0.265 OA
BRANCH  31  34
HETATM   34  O1  UNL     1      47.172  51.289  56.952  1.00  0.00    -0.282 OA
HETATM   35  C1  UNL     1      48.011  51.809  57.941  1.00  0.00     0.237 C 
ENDBRANCH  31  34
ENDBRANCH  29  30
ENDBRANCH  26  29
ENDBRANCH  25  26
ENDBRANCH  22  25
ENDBRANCH   1  22
BRANCH  12  36
HETATM   36  O3  UNL     1      34.334  54.534  63.398  1.00  0.00    -0.370 OA
ATOM     37  H3  UNL     1      34.054  53.864  64.010  1.00  0.00     0.212 HD
ENDBRANCH  12  36
TORSDOF 7
ENDMDL
