MODEL 1
REMARK VINA RESULT: -8.385303302      0.000      0.000
REMARK  8 active torsions:
REMARK  status: ('A' for Active; 'I' for Inactive)
REMARK    1  A    between atoms: O1_2  and  N1_3 
REMARK    2  A    between atoms: C2_5  and  C3_6 
REMARK    3  A    between atoms: C2_5  and  N2_13 
REMARK    4  A    between atoms: C3_6  and  C4_7 
REMARK    5  A    between atoms: C4_7  and  C5_8 
REMARK    6  A    between atoms: C6_9  and  C7_10 
REMARK    7  A    between atoms: N2_13  and  C8_15 
REMARK    8  A    between atoms: C20_27  and  C21_28 
ROOT
HETATM    1  C8  UNL     1      35.269  54.970  60.082  1.00  0.00     0.083 C 
HETATM    2  C9  UNL     1      34.844  55.099  58.633  1.00  0.00     0.025 C 
HETATM    3  C10 UNL     1      35.967  54.665  57.716  1.00  0.00     0.007 C 
HETATM    4  C11 UNL     1      37.250  55.309  58.260  1.00  0.00    -0.006 C 
HETATM    5  C12 UNL     1      38.239  55.359  57.171  1.00  0.00     0.006 C 
HETATM    6  C13 UNL     1      39.661  55.280  57.632  1.00  0.00     0.006 C 
HETATM    7  C14 UNL     1      39.989  54.215  58.622  1.00  0.00    -0.005 C 
HETATM    8  C15 UNL     1      38.806  53.689  59.412  1.00  0.00    -0.002 C 
HETATM    9  C16 UNL     1      38.382  52.312  58.961  1.00  0.00     0.006 C 
HETATM   10  C17 UNL     1      39.605  51.358  59.064  1.00  0.00     0.011 C 
HETATM   11  C18 UNL     1      40.430  51.798  57.911  1.00  0.00    -0.028 C 
HETATM   12  C19 UNL     1      39.689  51.613  56.641  1.00  0.00     0.016 C 
HETATM   13  C20 UNL     1      41.770  51.123  57.742  1.00  0.00     0.083 C 
HETATM   14  C22 UNL     1      42.428  52.096  56.752  1.00  0.00     0.015 C 
HETATM   15  C23 UNL     1      41.648  53.402  56.860  1.00  0.00     0.007 C 
HETATM   16  C24 UNL     1      40.934  53.192  58.173  1.00  0.00    -0.001 C 
HETATM   17  C25 UNL     1      37.688  54.640  59.531  1.00  0.00    -0.035 C 
HETATM   18  C26 UNL     1      38.110  55.731  60.525  1.00  0.00     0.016 C 
HETATM   19  C27 UNL     1      36.456  53.993  60.118  1.00  0.00     0.035 C 
ENDROOT
BRANCH   1  20
HETATM   20  N2  UNL     1      34.201  54.348  60.832  1.00  0.00    -0.370 N 
ATOM     21  H2  UNL     1      33.556  53.699  60.382  1.00  0.00     0.161 HD
BRANCH  20  22
HETATM   22  C2  UNL     1      34.073  54.666  62.219  1.00  0.00     0.129 C 
HETATM   23  N1  UNL     1      34.383  53.763  63.052  1.00  0.00    -0.251 N 
ATOM     24  H1  UNL     1      34.310  54.002  64.041  1.00  0.00     0.196 HD
BRANCH  23  25
HETATM   25  O1  UNL     1      34.799  52.523  62.757  1.00  0.00    -0.284 OA
HETATM   26  C1  UNL     1      36.187  52.245  63.055  1.00  0.00     0.237 C 
ENDBRANCH  23  25
BRANCH  22  27
HETATM   27  C3  UNL     1      33.633  55.983  62.703  1.00  0.00     0.105 C 
BRANCH  27  28
HETATM   28  C4  UNL     1      32.903  56.261  63.651  1.00  0.00    -0.124 C 
BRANCH  28  29
HETATM   29  C5  UNL     1      32.074  56.589  64.715  1.00  0.00     0.062 C 
HETATM   30  C6  UNL     1      32.107  57.759  65.400  1.00  0.00     0.092 C 
BRANCH  30  31
HETATM   31  C7  UNL     1      33.012  58.826  65.114  1.00  0.00     0.199 C 
HETATM   32  O2  UNL     1      34.151  58.825  65.703  1.00  0.00    -0.644 OA
HETATM   33  O3  UNL     1      32.712  59.836  64.244  1.00  0.00    -0.644 OA
ENDBRANCH  30  31
ENDBRANCH  28  29
ENDBRANCH  27  28
ENDBRANCH  22  27
ENDBRANCH  20  22
ENDBRANCH   1  20
BRANCH  13  34
HETATM   34  C21 UNL     1      41.725  49.784  57.157  1.00  0.00     0.236 C 
HETATM   35  N3  UNL     1      42.328  49.606  55.860  1.00  0.00    -0.062 NA
HETATM   36  O4  UNL     1      41.205  48.758  57.671  1.00  0.00    -0.276 OA
ENDBRANCH  13  34
TORSDOF 8
ENDMDL
MODEL 2
REMARK VINA RESULT: -8.326594250      1.624      1.954
REMARK  8 active torsions:
REMARK  status: ('A' for Active; 'I' for Inactive)
REMARK    1  A    between atoms: O1_2  and  N1_3 
REMARK    2  A    between atoms: C2_5  and  C3_6 
REMARK    3  A    between atoms: C2_5  and  N2_13 
REMARK    4  A    between atoms: C3_6  and  C4_7 
REMARK    5  A    between atoms: C4_7  and  C5_8 
REMARK    6  A    between atoms: C6_9  and  C7_10 
REMARK    7  A    between atoms: N2_13  and  C8_15 
REMARK    8  A    between atoms: C20_27  and  C21_28 
ROOT
HETATM    1  C8  UNL     1      34.988  56.387  59.561  1.00  0.00     0.083 C 
HETATM    2  C9  UNL     1      34.916  56.358  58.048  1.00  0.00     0.025 C 
HETATM    3  C10 UNL     1      36.035  55.507  57.486  1.00  0.00     0.007 C 
HETATM    4  C11 UNL     1      37.310  55.903  58.244  1.00  0.00    -0.006 C 
HETATM    5  C12 UNL     1      38.472  55.517  57.427  1.00  0.00     0.006 C 
HETATM    6  C13 UNL     1      39.693  55.176  58.223  1.00  0.00     0.006 C 
HETATM    7  C14 UNL     1      39.506  54.255  59.380  1.00  0.00    -0.005 C 
HETATM    8  C15 UNL     1      38.089  54.183  59.918  1.00  0.00    -0.002 C 
HETATM    9  C16 UNL     1      37.399  52.893  59.542  1.00  0.00     0.006 C 
HETATM   10  C17 UNL     1      38.261  51.703  60.047  1.00  0.00     0.011 C 
HETATM   11  C18 UNL     1      39.390  51.717  59.084  1.00  0.00    -0.028 C 
HETATM   12  C19 UNL     1      38.899  51.497  57.704  1.00  0.00     0.016 C 
HETATM   13  C20 UNL     1      40.495  50.716  59.323  1.00  0.00     0.083 C 
HETATM   14  C22 UNL     1      41.583  51.308  58.415  1.00  0.00     0.015 C 
HETATM   15  C23 UNL     1      41.192  52.762  58.178  1.00  0.00     0.007 C 
HETATM   16  C24 UNL     1      40.199  52.970  59.295  1.00  0.00    -0.001 C 
HETATM   17  C25 UNL     1      37.280  55.383  59.652  1.00  0.00    -0.035 C 
HETATM   18  C26 UNL     1      37.779  56.496  60.584  1.00  0.00     0.016 C 
HETATM   19  C27 UNL     1      35.825  55.171  59.996  1.00  0.00     0.035 C 
ENDROOT
BRANCH   1  20
HETATM   20  N2  UNL     1      33.661  56.187  60.099  1.00  0.00    -0.370 N 
ATOM     21  H2  UNL     1      32.939  55.724  59.549  1.00  0.00     0.161 HD
BRANCH  20  22
HETATM   22  C2  UNL     1      33.389  56.656  61.421  1.00  0.00     0.129 C 
HETATM   23  N1  UNL     1      33.328  55.789  62.343  1.00  0.00    -0.251 N 
ATOM     24  H1  UNL     1      33.154  56.131  63.288  1.00  0.00     0.196 HD
BRANCH  23  25
HETATM   25  O1  UNL     1      33.470  54.464  62.193  1.00  0.00    -0.284 OA
HETATM   26  C1  UNL     1      34.537  53.862  62.963  1.00  0.00     0.237 C 
ENDBRANCH  23  25
BRANCH  22  27
HETATM   27  C3  UNL     1      33.212  58.078  61.747  1.00  0.00     0.105 C 
BRANCH  27  28
HETATM   28  C4  UNL     1      33.073  58.616  62.844  1.00  0.00    -0.124 C 
BRANCH  28  29
HETATM   29  C5  UNL     1      32.932  59.223  64.083  1.00  0.00     0.062 C 
HETATM   30  C6  UNL     1      32.487  58.611  65.209  1.00  0.00     0.092 C 
BRANCH  30  31
HETATM   31  C7  UNL     1      32.099  57.237  65.269  1.00  0.00     0.199 C 
HETATM   32  O2  UNL     1      30.858  56.969  65.449  1.00  0.00    -0.644 OA
HETATM   33  O3  UNL     1      32.991  56.211  65.142  1.00  0.00    -0.644 OA
ENDBRANCH  30  31
ENDBRANCH  28  29
ENDBRANCH  27  28
ENDBRANCH  22  27
ENDBRANCH  20  22
ENDBRANCH   1  20
BRANCH  13  34
HETATM   34  C21 UNL     1      40.199  49.347  58.905  1.00  0.00     0.236 C 
HETATM   35  N3  UNL     1      41.100  48.730  57.965  1.00  0.00    -0.062 NA
HETATM   36  O4  UNL     1      39.223  48.643  59.281  1.00  0.00    -0.276 OA
ENDBRANCH  13  34
TORSDOF 8
ENDMDL
MODEL 3
REMARK VINA RESULT: -8.269676092      4.493      8.191
REMARK  8 active torsions:
REMARK  status: ('A' for Active; 'I' for Inactive)
REMARK    1  A    between atoms: O1_2  and  N1_3 
REMARK    2  A    between atoms: C2_5  and  C3_6 
REMARK    3  A    between atoms: C2_5  and  N2_13 
REMARK    4  A    between atoms: C3_6  and  C4_7 
REMARK    5  A    between atoms: C4_7  and  C5_8 
REMARK    6  A    between atoms: C6_9  and  C7_10 
REMARK    7  A    between atoms: N2_13  and  C8_15 
REMARK    8  A    between atoms: C20_27  and  C21_28 
ROOT
HETATM    1  C8  UNL     1      36.146  55.098  60.518  1.00  0.00     0.083 C 
HETATM    2  C9  UNL     1      36.071  54.169  59.323  1.00  0.00     0.025 C 
HETATM    3  C10 UNL     1      35.951  54.968  58.043  1.00  0.00     0.007 C 
HETATM    4  C11 UNL     1      34.905  56.061  58.307  1.00  0.00    -0.006 C 
HETATM    5  C12 UNL     1      34.379  56.518  57.010  1.00  0.00     0.006 C 
HETATM    6  C13 UNL     1      33.933  57.947  57.000  1.00  0.00     0.006 C 
HETATM    7  C14 UNL     1      34.864  58.946  57.597  1.00  0.00    -0.005 C 
HETATM    8  C15 UNL     1      35.877  58.375  58.571  1.00  0.00    -0.002 C 
HETATM    9  C16 UNL     1      37.266  58.313  57.983  1.00  0.00     0.006 C 
HETATM   10  C17 UNL     1      37.670  59.738  57.512  1.00  0.00     0.011 C 
HETATM   11  C18 UNL     1      36.845  59.897  56.288  1.00  0.00    -0.028 C 
HETATM   12  C19 UNL     1      37.197  58.864  55.286  1.00  0.00     0.016 C 
HETATM   13  C20 UNL     1      36.925  61.233  55.589  1.00  0.00     0.083 C 
HETATM   14  C22 UNL     1      35.691  61.124  54.680  1.00  0.00     0.015 C 
HETATM   15  C23 UNL     1      34.810  60.041  55.291  1.00  0.00     0.007 C 
HETATM   16  C24 UNL     1      35.393  59.957  56.680  1.00  0.00    -0.001 C 
HETATM   17  C25 UNL     1      35.454  57.121  59.216  1.00  0.00    -0.035 C 
HETATM   18  C26 UNL     1      34.374  57.472  60.250  1.00  0.00     0.016 C 
HETATM   19  C27 UNL     1      36.579  56.476  59.990  1.00  0.00     0.035 C 
ENDROOT
BRANCH   1  20
HETATM   20  N2  UNL     1      37.199  54.646  61.400  1.00  0.00    -0.370 N 
ATOM     21  H2  UNL     1      37.502  55.217  62.188  1.00  0.00     0.161 HD
BRANCH  20  22
HETATM   22  C2  UNL     1      37.803  53.377  61.137  1.00  0.00     0.129 C 
HETATM   23  N1  UNL     1      38.868  53.373  60.451  1.00  0.00    -0.251 N 
ATOM     24  H1  UNL     1      39.307  52.467  60.284  1.00  0.00     0.196 HD
BRANCH  23  25
HETATM   25  O1  UNL     1      39.473  54.447  59.923  1.00  0.00    -0.284 OA
HETATM   26  C1  UNL     1      40.908  54.340  59.772  1.00  0.00     0.237 C 
ENDBRANCH  23  25
BRANCH  22  27
HETATM   27  C3  UNL     1      37.262  52.110  61.648  1.00  0.00     0.105 C 
BRANCH  27  28
HETATM   28  C4  UNL     1      37.511  50.958  61.299  1.00  0.00    -0.124 C 
BRANCH  28  29
HETATM   29  C5  UNL     1      37.778  49.653  60.911  1.00  0.00     0.062 C 
HETATM   30  C6  UNL     1      38.584  49.292  59.881  1.00  0.00     0.092 C 
BRANCH  30  31
HETATM   31  C7  UNL     1      39.275  50.222  59.045  1.00  0.00     0.199 C 
HETATM   32  O2  UNL     1      38.806  50.443  57.872  1.00  0.00    -0.644 OA
HETATM   33  O3  UNL     1      40.404  50.878  59.447  1.00  0.00    -0.644 OA
ENDBRANCH  30  31
ENDBRANCH  28  29
ENDBRANCH  27  28
ENDBRANCH  22  27
ENDBRANCH  20  22
ENDBRANCH   1  20
BRANCH  13  34
HETATM   34  C21 UNL     1      38.119  61.440  54.771  1.00  0.00     0.236 C 
HETATM   35  N3  UNL     1      37.937  61.550  53.346  1.00  0.00    -0.062 NA
HETATM   36  O4  UNL     1      39.306  61.530  55.187  1.00  0.00    -0.276 OA
ENDBRANCH  13  34
TORSDOF 8
ENDMDL
MODEL 4
REMARK VINA RESULT: -8.238180168      3.638     10.334
REMARK  8 active torsions:
REMARK  status: ('A' for Active; 'I' for Inactive)
REMARK    1  A    between atoms: O1_2  and  N1_3 
REMARK    2  A    between atoms: C2_5  and  C3_6 
REMARK    3  A    between atoms: C2_5  and  N2_13 
REMARK    4  A    between atoms: C3_6  and  C4_7 
REMARK    5  A    between atoms: C4_7  and  C5_8 
REMARK    6  A    between atoms: C6_9  and  C7_10 
REMARK    7  A    between atoms: N2_13  and  C8_15 
REMARK    8  A    between atoms: C20_27  and  C21_28 
ROOT
HETATM    1  C8  UNL     1      41.277  51.712  57.310  1.00  0.00     0.083 C 
HETATM    2  C9  UNL     1      40.278  50.598  57.546  1.00  0.00     0.025 C 
HETATM    3  C10 UNL     1      38.991  51.158  58.115  1.00  0.00     0.007 C 
HETATM    4  C11 UNL     1      39.395  52.152  59.214  1.00  0.00    -0.006 C 
HETATM    5  C12 UNL     1      38.249  52.327  60.121  1.00  0.00     0.006 C 
HETATM    6  C13 UNL     1      38.183  53.674  60.770  1.00  0.00     0.006 C 
HETATM    7  C14 UNL     1      38.366  54.858  59.883  1.00  0.00    -0.005 C 
HETATM    8  C15 UNL     1      39.084  54.574  58.577  1.00  0.00    -0.002 C 
HETATM    9  C16 UNL     1      38.145  54.576  57.394  1.00  0.00     0.006 C 
HETATM   10  C17 UNL     1      37.404  55.942  57.351  1.00  0.00     0.011 C 
HETATM   11  C18 UNL     1      36.448  55.803  58.478  1.00  0.00    -0.028 C 
HETATM   12  C19 UNL     1      35.527  54.667  58.241  1.00  0.00     0.016 C 
HETATM   13  C20 UNL     1      35.592  57.007  58.790  1.00  0.00     0.083 C 
HETATM   14  C22 UNL     1      35.084  56.610  60.184  1.00  0.00     0.015 C 
HETATM   15  C23 UNL     1      36.047  55.547  60.699  1.00  0.00     0.007 C 
HETATM   16  C24 UNL     1      37.218  55.759  59.771  1.00  0.00    -0.001 C 
HETATM   17  C25 UNL     1      39.974  53.402  58.619  1.00  0.00    -0.035 C 
HETATM   18  C26 UNL     1      41.215  53.791  59.437  1.00  0.00     0.016 C 
HETATM   19  C27 UNL     1      40.480  53.026  57.247  1.00  0.00     0.035 C 
ENDROOT
BRANCH   1  20
HETATM   20  N2  UNL     1      41.881  51.534  56.009  1.00  0.00    -0.370 N 
ATOM     21  H2  UNL     1      41.306  51.488  55.167  1.00  0.00     0.161 HD
BRANCH  20  22
HETATM   22  C2  UNL     1      43.304  51.425  55.932  1.00  0.00     0.129 C 
HETATM   23  N1  UNL     1      43.943  52.444  55.535  1.00  0.00    -0.251 N 
ATOM     24  H1  UNL     1      44.960  52.367  55.502  1.00  0.00     0.196 HD
BRANCH  23  25
HETATM   25  O1  UNL     1      43.410  53.613  55.155  1.00  0.00    -0.284 OA
HETATM   26  C1  UNL     1      43.633  54.722  56.058  1.00  0.00     0.237 C 
ENDBRANCH  23  25
BRANCH  22  27
HETATM   27  C3  UNL     1      44.036  50.210  56.317  1.00  0.00     0.105 C 
BRANCH  27  28
HETATM   28  C4  UNL     1      43.601  49.122  56.689  1.00  0.00    -0.124 C 
BRANCH  28  29
HETATM   29  C5  UNL     1      43.115  47.897  57.123  1.00  0.00     0.062 C 
HETATM   30  C6  UNL     1      43.875  46.812  57.415  1.00  0.00     0.092 C 
BRANCH  30  31
HETATM   31  C7  UNL     1      45.300  46.786  57.313  1.00  0.00     0.199 C 
HETATM   32  O2  UNL     1      45.830  45.970  56.477  1.00  0.00    -0.644 OA
HETATM   33  O3  UNL     1      46.109  47.591  58.064  1.00  0.00    -0.644 OA
ENDBRANCH  30  31
ENDBRANCH  28  29
ENDBRANCH  27  28
ENDBRANCH  22  27
ENDBRANCH  20  22
ENDBRANCH   1  20
BRANCH  13  34
HETATM   34  C21 UNL     1      34.455  57.213  57.894  1.00  0.00     0.236 C 
HETATM   35  N3  UNL     1      34.547  58.290  56.941  1.00  0.00    -0.062 NA
HETATM   36  O4  UNL     1      33.388  56.543  57.871  1.00  0.00    -0.276 OA
ENDBRANCH  13  34
TORSDOF 8
ENDMDL
MODEL 5
REMARK VINA RESULT: -8.215703133      2.121      3.079
REMARK  8 active torsions:
REMARK  status: ('A' for Active; 'I' for Inactive)
REMARK    1  A    between atoms: O1_2  and  N1_3 
REMARK    2  A    between atoms: C2_5  and  C3_6 
REMARK    3  A    between atoms: C2_5  and  N2_13 
REMARK    4  A    between atoms: C3_6  and  C4_7 
REMARK    5  A    between atoms: C4_7  and  C5_8 
REMARK    6  A    between atoms: C6_9  and  C7_10 
REMARK    7  A    between atoms: N2_13  and  C8_15 
REMARK    8  A    between atoms: C20_27  and  C21_28 
ROOT
HETATM    1  C8  UNL     1      36.709  54.149  60.372  1.00  0.00     0.083 C 
HETATM    2  C9  UNL     1      37.663  55.314  60.541  1.00  0.00     0.025 C 
HETATM    3  C10 UNL     1      38.999  54.996  59.903  1.00  0.00     0.007 C 
HETATM    4  C11 UNL     1      39.357  53.566  60.331  1.00  0.00    -0.006 C 
HETATM    5  C12 UNL     1      40.812  53.393  60.190  1.00  0.00     0.006 C 
HETATM    6  C13 UNL     1      41.235  51.991  59.880  1.00  0.00     0.006 C 
HETATM    7  C14 UNL     1      40.492  51.288  58.796  1.00  0.00    -0.005 C 
HETATM    8  C15 UNL     1      39.116  51.850  58.495  1.00  0.00    -0.002 C 
HETATM    9  C16 UNL     1      39.084  52.627  57.201  1.00  0.00     0.006 C 
HETATM   10  C17 UNL     1      39.585  51.703  56.056  1.00  0.00     0.011 C 
HETATM   11  C18 UNL     1      41.044  51.651  56.325  1.00  0.00    -0.028 C 
HETATM   12  C19 UNL     1      41.637  53.006  56.241  1.00  0.00     0.016 C 
HETATM   13  C20 UNL     1      41.864  50.755  55.429  1.00  0.00     0.083 C 
HETATM   14  C22 UNL     1      43.157  50.674  56.255  1.00  0.00     0.015 C 
HETATM   15  C23 UNL     1      42.776  51.075  57.676  1.00  0.00     0.007 C 
HETATM   16  C24 UNL     1      41.277  50.916  57.619  1.00  0.00    -0.001 C 
HETATM   17  C25 UNL     1      38.494  52.562  59.624  1.00  0.00    -0.035 C 
HETATM   18  C26 UNL     1      38.048  51.508  60.648  1.00  0.00     0.016 C 
HETATM   19  C27 UNL     1      37.241  53.296  59.208  1.00  0.00     0.035 C 
ENDROOT
BRANCH   1  20
HETATM   20  N2  UNL     1      35.420  54.655  59.955  1.00  0.00    -0.370 N 
ATOM     21  H2  UNL     1      35.107  54.557  58.990  1.00  0.00     0.161 HD
BRANCH  20  22
HETATM   22  C2  UNL     1      34.596  55.294  60.932  1.00  0.00     0.129 C 
HETATM   23  N1  UNL     1      33.988  56.348  60.578  1.00  0.00    -0.251 N 
ATOM     24  H1  UNL     1      33.385  56.789  61.273  1.00  0.00     0.196 HD
BRANCH  23  25
HETATM   25  O1  UNL     1      34.063  56.938  59.377  1.00  0.00    -0.284 OA
HETATM   26  C1  UNL     1      35.119  57.916  59.229  1.00  0.00     0.237 C 
ENDBRANCH  23  25
BRANCH  22  27
HETATM   27  C3  UNL     1      34.409  54.768  62.292  1.00  0.00     0.105 C 
BRANCH  27  28
HETATM   28  C4  UNL     1      33.525  55.017  63.110  1.00  0.00    -0.124 C 
BRANCH  28  29
HETATM   29  C5  UNL     1      32.529  55.313  64.029  1.00  0.00     0.062 C 
HETATM   30  C6  UNL     1      32.252  56.549  64.512  1.00  0.00     0.092 C 
BRANCH  30  31
HETATM   31  C7  UNL     1      32.961  57.731  64.133  1.00  0.00     0.199 C 
HETATM   32  O2  UNL     1      33.632  58.347  65.035  1.00  0.00    -0.644 OA
HETATM   33  O3  UNL     1      32.950  58.221  62.857  1.00  0.00    -0.644 OA
ENDBRANCH  30  31
ENDBRANCH  28  29
ENDBRANCH  27  28
ENDBRANCH  22  27
ENDBRANCH  20  22
ENDBRANCH   1  20
BRANCH  13  34
HETATM   34  C21 UNL     1      42.162  51.299  54.105  1.00  0.00     0.236 C 
HETATM   35  N3  UNL     1      43.503  51.771  53.867  1.00  0.00    -0.062 NA
HETATM   36  O4  UNL     1      41.359  51.404  53.140  1.00  0.00    -0.276 OA
ENDBRANCH  13  34
TORSDOF 8
ENDMDL
