MODEL 1
REMARK VINA RESULT: -8.453600779      0.000      0.000
REMARK  8 active torsions:
REMARK  status: ('A' for Active; 'I' for Inactive)
REMARK    1  A    between atoms: C2_2  and  N1_5 
REMARK       I    between atoms: N1_5  and  C5_7 
REMARK    2  A    between atoms: C5_7  and  C6_9 
REMARK    3  A    between atoms: C13_16  and  C14_17 
REMARK    4  A    between atoms: C14_17  and  O2_18 
REMARK    5  A    between atoms: C14_17  and  C15_20 
REMARK    6  A    between atoms: C15_20  and  C16_21 
REMARK    7  A    between atoms: C16_21  and  C17_22 
REMARK    8  A    between atoms: C20_25  and  C21_26 
ROOT
HETATM    1  C6  UNL     1      36.640  54.930  58.127  1.00  0.00     0.214 C 
HETATM    2  C7  UNL     1      37.758  54.921  57.118  1.00  0.00     0.048 C 
HETATM    3  C8  UNL     1      39.011  54.744  57.956  1.00  0.00     0.018 C 
HETATM    4  C9  UNL     1      39.981  53.842  57.312  1.00  0.00     0.008 C 
HETATM    5  C10 UNL     1      39.862  52.383  57.660  1.00  0.00     0.010 C 
HETATM    6  C11 UNL     1      39.703  52.248  59.133  1.00  0.00    -0.032 C 
HETATM    7  C12 UNL     1      40.806  52.966  59.884  1.00  0.00     0.016 C 
HETATM    8  C13 UNL     1      39.647  50.860  59.669  1.00  0.00     0.023 C 
HETATM    9  C24 UNL     1      38.798  50.990  60.891  1.00  0.00     0.008 C 
HETATM   10  C25 UNL     1      38.256  52.433  60.928  1.00  0.00     0.008 C 
HETATM   11  C26 UNL     1      38.362  52.858  59.477  1.00  0.00     0.023 C 
HETATM   12  C27 UNL     1      38.462  54.331  59.273  1.00  0.00     0.131 C 
HETATM   13  O5  UNL     1      37.180  54.867  59.381  1.00  0.00    -0.370 OA
ENDROOT
BRANCH   8  14
HETATM   14  C14 UNL     1      39.209  49.823  58.701  1.00  0.00     0.123 C 
BRANCH  14  15
HETATM   15  O2  UNL     1      38.156  49.101  59.215  1.00  0.00    -0.395 OA
ATOM     16  H2  UNL     1      37.634  48.729  58.513  1.00  0.00     0.210 HD
ENDBRANCH  14  15
BRANCH  14  17
HETATM   17  C15 UNL     1      40.312  49.032  58.082  1.00  0.00     0.032 C 
BRANCH  17  18
HETATM   18  C16 UNL     1      41.704  49.385  58.446  1.00  0.00     0.007 C 
BRANCH  18  19
HETATM   19  C17 UNL     1      42.660  49.191  57.259  1.00  0.00    -0.014 C 
HETATM   20  C18 UNL     1      42.085  48.289  56.216  1.00  0.00     0.005 C 
HETATM   21  C19 UNL     1      42.909  48.459  54.953  1.00  0.00     0.015 C 
HETATM   22  C20 UNL     1      42.662  49.827  54.352  1.00  0.00     0.087 C 
HETATM   23  C22 UNL     1      42.069  50.719  55.421  1.00  0.00     0.015 C 
HETATM   24  C23 UNL     1      42.889  50.562  56.669  1.00  0.00     0.005 C 
BRANCH  22  25
HETATM   25  C21 UNL     1      43.932  50.456  53.917  1.00  0.00     0.177 C 
HETATM   26  O3  UNL     1      45.058  49.905  53.987  1.00  0.00    -0.648 OA
HETATM   27  O4  UNL     1      43.876  51.739  53.399  1.00  0.00    -0.648 OA
ENDBRANCH  22  25
ENDBRANCH  18  19
ENDBRANCH  17  18
ENDBRANCH  14  17
ENDBRANCH   8  14
BRANCH   1  28
HETATM   28  C5  UNL     1      35.818  56.163  58.023  1.00  0.00     0.247 C 
HETATM   29  N1  UNL     1      36.138  57.190  57.080  1.00  0.00    -0.351 N 
ATOM     30  H1  UNL     1      36.945  57.076  56.467  1.00  0.00     0.163 HD
HETATM   31  O1  UNL     1      34.808  56.330  58.775  1.00  0.00    -0.271 OA
BRANCH  29  32
HETATM   32  C2  UNL     1      35.334  58.384  56.986  1.00  0.00     0.022 C 
HETATM   33  C1  UNL     1      35.511  59.254  58.199  1.00  0.00     0.037 C 
HETATM   34  C3  UNL     1      33.879  58.016  56.772  1.00  0.00     0.037 C 
HETATM   35  C4  UNL     1      35.779  59.171  55.767  1.00  0.00     0.037 C 
ENDBRANCH  29  32
ENDBRANCH   1  28
TORSDOF 8
ENDMDL
MODEL 2
REMARK VINA RESULT: -8.445277315      3.323      4.032
REMARK  8 active torsions:
REMARK  status: ('A' for Active; 'I' for Inactive)
REMARK    1  A    between atoms: C2_2  and  N1_5 
REMARK       I    between atoms: N1_5  and  C5_7 
REMARK    2  A    between atoms: C5_7  and  C6_9 
REMARK    3  A    between atoms: C13_16  and  C14_17 
REMARK    4  A    between atoms: C14_17  and  O2_18 
REMARK    5  A    between atoms: C14_17  and  C15_20 
REMARK    6  A    between atoms: C15_20  and  C16_21 
REMARK    7  A    between atoms: C16_21  and  C17_22 
REMARK    8  A    between atoms: C20_25  and  C21_26 
ROOT
HETATM    1  C6  UNL     1      35.395  53.387  61.398  1.00  0.00     0.214 C 
HETATM    2  C7  UNL     1      35.787  54.444  60.398  1.00  0.00     0.048 C 
HETATM    3  C8  UNL     1      37.292  54.562  60.557  1.00  0.00     0.018 C 
HETATM    4  C9  UNL     1      37.970  54.733  59.262  1.00  0.00     0.008 C 
HETATM    5  C10 UNL     1      38.409  53.470  58.571  1.00  0.00     0.010 C 
HETATM    6  C11 UNL     1      39.079  52.584  59.561  1.00  0.00    -0.032 C 
HETATM    7  C12 UNL     1      40.197  53.302  60.288  1.00  0.00     0.016 C 
HETATM    8  C13 UNL     1      39.650  51.314  59.035  1.00  0.00     0.023 C 
HETATM    9  C24 UNL     1      39.558  50.380  60.197  1.00  0.00     0.008 C 
HETATM   10  C25 UNL     1      38.783  51.106  61.315  1.00  0.00     0.008 C 
HETATM   11  C26 UNL     1      38.012  52.159  60.546  1.00  0.00     0.023 C 
HETATM   12  C27 UNL     1      37.628  53.353  61.352  1.00  0.00     0.131 C 
HETATM   13  O5  UNL     1      36.505  53.019  62.105  1.00  0.00    -0.370 OA
ENDROOT
BRANCH   8  14
HETATM   14  C14 UNL     1      39.040  50.818  57.775  1.00  0.00     0.123 C 
BRANCH  14  15
HETATM   15  O2  UNL     1      38.524  49.554  57.956  1.00  0.00    -0.395 OA
ATOM     16  H2  UNL     1      38.014  49.292  57.199  1.00  0.00     0.210 HD
ENDBRANCH  14  15
BRANCH  14  17
HETATM   17  C15 UNL     1      39.866  51.025  56.550  1.00  0.00     0.032 C 
BRANCH  17  18
HETATM   18  C16 UNL     1      41.339  51.046  56.706  1.00  0.00     0.007 C 
BRANCH  18  19
HETATM   19  C17 UNL     1      41.911  49.624  56.816  1.00  0.00    -0.014 C 
HETATM   20  C18 UNL     1      42.295  49.068  55.483  1.00  0.00     0.005 C 
HETATM   21  C19 UNL     1      43.175  47.855  55.725  1.00  0.00     0.015 C 
HETATM   22  C20 UNL     1      44.515  48.289  56.280  1.00  0.00     0.087 C 
HETATM   23  C22 UNL     1      44.371  49.687  56.840  1.00  0.00     0.015 C 
HETATM   24  C23 UNL     1      43.136  49.725  57.693  1.00  0.00     0.005 C 
BRANCH  22  25
HETATM   25  C21 UNL     1      44.937  47.413  57.400  1.00  0.00     0.177 C 
HETATM   26  O3  UNL     1      44.325  46.378  57.761  1.00  0.00    -0.648 OA
HETATM   27  O4  UNL     1      46.082  47.759  58.097  1.00  0.00    -0.648 OA
ENDBRANCH  22  25
ENDBRANCH  18  19
ENDBRANCH  17  18
ENDBRANCH  14  17
ENDBRANCH   8  14
BRANCH   1  28
HETATM   28  C5  UNL     1      34.367  53.887  62.348  1.00  0.00     0.247 C 
HETATM   29  N1  UNL     1      34.112  55.286  62.494  1.00  0.00    -0.351 N 
ATOM     30  H1  UNL     1      34.642  55.956  61.937  1.00  0.00     0.163 HD
HETATM   31  O1  UNL     1      33.693  53.075  63.055  1.00  0.00    -0.271 OA
BRANCH  29  32
HETATM   32  C2  UNL     1      33.112  55.762  63.419  1.00  0.00     0.022 C 
HETATM   33  C1  UNL     1      33.657  55.829  64.818  1.00  0.00     0.037 C 
HETATM   34  C3  UNL     1      31.875  54.890  63.343  1.00  0.00     0.037 C 
HETATM   35  C4  UNL     1      32.696  57.162  63.003  1.00  0.00     0.037 C 
ENDBRANCH  29  32
ENDBRANCH   1  28
TORSDOF 8
ENDMDL
MODEL 3
REMARK VINA RESULT: -8.443574712      3.110      3.752
REMARK  8 active torsions:
REMARK  status: ('A' for Active; 'I' for Inactive)
REMARK    1  A    between atoms: C2_2  and  N1_5 
REMARK       I    between atoms: N1_5  and  C5_7 
REMARK    2  A    between atoms: C5_7  and  C6_9 
REMARK    3  A    between atoms: C13_16  and  C14_17 
REMARK    4  A    between atoms: C14_17  and  O2_18 
REMARK    5  A    between atoms: C14_17  and  C15_20 
REMARK    6  A    between atoms: C15_20  and  C16_21 
REMARK    7  A    between atoms: C16_21  and  C17_22 
REMARK    8  A    between atoms: C20_25  and  C21_26 
ROOT
HETATM    1  C6  UNL     1      35.496  54.168  60.856  1.00  0.00     0.214 C 
HETATM    2  C7  UNL     1      36.050  54.787  59.599  1.00  0.00     0.048 C 
HETATM    3  C8  UNL     1      37.552  54.772  59.810  1.00  0.00     0.018 C 
HETATM    4  C9  UNL     1      38.279  54.430  58.577  1.00  0.00     0.008 C 
HETATM    5  C10 UNL     1      38.563  52.969  58.357  1.00  0.00     0.010 C 
HETATM    6  C11 UNL     1      39.084  52.382  59.621  1.00  0.00    -0.032 C 
HETATM    7  C12 UNL     1      40.270  53.160  60.152  1.00  0.00     0.016 C 
HETATM    8  C13 UNL     1      39.494  50.952  59.568  1.00  0.00     0.023 C 
HETATM    9  C24 UNL     1      39.251  50.466  60.959  1.00  0.00     0.008 C 
HETATM   10  C25 UNL     1      38.552  51.602  61.732  1.00  0.00     0.008 C 
HETATM   11  C26 UNL     1      37.947  52.430  60.617  1.00  0.00     0.023 C 
HETATM   12  C27 UNL     1      37.705  53.857  60.971  1.00  0.00     0.131 C 
HETATM   13  O5  UNL     1      36.530  53.922  61.716  1.00  0.00    -0.370 OA
ENDROOT
BRANCH   8  14
HETATM   14  C14 UNL     1      38.854  50.148  58.495  1.00  0.00     0.123 C 
BRANCH  14  15
HETATM   15  O2  UNL     1      38.173  49.081  59.036  1.00  0.00    -0.395 OA
ATOM     16  H2  UNL     1      38.450  48.269  58.629  1.00  0.00     0.210 HD
ENDBRANCH  14  15
BRANCH  14  17
HETATM   17  C15 UNL     1      39.730  49.847  57.325  1.00  0.00     0.032 C 
BRANCH  17  18
HETATM   18  C16 UNL     1      41.102  50.407  57.327  1.00  0.00     0.007 C 
BRANCH  18  19
HETATM   19  C17 UNL     1      42.141  49.340  57.707  1.00  0.00    -0.014 C 
HETATM   20  C18 UNL     1      41.801  47.998  57.142  1.00  0.00     0.005 C 
HETATM   21  C19 UNL     1      43.040  47.128  57.244  1.00  0.00     0.015 C 
HETATM   22  C20 UNL     1      44.097  47.615  56.274  1.00  0.00     0.087 C 
HETATM   23  C22 UNL     1      43.769  49.040  55.885  1.00  0.00     0.015 C 
HETATM   24  C23 UNL     1      43.458  49.808  57.136  1.00  0.00     0.005 C 
BRANCH  22  25
HETATM   25  C21 UNL     1      45.436  47.638  56.913  1.00  0.00     0.177 C 
HETATM   26  O3  UNL     1      45.672  47.244  58.081  1.00  0.00    -0.648 OA
HETATM   27  O4  UNL     1      46.499  48.126  56.172  1.00  0.00    -0.648 OA
ENDBRANCH  22  25
ENDBRANCH  18  19
ENDBRANCH  17  18
ENDBRANCH  14  17
ENDBRANCH   8  14
BRANCH   1  28
HETATM   28  C5  UNL     1      34.521  55.067  61.527  1.00  0.00     0.247 C 
HETATM   29  N1  UNL     1      34.083  54.817  62.865  1.00  0.00    -0.351 N 
ATOM     30  H1  UNL     1      34.445  54.008  63.370  1.00  0.00     0.163 HD
HETATM   31  O1  UNL     1      34.055  56.080  60.920  1.00  0.00    -0.271 OA
BRANCH  29  32
HETATM   32  C2  UNL     1      33.137  55.694  63.509  1.00  0.00     0.022 C 
HETATM   33  C1  UNL     1      32.922  56.945  62.704  1.00  0.00     0.037 C 
HETATM   34  C3  UNL     1      33.596  56.011  64.918  1.00  0.00     0.037 C 
HETATM   35  C4  UNL     1      31.808  54.970  63.626  1.00  0.00     0.037 C 
ENDBRANCH  29  32
ENDBRANCH   1  28
TORSDOF 8
ENDMDL
MODEL 4
REMARK VINA RESULT: -8.318534365      1.205      1.635
REMARK  8 active torsions:
REMARK  status: ('A' for Active; 'I' for Inactive)
REMARK    1  A    between atoms: C2_2  and  N1_5 
REMARK       I    between atoms: N1_5  and  C5_7 
REMARK    2  A    between atoms: C5_7  and  C6_9 
REMARK    3  A    between atoms: C13_16  and  C14_17 
REMARK    4  A    between atoms: C14_17  and  O2_18 
REMARK    5  A    between atoms: C14_17  and  C15_20 
REMARK    6  A    between atoms: C15_20  and  C16_21 
REMARK    7  A    between atoms: C16_21  and  C17_22 
REMARK    8  A    between atoms: C20_25  and  C21_26 
ROOT
HETATM    1  C6  UNL     1      36.376  55.205  58.159  1.00  0.00     0.214 C 
HETATM    2  C7  UNL     1      37.429  54.922  57.120  1.00  0.00     0.048 C 
HETATM    3  C8  UNL     1      38.701  54.731  57.924  1.00  0.00     0.018 C 
HETATM    4  C9  UNL     1      39.533  53.642  57.388  1.00  0.00     0.008 C 
HETATM    5  C10 UNL     1      39.283  52.272  57.959  1.00  0.00     0.010 C 
HETATM    6  C11 UNL     1      39.194  52.375  59.441  1.00  0.00    -0.032 C 
HETATM    7  C12 UNL     1      40.406  53.067  60.028  1.00  0.00     0.016 C 
HETATM    8  C13 UNL     1      39.023  51.097  60.184  1.00  0.00     0.023 C 
HETATM    9  C24 UNL     1      38.262  51.500  61.405  1.00  0.00     0.008 C 
HETATM   10  C25 UNL     1      37.877  52.984  61.242  1.00  0.00     0.008 C 
HETATM   11  C26 UNL     1      37.946  53.175  59.741  1.00  0.00     0.023 C 
HETATM   12  C27 UNL     1      38.187  54.582  59.310  1.00  0.00     0.131 C 
HETATM   13  O5  UNL     1      36.977  55.268  59.386  1.00  0.00    -0.370 OA
ENDROOT
BRANCH   8  14
HETATM   14  C14 UNL     1      38.425  49.983  59.404  1.00  0.00     0.123 C 
BRANCH  14  15
HETATM   15  O2  UNL     1      37.360  49.438  60.085  1.00  0.00    -0.395 OA
ATOM     16  H2  UNL     1      36.803  50.123  60.434  1.00  0.00     0.210 HD
ENDBRANCH  14  15
BRANCH  14  17
HETATM   17  C15 UNL     1      39.406  49.017  58.830  1.00  0.00     0.032 C 
BRANCH  17  18
HETATM   18  C16 UNL     1      40.844  49.366  58.905  1.00  0.00     0.007 C 
BRANCH  18  19
HETATM   19  C17 UNL     1      41.489  49.384  57.510  1.00  0.00    -0.014 C 
HETATM   20  C18 UNL     1      42.826  50.053  57.518  1.00  0.00     0.005 C 
HETATM   21  C19 UNL     1      43.529  49.693  56.222  1.00  0.00     0.015 C 
HETATM   22  C20 UNL     1      43.913  48.228  56.230  1.00  0.00     0.087 C 
HETATM   23  C22 UNL     1      43.079  47.520  57.275  1.00  0.00     0.015 C 
HETATM   24  C23 UNL     1      41.649  47.941  57.098  1.00  0.00     0.005 C 
BRANCH  22  25
HETATM   25  C21 UNL     1      43.607  47.590  54.926  1.00  0.00     0.177 C 
HETATM   26  O3  UNL     1      43.910  46.410  54.625  1.00  0.00    -0.648 OA
HETATM   27  O4  UNL     1      42.942  48.346  53.975  1.00  0.00    -0.648 OA
ENDBRANCH  22  25
ENDBRANCH  18  19
ENDBRANCH  17  18
ENDBRANCH  14  17
ENDBRANCH   8  14
BRANCH   1  28
HETATM   28  C5  UNL     1      35.683  56.493  57.902  1.00  0.00     0.247 C 
HETATM   29  N1  UNL     1      36.220  57.453  56.988  1.00  0.00    -0.351 N 
ATOM     30  H1  UNL     1      37.095  57.253  56.503  1.00  0.00     0.163 HD
HETATM   31  O1  UNL     1      34.593  56.769  58.492  1.00  0.00    -0.271 OA
BRANCH  29  32
HETATM   32  C2  UNL     1      35.540  58.702  56.743  1.00  0.00     0.022 C 
HETATM   33  C1  UNL     1      35.858  59.711  57.811  1.00  0.00     0.037 C 
HETATM   34  C3  UNL     1      34.048  58.467  56.624  1.00  0.00     0.037 C 
HETATM   35  C4  UNL     1      36.012  59.256  55.411  1.00  0.00     0.037 C 
ENDBRANCH  29  32
ENDBRANCH   1  28
TORSDOF 8
ENDMDL
MODEL 5
REMARK VINA RESULT: -8.302094659      3.417      8.882
REMARK  8 active torsions:
REMARK  status: ('A' for Active; 'I' for Inactive)
REMARK    1  A    between atoms: C2_2  and  N1_5 
REMARK       I    between atoms: N1_5  and  C5_7 
REMARK    2  A    between atoms: C5_7  and  C6_9 
REMARK    3  A    between atoms: C13_16  and  C14_17 
REMARK    4  A    between atoms: C14_17  and  O2_18 
REMARK    5  A    between atoms: C14_17  and  C15_20 
REMARK    6  A    between atoms: C15_20  and  C16_21 
REMARK    7  A    between atoms: C16_21  and  C17_22 
REMARK    8  A    between atoms: C20_25  and  C21_26 
ROOT
HETATM    1  C6  UNL     1      41.938  49.589  53.994  1.00  0.00     0.214 C 
HETATM    2  C7  UNL     1      42.931  49.099  55.014  1.00  0.00     0.048 C 
HETATM    3  C8  UNL     1      43.097  50.273  55.962  1.00  0.00     0.018 C 
HETATM    4  C9  UNL     1      43.194  49.839  57.365  1.00  0.00     0.008 C 
HETATM    5  C10 UNL     1      41.897  49.753  58.124  1.00  0.00     0.010 C 
HETATM    6  C11 UNL     1      41.100  50.981  57.860  1.00  0.00    -0.032 C 
HETATM    7  C12 UNL     1      41.894  52.238  58.150  1.00  0.00     0.016 C 
HETATM    8  C13 UNL     1      39.811  51.105  58.593  1.00  0.00     0.023 C 
HETATM    9  C24 UNL     1      38.959  51.915  57.672  1.00  0.00     0.008 C 
HETATM   10  C25 UNL     1      39.742  52.096  56.356  1.00  0.00     0.008 C 
HETATM   11  C26 UNL     1      40.719  50.939  56.396  1.00  0.00     0.023 C 
HETATM   12  C27 UNL     1      41.956  51.149  55.593  1.00  0.00     0.131 C 
HETATM   13  O5  UNL     1      41.648  50.899  54.257  1.00  0.00    -0.370 OA
ENDROOT
BRANCH   8  14
HETATM   14  C14 UNL     1      39.212  49.823  59.046  1.00  0.00     0.123 C 
BRANCH  14  15
HETATM   15  O2  UNL     1      38.218  49.426  58.181  1.00  0.00    -0.395 OA
ATOM     16  H2  UNL     1      38.353  49.807  57.321  1.00  0.00     0.210 HD
ENDBRANCH  14  15
BRANCH  14  17
HETATM   17  C15 UNL     1      38.887  49.758  60.500  1.00  0.00     0.032 C 
BRANCH  17  18
HETATM   18  C16 UNL     1      38.808  51.034  61.249  1.00  0.00     0.007 C 
BRANCH  18  19
HETATM   19  C17 UNL     1      37.373  51.584  61.268  1.00  0.00    -0.014 C 
HETATM   20  C18 UNL     1      36.799  51.607  62.648  1.00  0.00     0.005 C 
HETATM   21  C19 UNL     1      35.567  52.493  62.619  1.00  0.00     0.015 C 
HETATM   22  C20 UNL     1      35.972  53.940  62.426  1.00  0.00     0.087 C 
HETATM   23  C22 UNL     1      37.377  53.972  61.865  1.00  0.00     0.015 C 
HETATM   24  C23 UNL     1      37.451  52.993  60.730  1.00  0.00     0.005 C 
BRANCH  22  25
HETATM   25  C21 UNL     1      35.094  54.611  61.436  1.00  0.00     0.177 C 
HETATM   26  O3  UNL     1      34.429  54.012  60.557  1.00  0.00    -0.648 OA
HETATM   27  O4  UNL     1      35.002  55.991  61.484  1.00  0.00    -0.648 OA
ENDBRANCH  22  25
ENDBRANCH  18  19
ENDBRANCH  17  18
ENDBRANCH  14  17
ENDBRANCH   8  14
BRANCH   1  28
HETATM   28  C5  UNL     1      42.477  49.489  52.612  1.00  0.00     0.247 C 
HETATM   29  N1  UNL     1      41.612  49.269  51.495  1.00  0.00    -0.351 N 
ATOM     30  H1  UNL     1      40.608  49.178  51.645  1.00  0.00     0.163 HD
HETATM   31  O1  UNL     1      43.724  49.597  52.397  1.00  0.00    -0.271 OA
BRANCH  29  32
HETATM   32  C2  UNL     1      42.143  49.173  50.157  1.00  0.00     0.022 C 
HETATM   33  C1  UNL     1      42.860  47.868  49.950  1.00  0.00     0.037 C 
HETATM   34  C3  UNL     1      43.046  50.356  49.869  1.00  0.00     0.037 C 
HETATM   35  C4  UNL     1      40.990  49.243  49.172  1.00  0.00     0.037 C 
ENDBRANCH  29  32
ENDBRANCH   1  28
TORSDOF 8
ENDMDL
