MODEL 1
REMARK VINA RESULT: -9.834347865      0.000      0.000
REMARK  8 active torsions:
REMARK  status: ('A' for Active; 'I' for Inactive)
REMARK       I    between atoms: C1_2  and  N1_3 
REMARK    1  A    between atoms: C1_2  and  C11_18 
REMARK    2  A    between atoms: N1_3  and  C2_5 
REMARK    3  A    between atoms: C5_8  and  O2_9 
REMARK    4  A    between atoms: C8_13  and  O3_14 
REMARK    5  A    between atoms: C11_18  and  C12_19 
REMARK    6  A    between atoms: C11_18  and  C18_25 
REMARK    7  A    between atoms: C12_19  and  C13_20 
REMARK    8  A    between atoms: N2_28  and  C21_29 
ROOT
HETATM    1  C11 UNL     1      36.809  54.428  60.614  1.00  0.00     0.012 C 
ENDROOT
BRANCH   1   2
HETATM    2  C1  UNL     1      35.368  54.499  60.965  1.00  0.00     0.248 C 
HETATM    3  O1  UNL     1      34.532  53.987  60.197  1.00  0.00    -0.268 OA
HETATM    4  N1  UNL     1      34.883  55.123  62.144  1.00  0.00    -0.352 N 
ATOM      5  H1  UNL     1      35.564  55.543  62.776  1.00  0.00     0.163 HD
BRANCH   4   6
HETATM    6  C2  UNL     1      33.506  55.199  62.498  1.00  0.00     0.091 C 
HETATM    7  C3  UNL     1      33.086  53.791  62.940  1.00  0.00     0.028 C 
HETATM    8  C4  UNL     1      32.179  53.980  64.136  1.00  0.00     0.040 C 
HETATM    9  C5  UNL     1      31.925  55.441  64.157  1.00  0.00     0.064 C 
HETATM   10  C6  UNL     1      31.491  55.983  65.491  1.00  0.00     0.041 C 
HETATM   11  C10 UNL     1      33.295  55.985  63.743  1.00  0.00     0.045 C 
HETATM   12  C7  UNL     1      31.361  57.483  65.319  1.00  0.00     0.034 C 
HETATM   13  C8  UNL     1      32.689  58.054  64.902  1.00  0.00     0.118 C 
HETATM   14  C9  UNL     1      33.147  57.459  63.570  1.00  0.00     0.041 C 
BRANCH   9  15
HETATM   15  O2  UNL     1      30.987  55.785  63.219  1.00  0.00    -0.389 OA
ATOM     16  H2  UNL     1      30.370  56.415  63.573  1.00  0.00     0.210 HD
ENDBRANCH   9  15
BRANCH  13  17
HETATM   17  O3  UNL     1      32.567  59.432  64.836  1.00  0.00    -0.396 OA
ATOM     18  H3  UNL     1      33.278  59.818  65.335  1.00  0.00     0.210 HD
ENDBRANCH  13  17
ENDBRANCH   4   6
ENDBRANCH   1   2
BRANCH   1  19
HETATM   19  C12 UNL     1      37.329  55.602  59.891  1.00  0.00    -0.009 C 
BRANCH  19  20
HETATM   20  C13 UNL     1      36.694  56.148  58.697  1.00  0.00     0.009 C 
HETATM   21  C14 UNL     1      37.781  57.104  58.077  1.00  0.00     0.008 C 
HETATM   22  C15 UNL     1      38.771  56.118  57.474  1.00  0.00     0.001 C 
HETATM   23  C16 UNL     1      38.007  54.831  57.210  1.00  0.00     0.001 C 
HETATM   24  C17 UNL     1      36.575  55.231  57.505  1.00  0.00     0.008 C 
ENDBRANCH  19  20
ENDBRANCH   1  19
BRANCH   1  25
HETATM   25  C18 UNL     1      37.391  53.099  60.413  1.00  0.00     0.054 C 
HETATM   26  C19 UNL     1      37.201  51.993  61.339  1.00  0.00     0.041 C 
HETATM   27  C20 UNL     1      38.382  51.071  60.963  1.00  0.00     0.273 C 
HETATM   28  N2  UNL     1      39.473  52.018  60.855  1.00  0.00     0.094 N 
HETATM   29  C29 UNL     1      38.925  53.239  60.348  1.00  0.00     0.282 C 
BRANCH  28  30
HETATM   30  C21 UNL     1      40.439  51.459  59.924  1.00  0.00     0.227 C 
HETATM   31  C22 UNL     1      40.839  52.539  58.936  1.00  0.00     0.041 C 
HETATM   32  C23 UNL     1      41.084  51.891  57.608  1.00  0.00    -0.012 C 
HETATM   33  C24 UNL     1      41.899  50.637  57.822  1.00  0.00     0.005 C 
HETATM   34  C28 UNL     1      39.720  51.529  57.029  1.00  0.00     0.005 C 
HETATM   35  C25 UNL     1      40.988  49.594  58.421  1.00  0.00     0.007 C 
HETATM   36  C26 UNL     1      39.860  50.304  59.150  1.00  0.00     0.019 C 
HETATM   37  C27 UNL     1      38.910  50.855  58.118  1.00  0.00     0.007 C 
ENDBRANCH  28  30
ENDBRANCH   1  25
TORSDOF 8
ENDMDL
MODEL 2
REMARK VINA RESULT: -9.610981404      1.463      2.264
REMARK  8 active torsions:
REMARK  status: ('A' for Active; 'I' for Inactive)
REMARK       I    between atoms: C1_2  and  N1_3 
REMARK    1  A    between atoms: C1_2  and  C11_18 
REMARK    2  A    between atoms: N1_3  and  C2_5 
REMARK    3  A    between atoms: C5_8  and  O2_9 
REMARK    4  A    between atoms: C8_13  and  O3_14 
REMARK    5  A    between atoms: C11_18  and  C12_19 
REMARK    6  A    between atoms: C11_18  and  C18_25 
REMARK    7  A    between atoms: C12_19  and  C13_20 
REMARK    8  A    between atoms: N2_28  and  C21_29 
ROOT
HETATM    1  C11 UNL     1      36.541  56.157  59.508  1.00  0.00     0.012 C 
ENDROOT
BRANCH   1   2
HETATM    2  C1  UNL     1      35.177  55.923  60.046  1.00  0.00     0.248 C 
HETATM    3  O1  UNL     1      34.224  55.814  59.252  1.00  0.00    -0.268 OA
HETATM    4  N1  UNL     1      34.894  55.813  61.432  1.00  0.00    -0.352 N 
ATOM      5  H1  UNL     1      35.671  55.901  62.086  1.00  0.00     0.163 HD
BRANCH   4   6
HETATM    6  C2  UNL     1      33.593  55.587  61.966  1.00  0.00     0.091 C 
HETATM    7  C3  UNL     1      33.502  54.089  62.287  1.00  0.00     0.028 C 
HETATM    8  C4  UNL     1      32.764  53.985  63.603  1.00  0.00     0.040 C 
HETATM    9  C5  UNL     1      32.258  55.361  63.831  1.00  0.00     0.064 C 
HETATM   10  C6  UNL     1      31.936  55.682  65.264  1.00  0.00     0.041 C 
HETATM   11  C10 UNL     1      33.432  56.197  63.313  1.00  0.00     0.045 C 
HETATM   12  C7  UNL     1      31.516  57.137  65.291  1.00  0.00     0.034 C 
HETATM   13  C8  UNL     1      32.643  57.991  64.778  1.00  0.00     0.118 C 
HETATM   14  C9  UNL     1      32.998  57.624  63.337  1.00  0.00     0.041 C 
BRANCH   9  15
HETATM   15  O2  UNL     1      31.145  55.603  63.067  1.00  0.00    -0.389 OA
ATOM     16  H2  UNL     1      30.472  56.036  63.580  1.00  0.00     0.210 HD
ENDBRANCH   9  15
BRANCH  13  17
HETATM   17  O3  UNL     1      32.268  59.320  64.894  1.00  0.00    -0.396 OA
ATOM     18  H3  UNL     1      32.971  59.859  64.552  1.00  0.00     0.210 HD
ENDBRANCH  13  17
ENDBRANCH   4   6
ENDBRANCH   1   2
BRANCH   1  19
HETATM   19  C12 UNL     1      36.588  56.913  58.245  1.00  0.00    -0.009 C 
BRANCH  19  20
HETATM   20  C13 UNL     1      36.762  58.359  58.187  1.00  0.00     0.009 C 
HETATM   21  C14 UNL     1      37.375  58.624  56.760  1.00  0.00     0.008 C 
HETATM   22  C15 UNL     1      36.171  58.424  55.851  1.00  0.00     0.001 C 
HETATM   23  C16 UNL     1      34.933  58.674  56.695  1.00  0.00     0.001 C 
HETATM   24  C17 UNL     1      35.519  59.191  57.994  1.00  0.00     0.008 C 
ENDBRANCH  19  20
ENDBRANCH   1  19
BRANCH   1  25
HETATM   25  C18 UNL     1      37.576  55.174  59.840  1.00  0.00     0.054 C 
HETATM   26  C19 UNL     1      39.001  55.461  59.782  1.00  0.00     0.041 C 
HETATM   27  C20 UNL     1      39.597  54.038  59.702  1.00  0.00     0.273 C 
HETATM   28  N2  UNL     1      38.733  53.411  58.723  1.00  0.00     0.094 N 
HETATM   29  C29 UNL     1      37.425  53.964  58.896  1.00  0.00     0.282 C 
BRANCH  28  30
HETATM   30  C21 UNL     1      38.731  51.984  59.001  1.00  0.00     0.227 C 
HETATM   31  C22 UNL     1      39.861  51.678  59.965  1.00  0.00     0.041 C 
HETATM   32  C23 UNL     1      40.409  50.325  59.629  1.00  0.00    -0.012 C 
HETATM   33  C24 UNL     1      39.256  49.377  59.395  1.00  0.00     0.005 C 
HETATM   34  C28 UNL     1      41.222  50.478  58.348  1.00  0.00     0.005 C 
HETATM   35  C25 UNL     1      38.648  49.717  58.056  1.00  0.00     0.007 C 
HETATM   36  C26 UNL     1      38.947  51.174  57.750  1.00  0.00     0.019 C 
HETATM   37  C27 UNL     1      40.399  51.282  57.361  1.00  0.00     0.007 C 
ENDBRANCH  28  30
ENDBRANCH   1  25
TORSDOF 8
ENDMDL
MODEL 3
REMARK VINA RESULT: -9.557999530      3.670      9.513
REMARK  8 active torsions:
REMARK  status: ('A' for Active; 'I' for Inactive)
REMARK       I    between atoms: C1_2  and  N1_3 
REMARK    1  A    between atoms: C1_2  and  C11_18 
REMARK    2  A    between atoms: N1_3  and  C2_5 
REMARK    3  A    between atoms: C5_8  and  O2_9 
REMARK    4  A    between atoms: C8_13  and  O3_14 
REMARK    5  A    between atoms: C11_18  and  C12_19 
REMARK    6  A    between atoms: C11_18  and  C18_25 
REMARK    7  A    between atoms: C12_19  and  C13_20 
REMARK    8  A    between atoms: N2_28  and  C21_29 
ROOT
HETATM    1  C11 UNL     1      37.786  53.618  59.797  1.00  0.00     0.012 C 
ENDROOT
BRANCH   1   2
HETATM    2  C1  UNL     1      39.136  53.058  59.531  1.00  0.00     0.248 C 
HETATM    3  O1  UNL     1      40.137  53.672  59.943  1.00  0.00    -0.268 OA
HETATM    4  N1  UNL     1      39.351  51.845  58.827  1.00  0.00    -0.352 N 
ATOM      5  H1  UNL     1      38.534  51.338  58.488  1.00  0.00     0.163 HD
BRANCH   4   6
HETATM    6  C2  UNL     1      40.637  51.292  58.563  1.00  0.00     0.091 C 
HETATM    7  C3  UNL     1      40.599  49.838  59.052  1.00  0.00     0.028 C 
HETATM    8  C4  UNL     1      41.352  49.029  58.019  1.00  0.00     0.040 C 
HETATM    9  C5  UNL     1      41.984  50.059  57.158  1.00  0.00     0.064 C 
HETATM   10  C6  UNL     1      42.362  49.582  55.783  1.00  0.00     0.041 C 
HETATM   11  C10 UNL     1      40.880  51.119  57.107  1.00  0.00     0.045 C 
HETATM   12  C7  UNL     1      42.912  50.789  55.051  1.00  0.00     0.034 C 
HETATM   13  C8  UNL     1      41.856  51.858  54.988  1.00  0.00     0.118 C 
HETATM   14  C9  UNL     1      41.440  52.301  56.391  1.00  0.00     0.041 C 
BRANCH   9  15
HETATM   15  O2  UNL     1      43.098  50.580  57.763  1.00  0.00    -0.389 OA
ATOM     16  H2  UNL     1      43.491  51.254  57.221  1.00  0.00     0.210 HD
ENDBRANCH   9  15
BRANCH  13  17
HETATM   17  O3  UNL     1      42.351  52.913  54.240  1.00  0.00    -0.396 OA
ATOM     18  H3  UNL     1      42.559  53.626  54.832  1.00  0.00     0.210 HD
ENDBRANCH  13  17
ENDBRANCH   4   6
ENDBRANCH   1   2
BRANCH   1  19
HETATM   19  C12 UNL     1      36.919  52.774  60.638  1.00  0.00    -0.009 C 
BRANCH  19  20
HETATM   20  C13 UNL     1      37.128  52.596  62.069  1.00  0.00     0.009 C 
HETATM   21  C14 UNL     1      36.981  54.044  62.671  1.00  0.00     0.008 C 
HETATM   22  C15 UNL     1      35.478  54.269  62.606  1.00  0.00     0.001 C 
HETATM   23  C16 UNL     1      34.825  52.897  62.597  1.00  0.00     0.001 C 
HETATM   24  C17 UNL     1      35.999  51.973  62.853  1.00  0.00     0.008 C 
ENDBRANCH  19  20
ENDBRANCH   1  19
BRANCH   1  25
HETATM   25  C18 UNL     1      37.217  54.517  58.790  1.00  0.00     0.054 C 
HETATM   26  C19 UNL     1      37.612  54.503  57.389  1.00  0.00     0.041 C 
HETATM   27  C20 UNL     1      37.146  55.901  56.926  1.00  0.00     0.273 C 
HETATM   28  N2  UNL     1      37.604  56.740  58.014  1.00  0.00     0.094 N 
HETATM   29  C29 UNL     1      37.496  55.972  59.215  1.00  0.00     0.282 C 
BRANCH  28  30
HETATM   30  C21 UNL     1      36.729  57.900  58.062  1.00  0.00     0.227 C 
HETATM   31  C22 UNL     1      35.501  57.614  57.218  1.00  0.00     0.041 C 
HETATM   32  C23 UNL     1      35.066  58.895  56.575  1.00  0.00    -0.012 C 
HETATM   33  C24 UNL     1      35.109  59.997  57.609  1.00  0.00     0.005 C 
HETATM   34  C28 UNL     1      36.060  59.195  55.458  1.00  0.00     0.005 C 
HETATM   35  C25 UNL     1      36.557  60.343  57.851  1.00  0.00     0.007 C 
HETATM   36  C26 UNL     1      37.404  59.128  57.510  1.00  0.00     0.019 C 
HETATM   37  C27 UNL     1      37.459  59.004  56.009  1.00  0.00     0.007 C 
ENDBRANCH  28  30
ENDBRANCH   1  25
TORSDOF 8
ENDMDL
MODEL 4
REMARK VINA RESULT: -9.475911794      2.744      9.284
REMARK  8 active torsions:
REMARK  status: ('A' for Active; 'I' for Inactive)
REMARK       I    between atoms: C1_2  and  N1_3 
REMARK    1  A    between atoms: C1_2  and  C11_18 
REMARK    2  A    between atoms: N1_3  and  C2_5 
REMARK    3  A    between atoms: C5_8  and  O2_9 
REMARK    4  A    between atoms: C8_13  and  O3_14 
REMARK    5  A    between atoms: C11_18  and  C12_19 
REMARK    6  A    between atoms: C11_18  and  C18_25 
REMARK    7  A    between atoms: C12_19  and  C13_20 
REMARK    8  A    between atoms: N2_28  and  C21_29 
ROOT
HETATM    1  C11 UNL     1      36.973  54.247  59.657  1.00  0.00     0.012 C 
ENDROOT
BRANCH   1   2
HETATM    2  C1  UNL     1      38.332  53.655  59.557  1.00  0.00     0.248 C 
HETATM    3  O1  UNL     1      39.312  54.322  59.937  1.00  0.00    -0.268 OA
HETATM    4  N1  UNL     1      38.579  52.354  59.048  1.00  0.00    -0.352 N 
ATOM      5  H1  UNL     1      37.780  51.803  58.735  1.00  0.00     0.163 HD
BRANCH   4   6
HETATM    6  C2  UNL     1      39.874  51.769  58.945  1.00  0.00     0.091 C 
HETATM    7  C3  UNL     1      39.805  50.417  59.667  1.00  0.00     0.028 C 
HETATM    8  C4  UNL     1      40.604  49.450  58.823  1.00  0.00     0.040 C 
HETATM    9  C5  UNL     1      41.284  50.324  57.835  1.00  0.00     0.064 C 
HETATM   10  C6  UNL     1      41.728  49.625  56.580  1.00  0.00     0.041 C 
HETATM   11  C10 UNL     1      40.189  51.356  57.552  1.00  0.00     0.045 C 
HETATM   12  C7  UNL     1      42.320  50.695  55.685  1.00  0.00     0.034 C 
HETATM   13  C8  UNL     1      41.273  51.735  55.391  1.00  0.00     0.118 C 
HETATM   14  C9  UNL     1      40.790  52.404  56.679  1.00  0.00     0.041 C 
BRANCH   9  15
HETATM   15  O2  UNL     1      42.369  50.943  58.399  1.00  0.00    -0.389 OA
ATOM     16  H2  UNL     1      42.853  51.435  57.747  1.00  0.00     0.210 HD
ENDBRANCH   9  15
BRANCH  13  17
HETATM   17  O3  UNL     1      41.810  52.652  54.504  1.00  0.00    -0.396 OA
ATOM     18  H3  UNL     1      41.669  52.331  53.621  1.00  0.00     0.210 HD
ENDBRANCH  13  17
ENDBRANCH   4   6
ENDBRANCH   1   2
BRANCH   1  19
HETATM   19  C12 UNL     1      36.699  55.334  58.703  1.00  0.00    -0.009 C 
BRANCH  19  20
HETATM   20  C13 UNL     1      36.291  55.100  57.323  1.00  0.00     0.009 C 
HETATM   21  C14 UNL     1      34.725  54.944  57.398  1.00  0.00     0.008 C 
HETATM   22  C15 UNL     1      34.269  56.380  57.613  1.00  0.00     0.001 C 
HETATM   23  C16 UNL     1      35.365  57.279  57.065  1.00  0.00     0.001 C 
HETATM   24  C17 UNL     1      36.298  56.290  56.396  1.00  0.00     0.008 C 
ENDBRANCH  19  20
ENDBRANCH   1  19
BRANCH   1  25
HETATM   25  C18 UNL     1      36.312  54.204  60.964  1.00  0.00     0.054 C 
HETATM   26  C19 UNL     1      35.534  53.067  61.432  1.00  0.00     0.041 C 
HETATM   27  C20 UNL     1      34.679  53.716  62.542  1.00  0.00     0.273 C 
HETATM   28  N2  UNL     1      34.245  54.941  61.902  1.00  0.00     0.094 N 
HETATM   29  C29 UNL     1      35.307  55.370  61.045  1.00  0.00     0.282 C 
BRANCH  28  30
HETATM   30  C21 UNL     1      34.004  55.916  62.953  1.00  0.00     0.227 C 
HETATM   31  C22 UNL     1      33.979  55.192  64.286  1.00  0.00     0.041 C 
HETATM   32  C23 UNL     1      32.981  55.874  65.171  1.00  0.00    -0.012 C 
HETATM   33  C24 UNL     1      33.171  57.369  65.056  1.00  0.00     0.005 C 
HETATM   34  C28 UNL     1      31.596  55.489  64.662  1.00  0.00     0.005 C 
HETATM   35  C25 UNL     1      32.624  57.800  63.718  1.00  0.00     0.007 C 
HETATM   36  C26 UNL     1      32.682  56.613  62.771  1.00  0.00     0.019 C 
HETATM   37  C27 UNL     1      31.584  55.655  63.156  1.00  0.00     0.007 C 
ENDBRANCH  28  30
ENDBRANCH   1  25
TORSDOF 8
ENDMDL
MODEL 5
REMARK VINA RESULT: -9.460694916      1.393      1.989
REMARK  8 active torsions:
REMARK  status: ('A' for Active; 'I' for Inactive)
REMARK       I    between atoms: C1_2  and  N1_3 
REMARK    1  A    between atoms: C1_2  and  C11_18 
REMARK    2  A    between atoms: N1_3  and  C2_5 
REMARK    3  A    between atoms: C5_8  and  O2_9 
REMARK    4  A    between atoms: C8_13  and  O3_14 
REMARK    5  A    between atoms: C11_18  and  C12_19 
REMARK    6  A    between atoms: C11_18  and  C18_25 
REMARK    7  A    between atoms: C12_19  and  C13_20 
REMARK    8  A    between atoms: N2_28  and  C21_29 
ROOT
HETATM    1  C11 UNL     1      35.441  55.636  60.540  1.00  0.00     0.012 C 
ENDROOT
BRANCH   1   2
HETATM    2  C1  UNL     1      34.187  55.944  61.272  1.00  0.00     0.248 C 
HETATM    3  O1  UNL     1      33.443  56.847  60.845  1.00  0.00    -0.268 OA
HETATM    4  N1  UNL     1      33.780  55.258  62.445  1.00  0.00    -0.352 N 
ATOM      5  H1  UNL     1      34.385  54.517  62.799  1.00  0.00     0.163 HD
BRANCH   4   6
HETATM    6  C2  UNL     1      32.580  55.538  63.160  1.00  0.00     0.091 C 
HETATM    7  C3  UNL     1      32.255  54.285  63.984  1.00  0.00     0.028 C 
HETATM    8  C4  UNL     1      31.764  54.781  65.325  1.00  0.00     0.040 C 
HETATM    9  C5  UNL     1      31.590  56.240  65.119  1.00  0.00     0.064 C 
HETATM   10  C6  UNL     1      31.605  57.058  66.380  1.00  0.00     0.041 C 
HETATM   11  C10 UNL     1      32.792  56.556  64.223  1.00  0.00     0.045 C 
HETATM   12  C7  UNL     1      31.494  58.507  65.949  1.00  0.00     0.034 C 
HETATM   13  C8  UNL     1      32.655  58.853  65.057  1.00  0.00     0.118 C 
HETATM   14  C9  UNL     1      32.660  57.980  63.801  1.00  0.00     0.041 C 
BRANCH   9  15
HETATM   15  O2  UNL     1      30.427  56.500  64.442  1.00  0.00    -0.389 OA
ATOM     16  H2  UNL     1      29.671  56.270  64.969  1.00  0.00     0.210 HD
ENDBRANCH   9  15
BRANCH  13  17
HETATM   17  O3  UNL     1      32.578  60.201  64.748  1.00  0.00    -0.396 OA
ATOM     18  H3  UNL     1      32.597  60.694  65.559  1.00  0.00     0.210 HD
ENDBRANCH  13  17
ENDBRANCH   4   6
ENDBRANCH   1   2
BRANCH   1  19
HETATM   19  C12 UNL     1      35.578  56.304  59.235  1.00  0.00    -0.009 C 
BRANCH  19  20
HETATM   20  C13 UNL     1      34.596  56.173  58.165  1.00  0.00     0.009 C 
HETATM   21  C14 UNL     1      34.804  57.460  57.281  1.00  0.00     0.008 C 
HETATM   22  C15 UNL     1      36.099  57.143  56.549  1.00  0.00     0.001 C 
HETATM   23  C16 UNL     1      36.233  55.629  56.522  1.00  0.00     0.001 C 
HETATM   24  C17 UNL     1      34.899  55.171  57.078  1.00  0.00     0.008 C 
ENDBRANCH  19  20
ENDBRANCH   1  19
BRANCH   1  25
HETATM   25  C18 UNL     1      36.068  54.335  60.792  1.00  0.00     0.054 C 
HETATM   26  C19 UNL     1      36.709  53.985  62.051  1.00  0.00     0.041 C 
HETATM   27  C20 UNL     1      37.607  52.805  61.619  1.00  0.00     0.273 C 
HETATM   28  N2  UNL     1      38.184  53.308  60.389  1.00  0.00     0.094 N 
HETATM   29  C29 UNL     1      37.192  54.122  59.758  1.00  0.00     0.282 C 
BRANCH  28  30
HETATM   30  C21 UNL     1      38.509  52.157  59.563  1.00  0.00     0.227 C 
HETATM   31  C22 UNL     1      39.584  51.347  60.264  1.00  0.00     0.041 C 
HETATM   32  C23 UNL     1      40.479  50.755  59.219  1.00  0.00    -0.012 C 
HETATM   33  C24 UNL     1      39.623  50.189  58.109  1.00  0.00     0.005 C 
HETATM   34  C28 UNL     1      41.345  51.887  58.678  1.00  0.00     0.005 C 
HETATM   35  C25 UNL     1      39.079  51.349  57.313  1.00  0.00     0.007 C 
HETATM   36  C26 UNL     1      39.035  52.572  58.215  1.00  0.00     0.019 C 
HETATM   37  C27 UNL     1      40.446  53.072  58.391  1.00  0.00     0.007 C 
ENDBRANCH  28  30
ENDBRANCH   1  25
TORSDOF 8
ENDMDL
