MODEL 1
REMARK VINA RESULT: -9.002220016      0.000      0.000
REMARK  8 active torsions:
REMARK  status: ('A' for Active; 'I' for Inactive)
REMARK    1  A    between atoms: C2_2  and  C3_3 
REMARK    2  A    between atoms: C2_2  and  C12_16 
REMARK       I    between atoms: C3_3  and  N1_5 
REMARK    3  A    between atoms: N1_5  and  C4_7 
REMARK    4  A    between atoms: C4_7  and  C5_8 
REMARK    5  A    between atoms: C5_8  and  C6_9 
REMARK    6  A    between atoms: C6_9  and  N2_10 
REMARK    7  A    between atoms: C12_16  and  O2_17 
REMARK    8  A    between atoms: C20_26  and  O3_27 
ROOT
HETATM    1  C12 UNL     1      36.015  54.980  60.224  1.00  0.00     0.077 C 
HETATM    2  C13 UNL     1      35.394  53.689  60.695  1.00  0.00     0.040 C 
HETATM    3  C14 UNL     1      36.582  53.152  61.513  1.00  0.00     0.009 C 
HETATM    4  C15 UNL     1      37.802  53.605  60.747  1.00  0.00     0.001 C 
HETATM    5  C16 UNL     1      38.620  52.457  60.259  1.00  0.00    -0.005 C 
HETATM    6  C17 UNL     1      37.868  51.208  59.988  1.00  0.00     0.006 C 
HETATM    7  C18 UNL     1      38.340  50.415  58.797  1.00  0.00     0.008 C 
HETATM    8  C19 UNL     1      39.827  50.433  58.733  1.00  0.00     0.023 C 
HETATM    9  C20 UNL     1      40.354  49.782  57.470  1.00  0.00     0.123 C 
HETATM   10  C21 UNL     1      41.629  50.564  57.145  1.00  0.00     0.033 C 
HETATM   11  C22 UNL     1      41.172  51.968  57.486  1.00  0.00     0.012 C 
HETATM   12  C23 UNL     1      40.448  51.784  58.777  1.00  0.00    -0.034 C 
HETATM   13  C24 UNL     1      41.525  51.742  59.875  1.00  0.00     0.016 C 
HETATM   14  C25 UNL     1      39.507  52.903  59.117  1.00  0.00    -0.001 C 
HETATM   15  C26 UNL     1      38.763  53.491  57.984  1.00  0.00     0.007 C 
HETATM   16  C27 UNL     1      37.337  53.923  58.321  1.00  0.00     0.013 C 
HETATM   17  C28 UNL     1      37.314  54.548  59.653  1.00  0.00    -0.008 C 
HETATM   18  C29 UNL     1      38.212  55.793  59.598  1.00  0.00     0.019 C 
ENDROOT
BRANCH   1  19
HETATM   19  C2  UNL     1      35.145  55.872  59.434  1.00  0.00     0.109 C 
HETATM   20  C1  UNL     1      34.018  55.288  58.678  1.00  0.00     0.023 C 
BRANCH  19  21
HETATM   21  C3  UNL     1      34.613  57.025  60.210  1.00  0.00     0.224 C 
HETATM   22  O1  UNL     1      35.312  58.058  60.348  1.00  0.00    -0.273 OA
HETATM   23  N1  UNL     1      33.330  57.049  60.829  1.00  0.00    -0.361 N 
ATOM     24  H1  UNL     1      32.744  56.219  60.730  1.00  0.00     0.162 HD
BRANCH  23  25
HETATM   25  C4  UNL     1      32.804  58.132  61.572  1.00  0.00     0.124 C 
BRANCH  25  26
HETATM   26  C5  UNL     1      32.832  57.997  63.056  1.00  0.00     0.050 C 
BRANCH  26  27
HETATM   27  C6  UNL     1      32.559  56.594  63.534  1.00  0.00     0.274 C 
BRANCH  27  28
HETATM   28  N2  UNL     1      31.633  56.542  64.622  1.00  0.00     0.088 N 
HETATM   29  C7  UNL     1      32.054  57.556  65.592  1.00  0.00     0.272 C 
HETATM   30  C8  UNL     1      30.868  57.946  66.479  1.00  0.00     0.030 C 
HETATM   31  C9  UNL     1      29.916  56.750  66.433  1.00  0.00     0.003 C 
HETATM   32  C10 UNL     1      30.789  55.510  66.595  1.00  0.00     0.030 C 
HETATM   33  C11 UNL     1      31.621  55.283  65.326  1.00  0.00     0.272 C 
ENDBRANCH  27  28
ENDBRANCH  26  27
ENDBRANCH  25  26
ENDBRANCH  23  25
ENDBRANCH  19  21
ENDBRANCH   1  19
BRANCH   1  34
HETATM   34  O2  UNL     1      36.395  55.635  61.454  1.00  0.00    -0.388 OA
ATOM     35  H2  UNL     1      37.198  55.251  61.786  1.00  0.00     0.210 HD
ENDBRANCH   1  34
BRANCH   9  36
HETATM   36  O3  UNL     1      40.743  48.459  57.680  1.00  0.00    -0.395 OA
ATOM     37  H3  UNL     1      41.343  48.372  58.411  1.00  0.00     0.210 HD
ENDBRANCH   9  36
TORSDOF 8
ENDMDL
MODEL 2
REMARK VINA RESULT: -8.772139865      4.191      9.127
REMARK  8 active torsions:
REMARK  status: ('A' for Active; 'I' for Inactive)
REMARK    1  A    between atoms: C2_2  and  C3_3 
REMARK    2  A    between atoms: C2_2  and  C12_16 
REMARK       I    between atoms: C3_3  and  N1_5 
REMARK    3  A    between atoms: N1_5  and  C4_7 
REMARK    4  A    between atoms: C4_7  and  C5_8 
REMARK    5  A    between atoms: C5_8  and  C6_9 
REMARK    6  A    between atoms: C6_9  and  N2_10 
REMARK    7  A    between atoms: C12_16  and  O2_17 
REMARK    8  A    between atoms: C20_26  and  O3_27 
ROOT
HETATM    1  C12 UNL     1      36.960  54.821  59.104  1.00  0.00     0.077 C 
HETATM    2  C13 UNL     1      35.455  54.768  59.030  1.00  0.00     0.040 C 
HETATM    3  C14 UNL     1      35.300  54.877  57.503  1.00  0.00     0.009 C 
HETATM    4  C15 UNL     1      36.420  55.794  57.075  1.00  0.00     0.001 C 
HETATM    5  C16 UNL     1      35.913  57.044  56.438  1.00  0.00    -0.005 C 
HETATM    6  C17 UNL     1      34.577  57.497  56.896  1.00  0.00     0.006 C 
HETATM    7  C18 UNL     1      34.405  58.989  57.012  1.00  0.00     0.008 C 
HETATM    8  C19 UNL     1      35.087  59.667  55.876  1.00  0.00     0.023 C 
HETATM    9  C20 UNL     1      35.080  61.176  56.021  1.00  0.00     0.123 C 
HETATM   10  C21 UNL     1      36.394  61.624  55.378  1.00  0.00     0.033 C 
HETATM   11  C22 UNL     1      37.317  60.529  55.872  1.00  0.00     0.012 C 
HETATM   12  C23 UNL     1      36.511  59.291  55.673  1.00  0.00    -0.034 C 
HETATM   13  C24 UNL     1      36.663  58.910  54.190  1.00  0.00     0.016 C 
HETATM   14  C25 UNL     1      36.978  58.118  56.485  1.00  0.00    -0.001 C 
HETATM   15  C26 UNL     1      37.452  58.423  57.851  1.00  0.00     0.007 C 
HETATM   16  C27 UNL     1      37.115  57.354  58.889  1.00  0.00     0.013 C 
HETATM   17  C28 UNL     1      37.302  56.019  58.299  1.00  0.00    -0.008 C 
HETATM   18  C29 UNL     1      38.781  55.885  57.908  1.00  0.00     0.019 C 
ENDROOT
BRANCH   1  19
HETATM   19  C2  UNL     1      37.553  54.666  60.447  1.00  0.00     0.109 C 
HETATM   20  C1  UNL     1      36.674  54.753  61.632  1.00  0.00     0.023 C 
BRANCH  19  21
HETATM   21  C3  UNL     1      38.382  53.439  60.594  1.00  0.00     0.224 C 
HETATM   22  O1  UNL     1      39.602  53.474  60.304  1.00  0.00    -0.273 OA
HETATM   23  N1  UNL     1      37.882  52.186  61.053  1.00  0.00    -0.361 N 
ATOM     24  H1  UNL     1      36.892  52.134  61.295  1.00  0.00     0.162 HD
BRANCH  23  25
HETATM   25  C4  UNL     1      38.650  51.007  61.199  1.00  0.00     0.124 C 
BRANCH  25  26
HETATM   26  C5  UNL     1      38.047  49.750  60.674  1.00  0.00     0.050 C 
BRANCH  26  27
HETATM   27  C6  UNL     1      38.443  49.444  59.254  1.00  0.00     0.274 C 
BRANCH  27  28
HETATM   28  N2  UNL     1      39.613  50.151  58.832  1.00  0.00     0.088 N 
HETATM   29  C7  UNL     1      39.301  50.761  57.537  1.00  0.00     0.272 C 
HETATM   30  C8  UNL     1      40.243  51.941  57.282  1.00  0.00     0.030 C 
HETATM   31  C9  UNL     1      41.483  51.662  58.132  1.00  0.00     0.003 C 
HETATM   32  C10 UNL     1      41.814  50.187  57.923  1.00  0.00     0.030 C 
HETATM   33  C11 UNL     1      40.766  49.310  58.620  1.00  0.00     0.272 C 
ENDBRANCH  27  28
ENDBRANCH  26  27
ENDBRANCH  25  26
ENDBRANCH  23  25
ENDBRANCH  19  21
ENDBRANCH   1  19
BRANCH   1  34
HETATM   34  O2  UNL     1      37.375  53.725  58.261  1.00  0.00    -0.388 OA
ATOM     35  H2  UNL     1      36.895  53.752  57.441  1.00  0.00     0.210 HD
ENDBRANCH   1  34
BRANCH   9  36
HETATM   36  O3  UNL     1      34.055  61.773  55.287  1.00  0.00    -0.395 OA
ATOM     37  H3  UNL     1      33.490  62.310  55.830  1.00  0.00     0.210 HD
ENDBRANCH   9  36
TORSDOF 8
ENDMDL
MODEL 3
REMARK VINA RESULT: -8.625052162      1.346      1.947
REMARK  8 active torsions:
REMARK  status: ('A' for Active; 'I' for Inactive)
REMARK    1  A    between atoms: C2_2  and  C3_3 
REMARK    2  A    between atoms: C2_2  and  C12_16 
REMARK       I    between atoms: C3_3  and  N1_5 
REMARK    3  A    between atoms: N1_5  and  C4_7 
REMARK    4  A    between atoms: C4_7  and  C5_8 
REMARK    5  A    between atoms: C5_8  and  C6_9 
REMARK    6  A    between atoms: C6_9  and  N2_10 
REMARK    7  A    between atoms: C12_16  and  O2_17 
REMARK    8  A    between atoms: C20_26  and  O3_27 
ROOT
HETATM    1  C12 UNL     1      36.507  55.310  60.034  1.00  0.00     0.077 C 
HETATM    2  C13 UNL     1      37.043  54.605  61.254  1.00  0.00     0.040 C 
HETATM    3  C14 UNL     1      38.491  55.123  61.197  1.00  0.00     0.009 C 
HETATM    4  C15 UNL     1      38.798  55.220  59.722  1.00  0.00     0.001 C 
HETATM    5  C16 UNL     1      39.924  54.326  59.322  1.00  0.00    -0.005 C 
HETATM    6  C17 UNL     1      40.088  53.101  60.142  1.00  0.00     0.006 C 
HETATM    7  C18 UNL     1      40.508  51.869  59.385  1.00  0.00     0.008 C 
HETATM    8  C19 UNL     1      41.516  52.228  58.350  1.00  0.00     0.023 C 
HETATM    9  C20 UNL     1      41.861  51.055  57.453  1.00  0.00     0.123 C 
HETATM   10  C21 UNL     1      42.152  51.692  56.093  1.00  0.00     0.033 C 
HETATM   11  C22 UNL     1      41.069  52.750  56.059  1.00  0.00     0.012 C 
HETATM   12  C23 UNL     1      41.119  53.329  57.432  1.00  0.00    -0.034 C 
HETATM   13  C24 UNL     1      42.274  54.345  57.431  1.00  0.00     0.016 C 
HETATM   14  C25 UNL     1      39.875  54.068  57.831  1.00  0.00    -0.001 C 
HETATM   15  C26 UNL     1      38.598  53.483  57.373  1.00  0.00     0.007 C 
HETATM   16  C27 UNL     1      37.444  53.631  58.364  1.00  0.00     0.013 C 
HETATM   17  C28 UNL     1      37.491  54.967  58.979  1.00  0.00    -0.008 C 
HETATM   18  C29 UNL     1      37.321  56.002  57.857  1.00  0.00     0.019 C 
ENDROOT
BRANCH   1  19
HETATM   19  C2  UNL     1      35.068  55.133  59.757  1.00  0.00     0.109 C 
HETATM   20  C1  UNL     1      34.383  53.929  60.272  1.00  0.00     0.023 C 
BRANCH  19  21
HETATM   21  C3  UNL     1      34.241  56.312  60.130  1.00  0.00     0.224 C 
HETATM   22  O1  UNL     1      34.021  57.211  59.283  1.00  0.00    -0.273 OA
HETATM   23  N1  UNL     1      33.659  56.507  61.417  1.00  0.00    -0.361 N 
ATOM     24  H1  UNL     1      33.824  55.788  62.122  1.00  0.00     0.162 HD
BRANCH  23  25
HETATM   25  C4  UNL     1      32.871  57.620  61.793  1.00  0.00     0.124 C 
BRANCH  25  26
HETATM   26  C5  UNL     1      32.793  57.916  63.252  1.00  0.00     0.050 C 
BRANCH  26  27
HETATM   27  C6  UNL     1      32.837  56.683  64.116  1.00  0.00     0.274 C 
BRANCH  27  28
HETATM   28  N2  UNL     1      32.031  56.792  65.292  1.00  0.00     0.088 N 
HETATM   29  C7  UNL     1      30.727  56.203  64.973  1.00  0.00     0.272 C 
HETATM   30  C8  UNL     1      30.021  55.783  66.265  1.00  0.00     0.030 C 
HETATM   31  C9  UNL     1      30.631  56.653  67.364  1.00  0.00     0.003 C 
HETATM   32  C10 UNL     1      30.694  58.067  66.794  1.00  0.00     0.030 C 
HETATM   33  C11 UNL     1      31.776  58.149  65.709  1.00  0.00     0.272 C 
ENDBRANCH  27  28
ENDBRANCH  26  27
ENDBRANCH  25  26
ENDBRANCH  23  25
ENDBRANCH  19  21
ENDBRANCH   1  19
BRANCH   1  34
HETATM   34  O2  UNL     1      36.782  56.701  60.304  1.00  0.00    -0.388 OA
ATOM     35  H2  UNL     1      37.669  56.910  60.035  1.00  0.00     0.210 HD
ENDBRANCH   1  34
BRANCH   9  36
HETATM   36  O3  UNL     1      43.035  50.415  57.851  1.00  0.00    -0.395 OA
ATOM     37  H3  UNL     1      43.444  49.939  57.138  1.00  0.00     0.210 HD
ENDBRANCH   9  36
TORSDOF 8
ENDMDL
MODEL 4
REMARK VINA RESULT: -8.594325205      3.693      6.420
REMARK  8 active torsions:
REMARK  status: ('A' for Active; 'I' for Inactive)
REMARK    1  A    between atoms: C2_2  and  C3_3 
REMARK    2  A    between atoms: C2_2  and  C12_16 
REMARK       I    between atoms: C3_3  and  N1_5 
REMARK    3  A    between atoms: N1_5  and  C4_7 
REMARK    4  A    between atoms: C4_7  and  C5_8 
REMARK    5  A    between atoms: C5_8  and  C6_9 
REMARK    6  A    between atoms: C6_9  and  N2_10 
REMARK    7  A    between atoms: C12_16  and  O2_17 
REMARK    8  A    between atoms: C20_26  and  O3_27 
ROOT
HETATM    1  C12 UNL     1      35.071  55.840  59.311  1.00  0.00     0.077 C 
HETATM    2  C13 UNL     1      35.737  56.876  60.181  1.00  0.00     0.040 C 
HETATM    3  C14 UNL     1      34.999  58.120  59.656  1.00  0.00     0.009 C 
HETATM    4  C15 UNL     1      34.793  57.843  58.187  1.00  0.00     0.001 C 
HETATM    5  C16 UNL     1      35.485  58.844  57.323  1.00  0.00    -0.005 C 
HETATM    6  C17 UNL     1      36.703  59.456  57.905  1.00  0.00     0.006 C 
HETATM    7  C18 UNL     1      37.823  59.718  56.932  1.00  0.00     0.008 C 
HETATM    8  C19 UNL     1      37.268  60.215  55.643  1.00  0.00     0.023 C 
HETATM    9  C20 UNL     1      38.334  60.349  54.574  1.00  0.00     0.123 C 
HETATM   10  C21 UNL     1      37.603  60.030  53.268  1.00  0.00     0.033 C 
HETATM   11  C22 UNL     1      36.723  58.887  53.730  1.00  0.00     0.012 C 
HETATM   12  C23 UNL     1      36.203  59.369  55.042  1.00  0.00    -0.034 C 
HETATM   13  C24 UNL     1      35.022  60.301  54.722  1.00  0.00     0.016 C 
HETATM   14  C25 UNL     1      35.682  58.278  55.933  1.00  0.00    -0.001 C 
HETATM   15  C26 UNL     1      36.437  57.009  55.912  1.00  0.00     0.007 C 
HETATM   16  C27 UNL     1      36.511  56.296  57.261  1.00  0.00     0.013 C 
HETATM   17  C28 UNL     1      35.212  56.397  57.944  1.00  0.00    -0.008 C 
HETATM   18  C29 UNL     1      34.169  55.692  57.065  1.00  0.00     0.019 C 
ENDROOT
BRANCH   1  19
HETATM   19  C2  UNL     1      35.455  54.436  59.557  1.00  0.00     0.109 C 
HETATM   20  C1  UNL     1      36.844  54.015  59.280  1.00  0.00     0.023 C 
BRANCH  19  21
HETATM   21  C3  UNL     1      35.105  53.953  60.920  1.00  0.00     0.224 C 
HETATM   22  O1  UNL     1      35.865  53.150  61.511  1.00  0.00    -0.273 OA
HETATM   23  N1  UNL     1      33.932  54.344  61.630  1.00  0.00    -0.361 N 
ATOM     24  H1  UNL     1      33.299  54.998  61.168  1.00  0.00     0.162 HD
BRANCH  23  25
HETATM   25  C4  UNL     1      33.578  53.898  62.925  1.00  0.00     0.124 C 
BRANCH  25  26
HETATM   26  C5  UNL     1      32.517  54.673  63.629  1.00  0.00     0.050 C 
BRANCH  26  27
HETATM   27  C6  UNL     1      33.013  55.967  64.218  1.00  0.00     0.274 C 
BRANCH  27  28
HETATM   28  N2  UNL     1      32.166  56.476  65.251  1.00  0.00     0.088 N 
HETATM   29  C7  UNL     1      30.787  56.152  64.872  1.00  0.00     0.272 C 
HETATM   30  C8  UNL     1      29.895  56.154  66.116  1.00  0.00     0.030 C 
HETATM   31  C9  UNL     1      30.610  57.052  67.126  1.00  0.00     0.003 C 
HETATM   32  C10 UNL     1      31.067  58.281  66.347  1.00  0.00     0.030 C 
HETATM   33  C11 UNL     1      32.220  57.908  65.407  1.00  0.00     0.272 C 
ENDBRANCH  27  28
ENDBRANCH  26  27
ENDBRANCH  25  26
ENDBRANCH  23  25
ENDBRANCH  19  21
ENDBRANCH   1  19
BRANCH   1  34
HETATM   34  O2  UNL     1      33.666  56.016  59.597  1.00  0.00    -0.388 OA
ATOM     35  H2  UNL     1      33.357  56.822  59.199  1.00  0.00     0.210 HD
ENDBRANCH   1  34
BRANCH   9  36
HETATM   36  O3  UNL     1      38.802  61.658  54.456  1.00  0.00    -0.395 OA
ATOM     37  H3  UNL     1      39.731  61.692  54.258  1.00  0.00     0.210 HD
ENDBRANCH   9  36
TORSDOF 8
ENDMDL
MODEL 5
REMARK VINA RESULT: -8.412913542      3.979      6.225
REMARK  8 active torsions:
REMARK  status: ('A' for Active; 'I' for Inactive)
REMARK    1  A    between atoms: C2_2  and  C3_3 
REMARK    2  A    between atoms: C2_2  and  C12_16 
REMARK       I    between atoms: C3_3  and  N1_5 
REMARK    3  A    between atoms: N1_5  and  C4_7 
REMARK    4  A    between atoms: C4_7  and  C5_8 
REMARK    5  A    between atoms: C5_8  and  C6_9 
REMARK    6  A    between atoms: C6_9  and  N2_10 
REMARK    7  A    between atoms: C12_16  and  O2_17 
REMARK    8  A    between atoms: C20_26  and  O3_27 
ROOT
HETATM    1  C12 UNL     1      36.050  56.998  58.282  1.00  0.00     0.077 C 
HETATM    2  C13 UNL     1      35.395  56.579  59.575  1.00  0.00     0.040 C 
HETATM    3  C14 UNL     1      36.653  56.532  60.461  1.00  0.00     0.009 C 
HETATM    4  C15 UNL     1      37.745  56.046  59.538  1.00  0.00     0.001 C 
HETATM    5  C16 UNL     1      38.325  54.747  59.987  1.00  0.00    -0.005 C 
HETATM    6  C17 UNL     1      37.406  53.866  60.746  1.00  0.00     0.006 C 
HETATM    7  C18 UNL     1      37.552  52.392  60.473  1.00  0.00     0.008 C 
HETATM    8  C19 UNL     1      38.992  52.043  60.333  1.00  0.00     0.023 C 
HETATM    9  C20 UNL     1      39.194  50.602  59.905  1.00  0.00     0.123 C 
HETATM   10  C21 UNL     1      40.459  50.637  59.045  1.00  0.00     0.033 C 
HETATM   11  C22 UNL     1      40.231  51.931  58.290  1.00  0.00     0.012 C 
HETATM   12  C23 UNL     1      39.752  52.862  59.352  1.00  0.00    -0.034 C 
HETATM   13  C24 UNL     1      41.009  53.372  60.078  1.00  0.00     0.016 C 
HETATM   14  C25 UNL     1      39.020  54.063  58.829  1.00  0.00    -0.001 C 
HETATM   15  C26 UNL     1      38.141  53.831  57.665  1.00  0.00     0.007 C 
HETATM   16  C27 UNL     1      36.861  54.665  57.663  1.00  0.00     0.013 C 
HETATM   17  C28 UNL     1      37.161  56.028  58.129  1.00  0.00    -0.008 C 
HETATM   18  C29 UNL     1      38.161  56.648  57.142  1.00  0.00     0.019 C 
ENDROOT
BRANCH   1  19
HETATM   19  C2  UNL     1      35.146  57.240  57.142  1.00  0.00     0.109 C 
HETATM   20  C1  UNL     1      33.726  56.849  57.258  1.00  0.00     0.023 C 
BRANCH  19  21
HETATM   21  C3  UNL     1      35.185  58.639  56.637  1.00  0.00     0.224 C 
HETATM   22  O1  UNL     1      35.943  58.936  55.683  1.00  0.00    -0.273 OA
HETATM   23  N1  UNL     1      34.402  59.704  57.171  1.00  0.00    -0.361 N 
ATOM     24  H1  UNL     1      33.777  59.485  57.947  1.00  0.00     0.162 HD
BRANCH  23  25
HETATM   25  C4  UNL     1      34.423  61.041  56.708  1.00  0.00     0.124 C 
BRANCH  25  26
HETATM   26  C5  UNL     1      35.396  61.957  57.367  1.00  0.00     0.050 C 
BRANCH  26  27
HETATM   27  C6  UNL     1      36.584  62.290  56.503  1.00  0.00     0.274 C 
BRANCH  27  28
HETATM   28  N2  UNL     1      37.787  62.485  57.252  1.00  0.00     0.088 N 
HETATM   29  C7  UNL     1      38.228  61.163  57.704  1.00  0.00     0.272 C 
HETATM   30  C8  UNL     1      39.727  61.198  58.017  1.00  0.00     0.030 C 
HETATM   31  C9  UNL     1      40.044  62.662  58.321  1.00  0.00     0.003 C 
HETATM   32  C10 UNL     1      38.925  63.155  59.233  1.00  0.00     0.030 C 
HETATM   33  C11 UNL     1      37.619  63.288  58.438  1.00  0.00     0.272 C 
ENDBRANCH  27  28
ENDBRANCH  26  27
ENDBRANCH  25  26
ENDBRANCH  23  25
ENDBRANCH  19  21
ENDBRANCH   1  19
BRANCH   1  34
HETATM   34  O2  UNL     1      36.727  58.225  58.634  1.00  0.00    -0.388 OA
ATOM     35  H2  UNL     1      36.654  58.374  59.570  1.00  0.00     0.210 HD
ENDBRANCH   1  34
BRANCH   9  36
HETATM   36  O3  UNL     1      39.471  49.764  60.985  1.00  0.00    -0.395 OA
ATOM     37  H3  UNL     1      40.400  49.584  61.072  1.00  0.00     0.210 HD
ENDBRANCH   9  36
TORSDOF 8
ENDMDL
