MODEL 1
REMARK VINA RESULT: -8.523941285      0.000      0.000
REMARK  8 active torsions:
REMARK  status: ('A' for Active; 'I' for Inactive)
REMARK    1  A    between atoms: C7_7  and  N1_8 
REMARK       I    between atoms: N1_8  and  C8_10 
REMARK    2  A    between atoms: C8_10  and  C9_12 
REMARK    3  A    between atoms: N2_18  and  C15_19 
REMARK    4  A    between atoms: C15_19  and  O2_20 
REMARK    5  A    between atoms: C15_19  and  C16_22 
REMARK    6  A    between atoms: C16_22  and  N3_23 
REMARK    7  A    between atoms: C16_22  and  C22_31 
REMARK       I    between atoms: N3_23  and  C17_25 
REMARK    8  A    between atoms: C17_25  and  C18_27 
ROOT
HETATM    1  C9  UNL     1      36.335  55.136  58.050  1.00  0.00     0.179 C 
HETATM    2  C10 UNL     1      35.680  55.708  56.781  1.00  0.00     0.049 C 
HETATM    3  C11 UNL     1      35.496  57.183  57.056  1.00  0.00    -0.013 C 
HETATM    4  C12 UNL     1      36.241  58.034  56.048  1.00  0.00     0.021 C 
HETATM    5  C13 UNL     1      34.002  57.484  57.018  1.00  0.00     0.021 C 
HETATM    6  C14 UNL     1      35.990  57.423  58.462  1.00  0.00     0.070 C 
HETATM    7  N2  UNL     1      36.067  56.123  58.990  1.00  0.00    -0.352 N 
ENDROOT
BRANCH   7   8
HETATM    8  C15 UNL     1      36.219  55.910  60.344  1.00  0.00     0.243 C 
BRANCH   8   9
HETATM    9  O2  UNL     1      36.007  57.116  61.053  1.00  0.00    -0.374 OA
ATOM     10  H2  UNL     1      35.832  56.930  61.968  1.00  0.00     0.212 HD
ENDBRANCH   8   9
BRANCH   8  11
HETATM   11  C16 UNL     1      35.248  54.901  60.902  1.00  0.00     0.137 C 
BRANCH  11  12
HETATM   12  N3  UNL     1      34.623  55.266  62.127  1.00  0.00    -0.351 N 
HETATM   13  C17 UNL     1      33.523  56.156  62.220  1.00  0.00     0.225 C 
HETATM   14  O3  UNL     1      33.020  56.692  61.196  1.00  0.00    -0.273 OA
ATOM     15  H3  UNL     1      34.989  54.863  62.990  1.00  0.00     0.163 HD
BRANCH  13  16
HETATM   16  C18 UNL     1      32.899  56.505  63.530  1.00  0.00     0.030 C 
HETATM   17  C19 UNL     1      31.497  55.921  63.642  1.00  0.00     0.024 C 
HETATM   18  C20 UNL     1      33.748  55.918  64.672  1.00  0.00     0.024 C 
HETATM   19  C21 UNL     1      32.813  57.976  63.781  1.00  0.00     0.024 C 
ENDBRANCH  13  16
ENDBRANCH  11  12
BRANCH  11  20
HETATM   20  C22 UNL     1      35.961  53.567  60.947  1.00  0.00     0.013 C 
HETATM   21  C23 UNL     1      35.315  52.653  61.928  1.00  0.00     0.007 C 
HETATM   22  C24 UNL     1      36.256  51.763  62.652  1.00  0.00     0.000 C 
HETATM   23  C25 UNL     1      37.408  51.256  61.834  1.00  0.00     0.000 C 
HETATM   24  C26 UNL     1      37.995  52.268  60.920  1.00  0.00     0.000 C 
HETATM   25  C27 UNL     1      37.423  53.662  61.227  1.00  0.00     0.007 C 
ENDBRANCH  11  20
ENDBRANCH   8  11
ENDBRANCH   7   8
BRANCH   1  26
HETATM   26  C8  UNL     1      37.750  54.870  57.722  1.00  0.00     0.241 C 
HETATM   27  N1  UNL     1      38.344  53.589  57.811  1.00  0.00    -0.354 N 
ATOM     28  H1  UNL     1      37.771  52.804  58.120  1.00  0.00     0.162 HD
HETATM   29  O1  UNL     1      38.494  55.806  57.342  1.00  0.00    -0.271 OA
BRANCH  27  30
HETATM   30  C7  UNL     1      39.764  53.345  57.473  1.00  0.00     0.088 C 
HETATM   31  C2  UNL     1      40.557  53.396  58.718  1.00  0.00     0.004 C 
HETATM   32  C1  UNL     1      41.592  54.523  58.605  1.00  0.00     0.012 C 
HETATM   33  C3  UNL     1      41.358  52.146  58.986  1.00  0.00     0.006 C 
HETATM   34  C4  UNL     1      40.444  50.963  58.684  1.00  0.00     0.001 C 
HETATM   35  C5  UNL     1      40.397  50.893  57.175  1.00  0.00     0.002 C 
HETATM   36  C6  UNL     1      39.787  52.130  56.640  1.00  0.00     0.025 C 
ENDBRANCH  27  30
ENDBRANCH   1  26
TORSDOF 8
ENDMDL
MODEL 2
REMARK VINA RESULT: -8.510462093      1.959      5.365
REMARK  8 active torsions:
REMARK  status: ('A' for Active; 'I' for Inactive)
REMARK    1  A    between atoms: C7_7  and  N1_8 
REMARK       I    between atoms: N1_8  and  C8_10 
REMARK    2  A    between atoms: C8_10  and  C9_12 
REMARK    3  A    between atoms: N2_18  and  C15_19 
REMARK    4  A    between atoms: C15_19  and  O2_20 
REMARK    5  A    between atoms: C15_19  and  C16_22 
REMARK    6  A    between atoms: C16_22  and  N3_23 
REMARK    7  A    between atoms: C16_22  and  C22_31 
REMARK       I    between atoms: N3_23  and  C17_25 
REMARK    8  A    between atoms: C17_25  and  C18_27 
ROOT
HETATM    1  C9  UNL     1      36.779  54.451  61.206  1.00  0.00     0.179 C 
HETATM    2  C10 UNL     1      35.936  54.706  62.467  1.00  0.00     0.049 C 
HETATM    3  C11 UNL     1      34.503  54.471  62.043  1.00  0.00    -0.013 C 
HETATM    4  C12 UNL     1      33.859  53.362  62.851  1.00  0.00     0.021 C 
HETATM    5  C13 UNL     1      33.741  55.780  62.220  1.00  0.00     0.021 C 
HETATM    6  C14 UNL     1      34.539  54.140  60.571  1.00  0.00     0.070 C 
HETATM    7  N2  UNL     1      35.832  54.542  60.194  1.00  0.00    -0.352 N 
ENDROOT
BRANCH   7   8
HETATM    8  C15 UNL     1      36.183  54.663  58.866  1.00  0.00     0.243 C 
BRANCH   8   9
HETATM    9  O2  UNL     1      35.027  54.622  58.051  1.00  0.00    -0.374 OA
ATOM     10  H2  UNL     1      34.734  53.724  57.943  1.00  0.00     0.212 HD
ENDBRANCH   8   9
BRANCH   8  11
HETATM   11  C16 UNL     1      36.890  55.956  58.552  1.00  0.00     0.137 C 
BRANCH  11  12
HETATM   12  N3  UNL     1      36.154  56.879  57.757  1.00  0.00    -0.351 N 
HETATM   13  C17 UNL     1      36.387  58.278  57.750  1.00  0.00     0.225 C 
HETATM   14  O3  UNL     1      37.281  58.802  58.467  1.00  0.00    -0.273 OA
ATOM     15  H3  UNL     1      35.416  56.512  57.156  1.00  0.00     0.163 HD
BRANCH  13  16
HETATM   16  C18 UNL     1      35.590  59.206  56.895  1.00  0.00     0.030 C 
HETATM   17  C19 UNL     1      36.222  59.360  55.518  1.00  0.00     0.024 C 
HETATM   18  C20 UNL     1      34.173  58.634  56.704  1.00  0.00     0.024 C 
HETATM   19  C21 UNL     1      35.418  60.569  57.485  1.00  0.00     0.024 C 
ENDBRANCH  13  16
ENDBRANCH  11  12
BRANCH  11  20
HETATM   20  C22 UNL     1      38.248  55.601  57.986  1.00  0.00     0.013 C 
HETATM   21  C23 UNL     1      38.168  54.377  57.142  1.00  0.00     0.007 C 
HETATM   22  C24 UNL     1      39.362  53.500  57.217  1.00  0.00     0.000 C 
HETATM   23  C25 UNL     1      40.674  54.219  57.333  1.00  0.00     0.000 C 
HETATM   24  C26 UNL     1      40.641  55.401  58.231  1.00  0.00     0.000 C 
HETATM   25  C27 UNL     1      39.318  55.441  59.014  1.00  0.00     0.007 C 
ENDBRANCH  11  20
ENDBRANCH   8  11
ENDBRANCH   7   8
BRANCH   1  26
HETATM   26  C8  UNL     1      37.455  53.152  61.396  1.00  0.00     0.241 C 
HETATM   27  N1  UNL     1      38.313  52.571  60.432  1.00  0.00    -0.354 N 
ATOM     28  H1  UNL     1      38.475  53.069  59.557  1.00  0.00     0.162 HD
HETATM   29  O1  UNL     1      37.282  52.502  62.454  1.00  0.00    -0.271 OA
BRANCH  27  30
HETATM   30  C7  UNL     1      38.984  51.270  60.646  1.00  0.00     0.088 C 
HETATM   31  C2  UNL     1      38.099  50.198  60.143  1.00  0.00     0.004 C 
HETATM   32  C1  UNL     1      37.743  49.258  61.302  1.00  0.00     0.012 C 
HETATM   33  C3  UNL     1      38.738  49.318  59.097  1.00  0.00     0.006 C 
HETATM   34  C4  UNL     1      39.480  50.240  58.136  1.00  0.00     0.001 C 
HETATM   35  C5  UNL     1      40.725  50.651  58.889  1.00  0.00     0.002 C 
HETATM   36  C6  UNL     1      40.344  51.411  60.099  1.00  0.00     0.025 C 
ENDBRANCH  27  30
ENDBRANCH   1  26
TORSDOF 8
ENDMDL
MODEL 3
REMARK VINA RESULT: -7.932507929      1.771      4.449
REMARK  8 active torsions:
REMARK  status: ('A' for Active; 'I' for Inactive)
REMARK    1  A    between atoms: C7_7  and  N1_8 
REMARK       I    between atoms: N1_8  and  C8_10 
REMARK    2  A    between atoms: C8_10  and  C9_12 
REMARK    3  A    between atoms: N2_18  and  C15_19 
REMARK    4  A    between atoms: C15_19  and  O2_20 
REMARK    5  A    between atoms: C15_19  and  C16_22 
REMARK    6  A    between atoms: C16_22  and  N3_23 
REMARK    7  A    between atoms: C16_22  and  C22_31 
REMARK       I    between atoms: N3_23  and  C17_25 
REMARK    8  A    between atoms: C17_25  and  C18_27 
ROOT
HETATM    1  C9  UNL     1      38.151  53.488  60.146  1.00  0.00     0.179 C 
HETATM    2  C10 UNL     1      38.465  52.444  61.231  1.00  0.00     0.049 C 
HETATM    3  C11 UNL     1      37.147  51.760  61.519  1.00  0.00    -0.013 C 
HETATM    4  C12 UNL     1      37.220  50.272  61.243  1.00  0.00     0.021 C 
HETATM    5  C13 UNL     1      36.794  52.022  62.980  1.00  0.00     0.021 C 
HETATM    6  C14 UNL     1      36.112  52.438  60.655  1.00  0.00     0.070 C 
HETATM    7  N2  UNL     1      36.770  53.609  60.243  1.00  0.00    -0.352 N 
ENDROOT
BRANCH   7   8
HETATM    8  C15 UNL     1      36.079  54.647  59.655  1.00  0.00     0.243 C 
BRANCH   8   9
HETATM    9  O2  UNL     1      34.771  54.230  59.315  1.00  0.00    -0.374 OA
ATOM     10  H2  UNL     1      34.382  54.842  58.702  1.00  0.00     0.212 HD
ENDBRANCH   8   9
BRANCH   8  11
HETATM   11  C16 UNL     1      35.932  55.850  60.552  1.00  0.00     0.137 C 
BRANCH  11  12
HETATM   12  N3  UNL     1      34.711  55.926  61.279  1.00  0.00    -0.351 N 
HETATM   13  C17 UNL     1      34.529  55.385  62.578  1.00  0.00     0.225 C 
HETATM   14  O3  UNL     1      35.461  54.789  63.181  1.00  0.00    -0.273 OA
ATOM     15  H3  UNL     1      33.920  56.396  60.840  1.00  0.00     0.163 HD
BRANCH  13  16
HETATM   16  C18 UNL     1      33.229  55.493  63.302  1.00  0.00     0.030 C 
HETATM   17  C19 UNL     1      32.425  54.206  63.180  1.00  0.00     0.024 C 
HETATM   18  C20 UNL     1      33.496  55.744  64.797  1.00  0.00     0.024 C 
HETATM   19  C21 UNL     1      32.372  56.624  62.831  1.00  0.00     0.024 C 
ENDBRANCH  13  16
ENDBRANCH  11  12
BRANCH  11  20
HETATM   20  C22 UNL     1      36.228  57.075  59.715  1.00  0.00     0.013 C 
HETATM   21  C23 UNL     1      34.970  57.779  59.343  1.00  0.00     0.007 C 
HETATM   22  C24 UNL     1      34.987  58.396  57.993  1.00  0.00     0.000 C 
HETATM   23  C25 UNL     1      36.302  58.989  57.582  1.00  0.00     0.000 C 
HETATM   24  C26 UNL     1      37.484  58.180  57.974  1.00  0.00     0.000 C 
HETATM   25  C27 UNL     1      37.038  56.802  58.493  1.00  0.00     0.007 C 
ENDBRANCH  11  20
ENDBRANCH   8  11
ENDBRANCH   7   8
BRANCH   1  26
HETATM   26  C8  UNL     1      38.704  52.972  58.878  1.00  0.00     0.241 C 
HETATM   27  N1  UNL     1      39.506  51.810  58.792  1.00  0.00    -0.354 N 
ATOM     28  H1  UNL     1      39.719  51.297  59.648  1.00  0.00     0.162 HD
HETATM   29  O1  UNL     1      38.473  53.572  57.801  1.00  0.00    -0.271 OA
BRANCH  27  30
HETATM   30  C7  UNL     1      40.046  51.308  57.509  1.00  0.00     0.088 C 
HETATM   31  C2  UNL     1      41.429  51.805  57.357  1.00  0.00     0.004 C 
HETATM   32  C1  UNL     1      41.514  52.672  56.094  1.00  0.00     0.012 C 
HETATM   33  C3  UNL     1      42.453  50.714  57.161  1.00  0.00     0.006 C 
HETATM   34  C4  UNL     1      42.119  49.610  58.159  1.00  0.00     0.001 C 
HETATM   35  C5  UNL     1      40.916  48.913  57.566  1.00  0.00     0.002 C 
HETATM   36  C6  UNL     1      39.783  49.859  57.488  1.00  0.00     0.025 C 
ENDBRANCH  27  30
ENDBRANCH   1  26
TORSDOF 8
ENDMDL
MODEL 4
REMARK VINA RESULT: -7.901466843      2.190      6.384
REMARK  8 active torsions:
REMARK  status: ('A' for Active; 'I' for Inactive)
REMARK    1  A    between atoms: C7_7  and  N1_8 
REMARK       I    between atoms: N1_8  and  C8_10 
REMARK    2  A    between atoms: C8_10  and  C9_12 
REMARK    3  A    between atoms: N2_18  and  C15_19 
REMARK    4  A    between atoms: C15_19  and  O2_20 
REMARK    5  A    between atoms: C15_19  and  C16_22 
REMARK    6  A    between atoms: C16_22  and  N3_23 
REMARK    7  A    between atoms: C16_22  and  C22_31 
REMARK       I    between atoms: N3_23  and  C17_25 
REMARK    8  A    between atoms: C17_25  and  C18_27 
ROOT
HETATM    1  C9  UNL     1      37.130  55.236  59.959  1.00  0.00     0.179 C 
HETATM    2  C10 UNL     1      36.421  56.045  61.058  1.00  0.00     0.049 C 
HETATM    3  C11 UNL     1      34.950  55.980  60.715  1.00  0.00    -0.013 C 
HETATM    4  C12 UNL     1      34.146  55.340  61.828  1.00  0.00     0.021 C 
HETATM    5  C13 UNL     1      34.467  57.402  60.449  1.00  0.00     0.021 C 
HETATM    6  C14 UNL     1      34.842  55.197  59.428  1.00  0.00     0.070 C 
HETATM    7  N2  UNL     1      36.167  55.188  58.959  1.00  0.00    -0.352 N 
ENDROOT
BRANCH   7   8
HETATM    8  C15 UNL     1      36.464  54.807  57.668  1.00  0.00     0.243 C 
BRANCH   8   9
HETATM    9  O2  UNL     1      35.277  54.701  56.906  1.00  0.00    -0.374 OA
ATOM     10  H2  UNL     1      35.106  55.518  56.451  1.00  0.00     0.212 HD
ENDBRANCH   8   9
BRANCH   8  11
HETATM   11  C16 UNL     1      37.357  55.785  56.948  1.00  0.00     0.137 C 
BRANCH  11  12
HETATM   12  N3  UNL     1      38.729  55.753  57.325  1.00  0.00    -0.351 N 
HETATM   13  C17 UNL     1      39.520  54.575  57.332  1.00  0.00     0.225 C 
HETATM   14  O3  UNL     1      39.042  53.458  56.998  1.00  0.00    -0.273 OA
ATOM     15  H3  UNL     1      39.169  56.628  57.606  1.00  0.00     0.163 HD
BRANCH  13  16
HETATM   16  C18 UNL     1      40.957  54.593  57.732  1.00  0.00     0.030 C 
HETATM   17  C19 UNL     1      41.649  53.292  57.349  1.00  0.00     0.024 C 
HETATM   18  C20 UNL     1      41.675  55.744  57.004  1.00  0.00     0.024 C 
HETATM   19  C21 UNL     1      41.171  54.822  59.194  1.00  0.00     0.024 C 
ENDBRANCH  13  16
ENDBRANCH  11  12
BRANCH  11  20
HETATM   20  C22 UNL     1      36.717  57.151  57.067  1.00  0.00     0.013 C 
HETATM   21  C23 UNL     1      36.312  57.666  55.730  1.00  0.00     0.007 C 
HETATM   22  C24 UNL     1      36.460  59.133  55.566  1.00  0.00     0.000 C 
HETATM   23  C25 UNL     1      36.139  59.945  56.786  1.00  0.00     0.000 C 
HETATM   24  C26 UNL     1      36.626  59.351  58.057  1.00  0.00     0.000 C 
HETATM   25  C27 UNL     1      37.560  58.164  57.768  1.00  0.00     0.007 C 
ENDBRANCH  11  20
ENDBRANCH   8  11
ENDBRANCH   7   8
BRANCH   1  26
HETATM   26  C8  UNL     1      37.550  53.957  60.566  1.00  0.00     0.241 C 
HETATM   27  N1  UNL     1      38.255  52.954  59.862  1.00  0.00    -0.354 N 
ATOM     28  H1  UNL     1      38.487  53.113  58.882  1.00  0.00     0.162 HD
HETATM   29  O1  UNL     1      37.283  53.715  61.768  1.00  0.00    -0.271 OA
BRANCH  27  30
HETATM   30  C7  UNL     1      38.670  51.681  60.493  1.00  0.00     0.088 C 
HETATM   31  C2  UNL     1      37.703  50.631  60.110  1.00  0.00     0.004 C 
HETATM   32  C1  UNL     1      37.039  50.076  61.377  1.00  0.00     0.012 C 
HETATM   33  C3  UNL     1      38.331  49.438  59.433  1.00  0.00     0.006 C 
HETATM   34  C4  UNL     1      39.340  49.982  58.428  1.00  0.00     0.001 C 
HETATM   35  C5  UNL     1      40.517  50.420  59.269  1.00  0.00     0.002 C 
HETATM   36  C6  UNL     1      40.098  51.509  60.178  1.00  0.00     0.025 C 
ENDBRANCH  27  30
ENDBRANCH   1  26
TORSDOF 8
ENDMDL
MODEL 5
REMARK VINA RESULT: -7.762712927      1.858      6.725
REMARK  8 active torsions:
REMARK  status: ('A' for Active; 'I' for Inactive)
REMARK    1  A    between atoms: C7_7  and  N1_8 
REMARK       I    between atoms: N1_8  and  C8_10 
REMARK    2  A    between atoms: C8_10  and  C9_12 
REMARK    3  A    between atoms: N2_18  and  C15_19 
REMARK    4  A    between atoms: C15_19  and  O2_20 
REMARK    5  A    between atoms: C15_19  and  C16_22 
REMARK    6  A    between atoms: C16_22  and  N3_23 
REMARK    7  A    between atoms: C16_22  and  C22_31 
REMARK       I    between atoms: N3_23  and  C17_25 
REMARK    8  A    between atoms: C17_25  and  C18_27 
ROOT
HETATM    1  C9  UNL     1      37.262  56.586  58.804  1.00  0.00     0.179 C 
HETATM    2  C10 UNL     1      36.051  56.840  57.890  1.00  0.00     0.049 C 
HETATM    3  C11 UNL     1      35.959  55.619  57.002  1.00  0.00    -0.013 C 
HETATM    4  C12 UNL     1      34.630  54.910  57.168  1.00  0.00     0.021 C 
HETATM    5  C13 UNL     1      36.152  56.074  55.560  1.00  0.00     0.021 C 
HETATM    6  C14 UNL     1      37.117  54.726  57.375  1.00  0.00     0.070 C 
HETATM    7  N2  UNL     1      37.942  55.585  58.121  1.00  0.00    -0.352 N 
ENDROOT
BRANCH   7   8
HETATM    8  C15 UNL     1      39.242  55.240  58.425  1.00  0.00     0.243 C 
BRANCH   8   9
HETATM    9  O2  UNL     1      39.388  55.070  59.822  1.00  0.00    -0.374 OA
ATOM     10  H2  UNL     1      40.285  55.244  60.081  1.00  0.00     0.212 HD
ENDBRANCH   8   9
BRANCH   8  11
HETATM   11  C16 UNL     1      39.682  53.950  57.783  1.00  0.00     0.137 C 
BRANCH  11  12
HETATM   12  N3  UNL     1      39.831  52.845  58.667  1.00  0.00    -0.351 N 
HETATM   13  C17 UNL     1      39.340  51.542  58.395  1.00  0.00     0.225 C 
HETATM   14  O3  UNL     1      38.727  51.279  57.327  1.00  0.00    -0.273 OA
ATOM     15  H3  UNL     1      40.320  52.999  59.549  1.00  0.00     0.163 HD
BRANCH  13  16
HETATM   16  C18 UNL     1      39.525  50.414  59.354  1.00  0.00     0.030 C 
HETATM   17  C19 UNL     1      40.763  49.598  59.009  1.00  0.00     0.024 C 
HETATM   18  C20 UNL     1      39.710  50.977  60.775  1.00  0.00     0.024 C 
HETATM   19  C21 UNL     1      38.356  49.483  59.419  1.00  0.00     0.024 C 
ENDBRANCH  13  16
ENDBRANCH  11  12
BRANCH  11  20
HETATM   20  C22 UNL     1      40.918  54.253  56.963  1.00  0.00     0.013 C 
HETATM   21  C23 UNL     1      41.378  53.042  56.229  1.00  0.00     0.007 C 
HETATM   22  C24 UNL     1      42.852  52.924  56.100  1.00  0.00     0.000 C 
HETATM   23  C25 UNL     1      43.577  54.221  55.891  1.00  0.00     0.000 C 
HETATM   24  C26 UNL     1      43.054  55.348  56.704  1.00  0.00     0.000 C 
HETATM   25  C27 UNL     1      42.047  54.832  57.746  1.00  0.00     0.007 C 
ENDBRANCH  11  20
ENDBRANCH   8  11
ENDBRANCH   7   8
BRANCH   1  26
HETATM   26  C8  UNL     1      36.731  56.261  60.143  1.00  0.00     0.241 C 
HETATM   27  N1  UNL     1      36.703  54.950  60.674  1.00  0.00    -0.354 N 
ATOM     28  H1  UNL     1      37.065  54.183  60.106  1.00  0.00     0.162 HD
HETATM   29  O1  UNL     1      36.271  57.170  60.874  1.00  0.00    -0.271 OA
BRANCH  27  30
HETATM   30  C7  UNL     1      36.170  54.648  62.021  1.00  0.00     0.088 C 
HETATM   31  C2  UNL     1      34.798  54.121  61.874  1.00  0.00     0.004 C 
HETATM   32  C1  UNL     1      33.824  55.050  62.611  1.00  0.00     0.012 C 
HETATM   33  C3  UNL     1      34.595  52.760  62.492  1.00  0.00     0.006 C 
HETATM   34  C4  UNL     1      35.806  51.916  62.109  1.00  0.00     0.001 C 
HETATM   35  C5  UNL     1      36.917  52.417  63.003  1.00  0.00     0.002 C 
HETATM   36  C6  UNL     1      37.196  53.837  62.699  1.00  0.00     0.025 C 
ENDBRANCH  27  30
ENDBRANCH   1  26
TORSDOF 8
ENDMDL
