MODEL 1
REMARK VINA RESULT: -6.061557279      0.000      0.000
REMARK  6 active torsions:
REMARK  status: ('A' for Active; 'I' for Inactive)
REMARK    1  A    between atoms: C2_2  and  N1_4 
REMARK    2  A    between atoms: N1_4  and  C4_5 
REMARK    3  A    between atoms: N1_4  and  C16_21 
REMARK    4  A    between atoms: C4_5  and  C5_6 
REMARK       I    between atoms: N2_10  and  C9_11 
REMARK    5  A    between atoms: C9_11  and  C10_13 
REMARK    6  A    between atoms: C11_14  and  C12_15 
ROOT
HETATM    1  C5  UNL     1       1.266  27.267   5.619  1.00  0.00     0.115 C 
HETATM    2  C6  UNL     1       0.297  26.852   4.449  1.00  0.00     0.029 C 
HETATM    3  C7  UNL     1      -0.947  27.680   4.788  1.00  0.00     0.022 C 
HETATM    4  C8  UNL     1      -0.644  28.290   6.135  1.00  0.00     0.126 C 
HETATM    5  N2  UNL     1       0.305  27.197   6.652  1.00  0.00    -0.345 N 
HETATM    6  C9  UNL     1       0.010  26.490   7.830  1.00  0.00     0.226 C 
HETATM    7  O1  UNL     1      -1.064  26.908   8.413  1.00  0.00    -0.273 OA
ENDROOT
BRANCH   1   8
HETATM    8  C4  UNL     1       2.446  26.453   5.487  1.00  0.00     0.298 C 
BRANCH   8   9
HETATM    9  N1  UNL     1       3.711  27.028   5.141  1.00  0.00     0.098 N 
BRANCH   9  10
HETATM   10  C2  UNL     1       3.570  28.089   4.146  1.00  0.00     0.215 C 
HETATM   11  C1  UNL     1       3.562  29.428   4.842  1.00  0.00     0.042 C 
HETATM   12  C3  UNL     1       4.523  27.995   3.009  1.00  0.00     0.042 C 
ENDBRANCH   9  10
BRANCH   9  13
HETATM   13  C16 UNL     1       4.602  26.011   4.693  1.00  0.00     0.215 C 
HETATM   14  C17 UNL     1       5.912  25.880   5.357  1.00  0.00     0.042 C 
HETATM   15  C18 UNL     1       3.956  24.676   4.576  1.00  0.00     0.042 C 
ENDBRANCH   9  13
ENDBRANCH   8   9
ENDBRANCH   1   8
BRANCH   6  16
HETATM   16  C10 UNL     1       0.689  25.400   8.486  1.00  0.00     0.101 A 
HETATM   17  C11 UNL     1       0.171  24.104   8.900  1.00  0.00     0.109 A 
HETATM   18  C13 UNL     1       0.454  25.151   9.929  1.00  0.00    -0.021 A 
HETATM   19  C14 UNL     1       1.697  24.887  10.822  1.00  0.00     0.016 C 
HETATM   20  C15 UNL     1      -0.625  25.801  10.725  1.00  0.00     0.016 C 
BRANCH  17  21
HETATM   21  C12 UNL     1      -1.155  23.545   8.739  1.00  0.00     0.178 C 
HETATM   22  O2  UNL     1      -2.221  23.854   9.321  1.00  0.00    -0.648 OA
HETATM   23  O3  UNL     1      -1.338  22.492   7.800  1.00  0.00    -0.648 OA
ENDBRANCH  17  21
ENDBRANCH   6  16
TORSDOF 6
ENDMDL
MODEL 2
REMARK VINA RESULT: -5.625729491      0.829      1.878
REMARK  6 active torsions:
REMARK  status: ('A' for Active; 'I' for Inactive)
REMARK    1  A    between atoms: C2_2  and  N1_4 
REMARK    2  A    between atoms: N1_4  and  C4_5 
REMARK    3  A    between atoms: N1_4  and  C16_21 
REMARK    4  A    between atoms: C4_5  and  C5_6 
REMARK       I    between atoms: N2_10  and  C9_11 
REMARK    5  A    between atoms: C9_11  and  C10_13 
REMARK    6  A    between atoms: C11_14  and  C12_15 
ROOT
HETATM    1  C5  UNL     1       1.386  27.611   5.208  1.00  0.00     0.115 C 
HETATM    2  C6  UNL     1       0.630  26.947   3.996  1.00  0.00     0.029 C 
HETATM    3  C7  UNL     1      -0.768  27.556   4.149  1.00  0.00     0.022 C 
HETATM    4  C8  UNL     1      -0.717  28.303   5.461  1.00  0.00     0.126 C 
HETATM    5  N2  UNL     1       0.349  27.438   6.153  1.00  0.00    -0.345 N 
HETATM    6  C9  UNL     1       0.061  26.773   7.357  1.00  0.00     0.226 C 
HETATM    7  O1  UNL     1      -1.124  27.028   7.802  1.00  0.00    -0.273 OA
ENDROOT
BRANCH   1   8
HETATM    8  C4  UNL     1       2.697  27.017   5.253  1.00  0.00     0.298 C 
BRANCH   8   9
HETATM    9  N1  UNL     1       3.572  27.061   4.121  1.00  0.00     0.098 N 
BRANCH   9  10
HETATM   10  C2  UNL     1       4.545  25.970   4.146  1.00  0.00     0.215 C 
HETATM   11  C1  UNL     1       3.963  24.799   4.899  1.00  0.00     0.042 C 
HETATM   12  C3  UNL     1       5.112  25.622   2.817  1.00  0.00     0.042 C 
ENDBRANCH   9  10
BRANCH   9  13
HETATM   13  C16 UNL     1       4.215  28.329   4.052  1.00  0.00     0.215 C 
HETATM   14  C17 UNL     1       3.608  29.467   4.766  1.00  0.00     0.042 C 
HETATM   15  C18 UNL     1       5.672  28.263   4.346  1.00  0.00     0.042 C 
ENDBRANCH   9  13
ENDBRANCH   8   9
ENDBRANCH   1   8
BRANCH   6  16
HETATM   16  C10 UNL     1       0.848  25.872   8.162  1.00  0.00     0.101 A 
HETATM   17  C11 UNL     1       0.463  24.615   8.786  1.00  0.00     0.109 A 
HETATM   18  C13 UNL     1       0.645  25.834   9.631  1.00  0.00    -0.021 A 
HETATM   19  C14 UNL     1       1.913  25.837  10.529  1.00  0.00     0.016 C 
HETATM   20  C15 UNL     1      -0.488  26.495  10.337  1.00  0.00     0.016 C 
BRANCH  17  21
HETATM   21  C12 UNL     1      -0.802  23.911   8.743  1.00  0.00     0.178 C 
HETATM   22  O2  UNL     1      -1.839  24.103   9.420  1.00  0.00    -0.648 OA
HETATM   23  O3  UNL     1      -0.951  22.840   7.819  1.00  0.00    -0.648 OA
ENDBRANCH  17  21
ENDBRANCH   6  16
TORSDOF 6
ENDMDL
MODEL 3
REMARK VINA RESULT: -5.602311749      2.242      4.642
REMARK  6 active torsions:
REMARK  status: ('A' for Active; 'I' for Inactive)
REMARK    1  A    between atoms: C2_2  and  N1_4 
REMARK    2  A    between atoms: N1_4  and  C4_5 
REMARK    3  A    between atoms: N1_4  and  C16_21 
REMARK    4  A    between atoms: C4_5  and  C5_6 
REMARK       I    between atoms: N2_10  and  C9_11 
REMARK    5  A    between atoms: C9_11  and  C10_13 
REMARK    6  A    between atoms: C11_14  and  C12_15 
ROOT
HETATM    1  C5  UNL     1       0.020  25.460   7.750  1.00  0.00     0.115 C 
HETATM    2  C6  UNL     1       1.165  24.853   8.645  1.00  0.00     0.029 C 
HETATM    3  C7  UNL     1       0.420  23.711   9.344  1.00  0.00     0.022 C 
HETATM    4  C8  UNL     1      -1.024  23.897   8.946  1.00  0.00     0.126 C 
HETATM    5  N2  UNL     1      -0.990  25.419   8.738  1.00  0.00    -0.345 N 
HETATM    6  C9  UNL     1      -1.827  26.264   9.487  1.00  0.00     0.226 C 
HETATM    7  O1  UNL     1      -2.621  25.618  10.273  1.00  0.00    -0.273 OA
ENDROOT
BRANCH   1   8
HETATM    8  C4  UNL     1       0.564  26.638   7.125  1.00  0.00     0.298 C 
BRANCH   8   9
HETATM    9  N1  UNL     1       0.994  26.624   5.760  1.00  0.00     0.098 N 
BRANCH   9  10
HETATM   10  C2  UNL     1       2.429  26.872   5.641  1.00  0.00     0.215 C 
HETATM   11  C1  UNL     1       3.133  25.579   5.307  1.00  0.00     0.042 C 
HETATM   12  C3  UNL     1       2.785  28.010   4.753  1.00  0.00     0.042 C 
ENDBRANCH   9  10
BRANCH   9  13
HETATM   13  C16 UNL     1       0.240  27.564   5.002  1.00  0.00     0.215 C 
HETATM   14  C17 UNL     1      -0.458  27.096   3.790  1.00  0.00     0.042 C 
HETATM   15  C18 UNL     1      -0.681  28.383   5.834  1.00  0.00     0.042 C 
ENDBRANCH   9  13
ENDBRANCH   8   9
ENDBRANCH   1   8
BRANCH   6  16
HETATM   16  C10 UNL     1      -1.945  27.701   9.526  1.00  0.00     0.101 A 
HETATM   17  C11 UNL     1      -0.988  28.695   9.990  1.00  0.00     0.109 A 
HETATM   18  C13 UNL     1      -2.190  28.381  10.821  1.00  0.00    -0.021 A 
HETATM   19  C14 UNL     1      -3.282  29.486  10.855  1.00  0.00     0.016 C 
HETATM   20  C15 UNL     1      -2.091  27.713  12.149  1.00  0.00     0.016 C 
BRANCH  17  21
HETATM   21  C12 UNL     1       0.352  28.515  10.506  1.00  0.00     0.178 C 
HETATM   22  O2  UNL     1       1.075  27.491  10.496  1.00  0.00    -0.648 OA
HETATM   23  O3  UNL     1       0.995  29.623  11.125  1.00  0.00    -0.648 OA
ENDBRANCH  17  21
ENDBRANCH   6  16
TORSDOF 6
ENDMDL
MODEL 4
REMARK VINA RESULT: -5.366307870      4.765      7.227
REMARK  6 active torsions:
REMARK  status: ('A' for Active; 'I' for Inactive)
REMARK    1  A    between atoms: C2_2  and  N1_4 
REMARK    2  A    between atoms: N1_4  and  C4_5 
REMARK    3  A    between atoms: N1_4  and  C16_21 
REMARK    4  A    between atoms: C4_5  and  C5_6 
REMARK       I    between atoms: N2_10  and  C9_11 
REMARK    5  A    between atoms: C9_11  and  C10_13 
REMARK    6  A    between atoms: C11_14  and  C12_15 
ROOT
HETATM    1  C5  UNL     1      -0.400  24.192  10.727  1.00  0.00     0.115 C 
HETATM    2  C6  UNL     1       1.056  24.518  10.222  1.00  0.00     0.029 C 
HETATM    3  C7  UNL     1       1.744  24.906  11.536  1.00  0.00     0.022 C 
HETATM    4  C8  UNL     1       0.629  24.945  12.554  1.00  0.00     0.126 C 
HETATM    5  N2  UNL     1      -0.518  25.301  11.595  1.00  0.00    -0.345 N 
HETATM    6  C9  UNL     1      -1.267  26.476  11.778  1.00  0.00     0.226 C 
HETATM    7  O1  UNL     1      -0.921  27.134  12.834  1.00  0.00    -0.273 OA
ENDROOT
BRANCH   1   8
HETATM    8  C4  UNL     1      -1.195  23.930   9.555  1.00  0.00     0.298 C 
BRANCH   8   9
HETATM    9  N1  UNL     1      -2.376  23.124   9.623  1.00  0.00     0.098 N 
BRANCH   9  10
HETATM   10  C2  UNL     1      -2.582  22.576  10.963  1.00  0.00     0.215 C 
HETATM   11  C1  UNL     1      -3.836  23.170  11.558  1.00  0.00     0.042 C 
HETATM   12  C3  UNL     1      -2.512  21.093  11.038  1.00  0.00     0.042 C 
ENDBRANCH   9  10
BRANCH   9  13
HETATM   13  C16 UNL     1      -2.318  22.091   8.645  1.00  0.00     0.215 C 
HETATM   14  C17 UNL     1      -3.542  21.768   7.888  1.00  0.00     0.042 C 
HETATM   15  C18 UNL     1      -1.167  22.232   7.712  1.00  0.00     0.042 C 
ENDBRANCH   9  13
ENDBRANCH   8   9
ENDBRANCH   1   8
BRANCH   6  16
HETATM   16  C10 UNL     1      -2.334  27.060  11.003  1.00  0.00     0.101 A 
HETATM   17  C11 UNL     1      -2.306  27.598   9.651  1.00  0.00     0.109 A 
HETATM   18  C13 UNL     1      -2.385  28.530  10.818  1.00  0.00    -0.021 A 
HETATM   19  C14 UNL     1      -3.758  29.230  11.017  1.00  0.00     0.016 C 
HETATM   20  C15 UNL     1      -1.276  29.458  11.176  1.00  0.00     0.016 C 
BRANCH  17  21
HETATM   21  C12 UNL     1      -1.211  27.666   8.707  1.00  0.00     0.178 C 
HETATM   22  O2  UNL     1       0.007  27.435   8.888  1.00  0.00    -0.648 OA
HETATM   23  O3  UNL     1      -1.496  28.041   7.364  1.00  0.00    -0.648 OA
ENDBRANCH  17  21
ENDBRANCH   6  16
TORSDOF 6
ENDMDL
MODEL 5
REMARK VINA RESULT: -5.348648511      3.499      6.140
REMARK  6 active torsions:
REMARK  status: ('A' for Active; 'I' for Inactive)
REMARK    1  A    between atoms: C2_2  and  N1_4 
REMARK    2  A    between atoms: N1_4  and  C4_5 
REMARK    3  A    between atoms: N1_4  and  C16_21 
REMARK    4  A    between atoms: C4_5  and  C5_6 
REMARK       I    between atoms: N2_10  and  C9_11 
REMARK    5  A    between atoms: C9_11  and  C10_13 
REMARK    6  A    between atoms: C11_14  and  C12_15 
ROOT
HETATM    1  C5  UNL     1      -2.551  25.624  10.603  1.00  0.00     0.115 C 
HETATM    2  C6  UNL     1      -3.677  26.017   9.574  1.00  0.00     0.029 C 
HETATM    3  C7  UNL     1      -4.814  26.418  10.520  1.00  0.00     0.022 C 
HETATM    4  C8  UNL     1      -4.314  26.049  11.896  1.00  0.00     0.126 C 
HETATM    5  N2  UNL     1      -3.386  24.897  11.480  1.00  0.00    -0.345 N 
HETATM    6  C9  UNL     1      -3.587  23.599  11.981  1.00  0.00     0.226 C 
HETATM    7  O1  UNL     1      -4.554  23.532  12.834  1.00  0.00    -0.273 OA
ENDROOT
BRANCH   1   8
HETATM    8  C4  UNL     1      -1.452  25.101   9.833  1.00  0.00     0.298 C 
BRANCH   8   9
HETATM    9  N1  UNL     1      -0.446  25.965   9.293  1.00  0.00     0.098 N 
BRANCH   9  10
HETATM   10  C2  UNL     1       0.491  25.238   8.439  1.00  0.00     0.215 C 
HETATM   11  C1  UNL     1       0.068  23.791   8.353  1.00  0.00     0.042 C 
HETATM   12  C3  UNL     1       0.749  25.880   7.124  1.00  0.00     0.042 C 
ENDBRANCH   9  10
BRANCH   9  13
HETATM   13  C16 UNL     1       0.231  26.643  10.347  1.00  0.00     0.215 C 
HETATM   14  C17 UNL     1       1.616  26.248  10.663  1.00  0.00     0.042 C 
HETATM   15  C18 UNL     1       0.136  28.124  10.247  1.00  0.00     0.042 C 
ENDBRANCH   9  13
ENDBRANCH   8   9
ENDBRANCH   1   8
BRANCH   6  16
HETATM   16  C10 UNL     1      -2.909  22.355  11.710  1.00  0.00     0.101 A 
HETATM   17  C11 UNL     1      -2.846  21.588  10.475  1.00  0.00     0.109 A 
HETATM   18  C13 UNL     1      -3.694  21.101  11.606  1.00  0.00    -0.021 A 
HETATM   19  C14 UNL     1      -3.151  19.852  12.354  1.00  0.00     0.016 C 
HETATM   20  C15 UNL     1      -5.181  21.048  11.525  1.00  0.00     0.016 C 
BRANCH  17  21
HETATM   21  C12 UNL     1      -3.418  21.879   9.177  1.00  0.00     0.178 C 
HETATM   22  O2  UNL     1      -4.146  22.838   8.828  1.00  0.00    -0.648 OA
HETATM   23  O3  UNL     1      -3.151  20.986   8.102  1.00  0.00    -0.648 OA
ENDBRANCH  17  21
ENDBRANCH   6  16
TORSDOF 6
ENDMDL
