MODEL 1
REMARK VINA RESULT: -4.843094600      0.000      0.000
REMARK  7 active torsions:
REMARK  status: ('A' for Active; 'I' for Inactive)
REMARK    1  A    between atoms: S1_2  and  N1_5 
REMARK    2  A    between atoms: N1_5  and  C2_6 
REMARK    3  A    between atoms: N1_5  and  C6_12 
REMARK    4  A    between atoms: C2_6  and  C3_7 
REMARK    5  A    between atoms: C3_7  and  C4_8 
REMARK    6  A    between atoms: C4_8  and  C5_9 
REMARK    7  A    between atoms: C5_9  and  O3_10 
ROOT
HETATM    1  C6  UNL     1      -1.176  25.591  10.286  1.00  0.00     0.009 C 
HETATM    2  C7  UNL     1      -2.578  25.919  10.784  1.00  0.00     0.054 C 
HETATM    3  C8  UNL     1      -3.712  25.444   9.989  1.00  0.00     0.006 C 
HETATM    4  C9  UNL     1      -4.198  24.117  10.601  1.00  0.00     0.000 C 
HETATM    5  C10 UNL     1      -3.247  23.114   9.944  1.00  0.00     0.001 C 
HETATM    6  C11 UNL     1      -1.842  23.288  10.422  1.00  0.00     0.016 C 
HETATM    7  C12 UNL     1      -1.024  24.307   9.630  1.00  0.00     0.006 C 
HETATM    8  C13 UNL     1      -1.093  24.050   8.193  1.00  0.00     0.001 C 
HETATM    9  C14 UNL     1      -0.807  22.552   8.074  1.00  0.00     0.006 C 
HETATM   10  C15 UNL     1       0.389  22.451   9.000  1.00  0.00     0.006 C 
HETATM   11  C16 UNL     1       0.430  23.889   9.455  1.00  0.00     0.001 C 
HETATM   12  C17 UNL     1       0.346  24.508   8.052  1.00  0.00     0.011 C 
ENDROOT
BRANCH   1  13
HETATM   13  N1  UNL     1      -0.577  26.786   9.872  1.00  0.00    -0.283 N 
BRANCH  13  14
HETATM   14  S1  UNL     1       0.767  27.325  10.820  1.00  0.00     0.228 S 
HETATM   15  C1  UNL     1       0.429  27.048  12.574  1.00  0.00     0.186 C 
HETATM   16  O1  UNL     1       1.017  28.796  10.695  1.00  0.00    -0.206 OA
HETATM   17  O2  UNL     1       2.004  26.528  10.554  1.00  0.00    -0.206 OA
ENDBRANCH  13  14
BRANCH  13  18
HETATM   18  C2  UNL     1      -1.412  27.893   9.487  1.00  0.00     0.141 C 
BRANCH  18  19
HETATM   19  C3  UNL     1      -1.566  27.952   7.988  1.00  0.00     0.023 C 
BRANCH  19  20
HETATM   20  C4  UNL     1      -0.277  28.063   7.232  1.00  0.00     0.028 C 
BRANCH  20  21
HETATM   21  C5  UNL     1      -0.346  28.135   5.760  1.00  0.00     0.164 C 
BRANCH  21  22
HETATM   22  O3  UNL     1      -1.397  28.902   5.311  1.00  0.00    -0.401 OA
ATOM     23  H3  UNL     1      -1.164  29.450   4.570  1.00  0.00     0.209 HD
ENDBRANCH  21  22
ENDBRANCH  20  21
ENDBRANCH  19  20
ENDBRANCH  18  19
ENDBRANCH  13  18
ENDBRANCH   1  13
TORSDOF 7
ENDMDL
MODEL 2
REMARK VINA RESULT: -4.675886395      2.551      5.024
REMARK  7 active torsions:
REMARK  status: ('A' for Active; 'I' for Inactive)
REMARK    1  A    between atoms: S1_2  and  N1_5 
REMARK    2  A    between atoms: N1_5  and  C2_6 
REMARK    3  A    between atoms: N1_5  and  C6_12 
REMARK    4  A    between atoms: C2_6  and  C3_7 
REMARK    5  A    between atoms: C3_7  and  C4_8 
REMARK    6  A    between atoms: C4_8  and  C5_9 
REMARK    7  A    between atoms: C5_9  and  O3_10 
ROOT
HETATM    1  C6  UNL     1       0.018  25.464  11.358  1.00  0.00     0.009 C 
HETATM    2  C7  UNL     1       1.412  24.942  11.679  1.00  0.00     0.054 C 
HETATM    3  C8  UNL     1       2.552  25.806  11.364  1.00  0.00     0.006 C 
HETATM    4  C9  UNL     1       2.939  26.568  12.645  1.00  0.00     0.000 C 
HETATM    5  C10 UNL     1       1.964  27.746  12.602  1.00  0.00     0.001 C 
HETATM    6  C11 UNL     1       0.551  27.304  12.806  1.00  0.00     0.016 C 
HETATM    7  C12 UNL     1      -0.176  26.891  11.527  1.00  0.00     0.006 C 
HETATM    8  C13 UNL     1      -0.059  27.914  10.489  1.00  0.00     0.001 C 
HETATM    9  C14 UNL     1      -0.421  29.212  11.212  1.00  0.00     0.006 C 
HETATM   10  C15 UNL     1      -1.660  28.749  11.954  1.00  0.00     0.006 C 
HETATM   11  C16 UNL     1      -1.641  27.305  11.521  1.00  0.00     0.001 C 
HETATM   12  C17 UNL     1      -1.464  27.584  10.021  1.00  0.00     0.011 C 
ENDROOT
BRANCH   1  13
HETATM   13  N1  UNL     1      -0.497  24.697  10.307  1.00  0.00    -0.283 N 
BRANCH  13  14
HETATM   14  S1  UNL     1      -1.819  23.655  10.710  1.00  0.00     0.228 S 
HETATM   15  C1  UNL     1      -3.357  24.332  10.044  1.00  0.00     0.186 C 
HETATM   16  O1  UNL     1      -2.045  23.541  12.185  1.00  0.00    -0.206 OA
HETATM   17  O2  UNL     1      -1.699  22.312  10.062  1.00  0.00    -0.206 OA
ENDBRANCH  13  14
BRANCH  13  18
HETATM   18  C2  UNL     1       0.413  24.047   9.402  1.00  0.00     0.141 C 
BRANCH  18  19
HETATM   19  C3  UNL     1       0.168  24.496   7.983  1.00  0.00     0.023 C 
BRANCH  19  20
HETATM   20  C4  UNL     1       0.879  25.756   7.595  1.00  0.00     0.028 C 
BRANCH  20  21
HETATM   21  C5  UNL     1       0.245  26.621   6.582  1.00  0.00     0.164 C 
BRANCH  21  22
HETATM   22  O3  UNL     1       0.311  27.957   6.903  1.00  0.00    -0.401 OA
ATOM     23  H3  UNL     1       0.249  28.524   6.143  1.00  0.00     0.209 HD
ENDBRANCH  21  22
ENDBRANCH  20  21
ENDBRANCH  19  20
ENDBRANCH  18  19
ENDBRANCH  13  18
ENDBRANCH   1  13
TORSDOF 7
ENDMDL
MODEL 3
REMARK VINA RESULT: -4.532222871      2.346      4.583
REMARK  7 active torsions:
REMARK  status: ('A' for Active; 'I' for Inactive)
REMARK    1  A    between atoms: S1_2  and  N1_5 
REMARK    2  A    between atoms: N1_5  and  C2_6 
REMARK    3  A    between atoms: N1_5  and  C6_12 
REMARK    4  A    between atoms: C2_6  and  C3_7 
REMARK    5  A    between atoms: C3_7  and  C4_8 
REMARK    6  A    between atoms: C4_8  and  C5_9 
REMARK    7  A    between atoms: C5_9  and  O3_10 
ROOT
HETATM    1  C6  UNL     1      -0.229  25.206  10.192  1.00  0.00     0.009 C 
HETATM    2  C7  UNL     1       1.205  25.064  10.687  1.00  0.00     0.054 C 
HETATM    3  C8  UNL     1       1.987  26.288  10.872  1.00  0.00     0.006 C 
HETATM    4  C9  UNL     1       1.898  26.688  12.357  1.00  0.00     0.000 C 
HETATM    5  C10 UNL     1       0.579  27.462  12.383  1.00  0.00     0.001 C 
HETATM    6  C11 UNL     1      -0.593  26.567  12.136  1.00  0.00     0.016 C 
HETATM    7  C12 UNL     1      -0.945  26.376  10.661  1.00  0.00     0.006 C 
HETATM    8  C13 UNL     1      -1.069  27.657   9.968  1.00  0.00     0.001 C 
HETATM    9  C14 UNL     1      -1.968  28.485  10.888  1.00  0.00     0.006 C 
HETATM   10  C15 UNL     1      -3.042  27.457  11.181  1.00  0.00     0.006 C 
HETATM   11  C16 UNL     1      -2.446  26.301  10.418  1.00  0.00     0.001 C 
HETATM   12  C17 UNL     1      -2.185  27.078   9.120  1.00  0.00     0.011 C 
ENDROOT
BRANCH   1  13
HETATM   13  N1  UNL     1      -0.288  24.690   8.893  1.00  0.00    -0.283 N 
BRANCH  13  14
HETATM   14  S1  UNL     1      -0.681  23.010   8.764  1.00  0.00     0.228 S 
HETATM   15  C1  UNL     1      -1.871  22.560  10.048  1.00  0.00     0.186 C 
HETATM   16  O1  UNL     1       0.498  22.115   8.988  1.00  0.00    -0.206 OA
HETATM   17  O2  UNL     1      -1.384  22.689   7.483  1.00  0.00    -0.206 OA
ENDBRANCH  13  14
BRANCH  13  18
HETATM   18  C2  UNL     1       0.734  25.052   7.946  1.00  0.00     0.141 C 
BRANCH  18  19
HETATM   19  C3  UNL     1       0.132  25.731   6.741  1.00  0.00     0.023 C 
BRANCH  19  20
HETATM   20  C4  UNL     1       0.533  27.163   6.566  1.00  0.00     0.028 C 
BRANCH  20  21
HETATM   21  C5  UNL     1      -0.352  28.033   5.768  1.00  0.00     0.164 C 
BRANCH  21  22
HETATM   22  O3  UNL     1      -0.814  29.118   6.476  1.00  0.00    -0.401 OA
ATOM     23  H3  UNL     1      -0.447  29.173   7.351  1.00  0.00     0.209 HD
ENDBRANCH  21  22
ENDBRANCH  20  21
ENDBRANCH  19  20
ENDBRANCH  18  19
ENDBRANCH  13  18
ENDBRANCH   1  13
TORSDOF 7
ENDMDL
MODEL 4
REMARK VINA RESULT: -4.498109810      2.056      3.596
REMARK  7 active torsions:
REMARK  status: ('A' for Active; 'I' for Inactive)
REMARK    1  A    between atoms: S1_2  and  N1_5 
REMARK    2  A    between atoms: N1_5  and  C2_6 
REMARK    3  A    between atoms: N1_5  and  C6_12 
REMARK    4  A    between atoms: C2_6  and  C3_7 
REMARK    5  A    between atoms: C3_7  and  C4_8 
REMARK    6  A    between atoms: C4_8  and  C5_9 
REMARK    7  A    between atoms: C5_9  and  O3_10 
ROOT
HETATM    1  C6  UNL     1      -0.957  26.296  10.181  1.00  0.00     0.009 C 
HETATM    2  C7  UNL     1      -1.365  25.253   9.148  1.00  0.00     0.054 C 
HETATM    3  C8  UNL     1      -0.302  24.600   8.382  1.00  0.00     0.006 C 
HETATM    4  C9  UNL     1       0.026  23.262   9.070  1.00  0.00     0.000 C 
HETATM    5  C10 UNL     1       1.007  23.711  10.154  1.00  0.00     0.001 C 
HETATM    6  C11 UNL     1       0.338  24.547  11.197  1.00  0.00     0.016 C 
HETATM    7  C12 UNL     1       0.289  26.040  10.877  1.00  0.00     0.006 C 
HETATM    8  C13 UNL     1       1.609  26.556  10.517  1.00  0.00     0.001 C 
HETATM    9  C14 UNL     1       2.525  26.019  11.618  1.00  0.00     0.006 C 
HETATM   10  C15 UNL     1       1.677  26.345  12.831  1.00  0.00     0.006 C 
HETATM   11  C16 UNL     1       0.480  26.914  12.110  1.00  0.00     0.001 C 
HETATM   12  C17 UNL     1       1.273  27.866  11.202  1.00  0.00     0.011 C 
ENDROOT
BRANCH   1  13
HETATM   13  N1  UNL     1      -1.384  27.546   9.721  1.00  0.00    -0.283 N 
BRANCH  13  14
HETATM   14  S1  UNL     1      -2.527  28.371  10.725  1.00  0.00     0.228 S 
HETATM   15  C1  UNL     1      -3.842  29.076   9.704  1.00  0.00     0.186 C 
HETATM   16  O1  UNL     1      -1.931  29.532  11.458  1.00  0.00    -0.206 OA
HETATM   17  O2  UNL     1      -3.242  27.439  11.652  1.00  0.00    -0.206 OA
ENDBRANCH  13  14
BRANCH  13  18
HETATM   18  C2  UNL     1      -1.712  27.708   8.329  1.00  0.00     0.141 C 
BRANCH  18  19
HETATM   19  C3  UNL     1      -0.597  28.407   7.593  1.00  0.00     0.023 C 
BRANCH  19  20
HETATM   20  C4  UNL     1      -0.007  27.623   6.462  1.00  0.00     0.028 C 
BRANCH  20  21
HETATM   21  C5  UNL     1      -0.244  28.109   5.089  1.00  0.00     0.164 C 
BRANCH  21  22
HETATM   22  O3  UNL     1      -1.330  28.948   4.999  1.00  0.00    -0.401 OA
ATOM     23  H3  UNL     1      -1.120  29.783   4.597  1.00  0.00     0.209 HD
ENDBRANCH  21  22
ENDBRANCH  20  21
ENDBRANCH  19  20
ENDBRANCH  18  19
ENDBRANCH  13  18
ENDBRANCH   1  13
TORSDOF 7
ENDMDL
MODEL 5
REMARK VINA RESULT: -4.471173236      1.872      4.346
REMARK  7 active torsions:
REMARK  status: ('A' for Active; 'I' for Inactive)
REMARK    1  A    between atoms: S1_2  and  N1_5 
REMARK    2  A    between atoms: N1_5  and  C2_6 
REMARK    3  A    between atoms: N1_5  and  C6_12 
REMARK    4  A    between atoms: C2_6  and  C3_7 
REMARK    5  A    between atoms: C3_7  and  C4_8 
REMARK    6  A    between atoms: C4_8  and  C5_9 
REMARK    7  A    between atoms: C5_9  and  O3_10 
ROOT
HETATM    1  C6  UNL     1      -0.901  25.192   9.915  1.00  0.00     0.009 C 
HETATM    2  C7  UNL     1      -0.204  24.561   8.718  1.00  0.00     0.054 C 
HETATM    3  C8  UNL     1       0.053  23.120   8.760  1.00  0.00     0.006 C 
HETATM    4  C9  UNL     1      -1.089  22.411   8.009  1.00  0.00     0.000 C 
HETATM    5  C10 UNL     1      -2.153  22.309   9.102  1.00  0.00     0.001 C 
HETATM    6  C11 UNL     1      -2.691  23.652   9.479  1.00  0.00     0.016 C 
HETATM    7  C12 UNL     1      -1.898  24.369  10.571  1.00  0.00     0.006 C 
HETATM    8  C13 UNL     1      -1.688  23.509  11.734  1.00  0.00     0.001 C 
HETATM    9  C14 UNL     1      -3.077  22.936  12.022  1.00  0.00     0.006 C 
HETATM   10  C15 UNL     1      -3.899  24.205  11.915  1.00  0.00     0.006 C 
HETATM   11  C16 UNL     1      -2.787  25.149  11.530  1.00  0.00     0.001 C 
HETATM   12  C17 UNL     1      -1.815  24.719  12.639  1.00  0.00     0.011 C 
ENDROOT
BRANCH   1  13
HETATM   13  N1  UNL     1       0.024  26.014  10.567  1.00  0.00    -0.283 N 
BRANCH  13  14
HETATM   14  S1  UNL     1      -0.322  27.710  10.543  1.00  0.00     0.228 S 
HETATM   15  C1  UNL     1      -1.618  28.053   9.330  1.00  0.00     0.186 C 
HETATM   16  O1  UNL     1       0.849  28.538  10.114  1.00  0.00    -0.206 OA
HETATM   17  O2  UNL     1      -0.896  28.189  11.838  1.00  0.00    -0.206 OA
ENDBRANCH  13  14
BRANCH  13  18
HETATM   18  C2  UNL     1       1.431  25.774  10.380  1.00  0.00     0.141 C 
BRANCH  18  19
HETATM   19  C3  UNL     1       2.021  25.083  11.583  1.00  0.00     0.023 C 
BRANCH  19  20
HETATM   20  C4  UNL     1       2.039  25.910  12.832  1.00  0.00     0.028 C 
BRANCH  20  21
HETATM   21  C5  UNL     1       2.857  27.138  12.834  1.00  0.00     0.164 C 
BRANCH  21  22
HETATM   22  O3  UNL     1       2.100  28.286  12.828  1.00  0.00    -0.401 OA
ATOM     23  H3  UNL     1       2.564  29.037  13.179  1.00  0.00     0.209 HD
ENDBRANCH  21  22
ENDBRANCH  20  21
ENDBRANCH  19  20
ENDBRANCH  18  19
ENDBRANCH  13  18
ENDBRANCH   1  13
TORSDOF 7
ENDMDL
