MODEL 1
REMARK VINA RESULT: -7.305122993      0.000      0.000
REMARK  6 active torsions:
REMARK  status: ('A' for Active; 'I' for Inactive)
REMARK    1  A    between atoms: C2_2  and  N1_4 
REMARK       I    between atoms: N1_4  and  C5_6 
REMARK    2  A    between atoms: C5_6  and  C6_8 
REMARK    3  A    between atoms: C6_8  and  O2_9 
REMARK    4  A    between atoms: O2_9  and  C7_10 
REMARK    5  A    between atoms: C15_18  and  C16_19 
REMARK    6  A    between atoms: C16_19  and  C17_20 
ROOT
HETATM    1  C7  UNL     1       6.003  27.717   3.483  1.00  0.00     0.135 C 
HETATM    2  C8  UNL     1       7.440  28.172   3.808  1.00  0.00     0.016 C 
HETATM    3  C9  UNL     1       8.385  27.570   2.804  1.00  0.00     0.012 C 
HETATM    4  C10 UNL     1       8.390  26.064   3.006  1.00  0.00    -0.013 C 
HETATM    5  C11 UNL     1       8.788  25.727   4.411  1.00  0.00     0.009 C 
HETATM    6  C12 UNL     1       7.774  26.302   5.366  1.00  0.00    -0.013 C 
HETATM    7  C13 UNL     1       7.830  27.813   5.203  1.00  0.00     0.012 C 
HETATM    8  C14 UNL     1       6.417  25.801   5.029  1.00  0.00     0.017 C 
HETATM    9  C15 UNL     1       5.989  26.233   3.607  1.00  0.00    -0.004 C 
HETATM   10  C18 UNL     1       7.001  25.589   2.695  1.00  0.00     0.017 C 
ENDROOT
BRANCH   1  11
HETATM   11  O2  UNL     1       5.128  28.353   4.357  1.00  0.00    -0.376 OA
BRANCH  11  12
HETATM   12  C6  UNL     1       4.050  28.864   3.660  1.00  0.00     0.271 C 
BRANCH  12  13
HETATM   13  C5  UNL     1       2.768  28.804   4.403  1.00  0.00     0.243 C 
HETATM   14  N1  UNL     1       1.604  28.183   3.939  1.00  0.00    -0.351 N 
HETATM   15  C4  UNL     1       1.520  27.518   2.656  1.00  0.00     0.153 C 
HETATM   16  O1  UNL     1       2.742  29.367   5.553  1.00  0.00    -0.271 OA
BRANCH  14  17
HETATM   17  C2  UNL     1       0.388  28.184   4.761  1.00  0.00     0.078 C 
HETATM   18  C1  UNL     1      -0.840  28.355   3.909  1.00  0.00     0.032 C 
HETATM   19  C3  UNL     1       0.252  26.918   5.552  1.00  0.00     0.032 C 
ENDBRANCH  14  17
ENDBRANCH  12  13
ENDBRANCH  11  12
ENDBRANCH   1  11
BRANCH   9  20
HETATM   20  C16 UNL     1       4.678  25.563   3.378  1.00  0.00     0.125 C 
BRANCH  20  21
HETATM   21  C17 UNL     1       3.997  25.053   4.577  1.00  0.00     0.173 C 
HETATM   22  O3  UNL     1       3.794  23.844   4.857  1.00  0.00    -0.648 OA
HETATM   23  O4  UNL     1       3.501  25.956   5.544  1.00  0.00    -0.648 OA
ENDBRANCH  20  21
ENDBRANCH   9  20
TORSDOF 6
ENDMDL
MODEL 2
REMARK VINA RESULT: -6.365916674      4.754      8.177
REMARK  6 active torsions:
REMARK  status: ('A' for Active; 'I' for Inactive)
REMARK    1  A    between atoms: C2_2  and  N1_4 
REMARK       I    between atoms: N1_4  and  C5_6 
REMARK    2  A    between atoms: C5_6  and  C6_8 
REMARK    3  A    between atoms: C6_8  and  O2_9 
REMARK    4  A    between atoms: O2_9  and  C7_10 
REMARK    5  A    between atoms: C15_18  and  C16_19 
REMARK    6  A    between atoms: C16_19  and  C17_20 
ROOT
HETATM    1  C7  UNL     1       0.025  25.701   9.307  1.00  0.00     0.135 C 
HETATM    2  C8  UNL     1       0.375  24.479  10.178  1.00  0.00     0.016 C 
HETATM    3  C9  UNL     1      -0.781  24.178  11.091  1.00  0.00     0.012 C 
HETATM    4  C10 UNL     1      -0.921  25.333  12.068  1.00  0.00    -0.013 C 
HETATM    5  C11 UNL     1       0.353  25.529  12.834  1.00  0.00     0.009 C 
HETATM    6  C12 UNL     1       1.458  25.886  11.875  1.00  0.00    -0.013 C 
HETATM    7  C13 UNL     1       1.635  24.693  10.950  1.00  0.00     0.012 C 
HETATM    8  C14 UNL     1       1.082  27.091  11.092  1.00  0.00     0.017 C 
HETATM    9  C15 UNL     1      -0.185  26.842  10.241  1.00  0.00    -0.004 C 
HETATM   10  C18 UNL     1      -1.265  26.542  11.249  1.00  0.00     0.017 C 
ENDROOT
BRANCH   1  11
HETATM   11  O2  UNL     1       1.060  25.912   8.402  1.00  0.00    -0.376 OA
BRANCH  11  12
HETATM   12  C6  UNL     1       0.650  25.574   7.127  1.00  0.00     0.271 C 
BRANCH  12  13
HETATM   13  C5  UNL     1       0.729  26.688   6.152  1.00  0.00     0.243 C 
HETATM   14  N1  UNL     1       1.834  26.961   5.337  1.00  0.00    -0.351 N 
HETATM   15  C4  UNL     1       3.046  26.171   5.358  1.00  0.00     0.153 C 
HETATM   16  O1  UNL     1      -0.298  27.448   6.060  1.00  0.00    -0.271 OA
BRANCH  14  17
HETATM   17  C2  UNL     1       1.802  28.094   4.405  1.00  0.00     0.078 C 
HETATM   18  C1  UNL     1       3.011  28.973   4.582  1.00  0.00     0.032 C 
HETATM   19  C3  UNL     1       1.744  27.637   2.978  1.00  0.00     0.032 C 
ENDBRANCH  14  17
ENDBRANCH  12  13
ENDBRANCH  11  12
ENDBRANCH   1  11
BRANCH   9  20
HETATM   20  C16 UNL     1      -0.497  28.158   9.617  1.00  0.00     0.125 C 
BRANCH  20  21
HETATM   21  C17 UNL     1      -1.923  28.444   9.396  1.00  0.00     0.173 C 
HETATM   22  O3  UNL     1      -2.614  29.290  10.018  1.00  0.00    -0.648 OA
HETATM   23  O4  UNL     1      -2.639  27.736   8.405  1.00  0.00    -0.648 OA
ENDBRANCH  20  21
ENDBRANCH   9  20
TORSDOF 6
ENDMDL
MODEL 3
REMARK VINA RESULT: -6.298667403      2.259      6.472
REMARK  6 active torsions:
REMARK  status: ('A' for Active; 'I' for Inactive)
REMARK    1  A    between atoms: C2_2  and  N1_4 
REMARK       I    between atoms: N1_4  and  C5_6 
REMARK    2  A    between atoms: C5_6  and  C6_8 
REMARK    3  A    between atoms: C6_8  and  O2_9 
REMARK    4  A    between atoms: O2_9  and  C7_10 
REMARK    5  A    between atoms: C15_18  and  C16_19 
REMARK    6  A    between atoms: C16_19  and  C17_20 
ROOT
HETATM    1  C7  UNL     1       2.524  26.744   5.332  1.00  0.00     0.135 C 
HETATM    2  C8  UNL     1       2.315  27.809   4.238  1.00  0.00     0.016 C 
HETATM    3  C9  UNL     1       1.827  29.081   4.875  1.00  0.00     0.012 C 
HETATM    4  C10 UNL     1       0.443  28.820   5.444  1.00  0.00    -0.013 C 
HETATM    5  C11 UNL     1      -0.487  28.350   4.366  1.00  0.00     0.009 C 
HETATM    6  C12 UNL     1       0.020  27.046   3.808  1.00  0.00    -0.013 C 
HETATM    7  C13 UNL     1       1.374  27.337   3.180  1.00  0.00     0.012 C 
HETATM    8  C14 UNL     1       0.166  26.049   4.899  1.00  0.00     0.017 C 
HETATM    9  C15 UNL     1       1.193  26.512   5.958  1.00  0.00    -0.004 C 
HETATM   10  C18 UNL     1       0.612  27.785   6.517  1.00  0.00     0.017 C 
ENDROOT
BRANCH   1  11
HETATM   11  O2  UNL     1       3.064  25.605   4.745  1.00  0.00    -0.376 OA
BRANCH  11  12
HETATM   12  C6  UNL     1       4.404  25.497   5.067  1.00  0.00     0.271 C 
BRANCH  12  13
HETATM   13  C5  UNL     1       5.320  25.973   4.002  1.00  0.00     0.243 C 
HETATM   14  N1  UNL     1       6.679  26.250   4.182  1.00  0.00    -0.351 N 
HETATM   15  C4  UNL     1       7.355  26.101   5.454  1.00  0.00     0.153 C 
HETATM   16  O1  UNL     1       4.814  26.137   2.837  1.00  0.00    -0.271 OA
BRANCH  14  17
HETATM   17  C2  UNL     1       7.494  26.717   3.055  1.00  0.00     0.078 C 
HETATM   18  C1  UNL     1       8.457  27.787   3.491  1.00  0.00     0.032 C 
HETATM   19  C3  UNL     1       8.270  25.598   2.429  1.00  0.00     0.032 C 
ENDBRANCH  14  17
ENDBRANCH  12  13
ENDBRANCH  11  12
ENDBRANCH   1  11
BRANCH   9  20
HETATM   20  C16 UNL     1       1.138  25.478   7.029  1.00  0.00     0.125 C 
BRANCH  20  21
HETATM   21  C17 UNL     1       0.506  25.891   8.292  1.00  0.00     0.173 C 
HETATM   22  O3  UNL     1      -0.723  25.850   8.554  1.00  0.00    -0.648 OA
HETATM   23  O4  UNL     1       1.301  26.388   9.348  1.00  0.00    -0.648 OA
ENDBRANCH  20  21
ENDBRANCH   9  20
TORSDOF 6
ENDMDL
MODEL 4
REMARK VINA RESULT: -6.215513837      4.704      8.148
REMARK  6 active torsions:
REMARK  status: ('A' for Active; 'I' for Inactive)
REMARK    1  A    between atoms: C2_2  and  N1_4 
REMARK       I    between atoms: N1_4  and  C5_6 
REMARK    2  A    between atoms: C5_6  and  C6_8 
REMARK    3  A    between atoms: C6_8  and  O2_9 
REMARK    4  A    between atoms: O2_9  and  C7_10 
REMARK    5  A    between atoms: C15_18  and  C16_19 
REMARK    6  A    between atoms: C16_19  and  C17_20 
ROOT
HETATM    1  C7  UNL     1       0.033  25.818   9.309  1.00  0.00     0.135 C 
HETATM    2  C8  UNL     1       0.394  24.564  10.129  1.00  0.00     0.016 C 
HETATM    3  C9  UNL     1      -0.781  24.183  10.988  1.00  0.00     0.012 C 
HETATM    4  C10 UNL     1      -0.989  25.284  12.015  1.00  0.00    -0.013 C 
HETATM    5  C11 UNL     1       0.253  25.479  12.832  1.00  0.00     0.009 C 
HETATM    6  C12 UNL     1       1.376  25.917  11.929  1.00  0.00    -0.013 C 
HETATM    7  C13 UNL     1       1.621  24.778  10.953  1.00  0.00     0.012 C 
HETATM    8  C14 UNL     1       0.987  27.147  11.194  1.00  0.00     0.017 C 
HETATM    9  C15 UNL     1      -0.244  26.903  10.290  1.00  0.00    -0.004 C 
HETATM   10  C18 UNL     1      -1.345  26.521  11.246  1.00  0.00     0.017 C 
ENDROOT
BRANCH   1  11
HETATM   11  O2  UNL     1       1.088  26.105   8.451  1.00  0.00    -0.376 OA
BRANCH  11  12
HETATM   12  C6  UNL     1       0.903  25.464   7.241  1.00  0.00     0.271 C 
BRANCH  12  13
HETATM   13  C5  UNL     1       1.600  26.110   6.102  1.00  0.00     0.243 C 
HETATM   14  N1  UNL     1       1.108  27.202   5.379  1.00  0.00    -0.351 N 
HETATM   15  C4  UNL     1      -0.162  27.832   5.666  1.00  0.00     0.153 C 
HETATM   16  O1  UNL     1       2.737  25.621   5.770  1.00  0.00    -0.271 OA
BRANCH  14  17
HETATM   17  C2  UNL     1       1.885  27.762   4.268  1.00  0.00     0.078 C 
HETATM   18  C1  UNL     1       1.006  28.036   3.077  1.00  0.00     0.032 C 
HETATM   19  C3  UNL     1       2.575  29.034   4.659  1.00  0.00     0.032 C 
ENDBRANCH  14  17
ENDBRANCH  12  13
ENDBRANCH  11  12
ENDBRANCH   1  11
BRANCH   9  20
HETATM   20  C16 UNL     1      -0.577  28.239   9.722  1.00  0.00     0.125 C 
BRANCH  20  21
HETATM   21  C17 UNL     1      -1.968  28.422   9.278  1.00  0.00     0.173 C 
HETATM   22  O3  UNL     1      -2.530  27.812   8.332  1.00  0.00    -0.648 OA
HETATM   23  O4  UNL     1      -2.801  29.354   9.936  1.00  0.00    -0.648 OA
ENDBRANCH  20  21
ENDBRANCH   9  20
TORSDOF 6
ENDMDL
MODEL 5
REMARK VINA RESULT: -6.128439767      4.489      8.147
REMARK  6 active torsions:
REMARK  status: ('A' for Active; 'I' for Inactive)
REMARK    1  A    between atoms: C2_2  and  N1_4 
REMARK       I    between atoms: N1_4  and  C5_6 
REMARK    2  A    between atoms: C5_6  and  C6_8 
REMARK    3  A    between atoms: C6_8  and  O2_9 
REMARK    4  A    between atoms: O2_9  and  C7_10 
REMARK    5  A    between atoms: C15_18  and  C16_19 
REMARK    6  A    between atoms: C16_19  and  C17_20 
ROOT
HETATM    1  C7  UNL     1      -0.302  25.855   8.377  1.00  0.00     0.135 C 
HETATM    2  C8  UNL     1       0.552  24.904   9.239  1.00  0.00     0.016 C 
HETATM    3  C9  UNL     1      -0.357  23.963   9.981  1.00  0.00     0.012 C 
HETATM    4  C10 UNL     1      -1.168  24.778  10.974  1.00  0.00    -0.013 C 
HETATM    5  C11 UNL     1      -0.261  25.520  11.907  1.00  0.00     0.009 C 
HETATM    6  C12 UNL     1       0.580  26.488  11.116  1.00  0.00    -0.013 C 
HETATM    7  C13 UNL     1       1.438  25.655  10.178  1.00  0.00     0.012 C 
HETATM    8  C14 UNL     1      -0.294  27.401  10.336  1.00  0.00     0.017 C 
HETATM    9  C15 UNL     1      -1.161  26.625   9.318  1.00  0.00    -0.004 C 
HETATM   10  C18 UNL     1      -2.015  25.715  10.164  1.00  0.00     0.017 C 
ENDROOT
BRANCH   1  11
HETATM   11  O2  UNL     1       0.550  26.656   7.625  1.00  0.00    -0.376 OA
BRANCH  11  12
HETATM   12  C6  UNL     1       0.369  26.405   6.278  1.00  0.00     0.271 C 
BRANCH  12  13
HETATM   13  C5  UNL     1       1.079  27.355   5.387  1.00  0.00     0.243 C 
HETATM   14  N1  UNL     1       2.400  27.206   4.949  1.00  0.00    -0.351 N 
HETATM   15  C4  UNL     1       3.236  26.087   5.328  1.00  0.00     0.153 C 
HETATM   16  O1  UNL     1       0.420  28.382   4.997  1.00  0.00    -0.271 OA
BRANCH  14  17
HETATM   17  C2  UNL     1       3.003  28.210   4.066  1.00  0.00     0.078 C 
HETATM   18  C1  UNL     1       3.433  29.425   4.843  1.00  0.00     0.032 C 
HETATM   19  C3  UNL     1       4.189  27.663   3.332  1.00  0.00     0.032 C 
ENDBRANCH  14  17
ENDBRANCH  12  13
ENDBRANCH  11  12
ENDBRANCH   1  11
BRANCH   9  20
HETATM   20  C16 UNL     1      -2.054  27.650   8.709  1.00  0.00     0.125 C 
BRANCH  20  21
HETATM   21  C17 UNL     1      -3.328  27.890   9.404  1.00  0.00     0.173 C 
HETATM   22  O3  UNL     1      -3.507  28.665  10.378  1.00  0.00    -0.648 OA
HETATM   23  O4  UNL     1      -4.497  27.217   8.985  1.00  0.00    -0.648 OA
ENDBRANCH  20  21
ENDBRANCH   9  20
TORSDOF 6
ENDMDL
