MODEL 1
REMARK VINA RESULT: -11.101740071      0.000      0.000
REMARK  3 active torsions:
REMARK  status: ('A' for Active; 'I' for Inactive)
REMARK    1  A    between atoms: S1_2  and  C1_3 
REMARK    2  A    between atoms: S1_2  and  C14_16 
REMARK    3  A    between atoms: C1_3  and  C2_4 
ROOT
HETATM    1  C2  UNL     1      27.978  11.036  -3.102  1.00  0.00    -0.045 A 
HETATM    2  C3  UNL     1      28.662  11.504  -4.218  1.00  0.00     0.008 A 
HETATM    3  C4  UNL     1      28.734  10.681  -5.310  1.00  0.00     0.001 A 
HETATM    4  C5  UNL     1      28.178   9.438  -5.359  1.00  0.00     0.012 A 
HETATM    5  C6  UNL     1      27.500   8.985  -4.240  1.00  0.00    -0.025 A 
HETATM    6  C7  UNL     1      26.901   7.672  -4.259  1.00  0.00    -0.026 A 
HETATM    7  C8  UNL     1      26.767   6.901  -3.124  1.00  0.00     0.012 A 
HETATM    8  C9  UNL     1      26.191   5.635  -3.160  1.00  0.00     0.001 A 
HETATM    9  C10 UNL     1      25.741   5.127  -4.338  1.00  0.00     0.000 A 
HETATM   10  C11 UNL     1      25.859   5.863  -5.474  1.00  0.00     0.001 A 
HETATM   11  C12 UNL     1      26.433   7.127  -5.447  1.00  0.00     0.012 A 
HETATM   12  C13 UNL     1      27.398   9.782  -3.112  1.00  0.00     0.020 A 
ENDROOT
BRANCH   1  13
HETATM   13  C1  UNL     1      27.871  11.878  -1.893  1.00  0.00     0.154 C 
BRANCH  13  14
HETATM   14  S1  UNL     1      27.525  13.547  -2.150  1.00  0.00     0.070 S 
HETATM   15  O1  UNL     1      25.973  14.022  -2.260  1.00  0.00    -0.251 OA
BRANCH  14  16
HETATM   16  C14 UNL     1      28.702  14.700  -1.714  1.00  0.00     0.100 A 
HETATM   17  C15 UNL     1      29.506  15.293  -2.670  1.00  0.00     0.039 A 
HETATM   18  C16 UNL     1      30.460  16.233  -2.339  1.00  0.00     0.004 A 
HETATM   19  C17 UNL     1      30.647  16.619  -1.029  1.00  0.00     0.017 A 
HETATM   20  C18 UNL     1      29.829  16.010  -0.078  1.00  0.00     0.089 A 
HETATM   21  N1  UNL     1      28.918  15.108  -0.426  1.00  0.00    -0.359 N 
ATOM     22  H1  UNL     1      28.346  14.695   0.311  1.00  0.00     0.166 HD
ENDBRANCH  14  16
ENDBRANCH  13  14
ENDBRANCH   1  13
TORSDOF 3
ENDMDL
MODEL 2
REMARK VINA RESULT: -10.696801090      1.057      1.057
REMARK  3 active torsions:
REMARK  status: ('A' for Active; 'I' for Inactive)
REMARK    1  A    between atoms: S1_2  and  C1_3 
REMARK    2  A    between atoms: S1_2  and  C14_16 
REMARK    3  A    between atoms: C1_3  and  C2_4 
ROOT
HETATM    1  C2  UNL     1      27.340  11.299  -3.478  1.00  0.00    -0.045 A 
HETATM    2  C3  UNL     1      28.413  11.521  -4.333  1.00  0.00     0.008 A 
HETATM    3  C4  UNL     1      28.922  10.443  -5.007  1.00  0.00     0.001 A 
HETATM    4  C5  UNL     1      28.438   9.177  -4.883  1.00  0.00     0.012 A 
HETATM    5  C6  UNL     1      27.369   8.970  -4.029  1.00  0.00    -0.025 A 
HETATM    6  C7  UNL     1      26.833   7.638  -3.874  1.00  0.00    -0.026 A 
HETATM    7  C8  UNL     1      26.257   7.202  -2.700  1.00  0.00     0.012 A 
HETATM    8  C9  UNL     1      25.749   5.914  -2.566  1.00  0.00     0.001 A 
HETATM    9  C10 UNL     1      25.814   5.046  -3.611  1.00  0.00     0.000 A 
HETATM   10  C11 UNL     1      26.376   5.447  -4.781  1.00  0.00     0.001 A 
HETATM   11  C12 UNL     1      26.886   6.731  -4.923  1.00  0.00     0.012 A 
HETATM   12  C13 UNL     1      26.818  10.029  -3.326  1.00  0.00     0.020 A 
ENDROOT
BRANCH   1  13
HETATM   13  C1  UNL     1      26.752  12.423  -2.721  1.00  0.00     0.154 C 
BRANCH  13  14
HETATM   14  S1  UNL     1      27.613  12.934  -1.317  1.00  0.00     0.070 S 
HETATM   15  O1  UNL     1      27.904  11.856  -0.135  1.00  0.00    -0.251 OA
BRANCH  14  16
HETATM   16  C14 UNL     1      28.612  14.311  -1.430  1.00  0.00     0.100 A 
HETATM   17  C15 UNL     1      29.147  14.704  -2.642  1.00  0.00     0.039 A 
HETATM   18  C16 UNL     1      29.952  15.819  -2.757  1.00  0.00     0.004 A 
HETATM   19  C17 UNL     1      30.255  16.588  -1.654  1.00  0.00     0.017 A 
HETATM   20  C18 UNL     1      29.707  16.177  -0.439  1.00  0.00     0.089 A 
HETATM   21  N1  UNL     1      28.935  15.099  -0.359  1.00  0.00    -0.359 N 
ATOM     22  H1  UNL     1      28.560  14.844   0.555  1.00  0.00     0.166 HD
ENDBRANCH  14  16
ENDBRANCH  13  14
ENDBRANCH   1  13
TORSDOF 3
ENDMDL
MODEL 3
REMARK VINA RESULT: -10.586768841      5.056      9.675
REMARK  3 active torsions:
REMARK  status: ('A' for Active; 'I' for Inactive)
REMARK    1  A    between atoms: S1_2  and  C1_3 
REMARK    2  A    between atoms: S1_2  and  C14_16 
REMARK    3  A    between atoms: C1_3  and  C2_4 
ROOT
HETATM    1  C2  UNL     1      26.338   6.390  -3.580  1.00  0.00    -0.045 A 
HETATM    2  C3  UNL     1      26.139   6.286  -4.952  1.00  0.00     0.008 A 
HETATM    3  C4  UNL     1      26.323   7.414  -5.707  1.00  0.00     0.001 A 
HETATM    4  C5  UNL     1      26.685   8.620  -5.189  1.00  0.00     0.012 A 
HETATM    5  C6  UNL     1      26.880   8.708  -3.822  1.00  0.00    -0.025 A 
HETATM    6  C7  UNL     1      27.263   9.973  -3.242  1.00  0.00    -0.026 A 
HETATM    7  C8  UNL     1      26.901  10.343  -1.963  1.00  0.00     0.012 A 
HETATM    8  C9  UNL     1      27.275  11.568  -1.421  1.00  0.00     0.001 A 
HETATM    9  C10 UNL     1      28.019  12.438  -2.155  1.00  0.00     0.000 A 
HETATM   10  C11 UNL     1      28.390  12.102  -3.417  1.00  0.00     0.001 A 
HETATM   11  C12 UNL     1      28.021  10.882  -3.967  1.00  0.00     0.012 A 
HETATM   12  C13 UNL     1      26.708   7.595  -3.016  1.00  0.00     0.020 A 
ENDROOT
BRANCH   1  13
HETATM   13  C1  UNL     1      26.149   5.208  -2.715  1.00  0.00     0.154 C 
BRANCH  13  14
HETATM   14  S1  UNL     1      26.533   3.678  -3.412  1.00  0.00     0.070 S 
HETATM   15  O1  UNL     1      27.976   3.003  -3.086  1.00  0.00    -0.251 OA
BRANCH  14  16
HETATM   16  C14 UNL     1      25.254   2.668  -3.914  1.00  0.00     0.100 A 
HETATM   17  C15 UNL     1      23.937   3.048  -3.740  1.00  0.00     0.039 A 
HETATM   18  C16 UNL     1      22.888   2.249  -4.146  1.00  0.00     0.004 A 
HETATM   19  C17 UNL     1      23.120   1.029  -4.746  1.00  0.00     0.017 A 
HETATM   20  C18 UNL     1      24.455   0.661  -4.913  1.00  0.00     0.089 A 
HETATM   21  N1  UNL     1      25.444   1.452  -4.512  1.00  0.00    -0.359 N 
ATOM     22  H1  UNL     1      26.402   1.134  -4.660  1.00  0.00     0.166 HD
ENDBRANCH  14  16
ENDBRANCH  13  14
ENDBRANCH   1  13
TORSDOF 3
ENDMDL
MODEL 4
REMARK VINA RESULT: -10.554522910      4.070      8.567
REMARK  3 active torsions:
REMARK  status: ('A' for Active; 'I' for Inactive)
REMARK    1  A    between atoms: S1_2  and  C1_3 
REMARK    2  A    between atoms: S1_2  and  C14_16 
REMARK    3  A    between atoms: C1_3  and  C2_4 
ROOT
HETATM    1  C2  UNL     1      27.834   8.540  -3.797  1.00  0.00    -0.045 A 
HETATM    2  C3  UNL     1      28.016   8.469  -5.173  1.00  0.00     0.008 A 
HETATM    3  C4  UNL     1      28.310   9.630  -5.836  1.00  0.00     0.001 A 
HETATM    4  C5  UNL     1      28.430  10.841  -5.223  1.00  0.00     0.012 A 
HETATM    5  C6  UNL     1      28.246  10.897  -3.852  1.00  0.00    -0.025 A 
HETATM    6  C7  UNL     1      28.365  12.165  -3.173  1.00  0.00    -0.026 A 
HETATM    7  C8  UNL     1      27.648  12.467  -2.034  1.00  0.00     0.012 A 
HETATM    8  C9  UNL     1      27.772  13.696  -1.394  1.00  0.00     0.001 A 
HETATM    9  C10 UNL     1      28.617  14.638  -1.890  1.00  0.00     0.000 A 
HETATM   10  C11 UNL     1      29.335  14.371  -3.011  1.00  0.00     0.001 A 
HETATM   11  C12 UNL     1      29.219  13.147  -3.657  1.00  0.00     0.012 A 
HETATM   12  C13 UNL     1      27.949   9.748  -3.137  1.00  0.00     0.020 A 
ENDROOT
BRANCH   1  13
HETATM   13  C1  UNL     1      27.510   7.320  -3.030  1.00  0.00     0.154 C 
BRANCH  13  14
HETATM   14  S1  UNL     1      26.796   6.024  -3.916  1.00  0.00     0.070 S 
HETATM   15  O1  UNL     1      25.883   6.369  -5.217  1.00  0.00    -0.251 OA
BRANCH  14  16
HETATM   16  C14 UNL     1      27.494   4.474  -3.795  1.00  0.00     0.100 A 
HETATM   17  C15 UNL     1      28.649   4.157  -4.485  1.00  0.00     0.039 A 
HETATM   18  C16 UNL     1      29.233   2.910  -4.395  1.00  0.00     0.004 A 
HETATM   19  C17 UNL     1      28.678   1.925  -3.607  1.00  0.00     0.017 A 
HETATM   20  C18 UNL     1      27.512   2.260  -2.920  1.00  0.00     0.089 A 
HETATM   21  N1  UNL     1      26.973   3.470  -3.024  1.00  0.00    -0.359 N 
ATOM     22  H1  UNL     1      26.120   3.661  -2.499  1.00  0.00     0.166 HD
ENDBRANCH  14  16
ENDBRANCH  13  14
ENDBRANCH   1  13
TORSDOF 3
ENDMDL
MODEL 5
REMARK VINA RESULT: -10.482265872      2.411      3.967
REMARK  3 active torsions:
REMARK  status: ('A' for Active; 'I' for Inactive)
REMARK    1  A    between atoms: S1_2  and  C1_3 
REMARK    2  A    between atoms: S1_2  and  C14_16 
REMARK    3  A    between atoms: C1_3  and  C2_4 
ROOT
HETATM    1  C2  UNL     1      27.346   7.708  -4.334  1.00  0.00    -0.045 A 
HETATM    2  C3  UNL     1      26.556   7.962  -5.448  1.00  0.00     0.008 A 
HETATM    3  C4  UNL     1      25.866   6.911  -5.991  1.00  0.00     0.001 A 
HETATM    4  C5  UNL     1      25.916   5.641  -5.502  1.00  0.00     0.012 A 
HETATM    5  C6  UNL     1      26.708   5.403  -4.391  1.00  0.00    -0.025 A 
HETATM    6  C7  UNL     1      26.783   4.067  -3.850  1.00  0.00    -0.026 A 
HETATM    7  C8  UNL     1      27.910   3.586  -3.216  1.00  0.00     0.012 A 
HETATM    8  C9  UNL     1      27.968   2.294  -2.703  1.00  0.00     0.001 A 
HETATM    9  C10 UNL     1      26.894   1.468  -2.819  1.00  0.00     0.000 A 
HETATM   10  C11 UNL     1      25.771   1.913  -3.439  1.00  0.00     0.001 A 
HETATM   11  C12 UNL     1      25.704   3.201  -3.954  1.00  0.00     0.012 A 
HETATM   12  C13 UNL     1      27.423   6.434  -3.806  1.00  0.00     0.020 A 
ENDROOT
BRANCH   1  13
HETATM   13  C1  UNL     1      28.117   8.803  -3.709  1.00  0.00     0.154 C 
BRANCH  13  14
HETATM   14  S1  UNL     1      27.209   9.967  -2.817  1.00  0.00     0.070 S 
HETATM   15  O1  UNL     1      26.138   9.449  -1.708  1.00  0.00    -0.251 OA
BRANCH  14  16
HETATM   16  C14 UNL     1      27.827  11.550  -2.679  1.00  0.00     0.100 A 
HETATM   17  C15 UNL     1      27.656  12.282  -1.520  1.00  0.00     0.039 A 
HETATM   18  C16 UNL     1      28.154  13.561  -1.385  1.00  0.00     0.004 A 
HETATM   19  C17 UNL     1      28.846  14.162  -2.415  1.00  0.00     0.017 A 
HETATM   20  C18 UNL     1      29.008  13.410  -3.578  1.00  0.00     0.089 A 
HETATM   21  N1  UNL     1      28.518  12.179  -3.678  1.00  0.00    -0.359 N 
ATOM     22  H1  UNL     1      28.667  11.674  -4.552  1.00  0.00     0.166 HD
ENDBRANCH  14  16
ENDBRANCH  13  14
ENDBRANCH   1  13
TORSDOF 3
ENDMDL
