MODEL 1
REMARK VINA RESULT: -10.851509973      0.000      0.000
REMARK  4 active torsions:
REMARK  status: ('A' for Active; 'I' for Inactive)
REMARK    1  A    between atoms: C4_6  and  C5_7 
REMARK    2  A    between atoms: C8_10  and  C9_11 
REMARK    3  A    between atoms: C9_11  and  C10_12 
REMARK    4  A    between atoms: N2_17  and  C15_18 
ROOT
HETATM    1  C5  UNL     1      27.123   9.129  -3.523  1.00  0.00    -0.025 A 
HETATM    2  C6  UNL     1      26.600   8.198  -2.653  1.00  0.00     0.013 A 
HETATM    3  C7  UNL     1      26.235   6.911  -3.072  1.00  0.00     0.008 A 
HETATM    4  C8  UNL     1      26.391   6.530  -4.381  1.00  0.00    -0.052 A 
HETATM    5  C18 UNL     1      26.922   7.479  -5.254  1.00  0.00     0.008 A 
HETATM    6  C19 UNL     1      27.282   8.752  -4.838  1.00  0.00     0.013 A 
ENDROOT
BRANCH   4   7
HETATM    7  C9  UNL     1      26.038   5.199  -4.937  1.00  0.00     0.096 C 
BRANCH   7   8
HETATM    8  C10 UNL     1      26.953   4.119  -4.605  1.00  0.00     0.022 A 
HETATM    9  C11 UNL     1      28.332   4.380  -4.642  1.00  0.00     0.026 A 
HETATM   10  C12 UNL     1      29.278   3.426  -4.338  1.00  0.00     0.003 A 
HETATM   11  C13 UNL     1      28.863   2.162  -3.983  1.00  0.00     0.018 A 
HETATM   12  C14 UNL     1      27.513   1.921  -3.952  1.00  0.00     0.099 A 
HETATM   13  N2  UNL     1      26.583   2.887  -4.258  1.00  0.00    -0.305 N 
BRANCH  13  14
HETATM   14  C15 UNL     1      25.202   2.562  -4.191  1.00  0.00     0.170 A 
HETATM   15  C16 UNL     1      24.551   1.671  -5.011  1.00  0.00     0.146 A 
HETATM   16  N3  UNL     1      23.249   1.619  -4.658  1.00  0.00    -0.352 N 
HETATM   17  C17 UNL     1      23.125   2.475  -3.631  1.00  0.00     0.235 A 
ATOM     18  H3  UNL     1      22.516   1.049  -5.081  1.00  0.00     0.166 HD
HETATM   19  O1  UNL     1      24.290   3.020  -3.373  1.00  0.00    -0.287 OA
ENDBRANCH  13  14
ENDBRANCH   7   8
ENDBRANCH   4   7
BRANCH   1  20
HETATM   20  C4  UNL     1      27.481  10.449  -3.026  1.00  0.00    -0.011 A 
HETATM   21  C3  UNL     1      28.109  11.392  -3.819  1.00  0.00     0.099 A 
HETATM   22  N1  UNL     1      28.452  12.612  -3.396  1.00  0.00    -0.374 N 
HETATM   23  C2  UNL     1      28.193  12.990  -2.133  1.00  0.00     0.087 A 
ATOM     24  H1  UNL     1      28.913  13.259  -4.036  1.00  0.00     0.164 HD
HETATM   25  C1  UNL     1      27.562  12.090  -1.282  1.00  0.00     0.018 A 
HETATM   26  C20 UNL     1      27.209  10.833  -1.720  1.00  0.00     0.015 A 
ENDBRANCH   1  20
TORSDOF 4
ENDMDL
MODEL 2
REMARK VINA RESULT: -10.733004576      0.644      1.209
REMARK  4 active torsions:
REMARK  status: ('A' for Active; 'I' for Inactive)
REMARK    1  A    between atoms: C4_6  and  C5_7 
REMARK    2  A    between atoms: C8_10  and  C9_11 
REMARK    3  A    between atoms: C9_11  and  C10_12 
REMARK    4  A    between atoms: N2_17  and  C15_18 
ROOT
HETATM    1  C5  UNL     1      27.078   9.075  -3.510  1.00  0.00    -0.025 A 
HETATM    2  C6  UNL     1      27.228   8.782  -4.848  1.00  0.00     0.013 A 
HETATM    3  C7  UNL     1      26.887   7.530  -5.378  1.00  0.00     0.008 A 
HETATM    4  C8  UNL     1      26.384   6.541  -4.571  1.00  0.00    -0.052 A 
HETATM    5  C18 UNL     1      26.236   6.846  -3.219  1.00  0.00     0.008 A 
HETATM    6  C19 UNL     1      26.573   8.085  -2.696  1.00  0.00     0.013 A 
ENDROOT
BRANCH   4   7
HETATM    7  C9  UNL     1      25.994   5.180  -5.021  1.00  0.00     0.096 C 
BRANCH   7   8
HETATM    8  C10 UNL     1      26.911   4.113  -4.655  1.00  0.00     0.022 A 
HETATM    9  C11 UNL     1      28.286   4.388  -4.657  1.00  0.00     0.026 A 
HETATM   10  C12 UNL     1      29.235   3.447  -4.320  1.00  0.00     0.003 A 
HETATM   11  C13 UNL     1      28.822   2.182  -3.966  1.00  0.00     0.018 A 
HETATM   12  C14 UNL     1      27.475   1.927  -3.969  1.00  0.00     0.099 A 
HETATM   13  N2  UNL     1      26.544   2.880  -4.308  1.00  0.00    -0.305 N 
BRANCH  13  14
HETATM   14  C15 UNL     1      25.165   2.541  -4.275  1.00  0.00     0.170 A 
HETATM   15  C16 UNL     1      24.227   3.092  -3.434  1.00  0.00     0.146 A 
HETATM   16  N3  UNL     1      23.027   2.528  -3.684  1.00  0.00    -0.352 N 
HETATM   17  C17 UNL     1      23.248   1.645  -4.672  1.00  0.00     0.235 A 
ATOM     18  H3  UNL     1      22.140   2.730  -3.221  1.00  0.00     0.166 HD
HETATM   19  O1  UNL     1      24.516   1.671  -5.004  1.00  0.00    -0.287 OA
ENDBRANCH  13  14
ENDBRANCH   7   8
ENDBRANCH   4   7
BRANCH   1  20
HETATM   20  C4  UNL     1      27.450  10.393  -3.021  1.00  0.00    -0.011 A 
HETATM   21  C3  UNL     1      28.082  11.328  -3.823  1.00  0.00     0.099 A 
HETATM   22  N1  UNL     1      28.438  12.547  -3.408  1.00  0.00    -0.374 N 
HETATM   23  C2  UNL     1      28.189  12.933  -2.145  1.00  0.00     0.087 A 
ATOM     24  H1  UNL     1      28.900  13.187  -4.053  1.00  0.00     0.164 HD
HETATM   25  C1  UNL     1      27.556  12.042  -1.286  1.00  0.00     0.018 A 
HETATM   26  C20 UNL     1      27.190  10.786  -1.716  1.00  0.00     0.015 A 
ENDBRANCH   1  20
TORSDOF 4
ENDMDL
MODEL 3
REMARK VINA RESULT: -10.353099383      0.582      1.365
REMARK  4 active torsions:
REMARK  status: ('A' for Active; 'I' for Inactive)
REMARK    1  A    between atoms: C4_6  and  C5_7 
REMARK    2  A    between atoms: C8_10  and  C9_11 
REMARK    3  A    between atoms: C9_11  and  C10_12 
REMARK    4  A    between atoms: N2_17  and  C15_18 
ROOT
HETATM    1  C5  UNL     1      27.062   9.015  -3.458  1.00  0.00    -0.025 A 
HETATM    2  C6  UNL     1      27.216   8.720  -4.794  1.00  0.00     0.013 A 
HETATM    3  C7  UNL     1      26.872   7.468  -5.324  1.00  0.00     0.008 A 
HETATM    4  C8  UNL     1      26.362   6.483  -4.518  1.00  0.00    -0.052 A 
HETATM    5  C18 UNL     1      26.209   6.790  -3.167  1.00  0.00     0.008 A 
HETATM    6  C19 UNL     1      26.550   8.028  -2.644  1.00  0.00     0.013 A 
ENDROOT
BRANCH   4   7
HETATM    7  C9  UNL     1      25.967   5.123  -4.967  1.00  0.00     0.096 C 
BRANCH   7   8
HETATM    8  C10 UNL     1      26.883   4.054  -4.607  1.00  0.00     0.022 A 
HETATM    9  C11 UNL     1      28.260   4.323  -4.628  1.00  0.00     0.026 A 
HETATM   10  C12 UNL     1      29.208   3.379  -4.297  1.00  0.00     0.003 A 
HETATM   11  C13 UNL     1      28.795   2.118  -3.930  1.00  0.00     0.018 A 
HETATM   12  C14 UNL     1      27.446   1.869  -3.914  1.00  0.00     0.099 A 
HETATM   13  N2  UNL     1      26.516   2.825  -4.247  1.00  0.00    -0.305 N 
BRANCH  13  14
HETATM   14  C15 UNL     1      25.136   2.493  -4.195  1.00  0.00     0.170 A 
HETATM   15  C16 UNL     1      24.503   1.580  -5.006  1.00  0.00     0.146 A 
HETATM   16  N3  UNL     1      23.196   1.527  -4.672  1.00  0.00    -0.352 N 
HETATM   17  C17 UNL     1      23.050   2.404  -3.666  1.00  0.00     0.235 A 
ATOM     18  H3  UNL     1      22.473   0.944  -5.095  1.00  0.00     0.166 HD
HETATM   19  O1  UNL     1      24.208   2.961  -3.401  1.00  0.00    -0.287 OA
ENDBRANCH  13  14
ENDBRANCH   7   8
ENDBRANCH   4   7
BRANCH   1  20
HETATM   20  C4  UNL     1      27.439  10.332  -2.969  1.00  0.00    -0.011 A 
HETATM   21  C3  UNL     1      27.174  10.744  -1.675  1.00  0.00     0.099 A 
HETATM   22  N1  UNL     1      27.505  11.945  -1.193  1.00  0.00    -0.374 N 
HETATM   23  C2  UNL     1      28.133  12.841  -1.974  1.00  0.00     0.087 A 
ATOM     24  H1  UNL     1      27.280  12.184  -0.227  1.00  0.00     0.164 HD
HETATM   25  C1  UNL     1      28.430  12.491  -3.286  1.00  0.00     0.018 A 
HETATM   26  C20 UNL     1      28.087  11.252  -3.781  1.00  0.00     0.015 A 
ENDBRANCH   1  20
TORSDOF 4
ENDMDL
MODEL 4
REMARK VINA RESULT: -10.039356933      1.825      3.214
REMARK  4 active torsions:
REMARK  status: ('A' for Active; 'I' for Inactive)
REMARK    1  A    between atoms: C4_6  and  C5_7 
REMARK    2  A    between atoms: C8_10  and  C9_11 
REMARK    3  A    between atoms: C9_11  and  C10_12 
REMARK    4  A    between atoms: N2_17  and  C15_18 
ROOT
HETATM    1  C5  UNL     1      27.003   7.976  -3.964  1.00  0.00    -0.025 A 
HETATM    2  C6  UNL     1      26.244   7.717  -5.084  1.00  0.00     0.013 A 
HETATM    3  C7  UNL     1      26.126   6.428  -5.620  1.00  0.00     0.008 A 
HETATM    4  C8  UNL     1      26.769   5.365  -5.038  1.00  0.00    -0.052 A 
HETATM    5  C18 UNL     1      27.534   5.636  -3.905  1.00  0.00     0.008 A 
HETATM    6  C19 UNL     1      27.651   6.913  -3.375  1.00  0.00     0.013 A 
ENDROOT
BRANCH   4   7
HETATM    7  C9  UNL     1      26.718   3.961  -5.519  1.00  0.00     0.096 C 
BRANCH   7   8
HETATM    8  C10 UNL     1      25.673   3.137  -4.935  1.00  0.00     0.022 A 
HETATM    9  C11 UNL     1      24.556   3.776  -4.376  1.00  0.00     0.026 A 
HETATM   10  C12 UNL     1      23.511   3.083  -3.804  1.00  0.00     0.003 A 
HETATM   11  C13 UNL     1      23.556   1.707  -3.778  1.00  0.00     0.018 A 
HETATM   12  C14 UNL     1      24.654   1.096  -4.329  1.00  0.00     0.099 A 
HETATM   13  N2  UNL     1      25.687   1.805  -4.894  1.00  0.00    -0.305 N 
BRANCH  13  14
HETATM   14  C15 UNL     1      26.784   1.098  -5.455  1.00  0.00     0.170 A 
HETATM   15  C16 UNL     1      27.889   0.659  -4.763  1.00  0.00     0.146 A 
HETATM   16  N3  UNL     1      28.722   0.030  -5.618  1.00  0.00    -0.352 N 
HETATM   17  C17 UNL     1      28.117   0.093  -6.815  1.00  0.00     0.235 A 
ATOM     18  H3  UNL     1      29.621  -0.401  -5.401  1.00  0.00     0.166 HD
HETATM   19  O1  UNL     1      26.975   0.727  -6.694  1.00  0.00    -0.287 OA
ENDBRANCH  13  14
ENDBRANCH   7   8
ENDBRANCH   4   7
BRANCH   1  20
HETATM   20  C4  UNL     1      27.087   9.337  -3.456  1.00  0.00    -0.011 A 
HETATM   21  C3  UNL     1      27.483  10.399  -4.249  1.00  0.00     0.099 A 
HETATM   22  N1  UNL     1      27.571  11.660  -3.818  1.00  0.00    -0.374 N 
HETATM   23  C2  UNL     1      27.268  11.963  -2.543  1.00  0.00     0.087 A 
ATOM     24  H1  UNL     1      27.870  12.396  -4.457  1.00  0.00     0.164 HD
HETATM   25  C1  UNL     1      26.861  10.943  -1.692  1.00  0.00     0.018 A 
HETATM   26  C20 UNL     1      26.771   9.643  -2.139  1.00  0.00     0.015 A 
ENDBRANCH   1  20
TORSDOF 4
ENDMDL
MODEL 5
REMARK VINA RESULT: -9.963535212      2.000      3.110
REMARK  4 active torsions:
REMARK  status: ('A' for Active; 'I' for Inactive)
REMARK    1  A    between atoms: C4_6  and  C5_7 
REMARK    2  A    between atoms: C8_10  and  C9_11 
REMARK    3  A    between atoms: C9_11  and  C10_12 
REMARK    4  A    between atoms: N2_17  and  C15_18 
ROOT
HETATM    1  C5  UNL     1      26.942   7.991  -4.038  1.00  0.00    -0.025 A 
HETATM    2  C6  UNL     1      27.593   6.950  -3.413  1.00  0.00     0.013 A 
HETATM    3  C7  UNL     1      27.500   5.630  -3.876  1.00  0.00     0.008 A 
HETATM    4  C8  UNL     1      26.749   5.328  -4.984  1.00  0.00    -0.052 A 
HETATM    5  C18 UNL     1      26.095   6.388  -5.610  1.00  0.00     0.008 A 
HETATM    6  C19 UNL     1      26.188   7.693  -5.150  1.00  0.00     0.013 A 
ENDROOT
BRANCH   4   7
HETATM    7  C9  UNL     1      26.576   3.970  -5.561  1.00  0.00     0.096 C 
BRANCH   7   8
HETATM    8  C10 UNL     1      25.462   3.202  -5.031  1.00  0.00     0.022 A 
HETATM    9  C11 UNL     1      24.687   3.771  -4.008  1.00  0.00     0.026 A 
HETATM   10  C12 UNL     1      23.608   3.127  -3.444  1.00  0.00     0.003 A 
HETATM   11  C13 UNL     1      23.269   1.872  -3.898  1.00  0.00     0.018 A 
HETATM   12  C14 UNL     1      24.034   1.328  -4.898  1.00  0.00     0.099 A 
HETATM   13  N2  UNL     1      25.108   1.987  -5.448  1.00  0.00    -0.305 N 
BRANCH  13  14
HETATM   14  C15 UNL     1      25.844   1.360  -6.488  1.00  0.00     0.170 A 
HETATM   15  C16 UNL     1      26.933   0.539  -6.313  1.00  0.00     0.146 A 
HETATM   16  N3  UNL     1      27.374   0.130  -7.521  1.00  0.00    -0.352 N 
HETATM   17  C17 UNL     1      26.551   0.705  -8.414  1.00  0.00     0.235 A 
ATOM     18  H3  UNL     1      28.165  -0.485  -7.715  1.00  0.00     0.166 HD
HETATM   19  O1  UNL     1      25.656   1.425  -7.781  1.00  0.00    -0.287 OA
ENDBRANCH  13  14
ENDBRANCH   7   8
ENDBRANCH   4   7
BRANCH   1  20
HETATM   20  C4  UNL     1      27.078   9.339  -3.507  1.00  0.00    -0.011 A 
HETATM   21  C3  UNL     1      27.554  10.390  -4.271  1.00  0.00     0.099 A 
HETATM   22  N1  UNL     1      27.692  11.639  -3.818  1.00  0.00    -0.374 N 
HETATM   23  C2  UNL     1      27.362  11.940  -2.550  1.00  0.00     0.087 A 
ATOM     24  H1  UNL     1      28.049  12.367  -4.436  1.00  0.00     0.164 HD
HETATM   25  C1  UNL     1      26.877  10.931  -1.727  1.00  0.00     0.018 A 
HETATM   26  C20 UNL     1      26.735   9.644  -2.197  1.00  0.00     0.015 A 
ENDBRANCH   1  20
TORSDOF 4
ENDMDL
