MODEL 1
REMARK VINA RESULT: -10.970295496      0.000      0.000
REMARK  4 active torsions:
REMARK  status: ('A' for Active; 'I' for Inactive)
REMARK    1  A    between atoms: C4_6  and  C5_7 
REMARK    2  A    between atoms: N2_12  and  C10_13 
REMARK    3  A    between atoms: C10_13  and  C11_14 
REMARK    4  A    between atoms: C11_14  and  C12_15 
ROOT
HETATM    1  C5  UNL     1      26.766   3.091  -4.403  1.00  0.00     0.045 A 
HETATM    2  C6  UNL     1      27.796   2.130  -4.300  1.00  0.00     0.030 A 
HETATM    3  C7  UNL     1      29.097   2.553  -4.306  1.00  0.00     0.004 A 
HETATM    4  C8  UNL     1      29.363   3.900  -4.412  1.00  0.00     0.017 A 
HETATM    5  C9  UNL     1      28.360   4.825  -4.510  1.00  0.00     0.091 A 
HETATM    6  N2  UNL     1      27.054   4.390  -4.504  1.00  0.00    -0.356 N 
ENDROOT
BRANCH   6   7
HETATM    7  C10 UNL     1      25.999   5.368  -4.604  1.00  0.00     0.134 C 
BRANCH   7   8
HETATM    8  C11 UNL     1      26.479   6.618  -5.230  1.00  0.00     0.077 C 
BRANCH   8   9
HETATM    9  C12 UNL     1      26.597   7.791  -4.313  1.00  0.00     0.011 A 
HETATM   10  C13 UNL     1      25.993   7.811  -3.065  1.00  0.00     0.026 A 
HETATM   11  C14 UNL     1      26.116   8.894  -2.207  1.00  0.00     0.015 A 
HETATM   12  C15 UNL     1      26.859   9.993  -2.589  1.00  0.00    -0.009 A 
HETATM   13  C16 UNL     1      27.015  11.097  -1.772  1.00  0.00     0.013 A 
HETATM   14  C20 UNL     1      27.451   9.949  -3.837  1.00  0.00     0.042 A 
HETATM   15  C17 UNL     1      27.763  12.197  -2.165  1.00  0.00     0.001 A 
HETATM   16  C18 UNL     1      28.355  12.162  -3.405  1.00  0.00     0.002 A 
HETATM   17  C19 UNL     1      28.193  11.056  -4.208  1.00  0.00     0.030 A 
HETATM   18  N3  UNL     1      27.312   8.876  -4.652  1.00  0.00    -0.359 N 
ATOM     19  H3  UNL     1      27.770   8.894  -5.564  1.00  0.00     0.166 HD
ENDBRANCH   8   9
ENDBRANCH   7   8
ENDBRANCH   6   7
BRANCH   1  20
HETATM   20  C4  UNL     1      25.407   2.594  -4.439  1.00  0.00     0.006 A 
HETATM   21  C3  UNL     1      24.996   1.648  -5.344  1.00  0.00     0.101 A 
HETATM   22  N1  UNL     1      23.721   1.187  -5.386  1.00  0.00    -0.374 N 
HETATM   23  C2  UNL     1      22.772   1.627  -4.541  1.00  0.00     0.087 A 
ATOM     24  H1  UNL     1      23.473   0.484  -6.081  1.00  0.00     0.164 HD
HETATM   25  C1  UNL     1      23.132   2.579  -3.609  1.00  0.00     0.018 A 
HETATM   26  C21 UNL     1      24.441   3.062  -3.556  1.00  0.00     0.016 A 
ENDBRANCH   1  20
TORSDOF 4
ENDMDL
MODEL 2
REMARK VINA RESULT: -10.830843500      0.727      1.415
REMARK  4 active torsions:
REMARK  status: ('A' for Active; 'I' for Inactive)
REMARK    1  A    between atoms: C4_6  and  C5_7 
REMARK    2  A    between atoms: N2_12  and  C10_13 
REMARK    3  A    between atoms: C10_13  and  C11_14 
REMARK    4  A    between atoms: C11_14  and  C12_15 
ROOT
HETATM    1  C5  UNL     1      26.828   2.906  -4.392  1.00  0.00     0.045 A 
HETATM    2  C6  UNL     1      27.772   1.865  -4.246  1.00  0.00     0.030 A 
HETATM    3  C7  UNL     1      29.104   2.176  -4.256  1.00  0.00     0.004 A 
HETATM    4  C8  UNL     1      29.484   3.491  -4.408  1.00  0.00     0.017 A 
HETATM    5  C9  UNL     1      28.564   4.492  -4.548  1.00  0.00     0.091 A 
HETATM    6  N2  UNL     1      27.226   4.171  -4.537  1.00  0.00    -0.356 N 
ENDROOT
BRANCH   6   7
HETATM    7  C10 UNL     1      26.258   5.231  -4.681  1.00  0.00     0.134 C 
BRANCH   7   8
HETATM    8  C11 UNL     1      26.213   6.088  -3.478  1.00  0.00     0.077 C 
BRANCH   8   9
HETATM    9  C12 UNL     1      26.792   7.455  -3.643  1.00  0.00     0.011 A 
HETATM   10  C13 UNL     1      27.448   7.840  -4.802  1.00  0.00     0.026 A 
HETATM   11  C14 UNL     1      27.972   9.114  -4.961  1.00  0.00     0.015 A 
HETATM   12  C15 UNL     1      27.845  10.042  -3.947  1.00  0.00    -0.009 A 
HETATM   13  C16 UNL     1      28.347  11.325  -4.053  1.00  0.00     0.013 A 
HETATM   14  C20 UNL     1      27.187   9.635  -2.802  1.00  0.00     0.042 A 
HETATM   15  C17 UNL     1      28.215  12.250  -3.028  1.00  0.00     0.001 A 
HETATM   16  C18 UNL     1      27.562  11.853  -1.885  1.00  0.00     0.002 A 
HETATM   17  C19 UNL     1      27.066  10.572  -1.792  1.00  0.00     0.030 A 
HETATM   18  N3  UNL     1      26.687   8.382  -2.676  1.00  0.00    -0.359 N 
ATOM     19  H3  UNL     1      26.209   8.132  -1.810  1.00  0.00     0.166 HD
ENDBRANCH   8   9
ENDBRANCH   7   8
ENDBRANCH   6   7
BRANCH   1  20
HETATM   20  C4  UNL     1      25.431   2.525  -4.420  1.00  0.00     0.006 A 
HETATM   21  C3  UNL     1      24.928   1.656  -5.356  1.00  0.00     0.101 A 
HETATM   22  N1  UNL     1      23.618   1.305  -5.391  1.00  0.00    -0.374 N 
HETATM   23  C2  UNL     1      22.723   1.785  -4.509  1.00  0.00     0.087 A 
ATOM     24  H1  UNL     1      23.301   0.654  -6.110  1.00  0.00     0.164 HD
HETATM   25  C1  UNL     1      23.177   2.663  -3.547  1.00  0.00     0.018 A 
HETATM   26  C21 UNL     1      24.522   3.032  -3.499  1.00  0.00     0.016 A 
ENDBRANCH   1  20
TORSDOF 4
ENDMDL
MODEL 3
REMARK VINA RESULT: -10.445883452      0.964      1.250
REMARK  4 active torsions:
REMARK  status: ('A' for Active; 'I' for Inactive)
REMARK    1  A    between atoms: C4_6  and  C5_7 
REMARK    2  A    between atoms: N2_12  and  C10_13 
REMARK    3  A    between atoms: C10_13  and  C11_14 
REMARK    4  A    between atoms: C11_14  and  C12_15 
ROOT
HETATM    1  C5  UNL     1      26.541   2.474  -4.447  1.00  0.00     0.045 A 
HETATM    2  C6  UNL     1      27.481   1.420  -4.413  1.00  0.00     0.030 A 
HETATM    3  C7  UNL     1      28.813   1.725  -4.359  1.00  0.00     0.004 A 
HETATM    4  C8  UNL     1      29.198   3.048  -4.339  1.00  0.00     0.017 A 
HETATM    5  C9  UNL     1      28.282   4.062  -4.371  1.00  0.00     0.091 A 
HETATM    6  N2  UNL     1      26.943   3.746  -4.426  1.00  0.00    -0.356 N 
ENDROOT
BRANCH   6   7
HETATM    7  C10 UNL     1      25.979   4.819  -4.456  1.00  0.00     0.134 C 
BRANCH   7   8
HETATM    8  C11 UNL     1      25.920   5.528  -3.161  1.00  0.00     0.077 C 
BRANCH   8   9
HETATM    9  C12 UNL     1      26.296   6.973  -3.202  1.00  0.00     0.011 A 
HETATM   10  C13 UNL     1      25.857   7.874  -2.244  1.00  0.00     0.026 A 
HETATM   11  C14 UNL     1      26.220   9.212  -2.273  1.00  0.00     0.015 A 
HETATM   12  C15 UNL     1      27.044   9.680  -3.277  1.00  0.00    -0.009 A 
HETATM   13  C16 UNL     1      27.437  11.003  -3.352  1.00  0.00     0.013 A 
HETATM   14  C20 UNL     1      27.470   8.763  -4.219  1.00  0.00     0.042 A 
HETATM   15  C17 UNL     1      28.265  11.463  -4.365  1.00  0.00     0.001 A 
HETATM   16  C18 UNL     1      28.693  10.558  -5.308  1.00  0.00     0.002 A 
HETATM   17  C19 UNL     1      28.295   9.243  -5.220  1.00  0.00     0.030 A 
HETATM   18  N3  UNL     1      27.097   7.461  -4.164  1.00  0.00    -0.359 N 
ATOM     19  H3  UNL     1      27.439   6.825  -4.884  1.00  0.00     0.166 HD
ENDBRANCH   8   9
ENDBRANCH   7   8
ENDBRANCH   6   7
BRANCH   1  20
HETATM   20  C4  UNL     1      25.145   2.105  -4.550  1.00  0.00     0.006 A 
HETATM   21  C3  UNL     1      24.683   1.248  -5.517  1.00  0.00     0.101 A 
HETATM   22  N1  UNL     1      23.374   0.907  -5.622  1.00  0.00    -0.374 N 
HETATM   23  C2  UNL     1      22.439   1.388  -4.783  1.00  0.00     0.087 A 
ATOM     24  H1  UNL     1      23.089   0.266  -6.361  1.00  0.00     0.164 HD
HETATM   25  C1  UNL     1      22.850   2.253  -3.791  1.00  0.00     0.018 A 
HETATM   26  C21 UNL     1      24.194   2.612  -3.672  1.00  0.00     0.016 A 
ENDBRANCH   1  20
TORSDOF 4
ENDMDL
MODEL 4
REMARK VINA RESULT: -10.209052334      1.497      2.279
REMARK  4 active torsions:
REMARK  status: ('A' for Active; 'I' for Inactive)
REMARK    1  A    between atoms: C4_6  and  C5_7 
REMARK    2  A    between atoms: N2_12  and  C10_13 
REMARK    3  A    between atoms: C10_13  and  C11_14 
REMARK    4  A    between atoms: C11_14  and  C12_15 
ROOT
HETATM    1  C5  UNL     1      25.709   1.557  -3.708  1.00  0.00     0.045 A 
HETATM    2  C6  UNL     1      26.337   0.388  -3.223  1.00  0.00     0.030 A 
HETATM    3  C7  UNL     1      27.562   0.499  -2.624  1.00  0.00     0.004 A 
HETATM    4  C8  UNL     1      28.144   1.742  -2.512  1.00  0.00     0.017 A 
HETATM    5  C9  UNL     1      27.529   2.868  -2.984  1.00  0.00     0.091 A 
HETATM    6  N2  UNL     1      26.297   2.748  -3.585  1.00  0.00    -0.356 N 
ENDROOT
BRANCH   6   7
HETATM    7  C10 UNL     1      25.649   3.939  -4.079  1.00  0.00     0.134 C 
BRANCH   7   8
HETATM    8  C11 UNL     1      25.589   4.990  -3.042  1.00  0.00     0.077 C 
BRANCH   8   9
HETATM    9  C12 UNL     1      26.303   6.259  -3.372  1.00  0.00     0.011 A 
HETATM   10  C13 UNL     1      27.162   6.358  -4.456  1.00  0.00     0.026 A 
HETATM   11  C14 UNL     1      27.813   7.541  -4.773  1.00  0.00     0.015 A 
HETATM   12  C15 UNL     1      27.612   8.665  -3.998  1.00  0.00    -0.009 A 
HETATM   13  C16 UNL     1      28.234   9.870  -4.269  1.00  0.00     0.013 A 
HETATM   14  C20 UNL     1      26.751   8.543  -2.924  1.00  0.00     0.042 A 
HETATM   15  C17 UNL     1      28.025  10.994  -3.484  1.00  0.00     0.001 A 
HETATM   16  C18 UNL     1      27.171  10.880  -2.413  1.00  0.00     0.002 A 
HETATM   17  C19 UNL     1      26.557   9.676  -2.154  1.00  0.00     0.030 A 
HETATM   18  N3  UNL     1      26.130   7.372  -2.640  1.00  0.00    -0.359 N 
ATOM     19  H3  UNL     1      25.504   7.335  -1.836  1.00  0.00     0.166 HD
ENDBRANCH   8   9
ENDBRANCH   7   8
ENDBRANCH   6   7
BRANCH   1  20
HETATM   20  C4  UNL     1      24.435   1.387  -4.375  1.00  0.00     0.006 A 
HETATM   21  C3  UNL     1      24.301   0.644  -5.521  1.00  0.00     0.101 A 
HETATM   22  N1  UNL     1      23.110   0.491  -6.153  1.00  0.00    -0.374 N 
HETATM   23  C2  UNL     1      21.979   1.058  -5.698  1.00  0.00     0.087 A 
ATOM     24  H1  UNL     1      23.072  -0.073  -7.002  1.00  0.00     0.164 HD
HETATM   25  C1  UNL     1      22.058   1.816  -4.548  1.00  0.00     0.018 A 
HETATM   26  C21 UNL     1      23.277   1.982  -3.888  1.00  0.00     0.016 A 
ENDBRANCH   1  20
TORSDOF 4
ENDMDL
MODEL 5
REMARK VINA RESULT: -10.202086133      1.943      3.716
REMARK  4 active torsions:
REMARK  status: ('A' for Active; 'I' for Inactive)
REMARK    1  A    between atoms: C4_6  and  C5_7 
REMARK    2  A    between atoms: N2_12  and  C10_13 
REMARK    3  A    between atoms: C10_13  and  C11_14 
REMARK    4  A    between atoms: C11_14  and  C12_15 
ROOT
HETATM    1  C5  UNL     1      25.559   1.668  -3.771  1.00  0.00     0.045 A 
HETATM    2  C6  UNL     1      24.552   0.773  -4.196  1.00  0.00     0.030 A 
HETATM    3  C7  UNL     1      23.352   1.280  -4.612  1.00  0.00     0.004 A 
HETATM    4  C8  UNL     1      23.161   2.644  -4.605  1.00  0.00     0.017 A 
HETATM    5  C9  UNL     1      24.141   3.504  -4.192  1.00  0.00     0.091 A 
HETATM    6  N2  UNL     1      25.346   2.985  -3.775  1.00  0.00    -0.356 N 
ENDROOT
BRANCH   6   7
HETATM    7  C10 UNL     1      26.379   3.895  -3.343  1.00  0.00     0.134 C 
BRANCH   7   8
HETATM    8  C11 UNL     1      25.805   5.133  -2.776  1.00  0.00     0.077 C 
BRANCH   8   9
HETATM    9  C12 UNL     1      26.459   6.403  -3.215  1.00  0.00     0.011 A 
HETATM   10  C13 UNL     1      27.248   6.468  -4.353  1.00  0.00     0.026 A 
HETATM   11  C14 UNL     1      27.843   7.650  -4.769  1.00  0.00     0.015 A 
HETATM   12  C15 UNL     1      27.654   8.808  -4.041  1.00  0.00    -0.009 A 
HETATM   13  C16 UNL     1      28.221  10.013  -4.411  1.00  0.00     0.013 A 
HETATM   14  C20 UNL     1      26.863   8.718  -2.911  1.00  0.00     0.042 A 
HETATM   15  C17 UNL     1      28.026  11.170  -3.673  1.00  0.00     0.001 A 
HETATM   16  C18 UNL     1      27.242  11.090  -2.547  1.00  0.00     0.002 A 
HETATM   17  C19 UNL     1      26.681   9.884  -2.190  1.00  0.00     0.030 A 
HETATM   18  N3  UNL     1      26.297   7.548  -2.530  1.00  0.00    -0.359 N 
ATOM     19  H3  UNL     1      25.722   7.536  -1.688  1.00  0.00     0.166 HD
ENDBRANCH   8   9
ENDBRANCH   7   8
ENDBRANCH   6   7
BRANCH   1  20
HETATM   20  C4  UNL     1      26.796   1.085  -3.296  1.00  0.00     0.006 A 
HETATM   21  C3  UNL     1      27.809   0.722  -4.148  1.00  0.00     0.101 A 
HETATM   22  N1  UNL     1      28.966   0.167  -3.706  1.00  0.00    -0.374 N 
HETATM   23  C2  UNL     1      29.198  -0.065  -2.402  1.00  0.00     0.087 A 
ATOM     24  H1  UNL     1      29.684  -0.083  -4.386  1.00  0.00     0.164 HD
HETATM   25  C1  UNL     1      28.211   0.282  -1.502  1.00  0.00     0.018 A 
HETATM   26  C21 UNL     1      27.016   0.854  -1.943  1.00  0.00     0.016 A 
ENDBRANCH   1  20
TORSDOF 4
ENDMDL
