MODEL 1
REMARK VINA RESULT: -10.130229386      0.000      0.000
REMARK  4 active torsions:
REMARK  status: ('A' for Active; 'I' for Inactive)
REMARK    1  A    between atoms: O1_2  and  C2_3 
REMARK    2  A    between atoms: C5_6  and  C6_7 
REMARK    3  A    between atoms: C7_8  and  C8_9 
REMARK    4  A    between atoms: C19_21  and  O2_22 
ROOT
HETATM    1  C6  UNL     1      26.214   5.595  -4.979  1.00  0.00     0.012 C 
HETATM    2  C7  UNL     1      26.438   6.244  -3.871  1.00  0.00     0.013 C 
ENDROOT
BRANCH   2   3
HETATM    3  C8  UNL     1      26.942   7.621  -3.899  1.00  0.00    -0.020 A 
HETATM    4  C9  UNL     1      26.739   8.444  -2.781  1.00  0.00     0.026 A 
HETATM    5  C10 UNL     1      27.175   9.745  -2.720  1.00  0.00    -0.009 A 
HETATM    6  C11 UNL     1      26.967  10.547  -1.606  1.00  0.00     0.014 A 
HETATM    7  C15 UNL     1      27.844  10.265  -3.805  1.00  0.00     0.044 A 
HETATM    8  C12 UNL     1      27.407  11.853  -1.551  1.00  0.00     0.001 A 
HETATM    9  C13 UNL     1      28.076  12.375  -2.637  1.00  0.00     0.002 A 
HETATM   10  C14 UNL     1      28.287  11.579  -3.749  1.00  0.00     0.030 A 
HETATM   11  N1  UNL     1      28.046   9.489  -4.882  1.00  0.00    -0.360 N 
HETATM   12  C16 UNL     1      28.747  10.023  -6.029  1.00  0.00     0.156 C 
HETATM   13  C17 UNL     1      27.610   8.191  -4.944  1.00  0.00     0.102 A 
ENDBRANCH   2   3
BRANCH   1  14
HETATM   14  C5  UNL     1      25.716   4.235  -4.973  1.00  0.00    -0.033 A 
HETATM   15  C4  UNL     1      24.574   3.972  -4.205  1.00  0.00     0.014 A 
HETATM   16  C3  UNL     1      24.073   2.694  -4.176  1.00  0.00     0.040 A 
HETATM   17  C2  UNL     1      24.678   1.673  -4.890  1.00  0.00     0.101 A 
HETATM   18  C19 UNL     1      25.806   1.929  -5.651  1.00  0.00     0.102 A 
HETATM   19  C18 UNL     1      26.316   3.221  -5.682  1.00  0.00     0.051 A 
BRANCH  17  20
HETATM   20  O1  UNL     1      24.145   0.389  -4.839  1.00  0.00    -0.353 OA
HETATM   21  C1  UNL     1      23.027   0.087  -5.627  1.00  0.00     0.210 C 
ENDBRANCH  17  20
BRANCH  18  22
HETATM   22  O2  UNL     1      26.380   0.878  -6.349  1.00  0.00    -0.353 OA
HETATM   23  C20 UNL     1      27.673   0.401  -6.075  1.00  0.00     0.210 C 
ENDBRANCH  18  22
ENDBRANCH   1  14
TORSDOF 4
ENDMDL
MODEL 2
REMARK VINA RESULT: -10.026478257      0.804      1.940
REMARK  4 active torsions:
REMARK  status: ('A' for Active; 'I' for Inactive)
REMARK    1  A    between atoms: O1_2  and  C2_3 
REMARK    2  A    between atoms: C5_6  and  C6_7 
REMARK    3  A    between atoms: C7_8  and  C8_9 
REMARK    4  A    between atoms: C19_21  and  O2_22 
ROOT
HETATM    1  C6  UNL     1      26.029   5.506  -4.934  1.00  0.00     0.012 C 
HETATM    2  C7  UNL     1      26.512   6.079  -3.867  1.00  0.00     0.013 C 
ENDROOT
BRANCH   2   3
HETATM    3  C8  UNL     1      26.975   7.470  -3.910  1.00  0.00    -0.020 A 
HETATM    4  C9  UNL     1      26.760   8.293  -2.795  1.00  0.00     0.026 A 
HETATM    5  C10 UNL     1      27.158   9.608  -2.746  1.00  0.00    -0.009 A 
HETATM    6  C11 UNL     1      26.939  10.410  -1.635  1.00  0.00     0.014 A 
HETATM    7  C15 UNL     1      27.799  10.140  -3.843  1.00  0.00     0.044 A 
HETATM    8  C12 UNL     1      27.341  11.728  -1.593  1.00  0.00     0.001 A 
HETATM    9  C13 UNL     1      27.982  12.263  -2.690  1.00  0.00     0.002 A 
HETATM   10  C14 UNL     1      28.203  11.467  -3.800  1.00  0.00     0.030 A 
HETATM   11  N1  UNL     1      28.010   9.364  -4.917  1.00  0.00    -0.360 N 
HETATM   12  C16 UNL     1      28.682   9.911  -6.076  1.00  0.00     0.156 C 
HETATM   13  C17 UNL     1      27.613   8.053  -4.966  1.00  0.00     0.102 A 
ENDBRANCH   2   3
BRANCH   1  14
HETATM   14  C5  UNL     1      25.566   4.133  -4.913  1.00  0.00    -0.033 A 
HETATM   15  C4  UNL     1      26.409   3.163  -5.471  1.00  0.00     0.014 A 
HETATM   16  C3  UNL     1      26.004   1.851  -5.468  1.00  0.00     0.040 A 
HETATM   17  C2  UNL     1      24.783   1.481  -4.927  1.00  0.00     0.101 A 
HETATM   18  C19 UNL     1      23.948   2.437  -4.375  1.00  0.00     0.102 A 
HETATM   19  C18 UNL     1      24.356   3.766  -4.376  1.00  0.00     0.051 A 
BRANCH  17  20
HETATM   20  O1  UNL     1      24.403   0.143  -4.941  1.00  0.00    -0.353 OA
HETATM   21  C1  UNL     1      24.301  -0.519  -6.171  1.00  0.00     0.210 C 
ENDBRANCH  17  20
BRANCH  18  22
HETATM   22  O2  UNL     1      22.737   2.023  -3.844  1.00  0.00    -0.353 OA
HETATM   23  C20 UNL     1      21.642   1.656  -4.647  1.00  0.00     0.210 C 
ENDBRANCH  18  22
ENDBRANCH   1  14
TORSDOF 4
ENDMDL
MODEL 3
REMARK VINA RESULT: -9.891815313      1.659      1.722
REMARK  4 active torsions:
REMARK  status: ('A' for Active; 'I' for Inactive)
REMARK    1  A    between atoms: O1_2  and  C2_3 
REMARK    2  A    between atoms: C5_6  and  C6_7 
REMARK    3  A    between atoms: C7_8  and  C8_9 
REMARK    4  A    between atoms: C19_21  and  O2_22 
ROOT
HETATM    1  C6  UNL     1      27.108   5.951  -4.004  1.00  0.00     0.012 C 
HETATM    2  C7  UNL     1      26.545   6.917  -3.334  1.00  0.00     0.013 C 
ENDROOT
BRANCH   2   3
HETATM    3  C8  UNL     1      27.069   8.284  -3.411  1.00  0.00    -0.020 A 
HETATM    4  C9  UNL     1      26.892   9.143  -2.316  1.00  0.00     0.026 A 
HETATM    5  C10 UNL     1      27.349  10.439  -2.299  1.00  0.00    -0.009 A 
HETATM    6  C11 UNL     1      27.166  11.277  -1.207  1.00  0.00     0.014 A 
HETATM    7  C15 UNL     1      28.011  10.916  -3.408  1.00  0.00     0.044 A 
HETATM    8  C12 UNL     1      27.626  12.577  -1.196  1.00  0.00     0.001 A 
HETATM    9  C13 UNL     1      28.289  13.056  -2.307  1.00  0.00     0.002 A 
HETATM   10  C14 UNL     1      28.473  12.224  -3.396  1.00  0.00     0.030 A 
HETATM   11  N1  UNL     1      28.187  10.106  -4.462  1.00  0.00    -0.360 N 
HETATM   12  C16 UNL     1      28.881  10.594  -5.634  1.00  0.00     0.156 C 
HETATM   13  C17 UNL     1      27.732   8.813  -4.480  1.00  0.00     0.102 A 
ENDBRANCH   2   3
BRANCH   1  14
HETATM   14  C5  UNL     1      26.606   4.593  -3.943  1.00  0.00    -0.033 A 
HETATM   15  C4  UNL     1      25.314   4.363  -4.432  1.00  0.00     0.014 A 
HETATM   16  C3  UNL     1      24.805   3.088  -4.391  1.00  0.00     0.040 A 
HETATM   17  C2  UNL     1      25.549   2.039  -3.875  1.00  0.00     0.101 A 
HETATM   18  C19 UNL     1      26.826   2.263  -3.392  1.00  0.00     0.102 A 
HETATM   19  C18 UNL     1      27.344   3.552  -3.432  1.00  0.00     0.051 A 
BRANCH  17  20
HETATM   20  O1  UNL     1      25.003   0.759  -3.848  1.00  0.00    -0.353 OA
HETATM   21  C1  UNL     1      25.019  -0.010  -5.018  1.00  0.00     0.210 C 
ENDBRANCH  17  20
BRANCH  18  22
HETATM   22  O2  UNL     1      27.534   1.184  -2.885  1.00  0.00    -0.353 OA
HETATM   23  C20 UNL     1      27.578   0.881  -1.513  1.00  0.00     0.210 C 
ENDBRANCH  18  22
ENDBRANCH   1  14
TORSDOF 4
ENDMDL
MODEL 4
REMARK VINA RESULT: -9.848866097      1.536      2.209
REMARK  4 active torsions:
REMARK  status: ('A' for Active; 'I' for Inactive)
REMARK    1  A    between atoms: O1_2  and  C2_3 
REMARK    2  A    between atoms: C5_6  and  C6_7 
REMARK    3  A    between atoms: C7_8  and  C8_9 
REMARK    4  A    between atoms: C19_21  and  O2_22 
ROOT
HETATM    1  C6  UNL     1      27.495   5.435  -3.753  1.00  0.00     0.012 C 
HETATM    2  C7  UNL     1      26.661   6.427  -3.612  1.00  0.00     0.013 C 
ENDROOT
BRANCH   2   3
HETATM    3  C8  UNL     1      27.130   7.815  -3.691  1.00  0.00    -0.020 A 
HETATM    4  C9  UNL     1      26.929   8.665  -2.593  1.00  0.00     0.026 A 
HETATM    5  C10 UNL     1      27.333   9.978  -2.578  1.00  0.00    -0.009 A 
HETATM    6  C11 UNL     1      27.127  10.806  -1.484  1.00  0.00     0.014 A 
HETATM    7  C15 UNL     1      27.966  10.482  -3.692  1.00  0.00     0.044 A 
HETATM    8  C12 UNL     1      27.535  12.123  -1.475  1.00  0.00     0.001 A 
HETATM    9  C13 UNL     1      28.168  12.630  -2.590  1.00  0.00     0.002 A 
HETATM   10  C14 UNL     1      28.376  11.807  -3.682  1.00  0.00     0.030 A 
HETATM   11  N1  UNL     1      28.165   9.681  -4.749  1.00  0.00    -0.360 N 
HETATM   12  C16 UNL     1      28.829  10.198  -5.926  1.00  0.00     0.156 C 
HETATM   13  C17 UNL     1      27.761   8.370  -4.765  1.00  0.00     0.102 A 
ENDBRANCH   2   3
BRANCH   1  14
HETATM   14  C5  UNL     1      27.053   4.058  -3.679  1.00  0.00    -0.033 A 
HETATM   15  C4  UNL     1      27.921   3.136  -3.078  1.00  0.00     0.014 A 
HETATM   16  C3  UNL     1      27.536   1.821  -2.989  1.00  0.00     0.040 A 
HETATM   17  C2  UNL     1      26.312   1.401  -3.483  1.00  0.00     0.101 A 
HETATM   18  C19 UNL     1      25.451   2.308  -4.076  1.00  0.00     0.102 A 
HETATM   19  C18 UNL     1      25.838   3.640  -4.168  1.00  0.00     0.051 A 
BRANCH  17  20
HETATM   20  O1  UNL     1      25.952   0.061  -3.377  1.00  0.00    -0.353 OA
HETATM   21  C1  UNL     1      26.909  -0.865  -2.942  1.00  0.00     0.210 C 
ENDBRANCH  17  20
BRANCH  18  22
HETATM   22  O2  UNL     1      24.237   1.844  -4.555  1.00  0.00    -0.353 OA
HETATM   23  C20 UNL     1      23.002   2.285  -4.048  1.00  0.00     0.210 C 
ENDBRANCH  18  22
ENDBRANCH   1  14
TORSDOF 4
ENDMDL
MODEL 5
REMARK VINA RESULT: -9.723616368      2.645      4.848
REMARK  4 active torsions:
REMARK  status: ('A' for Active; 'I' for Inactive)
REMARK    1  A    between atoms: O1_2  and  C2_3 
REMARK    2  A    between atoms: C5_6  and  C6_7 
REMARK    3  A    between atoms: C7_8  and  C8_9 
REMARK    4  A    between atoms: C19_21  and  O2_22 
ROOT
HETATM    1  C6  UNL     1      27.964   9.416  -3.253  1.00  0.00     0.012 C 
HETATM    2  C7  UNL     1      27.160  10.175  -2.563  1.00  0.00     0.013 C 
ENDROOT
BRANCH   2   3
HETATM    3  C8  UNL     1      27.627  11.448  -2.005  1.00  0.00    -0.020 A 
HETATM    4  C9  UNL     1      28.181  12.406  -2.867  1.00  0.00     0.026 A 
HETATM    5  C10 UNL     1      28.646  13.624  -2.432  1.00  0.00    -0.009 A 
HETATM    6  C11 UNL     1      29.191  14.563  -3.297  1.00  0.00     0.014 A 
HETATM    7  C15 UNL     1      28.562  13.918  -1.090  1.00  0.00     0.044 A 
HETATM    8  C12 UNL     1      29.655  15.784  -2.855  1.00  0.00     0.001 A 
HETATM    9  C13 UNL     1      29.574  16.079  -1.511  1.00  0.00     0.002 A 
HETATM   10  C14 UNL     1      29.030  15.146  -0.646  1.00  0.00     0.030 A 
HETATM   11  N1  UNL     1      28.035  13.010  -0.254  1.00  0.00    -0.360 N 
HETATM   12  C16 UNL     1      27.941  13.306   1.159  1.00  0.00     0.156 C 
HETATM   13  C17 UNL     1      27.571  11.794  -0.687  1.00  0.00     0.102 A 
ENDBRANCH   2   3
BRANCH   1  14
HETATM   14  C5  UNL     1      27.523   8.155  -3.814  1.00  0.00    -0.033 A 
HETATM   15  C4  UNL     1      26.502   8.200  -4.773  1.00  0.00     0.014 A 
HETATM   16  C3  UNL     1      26.059   7.025  -5.326  1.00  0.00     0.040 A 
HETATM   17  C2  UNL     1      26.603   5.808  -4.950  1.00  0.00     0.101 A 
HETATM   18  C19 UNL     1      27.612   5.759  -4.003  1.00  0.00     0.102 A 
HETATM   19  C18 UNL     1      28.063   6.947  -3.441  1.00  0.00     0.051 A 
BRANCH  17  20
HETATM   20  O1  UNL     1      26.131   4.635  -5.531  1.00  0.00    -0.353 OA
HETATM   21  C1  UNL     1      25.115   3.920  -4.883  1.00  0.00     0.210 C 
ENDBRANCH  17  20
BRANCH  18  22
HETATM   22  O2  UNL     1      28.128   4.521  -3.657  1.00  0.00    -0.353 OA
HETATM   23  C20 UNL     1      29.224   3.942  -4.321  1.00  0.00     0.210 C 
ENDBRANCH  18  22
ENDBRANCH   1  14
TORSDOF 4
ENDMDL
