MODEL 1
REMARK VINA RESULT: -12.438455194      0.000      0.000
REMARK  4 active torsions:
REMARK  status: ('A' for Active; 'I' for Inactive)
REMARK    1  A    between atoms: C3_4  and  C4_5 
REMARK    2  A    between atoms: N2_8  and  C7_9 
REMARK    3  A    between atoms: C7_9  and  C8_10 
REMARK    4  A    between atoms: C12_14  and  C13_15 
ROOT
HETATM    1  N1  UNL     1      28.672   2.831  -4.911  1.00  0.00    -0.192 NA
HETATM    2  C1  UNL     1      27.596   3.301  -5.005  1.00  0.00     0.087 C 
HETATM    3  C2  UNL     1      26.286   3.813  -5.122  1.00  0.00     0.094 C 
HETATM    4  C3  UNL     1      25.837   5.003  -5.102  1.00  0.00     0.024 C 
ENDROOT
BRANCH   4   5
HETATM    5  C4  UNL     1      26.490   6.268  -4.955  1.00  0.00    -0.017 A 
HETATM    6  C5  UNL     1      27.485   6.573  -4.066  1.00  0.00     0.031 A 
HETATM    7  C6  UNL     1      28.007   7.863  -4.063  1.00  0.00     0.111 A 
HETATM    8  N2  UNL     1      27.611   8.845  -4.868  1.00  0.00    -0.299 N 
HETATM    9  N3  UNL     1      26.651   8.545  -5.722  1.00  0.00    -0.309 N 
HETATM   10  C20 UNL     1      26.091   7.336  -5.798  1.00  0.00     0.118 A 
ATOM     11  H3  UNL     1      26.321   9.273  -6.356  1.00  0.00     0.186 HD
BRANCH   8  12
HETATM   12  C7  UNL     1      28.172  10.180  -4.844  1.00  0.00     0.186 C 
BRANCH  12  13
HETATM   13  C8  UNL     1      27.846  10.859  -3.547  1.00  0.00    -0.038 A 
HETATM   14  C9  UNL     1      27.037  10.275  -2.608  1.00  0.00     0.009 A 
HETATM   15  C10 UNL     1      26.764  10.933  -1.433  1.00  0.00     0.001 A 
HETATM   16  C11 UNL     1      27.318  12.194  -1.211  1.00  0.00     0.012 A 
HETATM   17  C12 UNL     1      28.132  12.792  -2.147  1.00  0.00    -0.025 A 
HETATM   18  C19 UNL     1      28.387  12.111  -3.312  1.00  0.00     0.021 A 
BRANCH  17  19
HETATM   19  C13 UNL     1      28.733  14.104  -1.964  1.00  0.00    -0.026 A 
HETATM   20  C14 UNL     1      29.356  14.753  -3.001  1.00  0.00     0.012 A 
HETATM   21  C15 UNL     1      29.942  16.005  -2.875  1.00  0.00     0.001 A 
HETATM   22  C16 UNL     1      29.875  16.595  -1.626  1.00  0.00     0.000 A 
HETATM   23  C17 UNL     1      29.261  15.990  -0.544  1.00  0.00     0.001 A 
HETATM   24  C18 UNL     1      28.692  14.736  -0.736  1.00  0.00     0.012 A 
ENDBRANCH  17  19
ENDBRANCH  12  13
ENDBRANCH   8  12
ENDBRANCH   4   5
TORSDOF 4
ENDMDL
MODEL 2
REMARK VINA RESULT: -12.413016736      0.062      1.000
REMARK  4 active torsions:
REMARK  status: ('A' for Active; 'I' for Inactive)
REMARK    1  A    between atoms: C3_4  and  C4_5 
REMARK    2  A    between atoms: N2_8  and  C7_9 
REMARK    3  A    between atoms: C7_9  and  C8_10 
REMARK    4  A    between atoms: C12_14  and  C13_15 
ROOT
HETATM    1  N1  UNL     1      28.716   2.787  -4.914  1.00  0.00    -0.192 NA
HETATM    2  C1  UNL     1      27.639   3.254  -5.017  1.00  0.00     0.087 C 
HETATM    3  C2  UNL     1      26.329   3.762  -5.146  1.00  0.00     0.094 C 
HETATM    4  C3  UNL     1      25.877   4.951  -5.131  1.00  0.00     0.024 C 
ENDROOT
BRANCH   4   5
HETATM    5  C4  UNL     1      26.524   6.218  -4.978  1.00  0.00    -0.017 A 
HETATM    6  C5  UNL     1      27.487   6.534  -4.057  1.00  0.00     0.031 A 
HETATM    7  C6  UNL     1      28.010   7.825  -4.052  1.00  0.00     0.111 A 
HETATM    8  N2  UNL     1      27.643   8.796  -4.884  1.00  0.00    -0.299 N 
HETATM    9  N3  UNL     1      26.714   8.485  -5.768  1.00  0.00    -0.309 N 
HETATM   10  C20 UNL     1      26.157   7.275  -5.848  1.00  0.00     0.118 A 
ATOM     11  H3  UNL     1      26.407   9.204  -6.422  1.00  0.00     0.186 HD
BRANCH   8  12
HETATM   12  C7  UNL     1      28.204  10.131  -4.858  1.00  0.00     0.186 C 
BRANCH  12  13
HETATM   13  C8  UNL     1      27.857  10.816  -3.569  1.00  0.00    -0.038 A 
HETATM   14  C9  UNL     1      27.035  10.236  -2.640  1.00  0.00     0.009 A 
HETATM   15  C10 UNL     1      26.743  10.900  -1.473  1.00  0.00     0.001 A 
HETATM   16  C11 UNL     1      27.292  12.163  -1.249  1.00  0.00     0.012 A 
HETATM   17  C12 UNL     1      28.120  12.757  -2.175  1.00  0.00    -0.025 A 
HETATM   18  C19 UNL     1      28.394  12.070  -3.333  1.00  0.00     0.021 A 
BRANCH  17  19
HETATM   19  C13 UNL     1      28.717  14.070  -1.989  1.00  0.00    -0.026 A 
HETATM   20  C14 UNL     1      28.716  14.686  -0.762  1.00  0.00     0.012 A 
HETATM   21  C15 UNL     1      29.273  15.937  -0.537  1.00  0.00     0.001 A 
HETATM   22  C16 UNL     1      29.847  16.563  -1.628  1.00  0.00     0.000 A 
HETATM   23  C17 UNL     1      29.878  15.992  -2.889  1.00  0.00     0.001 A 
HETATM   24  C18 UNL     1      29.303  14.736  -3.048  1.00  0.00     0.012 A 
ENDBRANCH  17  19
ENDBRANCH  12  13
ENDBRANCH   8  12
ENDBRANCH   4   5
TORSDOF 4
ENDMDL
MODEL 3
REMARK VINA RESULT: -12.093014024      0.553      1.022
REMARK  4 active torsions:
REMARK  status: ('A' for Active; 'I' for Inactive)
REMARK    1  A    between atoms: C3_4  and  C4_5 
REMARK    2  A    between atoms: N2_8  and  C7_9 
REMARK    3  A    between atoms: C7_9  and  C8_10 
REMARK    4  A    between atoms: C12_14  and  C13_15 
ROOT
HETATM    1  N1  UNL     1      28.709   2.703  -4.898  1.00  0.00    -0.192 NA
HETATM    2  C1  UNL     1      27.597   3.091  -4.910  1.00  0.00     0.087 C 
HETATM    3  C2  UNL     1      26.248   3.506  -4.922  1.00  0.00     0.094 C 
HETATM    4  C3  UNL     1      25.718   4.661  -4.964  1.00  0.00     0.024 C 
ENDROOT
BRANCH   4   5
HETATM    5  C4  UNL     1      26.287   5.973  -5.015  1.00  0.00    -0.017 A 
HETATM    6  C5  UNL     1      25.939   6.979  -5.877  1.00  0.00     0.031 A 
HETATM    7  C6  UNL     1      26.604   8.199  -5.783  1.00  0.00     0.111 A 
HETATM    8  N2  UNL     1      27.569   8.474  -4.909  1.00  0.00    -0.299 N 
HETATM    9  N3  UNL     1      27.899   7.500  -4.083  1.00  0.00    -0.309 N 
HETATM   10  C20 UNL     1      27.318   6.299  -4.098  1.00  0.00     0.118 A 
ATOM     11  H3  UNL     1      28.635   7.674  -3.399  1.00  0.00     0.186 HD
BRANCH   8  12
HETATM   12  C7  UNL     1      28.243   9.753  -4.833  1.00  0.00     0.186 C 
BRANCH  12  13
HETATM   13  C8  UNL     1      27.825  10.489  -3.595  1.00  0.00    -0.038 A 
HETATM   14  C9  UNL     1      26.943   9.950  -2.695  1.00  0.00     0.009 A 
HETATM   15  C10 UNL     1      26.587  10.661  -1.575  1.00  0.00     0.001 A 
HETATM   16  C11 UNL     1      27.133  11.927  -1.365  1.00  0.00     0.012 A 
HETATM   17  C12 UNL     1      28.021  12.480  -2.260  1.00  0.00    -0.025 A 
HETATM   18  C19 UNL     1      28.358  11.747  -3.373  1.00  0.00     0.021 A 
BRANCH  17  19
HETATM   19  C13 UNL     1      28.617  13.795  -2.089  1.00  0.00    -0.026 A 
HETATM   20  C14 UNL     1      29.242  14.435  -3.130  1.00  0.00     0.012 A 
HETATM   21  C15 UNL     1      29.825  15.690  -3.014  1.00  0.00     0.001 A 
HETATM   22  C16 UNL     1      29.751  16.293  -1.772  1.00  0.00     0.000 A 
HETATM   23  C17 UNL     1      29.134  15.696  -0.686  1.00  0.00     0.001 A 
HETATM   24  C18 UNL     1      28.569  14.439  -0.867  1.00  0.00     0.012 A 
ENDBRANCH  17  19
ENDBRANCH  12  13
ENDBRANCH   8  12
ENDBRANCH   4   5
TORSDOF 4
ENDMDL
MODEL 4
REMARK VINA RESULT: -11.364522761      1.732      3.340
REMARK  4 active torsions:
REMARK  status: ('A' for Active; 'I' for Inactive)
REMARK    1  A    between atoms: C3_4  and  C4_5 
REMARK    2  A    between atoms: N2_8  and  C7_9 
REMARK    3  A    between atoms: C7_9  and  C8_10 
REMARK    4  A    between atoms: C12_14  and  C13_15 
ROOT
HETATM    1  N1  UNL     1      27.306   0.821  -1.895  1.00  0.00    -0.192 NA
HETATM    2  C1  UNL     1      27.920   1.185  -2.832  1.00  0.00     0.087 C 
HETATM    3  C2  UNL     1      28.681   1.574  -3.955  1.00  0.00     0.094 C 
HETATM    4  C3  UNL     1      28.708   2.654  -4.626  1.00  0.00     0.024 C 
ENDROOT
BRANCH   4   5
HETATM    5  C4  UNL     1      27.981   3.879  -4.496  1.00  0.00    -0.017 A 
HETATM    6  C5  UNL     1      26.793   4.190  -5.103  1.00  0.00     0.031 A 
HETATM    7  C6  UNL     1      26.225   5.437  -4.860  1.00  0.00     0.111 A 
HETATM    8  N2  UNL     1      26.750   6.371  -4.071  1.00  0.00    -0.299 N 
HETATM    9  N3  UNL     1      27.894   6.065  -3.490  1.00  0.00    -0.309 N 
HETATM   10  C20 UNL     1      28.512   4.896  -3.663  1.00  0.00     0.118 A 
ATOM     11  H3  UNL     1      28.327   6.757  -2.878  1.00  0.00     0.186 HD
BRANCH   8  12
HETATM   12  C7  UNL     1      26.136   7.662  -3.835  1.00  0.00     0.186 C 
BRANCH  12  13
HETATM   13  C8  UNL     1      27.041   8.762  -4.302  1.00  0.00    -0.038 A 
HETATM   14  C9  UNL     1      27.684   8.707  -5.511  1.00  0.00     0.009 A 
HETATM   15  C10 UNL     1      28.506   9.738  -5.898  1.00  0.00     0.001 A 
HETATM   16  C11 UNL     1      28.675  10.833  -5.052  1.00  0.00     0.012 A 
HETATM   17  C12 UNL     1      28.035  10.901  -3.835  1.00  0.00    -0.025 A 
HETATM   18  C19 UNL     1      27.220   9.856  -3.473  1.00  0.00     0.021 A 
BRANCH  17  19
HETATM   19  C13 UNL     1      28.178  12.019  -2.916  1.00  0.00    -0.026 A 
HETATM   20  C14 UNL     1      27.680  11.960  -1.638  1.00  0.00     0.012 A 
HETATM   21  C15 UNL     1      27.793  13.001  -0.727  1.00  0.00     0.001 A 
HETATM   22  C16 UNL     1      28.446  14.138  -1.165  1.00  0.00     0.000 A 
HETATM   23  C17 UNL     1      28.969  14.256  -2.441  1.00  0.00     0.001 A 
HETATM   24  C18 UNL     1      28.824  13.177  -3.306  1.00  0.00     0.012 A 
ENDBRANCH  17  19
ENDBRANCH  12  13
ENDBRANCH   8  12
ENDBRANCH   4   5
TORSDOF 4
ENDMDL
MODEL 5
REMARK VINA RESULT: -11.362017129      1.723      3.141
REMARK  4 active torsions:
REMARK  status: ('A' for Active; 'I' for Inactive)
REMARK    1  A    between atoms: C3_4  and  C4_5 
REMARK    2  A    between atoms: N2_8  and  C7_9 
REMARK    3  A    between atoms: C7_9  and  C8_10 
REMARK    4  A    between atoms: C12_14  and  C13_15 
ROOT
HETATM    1  N1  UNL     1      27.782   0.982  -1.624  1.00  0.00    -0.192 NA
HETATM    2  C1  UNL     1      28.102   1.270  -2.720  1.00  0.00     0.087 C 
HETATM    3  C2  UNL     1      28.509   1.565  -4.039  1.00  0.00     0.094 C 
HETATM    4  C3  UNL     1      28.357   2.603  -4.759  1.00  0.00     0.024 C 
ENDROOT
BRANCH   4   5
HETATM    5  C4  UNL     1      27.720   3.858  -4.505  1.00  0.00    -0.017 A 
HETATM    6  C5  UNL     1      26.471   4.237  -4.920  1.00  0.00     0.031 A 
HETATM    7  C6  UNL     1      26.009   5.504  -4.578  1.00  0.00     0.111 A 
HETATM    8  N2  UNL     1      26.693   6.397  -3.868  1.00  0.00    -0.299 N 
HETATM    9  N3  UNL     1      27.895   6.026  -3.472  1.00  0.00    -0.309 N 
HETATM   10  C20 UNL     1      28.422   4.832  -3.751  1.00  0.00     0.118 A 
ATOM     11  H3  UNL     1      28.450   6.685  -2.926  1.00  0.00     0.186 HD
BRANCH   8  12
HETATM   12  C7  UNL     1      26.187   7.711  -3.526  1.00  0.00     0.186 C 
BRANCH  12  13
HETATM   13  C8  UNL     1      27.075   8.775  -4.098  1.00  0.00    -0.038 A 
HETATM   14  C9  UNL     1      27.678   8.636  -5.320  1.00  0.00     0.009 A 
HETATM   15  C10 UNL     1      28.485   9.637  -5.804  1.00  0.00     0.001 A 
HETATM   16  C11 UNL     1      28.679  10.789  -5.042  1.00  0.00     0.012 A 
HETATM   17  C12 UNL     1      28.079  10.942  -3.812  1.00  0.00    -0.025 A 
HETATM   18  C19 UNL     1      27.278   9.924  -3.352  1.00  0.00     0.021 A 
BRANCH  17  19
HETATM   19  C13 UNL     1      28.249  12.121  -2.979  1.00  0.00    -0.026 A 
HETATM   20  C14 UNL     1      28.919  13.228  -3.439  1.00  0.00     0.012 A 
HETATM   21  C15 UNL     1      29.106  14.376  -2.681  1.00  0.00     0.001 A 
HETATM   22  C16 UNL     1      28.578  14.365  -1.403  1.00  0.00     0.000 A 
HETATM   23  C17 UNL     1      27.893  13.279  -0.885  1.00  0.00     0.001 A 
HETATM   24  C18 UNL     1      27.739  12.160  -1.695  1.00  0.00     0.012 A 
ENDBRANCH  17  19
ENDBRANCH  12  13
ENDBRANCH   8  12
ENDBRANCH   4   5
TORSDOF 4
ENDMDL
