MODEL 1
REMARK VINA RESULT: -6.301203723      0.000      0.000
REMARK  6 active torsions:
REMARK  status: ('A' for Active; 'I' for Inactive)
REMARK    1  A    between atoms: C1_2  and  C2_3 
REMARK    2  A    between atoms: N1_5  and  C4_6 
REMARK    3  A    between atoms: C4_6  and  C5_7 
REMARK       I    between atoms: C5_7  and  N2_9 
REMARK    4  A    between atoms: N2_9  and  C6_10 
REMARK       I    between atoms: N3_17  and  C13_18 
REMARK    5  A    between atoms: C13_18  and  O4_20 
REMARK    6  A    between atoms: O4_20  and  C14_21 
ROOT
HETATM    1  C2  UNL     1       6.122  -3.803   4.112  1.00  0.00     0.179 C 
HETATM    2  C3  UNL     1       4.609  -3.497   4.015  1.00  0.00     0.305 C 
HETATM    3  N1  UNL     1       3.966  -4.579   4.772  1.00  0.00     0.102 N 
HETATM    4  C11 UNL     1       4.142  -4.401   6.176  1.00  0.00     0.293 C 
HETATM    5  C12 UNL     1       5.373  -3.588   6.522  1.00  0.00     0.159 C 
HETATM    6  N3  UNL     1       6.415  -3.648   5.521  1.00  0.00    -0.314 N 
HETATM    7  C13 UNL     1       7.789  -3.537   5.947  1.00  0.00     0.363 C 
HETATM    8  O3  UNL     1       8.167  -3.412   7.106  1.00  0.00    -0.238 OA
ENDROOT
BRANCH   3   9
HETATM    9  C4  UNL     1       2.593  -4.547   4.395  1.00  0.00     0.390 C 
BRANCH   9  10
HETATM   10  C5  UNL     1       2.238  -5.448   3.234  1.00  0.00     0.315 C 
HETATM   11  O2  UNL     1       2.033  -6.639   3.574  1.00  0.00    -0.256 OA
HETATM   12  N2  UNL     1       2.169  -4.976   1.963  1.00  0.00    -0.408 NA
BRANCH  12  13
HETATM   13  C6  UNL     1       2.098  -4.499   0.677  1.00  0.00     0.167 C 
HETATM   14  C7  UNL     1       3.277  -5.037  -0.215  1.00  0.00     0.039 C 
HETATM   15  C8  UNL     1       2.771  -4.375  -1.514  1.00  0.00     0.003 C 
HETATM   16  C9  UNL     1       2.597  -2.933  -1.037  1.00  0.00     0.003 C 
HETATM   17  C10 UNL     1       2.393  -3.023   0.488  1.00  0.00     0.039 C 
ENDBRANCH  12  13
ENDBRANCH   9  10
ENDBRANCH   3   9
BRANCH   1  18
HETATM   18  C1  UNL     1       6.386  -5.192   3.732  1.00  0.00     0.258 C 
HETATM   19  O1  UNL     1       6.113  -5.568   2.564  1.00  0.00    -0.305 OA
ENDBRANCH   1  18
BRANCH   7  20
HETATM   20  O4  UNL     1       8.766  -3.574   4.930  1.00  0.00    -0.298 OA
BRANCH  20  21
HETATM   21  C14 UNL     1      10.091  -3.936   5.330  1.00  0.00     0.133 C 
HETATM   22  C15 UNL     1      10.383  -5.299   4.739  1.00  0.00     0.032 C 
HETATM   23  C16 UNL     1      11.888  -5.352   4.625  1.00  0.00     0.002 C 
HETATM   24  C17 UNL     1      12.364  -3.931   4.547  1.00  0.00     0.002 C 
HETATM   25  C18 UNL     1      11.116  -3.070   4.649  1.00  0.00     0.032 C 
ENDBRANCH  20  21
ENDBRANCH   7  20
TORSDOF 6
ENDMDL
MODEL 2
REMARK VINA RESULT: -6.238620410      2.421      3.750
REMARK  6 active torsions:
REMARK  status: ('A' for Active; 'I' for Inactive)
REMARK    1  A    between atoms: C1_2  and  C2_3 
REMARK    2  A    between atoms: N1_5  and  C4_6 
REMARK    3  A    between atoms: C4_6  and  C5_7 
REMARK       I    between atoms: C5_7  and  N2_9 
REMARK    4  A    between atoms: N2_9  and  C6_10 
REMARK       I    between atoms: N3_17  and  C13_18 
REMARK    5  A    between atoms: C13_18  and  O4_20 
REMARK    6  A    between atoms: O4_20  and  C14_21 
ROOT
HETATM    1  C2  UNL     1       6.284  -4.643   3.903  1.00  0.00     0.179 C 
HETATM    2  C3  UNL     1       4.781  -4.380   3.647  1.00  0.00     0.305 C 
HETATM    3  N1  UNL     1       4.093  -5.087   4.736  1.00  0.00     0.102 N 
HETATM    4  C11 UNL     1       4.236  -4.391   5.972  1.00  0.00     0.293 C 
HETATM    5  C12 UNL     1       5.475  -3.520   6.025  1.00  0.00     0.159 C 
HETATM    6  N3  UNL     1       6.542  -3.967   5.157  1.00  0.00    -0.314 N 
HETATM    7  C13 UNL     1       7.906  -3.718   5.554  1.00  0.00     0.363 C 
HETATM    8  O3  UNL     1       8.256  -3.166   6.591  1.00  0.00    -0.238 OA
ENDROOT
BRANCH   3   9
HETATM    9  C4  UNL     1       2.732  -5.186   4.329  1.00  0.00     0.390 C 
BRANCH   9  10
HETATM   10  C5  UNL     1       2.385  -6.462   3.597  1.00  0.00     0.315 C 
HETATM   11  O2  UNL     1       1.641  -6.278   2.602  1.00  0.00    -0.256 OA
HETATM   12  N2  UNL     1       2.845  -7.669   4.015  1.00  0.00    -0.408 NA
BRANCH  12  13
HETATM   13  C6  UNL     1       3.310  -8.891   4.436  1.00  0.00     0.167 C 
HETATM   14  C7  UNL     1       4.408  -8.748   5.555  1.00  0.00     0.039 C 
HETATM   15  C8  UNL     1       4.558 -10.266   5.786  1.00  0.00     0.003 C 
HETATM   16  C9  UNL     1       4.798 -10.740   4.353  1.00  0.00     0.003 C 
HETATM   17  C10 UNL     1       4.164  -9.664   3.449  1.00  0.00     0.039 C 
ENDBRANCH  12  13
ENDBRANCH   9  10
ENDBRANCH   3   9
BRANCH   1  18
HETATM   18  C1  UNL     1       6.526  -6.076   4.088  1.00  0.00     0.258 C 
HETATM   19  O1  UNL     1       6.311  -6.860   3.130  1.00  0.00    -0.305 OA
ENDBRANCH   1  18
BRANCH   7  20
HETATM   20  O4  UNL     1       8.909  -4.149   4.661  1.00  0.00    -0.298 OA
BRANCH  20  21
HETATM   21  C14 UNL     1      10.080  -4.728   5.245  1.00  0.00     0.133 C 
HETATM   22  C15 UNL     1      10.229  -6.120   4.670  1.00  0.00     0.032 C 
HETATM   23  C16 UNL     1      11.705  -6.423   4.781  1.00  0.00     0.002 C 
HETATM   24  C17 UNL     1      12.414  -5.101   4.813  1.00  0.00     0.002 C 
HETATM   25  C18 UNL     1      11.325  -4.045   4.749  1.00  0.00     0.032 C 
ENDBRANCH  20  21
ENDBRANCH   7  20
TORSDOF 6
ENDMDL
MODEL 3
REMARK VINA RESULT: -6.098343950      0.851      1.030
REMARK  6 active torsions:
REMARK  status: ('A' for Active; 'I' for Inactive)
REMARK    1  A    between atoms: C1_2  and  C2_3 
REMARK    2  A    between atoms: N1_5  and  C4_6 
REMARK    3  A    between atoms: C4_6  and  C5_7 
REMARK       I    between atoms: C5_7  and  N2_9 
REMARK    4  A    between atoms: N2_9  and  C6_10 
REMARK       I    between atoms: N3_17  and  C13_18 
REMARK    5  A    between atoms: C13_18  and  O4_20 
REMARK    6  A    between atoms: O4_20  and  C14_21 
ROOT
HETATM    1  C2  UNL     1       6.282  -4.523   3.919  1.00  0.00     0.179 C 
HETATM    2  C3  UNL     1       4.790  -4.196   3.674  1.00  0.00     0.305 C 
HETATM    3  N1  UNL     1       4.075  -4.935   4.724  1.00  0.00     0.102 N 
HETATM    4  C11 UNL     1       4.237  -4.310   5.995  1.00  0.00     0.293 C 
HETATM    5  C12 UNL     1       5.505  -3.486   6.095  1.00  0.00     0.159 C 
HETATM    6  N3  UNL     1       6.559  -3.923   5.207  1.00  0.00    -0.314 N 
HETATM    7  C13 UNL     1       7.929  -3.741   5.619  1.00  0.00     0.363 C 
HETATM    8  O3  UNL     1       8.294  -3.256   6.684  1.00  0.00    -0.238 OA
ENDROOT
BRANCH   3   9
HETATM    9  C4  UNL     1       2.713  -4.966   4.310  1.00  0.00     0.390 C 
BRANCH   9  10
HETATM   10  C5  UNL     1       2.372  -6.085   3.352  1.00  0.00     0.315 C 
HETATM   11  O2  UNL     1       1.925  -7.110   3.925  1.00  0.00    -0.256 OA
HETATM   12  N2  UNL     1       2.555  -5.956   2.013  1.00  0.00    -0.408 NA
BRANCH  12  13
HETATM   13  C6  UNL     1       2.740  -5.826   0.659  1.00  0.00     0.167 C 
HETATM   14  C7  UNL     1       4.253  -5.975   0.254  1.00  0.00     0.039 C 
HETATM   15  C8  UNL     1       3.994  -5.870  -1.263  1.00  0.00     0.003 C 
HETATM   16  C9  UNL     1       3.177  -4.580  -1.315  1.00  0.00     0.003 C 
HETATM   17  C10 UNL     1       2.538  -4.438   0.081  1.00  0.00     0.039 C 
ENDBRANCH  12  13
ENDBRANCH   9  10
ENDBRANCH   3   9
BRANCH   1  18
HETATM   18  C1  UNL     1       6.475  -5.971   4.028  1.00  0.00     0.258 C 
HETATM   19  O1  UNL     1       6.216  -6.698   3.037  1.00  0.00    -0.305 OA
ENDBRANCH   1  18
BRANCH   7  20
HETATM   20  O4  UNL     1       8.920  -4.159   4.706  1.00  0.00    -0.298 OA
BRANCH  20  21
HETATM   21  C14 UNL     1      10.072  -4.801   5.261  1.00  0.00     0.133 C 
HETATM   22  C15 UNL     1      10.151  -6.187   4.655  1.00  0.00     0.032 C 
HETATM   23  C16 UNL     1      11.613  -6.557   4.739  1.00  0.00     0.002 C 
HETATM   24  C17 UNL     1      12.381  -5.269   4.788  1.00  0.00     0.002 C 
HETATM   25  C18 UNL     1      11.339  -4.164   4.763  1.00  0.00     0.032 C 
ENDBRANCH  20  21
ENDBRANCH   7  20
TORSDOF 6
ENDMDL
MODEL 4
REMARK VINA RESULT: -6.059184394      1.054      1.089
REMARK  6 active torsions:
REMARK  status: ('A' for Active; 'I' for Inactive)
REMARK    1  A    between atoms: C1_2  and  C2_3 
REMARK    2  A    between atoms: N1_5  and  C4_6 
REMARK    3  A    between atoms: C4_6  and  C5_7 
REMARK       I    between atoms: C5_7  and  N2_9 
REMARK    4  A    between atoms: N2_9  and  C6_10 
REMARK       I    between atoms: N3_17  and  C13_18 
REMARK    5  A    between atoms: C13_18  and  O4_20 
REMARK    6  A    between atoms: O4_20  and  C14_21 
ROOT
HETATM    1  C2  UNL     1       6.268  -4.594   3.927  1.00  0.00     0.179 C 
HETATM    2  C3  UNL     1       4.760  -4.345   3.685  1.00  0.00     0.305 C 
HETATM    3  N1  UNL     1       4.089  -5.080   4.766  1.00  0.00     0.102 N 
HETATM    4  C11 UNL     1       4.231  -4.404   6.013  1.00  0.00     0.293 C 
HETATM    5  C12 UNL     1       5.459  -3.519   6.073  1.00  0.00     0.159 C 
HETATM    6  N3  UNL     1       6.526  -3.937   5.191  1.00  0.00    -0.314 N 
HETATM    7  C13 UNL     1       7.889  -3.677   5.584  1.00  0.00     0.363 C 
HETATM    8  O3  UNL     1       8.239  -3.139   6.629  1.00  0.00    -0.238 OA
ENDROOT
BRANCH   3   9
HETATM    9  C4  UNL     1       2.727  -5.188   4.366  1.00  0.00     0.390 C 
BRANCH   9  10
HETATM   10  C5  UNL     1       2.161  -3.947   3.714  1.00  0.00     0.315 C 
HETATM   11  O2  UNL     1       1.814  -3.067   4.540  1.00  0.00    -0.256 OA
HETATM   12  N2  UNL     1       2.047  -3.841   2.366  1.00  0.00    -0.408 NA
BRANCH  12  13
HETATM   13  C6  UNL     1       1.932  -3.732   1.002  1.00  0.00     0.167 C 
HETATM   14  C7  UNL     1       2.918  -4.701   0.249  1.00  0.00     0.039 C 
HETATM   15  C8  UNL     1       2.405  -4.341  -1.161  1.00  0.00     0.003 C 
HETATM   16  C9  UNL     1       2.513  -2.817  -1.112  1.00  0.00     0.003 C 
HETATM   17  C10 UNL     1       2.444  -2.444   0.383  1.00  0.00     0.039 C 
ENDBRANCH  12  13
ENDBRANCH   9  10
ENDBRANCH   3   9
BRANCH   1  18
HETATM   18  C1  UNL     1       6.529  -6.026   4.085  1.00  0.00     0.258 C 
HETATM   19  O1  UNL     1       6.310  -6.797   3.118  1.00  0.00    -0.305 OA
ENDBRANCH   1  18
BRANCH   7  20
HETATM   20  O4  UNL     1       8.892  -4.080   4.677  1.00  0.00    -0.298 OA
BRANCH  20  21
HETATM   21  C14 UNL     1      10.082  -4.636   5.245  1.00  0.00     0.133 C 
HETATM   22  C15 UNL     1      10.245  -6.029   4.672  1.00  0.00     0.032 C 
HETATM   23  C16 UNL     1      11.727  -6.306   4.761  1.00  0.00     0.002 C 
HETATM   24  C17 UNL     1      12.415  -4.972   4.776  1.00  0.00     0.002 C 
HETATM   25  C18 UNL     1      11.307  -3.935   4.726  1.00  0.00     0.032 C 
ENDBRANCH  20  21
ENDBRANCH   7  20
TORSDOF 6
ENDMDL
MODEL 5
REMARK VINA RESULT: -6.051694393      1.854      7.124
REMARK  6 active torsions:
REMARK  status: ('A' for Active; 'I' for Inactive)
REMARK    1  A    between atoms: C1_2  and  C2_3 
REMARK    2  A    between atoms: N1_5  and  C4_6 
REMARK    3  A    between atoms: C4_6  and  C5_7 
REMARK       I    between atoms: C5_7  and  N2_9 
REMARK    4  A    between atoms: N2_9  and  C6_10 
REMARK       I    between atoms: N3_17  and  C13_18 
REMARK    5  A    between atoms: C13_18  and  O4_20 
REMARK    6  A    between atoms: O4_20  and  C14_21 
ROOT
HETATM    1  C2  UNL     1       4.898  -4.980   4.278  1.00  0.00     0.179 C 
HETATM    2  C3  UNL     1       5.155  -4.161   5.565  1.00  0.00     0.305 C 
HETATM    3  N1  UNL     1       5.829  -2.943   5.097  1.00  0.00     0.102 N 
HETATM    4  C11 UNL     1       4.912  -2.063   4.449  1.00  0.00     0.293 C 
HETATM    5  C12 UNL     1       3.712  -2.781   3.865  1.00  0.00     0.159 C 
HETATM    6  N3  UNL     1       3.963  -4.166   3.532  1.00  0.00    -0.314 N 
HETATM    7  C13 UNL     1       3.244  -4.751   2.428  1.00  0.00     0.363 C 
HETATM    8  O3  UNL     1       2.434  -4.168   1.715  1.00  0.00    -0.238 OA
ENDROOT
BRANCH   3   9
HETATM    9  C4  UNL     1       6.407  -2.355   6.257  1.00  0.00     0.390 C 
BRANCH   9  10
HETATM   10  C5  UNL     1       7.601  -3.099   6.811  1.00  0.00     0.315 C 
HETATM   11  O2  UNL     1       7.595  -3.186   8.064  1.00  0.00    -0.256 OA
HETATM   12  N2  UNL     1       8.568  -3.599   5.999  1.00  0.00    -0.408 NA
BRANCH  12  13
HETATM   13  C6  UNL     1       9.545  -4.105   5.178  1.00  0.00     0.167 C 
HETATM   14  C7  UNL     1      10.082  -5.493   5.690  1.00  0.00     0.039 C 
HETATM   15  C8  UNL     1      11.024  -5.720   4.489  1.00  0.00     0.003 C 
HETATM   16  C9  UNL     1      11.800  -4.404   4.495  1.00  0.00     0.003 C 
HETATM   17  C10 UNL     1      10.879  -3.383   5.193  1.00  0.00     0.039 C 
ENDBRANCH  12  13
ENDBRANCH   9  10
ENDBRANCH   3   9
BRANCH   1  18
HETATM   18  C1  UNL     1       6.133  -5.103   3.498  1.00  0.00     0.258 C 
HETATM   19  O1  UNL     1       6.916  -6.055   3.741  1.00  0.00    -0.305 OA
ENDBRANCH   1  18
BRANCH   7  20
HETATM   20  O4  UNL     1       3.504  -6.112   2.161  1.00  0.00    -0.298 OA
BRANCH  20  21
HETATM   21  C14 UNL     1       3.494  -6.507   0.785  1.00  0.00     0.133 C 
HETATM   22  C15 UNL     1       4.873  -6.225   0.226  1.00  0.00     0.032 C 
HETATM   23  C16 UNL     1       5.020  -7.186  -0.930  1.00  0.00     0.002 C 
HETATM   24  C17 UNL     1       4.094  -8.335  -0.655  1.00  0.00     0.002 C 
HETATM   25  C18 UNL     1       3.398  -8.002   0.653  1.00  0.00     0.032 C 
ENDBRANCH  20  21
ENDBRANCH   7  20
TORSDOF 6
ENDMDL
