MODEL 1
REMARK VINA RESULT: -6.537550153      0.000      0.000
REMARK  5 active torsions:
REMARK  status: ('A' for Active; 'I' for Inactive)
REMARK    1  A    between atoms: C2_2  and  C3_3 
REMARK    2  A    between atoms: C2_2  and  C8_10 
REMARK    3  A    between atoms: C3_3  and  N1_4 
REMARK    4  A    between atoms: C8_10  and  N2_11 
REMARK       I    between atoms: N3_14  and  C11_15 
REMARK       I    between atoms: C11_15  and  N4_17 
REMARK    5  A    between atoms: N4_17  and  C12_19 
ROOT
HETATM    1  N2  UNL     1       4.239  -4.801   4.721  1.00  0.00    -0.390 N 
HETATM    2  C9  UNL     1       4.468  -3.646   5.455  1.00  0.00     0.141 C 
HETATM    3  C10 UNL     1       5.836  -3.620   6.146  1.00  0.00     0.147 C 
HETATM    4  N3  UNL     1       6.861  -3.880   5.162  1.00  0.00    -0.331 N 
HETATM    5  C11 UNL     1       8.210  -3.624   5.558  1.00  0.00     0.318 C 
HETATM    6  O2  UNL     1       8.479  -3.211   6.712  1.00  0.00    -0.247 OA
HETATM    7  N4  UNL     1       9.283  -3.832   4.656  1.00  0.00    -0.338 N 
ATOM      8  H4  UNL     1       9.092  -4.167   3.711  1.00  0.00     0.164 HD
HETATM    9  C18 UNL     1       6.491  -4.378   3.865  1.00  0.00     0.147 C 
HETATM   10  C19 UNL     1       5.309  -5.332   3.951  1.00  0.00     0.141 C 
ENDROOT
BRANCH   1  11
HETATM   11  C8  UNL     1       3.111  -5.590   4.801  1.00  0.00     0.064 C 
BRANCH  11  12
HETATM   12  C2  UNL     1       3.091  -6.849   5.621  1.00  0.00     0.038 C 
HETATM   13  C1  UNL     1       2.106  -6.565   6.763  1.00  0.00     0.017 C 
BRANCH  12  14
HETATM   14  C3  UNL     1       2.732  -8.039   4.816  1.00  0.00     0.136 C 
BRANCH  14  15
HETATM   15  N1  UNL     1       3.765  -8.673   4.076  1.00  0.00    -0.369 N 
HETATM   16  C4  UNL     1       3.816  -8.577   2.692  1.00  0.00     0.089 C 
HETATM   17  C5  UNL     1       5.185  -8.793   2.082  1.00  0.00     0.212 C 
HETATM   18  O1  UNL     1       5.949  -9.669   2.881  1.00  0.00    -0.381 OA
HETATM   19  C6  UNL     1       6.212  -8.957   4.050  1.00  0.00     0.212 C 
HETATM   20  C7  UNL     1       4.932  -8.873   4.827  1.00  0.00     0.089 C 
ENDBRANCH  14  15
ENDBRANCH  12  14
ENDBRANCH  11  12
ENDBRANCH   1  11
BRANCH   7  21
HETATM   21  C12 UNL     1      10.647  -3.573   5.065  1.00  0.00     0.086 C 
HETATM   22  C13 UNL     1      11.241  -2.349   4.403  1.00  0.00     0.025 C 
HETATM   23  C14 UNL     1      12.683  -2.547   4.022  1.00  0.00     0.002 C 
HETATM   24  C15 UNL     1      13.461  -3.378   4.990  1.00  0.00     0.000 C 
HETATM   25  C16 UNL     1      12.803  -4.640   5.425  1.00  0.00     0.002 C 
HETATM   26  C17 UNL     1      11.453  -4.810   4.793  1.00  0.00     0.025 C 
ENDBRANCH   7  21
TORSDOF 5
ENDMDL
MODEL 2
REMARK VINA RESULT: -6.475101029      1.338      1.766
REMARK  5 active torsions:
REMARK  status: ('A' for Active; 'I' for Inactive)
REMARK    1  A    between atoms: C2_2  and  C3_3 
REMARK    2  A    between atoms: C2_2  and  C8_10 
REMARK    3  A    between atoms: C3_3  and  N1_4 
REMARK    4  A    between atoms: C8_10  and  N2_11 
REMARK       I    between atoms: N3_14  and  C11_15 
REMARK       I    between atoms: C11_15  and  N4_17 
REMARK    5  A    between atoms: N4_17  and  C12_19 
ROOT
HETATM    1  N2  UNL     1       4.239  -4.890   4.695  1.00  0.00    -0.390 N 
HETATM    2  C9  UNL     1       4.464  -3.651   5.280  1.00  0.00     0.141 C 
HETATM    3  C10 UNL     1       5.809  -3.553   6.007  1.00  0.00     0.147 C 
HETATM    4  N3  UNL     1       6.860  -3.950   5.099  1.00  0.00    -0.331 N 
HETATM    5  C11 UNL     1       8.200  -3.661   5.503  1.00  0.00     0.318 C 
HETATM    6  O2  UNL     1       8.439  -3.105   6.602  1.00  0.00    -0.247 OA
HETATM    7  N4  UNL     1       9.297  -3.997   4.671  1.00  0.00    -0.338 N 
ATOM      8  H4  UNL     1       9.130  -4.450   3.772  1.00  0.00     0.164 HD
HETATM    9  C18 UNL     1       6.522  -4.608   3.866  1.00  0.00     0.147 C 
HETATM   10  C19 UNL     1       5.323  -5.529   4.036  1.00  0.00     0.141 C 
ENDROOT
BRANCH   1  11
HETATM   11  C8  UNL     1       3.096  -5.649   4.838  1.00  0.00     0.064 C 
BRANCH  11  12
HETATM   12  C2  UNL     1       2.902  -6.557   6.019  1.00  0.00     0.038 C 
HETATM   13  C1  UNL     1       1.878  -5.841   6.910  1.00  0.00     0.017 C 
BRANCH  12  14
HETATM   14  C3  UNL     1       2.483  -7.919   5.617  1.00  0.00     0.136 C 
BRANCH  14  15
HETATM   15  N1  UNL     1       3.299  -9.009   6.019  1.00  0.00    -0.369 N 
HETATM   16  C4  UNL     1       2.781 -10.051   6.776  1.00  0.00     0.089 C 
HETATM   17  C5  UNL     1       3.538 -11.358   6.674  1.00  0.00     0.212 C 
HETATM   18  O1  UNL     1       4.904 -11.120   6.417  1.00  0.00    -0.381 OA
HETATM   19  C6  UNL     1       4.945 -10.607   5.121  1.00  0.00     0.212 C 
HETATM   20  C7  UNL     1       4.395  -9.213   5.168  1.00  0.00     0.089 C 
ENDBRANCH  14  15
ENDBRANCH  12  14
ENDBRANCH  11  12
ENDBRANCH   1  11
BRANCH   7  21
HETATM   21  C12 UNL     1      10.652  -3.703   5.088  1.00  0.00     0.086 C 
HETATM   22  C13 UNL     1      11.205  -2.445   4.458  1.00  0.00     0.025 C 
HETATM   23  C14 UNL     1      12.653  -2.585   4.074  1.00  0.00     0.002 C 
HETATM   24  C15 UNL     1      13.458  -3.414   5.022  1.00  0.00     0.000 C 
HETATM   25  C16 UNL     1      12.842  -4.707   5.425  1.00  0.00     0.002 C 
HETATM   26  C17 UNL     1      11.498  -4.906   4.788  1.00  0.00     0.025 C 
ENDBRANCH   7  21
TORSDOF 5
ENDMDL
MODEL 3
REMARK VINA RESULT: -6.422686968      5.172      6.944
REMARK  5 active torsions:
REMARK  status: ('A' for Active; 'I' for Inactive)
REMARK    1  A    between atoms: C2_2  and  C3_3 
REMARK    2  A    between atoms: C2_2  and  C8_10 
REMARK    3  A    between atoms: C3_3  and  N1_4 
REMARK    4  A    between atoms: C8_10  and  N2_11 
REMARK       I    between atoms: N3_14  and  C11_15 
REMARK       I    between atoms: C11_15  and  N4_17 
REMARK    5  A    between atoms: N4_17  and  C12_19 
ROOT
HETATM    1  N2  UNL     1      10.095 -10.519   3.840  1.00  0.00    -0.390 N 
HETATM    2  C9  UNL     1       9.205  -9.568   3.361  1.00  0.00     0.141 C 
HETATM    3  C10 UNL     1       9.210  -8.264   4.167  1.00  0.00     0.147 C 
HETATM    4  N3  UNL     1      10.566  -7.778   4.258  1.00  0.00    -0.331 N 
HETATM    5  C11 UNL     1      10.737  -6.439   4.730  1.00  0.00     0.318 C 
HETATM    6  O2  UNL     1       9.750  -5.738   5.061  1.00  0.00    -0.247 OA
HETATM    7  N4  UNL     1      12.029  -5.867   4.838  1.00  0.00    -0.338 N 
ATOM      8  H4  UNL     1      12.848  -6.415   4.575  1.00  0.00     0.164 HD
HETATM    9  C18 UNL     1      11.656  -8.638   3.889  1.00  0.00     0.147 C 
HETATM   10  C19 UNL     1      11.377 -10.085   4.268  1.00  0.00     0.141 C 
ENDROOT
BRANCH   1  11
HETATM   11  C8  UNL     1       9.791 -11.838   4.104  1.00  0.00     0.064 C 
BRANCH  11  12
HETATM   12  C2  UNL     1      10.644 -12.959   3.579  1.00  0.00     0.038 C 
HETATM   13  C1  UNL     1      10.082 -14.228   4.234  1.00  0.00     0.017 C 
BRANCH  12  14
HETATM   14  C3  UNL     1      10.652 -13.013   2.099  1.00  0.00     0.136 C 
BRANCH  14  15
HETATM   15  N1  UNL     1      11.711 -12.358   1.419  1.00  0.00    -0.369 N 
HETATM   16  C4  UNL     1      11.473 -11.236   0.636  1.00  0.00     0.089 C 
HETATM   17  C5  UNL     1      12.669 -10.331   0.428  1.00  0.00     0.212 C 
HETATM   18  O1  UNL     1      13.866 -11.077   0.466  1.00  0.00    -0.381 OA
HETATM   19  C6  UNL     1      13.990 -11.498   1.790  1.00  0.00     0.212 C 
HETATM   20  C7  UNL     1      12.959 -12.561   2.025  1.00  0.00     0.089 C 
ENDBRANCH  14  15
ENDBRANCH  12  14
ENDBRANCH  11  12
ENDBRANCH   1  11
BRANCH   7  21
HETATM   21  C12 UNL     1      12.194  -4.512   5.319  1.00  0.00     0.086 C 
HETATM   22  C13 UNL     1      11.473  -3.490   4.469  1.00  0.00     0.025 C 
HETATM   23  C14 UNL     1      12.270  -2.226   4.292  1.00  0.00     0.002 C 
HETATM   24  C15 UNL     1      13.065  -1.833   5.496  1.00  0.00     0.000 C 
HETATM   25  C16 UNL     1      13.852  -2.926   6.129  1.00  0.00     0.002 C 
HETATM   26  C17 UNL     1      13.666  -4.232   5.414  1.00  0.00     0.025 C 
ENDBRANCH   7  21
TORSDOF 5
ENDMDL
MODEL 4
REMARK VINA RESULT: -6.394810111      1.523      1.903
REMARK  5 active torsions:
REMARK  status: ('A' for Active; 'I' for Inactive)
REMARK    1  A    between atoms: C2_2  and  C3_3 
REMARK    2  A    between atoms: C2_2  and  C8_10 
REMARK    3  A    between atoms: C3_3  and  N1_4 
REMARK    4  A    between atoms: C8_10  and  N2_11 
REMARK       I    between atoms: N3_14  and  C11_15 
REMARK       I    between atoms: C11_15  and  N4_17 
REMARK    5  A    between atoms: N4_17  and  C12_19 
ROOT
HETATM    1  N2  UNL     1       4.119  -4.718   4.740  1.00  0.00    -0.390 N 
HETATM    2  C9  UNL     1       4.415  -3.474   5.279  1.00  0.00     0.141 C 
HETATM    3  C10 UNL     1       5.757  -3.430   6.017  1.00  0.00     0.147 C 
HETATM    4  N3  UNL     1       6.789  -3.928   5.138  1.00  0.00    -0.331 N 
HETATM    5  C11 UNL     1       8.141  -3.707   5.546  1.00  0.00     0.318 C 
HETATM    6  O2  UNL     1       8.405  -3.123   6.625  1.00  0.00    -0.247 OA
HETATM    7  N4  UNL     1       9.223  -4.143   4.741  1.00  0.00    -0.338 N 
ATOM      8  H4  UNL     1       9.036  -4.620   3.858  1.00  0.00     0.164 HD
HETATM    9  C18 UNL     1       6.423  -4.612   3.928  1.00  0.00     0.147 C 
HETATM   10  C19 UNL     1       5.167  -5.449   4.119  1.00  0.00     0.141 C 
ENDROOT
BRANCH   1  11
HETATM   11  C8  UNL     1       2.930  -5.398   4.900  1.00  0.00     0.064 C 
BRANCH  11  12
HETATM   12  C2  UNL     1       2.705  -6.320   6.065  1.00  0.00     0.038 C 
HETATM   13  C1  UNL     1       1.976  -5.468   7.113  1.00  0.00     0.017 C 
BRANCH  12  14
HETATM   14  C3  UNL     1       1.961  -7.542   5.679  1.00  0.00     0.136 C 
BRANCH  14  15
HETATM   15  N1  UNL     1       2.589  -8.795   5.901  1.00  0.00    -0.369 N 
HETATM   16  C4  UNL     1       3.754  -9.142   5.231  1.00  0.00     0.089 C 
HETATM   17  C5  UNL     1       4.602 -10.192   5.915  1.00  0.00     0.212 C 
HETATM   18  O1  UNL     1       3.794 -11.062   6.675  1.00  0.00    -0.381 OA
HETATM   19  C6  UNL     1       3.311 -10.284   7.727  1.00  0.00     0.212 C 
HETATM   20  C7  UNL     1       2.295  -9.339   7.160  1.00  0.00     0.089 C 
ENDBRANCH  14  15
ENDBRANCH  12  14
ENDBRANCH  11  12
ENDBRANCH   1  11
BRANCH   7  21
HETATM   21  C12 UNL     1      10.590  -3.918   5.162  1.00  0.00     0.086 C 
HETATM   22  C13 UNL     1      11.180  -2.645   4.598  1.00  0.00     0.025 C 
HETATM   23  C14 UNL     1      12.620  -2.810   4.194  1.00  0.00     0.002 C 
HETATM   24  C15 UNL     1      13.403  -3.717   5.088  1.00  0.00     0.000 C 
HETATM   25  C16 UNL     1      12.747  -5.010   5.423  1.00  0.00     0.002 C 
HETATM   26  C17 UNL     1      11.393  -5.129   4.787  1.00  0.00     0.025 C 
ENDBRANCH   7  21
TORSDOF 5
ENDMDL
MODEL 5
REMARK VINA RESULT: -6.334429584      2.819      3.666
REMARK  5 active torsions:
REMARK  status: ('A' for Active; 'I' for Inactive)
REMARK    1  A    between atoms: C2_2  and  C3_3 
REMARK    2  A    between atoms: C2_2  and  C8_10 
REMARK    3  A    between atoms: C3_3  and  N1_4 
REMARK    4  A    between atoms: C8_10  and  N2_11 
REMARK       I    between atoms: N3_14  and  C11_15 
REMARK       I    between atoms: C11_15  and  N4_17 
REMARK    5  A    between atoms: N4_17  and  C12_19 
ROOT
HETATM    1  N2  UNL     1       4.230  -4.805   4.682  1.00  0.00    -0.390 N 
HETATM    2  C9  UNL     1       4.457  -3.639   5.401  1.00  0.00     0.141 C 
HETATM    3  C10 UNL     1       5.818  -3.609   6.104  1.00  0.00     0.147 C 
HETATM    4  N3  UNL     1       6.851  -3.888   5.134  1.00  0.00    -0.331 N 
HETATM    5  C11 UNL     1       8.197  -3.633   5.540  1.00  0.00     0.318 C 
HETATM    6  O2  UNL     1       8.457  -3.202   6.690  1.00  0.00    -0.247 OA
HETATM    7  N4  UNL     1       9.278  -3.859   4.651  1.00  0.00    -0.338 N 
ATOM      8  H4  UNL     1       9.095  -4.208   3.710  1.00  0.00     0.164 HD
HETATM    9  C18 UNL     1       6.492  -4.404   3.842  1.00  0.00     0.147 C 
HETATM   10  C19 UNL     1       5.304  -5.352   3.931  1.00  0.00     0.141 C 
ENDROOT
BRANCH   1  11
HETATM   11  C8  UNL     1       3.097  -5.588   4.763  1.00  0.00     0.064 C 
BRANCH  11  12
HETATM   12  C2  UNL     1       2.130  -5.688   3.617  1.00  0.00     0.038 C 
HETATM   13  C1  UNL     1       1.056  -6.678   4.087  1.00  0.00     0.017 C 
BRANCH  12  14
HETATM   14  C3  UNL     1       1.584  -4.368   3.226  1.00  0.00     0.136 C 
BRANCH  14  15
HETATM   15  N1  UNL     1       2.063  -3.784   2.024  1.00  0.00    -0.369 N 
HETATM   16  C4  UNL     1       2.628  -4.564   1.025  1.00  0.00     0.089 C 
HETATM   17  C5  UNL     1       2.587  -3.961  -0.363  1.00  0.00     0.212 C 
HETATM   18  O1  UNL     1       2.623  -2.553  -0.292  1.00  0.00    -0.381 OA
HETATM   19  C6  UNL     1       1.399  -2.188   0.269  1.00  0.00     0.212 C 
HETATM   20  C7  UNL     1       1.434  -2.569   1.718  1.00  0.00     0.089 C 
ENDBRANCH  14  15
ENDBRANCH  12  14
ENDBRANCH  11  12
ENDBRANCH   1  11
BRANCH   7  21
HETATM   21  C12 UNL     1      10.640  -3.599   5.070  1.00  0.00     0.086 C 
HETATM   22  C13 UNL     1      11.238  -2.377   4.411  1.00  0.00     0.025 C 
HETATM   23  C14 UNL     1      12.683  -2.575   4.040  1.00  0.00     0.002 C 
HETATM   24  C15 UNL     1      13.454  -3.405   5.015  1.00  0.00     0.000 C 
HETATM   25  C16 UNL     1      12.793  -4.666   5.447  1.00  0.00     0.002 C 
HETATM   26  C17 UNL     1      11.447  -4.837   4.807  1.00  0.00     0.025 C 
ENDBRANCH   7  21
TORSDOF 5
ENDMDL
