MODEL 1
REMARK VINA RESULT: -7.254382755      0.000      0.000
REMARK  5 active torsions:
REMARK  status: ('A' for Active; 'I' for Inactive)
REMARK    1  A    between atoms: C6_7  and  C7_8 
REMARK       I    between atoms: C7_8  and  N1_10 
REMARK    2  A    between atoms: N1_10  and  C8_12 
REMARK    3  A    between atoms: N2_19  and  C14_20 
REMARK    4  A    between atoms: C14_20  and  C15_21 
REMARK    5  A    between atoms: C15_21  and  N3_22 
ROOT
HETATM    1  O1  UNL     1       8.344  -8.594   3.500  1.00  0.00    -0.273 OA
HETATM    2  C1  UNL     1       9.578  -8.823   3.468  1.00  0.00     0.225 C 
HETATM    3  C2  UNL     1      10.182  -9.973   2.758  1.00  0.00     0.097 C 
HETATM    4  C3  UNL     1       9.445 -11.217   3.225  1.00  0.00     0.015 C 
HETATM    5  C4  UNL     1      10.028 -11.481   4.613  1.00  0.00     0.002 C 
HETATM    6  C5  UNL     1      11.447 -10.993   4.508  1.00  0.00     0.022 C 
HETATM    7  C6  UNL     1      11.546 -10.047   3.370  1.00  0.00     0.069 C 
HETATM    8  C13 UNL     1      11.876  -8.627   3.814  1.00  0.00     0.146 C 
HETATM    9  N2  UNL     1      10.588  -8.038   4.090  1.00  0.00    -0.349 N 
ENDROOT
BRANCH   7  10
HETATM   10  C7  UNL     1      12.514 -10.508   2.338  1.00  0.00     0.229 C 
HETATM   11  O2  UNL     1      12.444 -10.019   1.184  1.00  0.00    -0.273 OA
HETATM   12  N1  UNL     1      13.494 -11.485   2.674  1.00  0.00    -0.356 N 
ATOM     13  H1  UNL     1      13.526 -11.862   3.621  1.00  0.00     0.162 HD
BRANCH  12  14
HETATM   14  C8  UNL     1      14.444 -11.947   1.687  1.00  0.00     0.088 C 
HETATM   15  C9  UNL     1      14.729 -13.414   1.763  1.00  0.00     0.051 C 
HETATM   16  C10 UNL     1      16.189 -13.614   2.105  1.00  0.00     0.169 C 
HETATM   17  O3  UNL     1      17.048 -13.027   1.191  1.00  0.00    -0.391 OA
HETATM   18  C11 UNL     1      16.759 -11.706   0.961  1.00  0.00     0.169 C 
HETATM   19  C12 UNL     1      15.723 -11.157   1.888  1.00  0.00     0.051 C 
ENDBRANCH  12  14
ENDBRANCH   7  10
BRANCH   9  20
HETATM   20  C14 UNL     1      10.386  -6.840   4.884  1.00  0.00     0.156 C 
BRANCH  20  21
HETATM   21  C15 UNL     1      11.727  -6.322   5.272  1.00  0.00     0.292 C 
BRANCH  21  22
HETATM   22  N3  UNL     1      12.075  -5.033   4.725  1.00  0.00     0.090 N 
HETATM   23  C16 UNL     1      13.058  -4.437   5.611  1.00  0.00     0.272 C 
HETATM   24  C17 UNL     1      13.406  -3.018   5.221  1.00  0.00     0.030 C 
HETATM   25  C18 UNL     1      12.507  -2.590   4.093  1.00  0.00     0.003 C 
HETATM   26  C19 UNL     1      11.078  -2.777   4.582  1.00  0.00     0.030 C 
HETATM   27  C20 UNL     1      10.852  -4.230   4.824  1.00  0.00     0.272 C 
ENDBRANCH  21  22
ENDBRANCH  20  21
ENDBRANCH   9  20
TORSDOF 5
ENDMDL
MODEL 2
REMARK VINA RESULT: -7.174725956      6.145      9.874
REMARK  5 active torsions:
REMARK  status: ('A' for Active; 'I' for Inactive)
REMARK    1  A    between atoms: C6_7  and  C7_8 
REMARK       I    between atoms: C7_8  and  N1_10 
REMARK    2  A    between atoms: N1_10  and  C8_12 
REMARK    3  A    between atoms: N2_19  and  C14_20 
REMARK    4  A    between atoms: C14_20  and  C15_21 
REMARK    5  A    between atoms: C15_21  and  N3_22 
ROOT
HETATM    1  O1  UNL     1       5.979  -1.730   5.903  1.00  0.00    -0.273 OA
HETATM    2  C1  UNL     1       6.008  -2.773   5.205  1.00  0.00     0.225 C 
HETATM    3  C2  UNL     1       4.886  -3.221   4.351  1.00  0.00     0.097 C 
HETATM    4  C3  UNL     1       3.641  -3.225   5.221  1.00  0.00     0.015 C 
HETATM    5  C4  UNL     1       3.797  -4.490   6.065  1.00  0.00     0.002 C 
HETATM    6  C5  UNL     1       4.534  -5.440   5.161  1.00  0.00     0.022 C 
HETATM    7  C6  UNL     1       5.224  -4.658   4.105  1.00  0.00     0.069 C 
HETATM    8  C13 UNL     1       6.741  -4.748   4.205  1.00  0.00     0.146 C 
HETATM    9  N2  UNL     1       7.096  -3.685   5.114  1.00  0.00    -0.349 N 
ENDROOT
BRANCH   7  10
HETATM   10  C7  UNL     1       4.769  -5.036   2.740  1.00  0.00     0.229 C 
HETATM   11  O2  UNL     1       5.507  -5.771   2.040  1.00  0.00    -0.273 OA
HETATM   12  N1  UNL     1       3.517  -4.562   2.256  1.00  0.00    -0.356 N 
ATOM     13  H1  UNL     1       2.938  -3.967   2.849  1.00  0.00     0.162 HD
BRANCH  12  14
HETATM   14  C8  UNL     1       3.056  -4.916   0.931  1.00  0.00     0.088 C 
HETATM   15  C9  UNL     1       2.528  -3.758   0.145  1.00  0.00     0.051 C 
HETATM   16  C10 UNL     1       1.061  -3.987  -0.145  1.00  0.00     0.169 C 
HETATM   17  O3  UNL     1       0.820  -5.161  -0.840  1.00  0.00    -0.391 OA
HETATM   18  C11 UNL     1       1.397  -6.257  -0.251  1.00  0.00     0.169 C 
HETATM   19  C12 UNL     1       1.975  -5.968   1.097  1.00  0.00     0.051 C 
ENDBRANCH  12  14
ENDBRANCH   7  10
BRANCH   9  20
HETATM   20  C14 UNL     1       8.365  -3.591   5.813  1.00  0.00     0.156 C 
BRANCH  20  21
HETATM   21  C15 UNL     1       9.450  -3.745   4.806  1.00  0.00     0.292 C 
BRANCH  21  22
HETATM   22  N3  UNL     1      10.623  -4.452   5.262  1.00  0.00     0.090 N 
HETATM   23  C16 UNL     1      11.782  -3.741   4.754  1.00  0.00     0.272 C 
HETATM   24  C17 UNL     1      13.079  -4.459   5.048  1.00  0.00     0.030 C 
HETATM   25  C18 UNL     1      12.765  -5.795   5.666  1.00  0.00     0.003 C 
HETATM   26  C19 UNL     1      11.848  -6.520   4.692  1.00  0.00     0.030 C 
HETATM   27  C20 UNL     1      10.576  -5.751   4.585  1.00  0.00     0.272 C 
ENDBRANCH  21  22
ENDBRANCH  20  21
ENDBRANCH   9  20
TORSDOF 5
ENDMDL
MODEL 3
REMARK VINA RESULT: -6.932174802      1.961      2.493
REMARK  5 active torsions:
REMARK  status: ('A' for Active; 'I' for Inactive)
REMARK    1  A    between atoms: C6_7  and  C7_8 
REMARK       I    between atoms: C7_8  and  N1_10 
REMARK    2  A    between atoms: N1_10  and  C8_12 
REMARK    3  A    between atoms: N2_19  and  C14_20 
REMARK    4  A    between atoms: C14_20  and  C15_21 
REMARK    5  A    between atoms: C15_21  and  N3_22 
ROOT
HETATM    1  O1  UNL     1       8.354  -8.510   3.747  1.00  0.00    -0.273 OA
HETATM    2  C1  UNL     1       9.576  -8.757   3.600  1.00  0.00     0.225 C 
HETATM    3  C2  UNL     1      10.095  -9.887   2.797  1.00  0.00     0.097 C 
HETATM    4  C3  UNL     1       9.377 -11.137   3.276  1.00  0.00     0.015 C 
HETATM    5  C4  UNL     1      10.071 -11.466   4.597  1.00  0.00     0.002 C 
HETATM    6  C5  UNL     1      11.485 -10.997   4.391  1.00  0.00     0.022 C 
HETATM    7  C6  UNL     1      11.505 -10.007   3.286  1.00  0.00     0.069 C 
HETATM    8  C13 UNL     1      11.898  -8.612   3.755  1.00  0.00     0.146 C 
HETATM    9  N2  UNL     1      10.650  -8.014   4.164  1.00  0.00    -0.349 N 
ENDROOT
BRANCH   7  10
HETATM   10  C7  UNL     1      12.372 -10.441   2.158  1.00  0.00     0.229 C 
HETATM   11  O2  UNL     1      13.564 -10.755   2.400  1.00  0.00    -0.273 OA
HETATM   12  N1  UNL     1      11.843 -10.494   0.838  1.00  0.00    -0.356 N 
ATOM     13  H1  UNL     1      10.870 -10.234   0.674  1.00  0.00     0.162 HD
BRANCH  12  14
HETATM   14  C8  UNL     1      12.669 -10.912  -0.272  1.00  0.00     0.088 C 
HETATM   15  C9  UNL     1      12.291 -10.286  -1.578  1.00  0.00     0.051 C 
HETATM   16  C10 UNL     1      11.841 -11.369  -2.532  1.00  0.00     0.169 C 
HETATM   17  O3  UNL     1      12.806 -12.338  -2.752  1.00  0.00    -0.391 OA
HETATM   18  C11 UNL     1      13.307 -12.864  -1.588  1.00  0.00     0.169 C 
HETATM   19  C12 UNL     1      12.561 -12.422  -0.370  1.00  0.00     0.051 C 
ENDBRANCH  12  14
ENDBRANCH   7  10
BRANCH   9  20
HETATM   20  C14 UNL     1      10.540  -6.847   5.019  1.00  0.00     0.156 C 
BRANCH  20  21
HETATM   21  C15 UNL     1      11.911  -6.306   5.229  1.00  0.00     0.292 C 
BRANCH  21  22
HETATM   22  N3  UNL     1      12.147  -4.989   4.691  1.00  0.00     0.090 N 
HETATM   23  C16 UNL     1      13.098  -4.327   5.566  1.00  0.00     0.272 C 
HETATM   24  C17 UNL     1      13.327  -2.882   5.187  1.00  0.00     0.030 C 
HETATM   25  C18 UNL     1      12.375  -2.513   4.081  1.00  0.00     0.003 C 
HETATM   26  C19 UNL     1      10.975  -2.816   4.594  1.00  0.00     0.030 C 
HETATM   27  C20 UNL     1      10.868  -4.285   4.823  1.00  0.00     0.272 C 
ENDBRANCH  21  22
ENDBRANCH  20  21
ENDBRANCH   9  20
TORSDOF 5
ENDMDL
MODEL 4
REMARK VINA RESULT: -6.927626087      5.814      8.396
REMARK  5 active torsions:
REMARK  status: ('A' for Active; 'I' for Inactive)
REMARK    1  A    between atoms: C6_7  and  C7_8 
REMARK       I    between atoms: C7_8  and  N1_10 
REMARK    2  A    between atoms: N1_10  and  C8_12 
REMARK    3  A    between atoms: N2_19  and  C14_20 
REMARK    4  A    between atoms: C14_20  and  C15_21 
REMARK    5  A    between atoms: C15_21  and  N3_22 
ROOT
HETATM    1  O1  UNL     1       5.842  -1.728   5.771  1.00  0.00    -0.273 OA
HETATM    2  C1  UNL     1       5.854  -2.800   5.117  1.00  0.00     0.225 C 
HETATM    3  C2  UNL     1       4.711  -3.282   4.310  1.00  0.00     0.097 C 
HETATM    4  C3  UNL     1       3.488  -3.249   5.211  1.00  0.00     0.015 C 
HETATM    5  C4  UNL     1       3.666  -4.478   6.103  1.00  0.00     0.002 C 
HETATM    6  C5  UNL     1       4.381  -5.465   5.221  1.00  0.00     0.022 C 
HETATM    7  C6  UNL     1       5.043  -4.728   4.116  1.00  0.00     0.069 C 
HETATM    8  C13 UNL     1       6.563  -4.815   4.182  1.00  0.00     0.146 C 
HETATM    9  N2  UNL     1       6.940  -3.715   5.036  1.00  0.00    -0.349 N 
ENDROOT
BRANCH   7  10
HETATM   10  C7  UNL     1       4.554  -5.162   2.780  1.00  0.00     0.229 C 
HETATM   11  O2  UNL     1       3.633  -4.507   2.233  1.00  0.00    -0.273 OA
HETATM   12  N1  UNL     1       5.133  -6.300   2.150  1.00  0.00    -0.356 N 
ATOM     13  H1  UNL     1       5.880  -6.811   2.619  1.00  0.00     0.162 HD
BRANCH  12  14
HETATM   14  C8  UNL     1       4.672  -6.739   0.851  1.00  0.00     0.088 C 
HETATM   15  C9  UNL     1       4.702  -8.224   0.669  1.00  0.00     0.051 C 
HETATM   16  C10 UNL     1       5.673  -8.563  -0.440  1.00  0.00     0.169 C 
HETATM   17  O3  UNL     1       5.357  -7.960  -1.646  1.00  0.00    -0.391 OA
HETATM   18  C11 UNL     1       5.173  -6.605  -1.532  1.00  0.00     0.169 C 
HETATM   19  C12 UNL     1       5.550  -6.069  -0.188  1.00  0.00     0.051 C 
ENDBRANCH  12  14
ENDBRANCH   7  10
BRANCH   9  20
HETATM   20  C14 UNL     1       8.226  -3.593   5.699  1.00  0.00     0.156 C 
BRANCH  20  21
HETATM   21  C15 UNL     1       9.285  -3.701   4.658  1.00  0.00     0.292 C 
BRANCH  21  22
HETATM   22  N3  UNL     1      10.590  -4.083   5.139  1.00  0.00     0.090 N 
HETATM   23  C16 UNL     1      11.557  -3.192   4.524  1.00  0.00     0.272 C 
HETATM   24  C17 UNL     1      12.984  -3.577   4.840  1.00  0.00     0.030 C 
HETATM   25  C18 UNL     1      12.980  -4.878   5.597  1.00  0.00     0.003 C 
HETATM   26  C19 UNL     1      12.234  -5.882   4.731  1.00  0.00     0.030 C 
HETATM   27  C20 UNL     1      10.822  -5.424   4.594  1.00  0.00     0.272 C 
ENDBRANCH  21  22
ENDBRANCH  20  21
ENDBRANCH   9  20
TORSDOF 5
ENDMDL
MODEL 5
REMARK VINA RESULT: -6.869260261      6.399      9.814
REMARK  5 active torsions:
REMARK  status: ('A' for Active; 'I' for Inactive)
REMARK    1  A    between atoms: C6_7  and  C7_8 
REMARK       I    between atoms: C7_8  and  N1_10 
REMARK    2  A    between atoms: N1_10  and  C8_12 
REMARK    3  A    between atoms: N2_19  and  C14_20 
REMARK    4  A    between atoms: C14_20  and  C15_21 
REMARK    5  A    between atoms: C15_21  and  N3_22 
ROOT
HETATM    1  O1  UNL     1       6.301  -1.995   5.966  1.00  0.00    -0.273 OA
HETATM    2  C1  UNL     1       6.249  -2.994   5.207  1.00  0.00     0.225 C 
HETATM    3  C2  UNL     1       5.064  -3.348   4.394  1.00  0.00     0.097 C 
HETATM    4  C3  UNL     1       3.871  -3.361   5.334  1.00  0.00     0.015 C 
HETATM    5  C4  UNL     1       4.024  -4.681   6.090  1.00  0.00     0.002 C 
HETATM    6  C5  UNL     1       4.672  -5.598   5.090  1.00  0.00     0.022 C 
HETATM    7  C6  UNL     1       5.331  -4.779   4.044  1.00  0.00     0.069 C 
HETATM    8  C13 UNL     1       6.847  -4.928   4.050  1.00  0.00     0.146 C 
HETATM    9  N2  UNL     1       7.294  -3.937   4.998  1.00  0.00    -0.349 N 
ENDROOT
BRANCH   7  10
HETATM   10  C7  UNL     1       4.785  -5.054   2.688  1.00  0.00     0.229 C 
HETATM   11  O2  UNL     1       5.439  -5.797   1.914  1.00  0.00    -0.273 OA
HETATM   12  N1  UNL     1       3.545  -4.479   2.294  1.00  0.00    -0.356 N 
ATOM     13  H1  UNL     1       3.037  -3.880   2.945  1.00  0.00     0.162 HD
BRANCH  12  14
HETATM   14  C8  UNL     1       2.997  -4.733   0.980  1.00  0.00     0.088 C 
HETATM   15  C9  UNL     1       2.439  -3.516   0.311  1.00  0.00     0.051 C 
HETATM   16  C10 UNL     1       0.954  -3.708   0.098  1.00  0.00     0.169 C 
HETATM   17  O3  UNL     1       0.652  -4.827  -0.660  1.00  0.00    -0.391 OA
HETATM   18  C11 UNL     1       1.247  -5.969  -0.186  1.00  0.00     0.169 C 
HETATM   19  C12 UNL     1       1.912  -5.782   1.140  1.00  0.00     0.051 C 
ENDBRANCH  12  14
ENDBRANCH   7  10
BRANCH   9  20
HETATM   20  C14 UNL     1       8.603  -3.932   5.626  1.00  0.00     0.156 C 
BRANCH  20  21
HETATM   21  C15 UNL     1       9.488  -4.833   4.838  1.00  0.00     0.292 C 
BRANCH  21  22
HETATM   22  N3  UNL     1      10.782  -4.291   4.502  1.00  0.00     0.090 N 
HETATM   23  C16 UNL     1      11.733  -4.808   5.469  1.00  0.00     0.272 C 
HETATM   24  C17 UNL     1      13.110  -4.205   5.309  1.00  0.00     0.030 C 
HETATM   25  C18 UNL     1      13.047  -3.122   4.266  1.00  0.00     0.003 C 
HETATM   26  C19 UNL     1      11.978  -2.140   4.723  1.00  0.00     0.030 C 
HETATM   27  C20 UNL     1      10.666  -2.848   4.731  1.00  0.00     0.272 C 
ENDBRANCH  21  22
ENDBRANCH  20  21
ENDBRANCH   9  20
TORSDOF 5
ENDMDL
