MODEL 1
REMARK VINA RESULT: -5.232185194      0.000      0.000
REMARK  4 active torsions:
REMARK  status: ('A' for Active; 'I' for Inactive)
REMARK    1  A    between atoms: C2_2  and  C3_3 
REMARK    2  A    between atoms: C3_3  and  C4_4 
REMARK    3  A    between atoms: C4_4  and  C5_5 
REMARK    4  A    between atoms: N1_7  and  C7_8 
ROOT
HETATM    1  C5  UNL     1       5.772  -5.714   3.612  1.00  0.00     0.107 C 
HETATM    2  C6  UNL     1       6.759  -4.588   3.752  1.00  0.00     0.133 C 
HETATM    3  N1  UNL     1       7.376  -4.500   5.026  1.00  0.00    -0.203 NA
HETATM    4  S1  UNL     1       6.654  -3.406   6.109  1.00  0.00     0.227 S 
HETATM    5  O1  UNL     1       7.541  -3.335   7.344  1.00  0.00    -0.210 OA
HETATM    6  O2  UNL     1       6.588  -2.004   5.571  1.00  0.00    -0.210 OA
HETATM    7  C13 UNL     1       5.050  -3.864   6.646  1.00  0.00     0.320 C 
HETATM    8  S2  UNL     1       4.119  -4.425   5.223  1.00  0.00     0.241 S 
HETATM    9  O3  UNL     1       2.724  -4.775   5.723  1.00  0.00    -0.205 OA
HETATM   10  O4  UNL     1       3.960  -3.358   4.210  1.00  0.00    -0.205 OA
HETATM   11  N2  UNL     1       4.842  -5.850   4.663  1.00  0.00    -0.313 N 
ATOM     12  H2  UNL     1       4.617  -6.759   5.066  1.00  0.00     0.172 HD
ENDROOT
BRANCH   3  13
HETATM   13  C7  UNL     1       8.792  -4.408   5.041  1.00  0.00     0.074 C 
HETATM   14  C8  UNL     1       9.400  -3.307   4.233  1.00  0.00     0.021 C 
HETATM   15  C9  UNL     1      10.825  -3.103   4.712  1.00  0.00     0.002 C 
HETATM   16  C10 UNL     1      11.407  -4.327   5.347  1.00  0.00     0.000 C 
HETATM   17  C11 UNL     1      10.937  -5.530   4.526  1.00  0.00     0.002 C 
HETATM   18  C12 UNL     1       9.451  -5.755   4.715  1.00  0.00     0.021 C 
ENDBRANCH   3  13
BRANCH   1  19
HETATM   19  C4  UNL     1       5.074  -5.572   2.296  1.00  0.00     0.027 C 
BRANCH  19  20
HETATM   20  C3  UNL     1       4.066  -6.683   2.053  1.00  0.00     0.002 C 
BRANCH  20  21
HETATM   21  C2  UNL     1       2.727  -5.976   1.801  1.00  0.00    -0.004 C 
HETATM   22  C1  UNL     1       2.935  -4.693   1.068  1.00  0.00     0.005 C 
ENDBRANCH  20  21
ENDBRANCH  19  20
ENDBRANCH   1  19
TORSDOF 4
ENDMDL
MODEL 2
REMARK VINA RESULT: -5.099276021      1.261      5.709
REMARK  4 active torsions:
REMARK  status: ('A' for Active; 'I' for Inactive)
REMARK    1  A    between atoms: C2_2  and  C3_3 
REMARK    2  A    between atoms: C3_3  and  C4_4 
REMARK    3  A    between atoms: C4_4  and  C5_5 
REMARK    4  A    between atoms: N1_7  and  C7_8 
ROOT
HETATM    1  C5  UNL     1       7.659  -4.244   4.223  1.00  0.00     0.107 C 
HETATM    2  C6  UNL     1       6.661  -5.360   4.370  1.00  0.00     0.133 C 
HETATM    3  N1  UNL     1       5.398  -5.105   3.778  1.00  0.00    -0.203 NA
HETATM    4  S1  UNL     1       4.208  -4.504   4.833  1.00  0.00     0.227 S 
HETATM    5  O1  UNL     1       2.899  -4.447   4.058  1.00  0.00    -0.210 OA
HETATM    6  O2  UNL     1       3.952  -5.408   6.005  1.00  0.00    -0.210 OA
HETATM    7  C13 UNL     1       4.523  -2.891   5.443  1.00  0.00     0.320 C 
HETATM    8  S2  UNL     1       6.244  -2.797   5.925  1.00  0.00     0.241 S 
HETATM    9  O3  UNL     1       6.467  -1.398   6.484  1.00  0.00    -0.205 OA
HETATM   10  O4  UNL     1       6.567  -3.752   7.009  1.00  0.00    -0.205 OA
HETATM   11  N2  UNL     1       7.181  -2.951   4.524  1.00  0.00    -0.313 N 
ATOM     12  H2  UNL     1       7.390  -2.151   3.928  1.00  0.00     0.172 HD
ENDROOT
BRANCH   3  13
HETATM   13  C7  UNL     1       4.887  -6.109   2.915  1.00  0.00     0.074 C 
HETATM   14  C8  UNL     1       5.434  -7.488   3.094  1.00  0.00     0.021 C 
HETATM   15  C9  UNL     1       4.485  -8.462   2.421  1.00  0.00     0.002 C 
HETATM   16  C10 UNL     1       3.682  -7.831   1.327  1.00  0.00     0.000 C 
HETATM   17  C11 UNL     1       4.611  -6.873   0.577  1.00  0.00     0.002 C 
HETATM   18  C12 UNL     1       4.955  -5.679   1.443  1.00  0.00     0.021 C 
ENDBRANCH   3  13
BRANCH   1  19
HETATM   19  C4  UNL     1       8.864  -4.573   5.045  1.00  0.00     0.027 C 
BRANCH  19  20
HETATM   20  C3  UNL     1      10.023  -3.628   4.776  1.00  0.00     0.002 C 
BRANCH  20  21
HETATM   21  C2  UNL     1      11.278  -4.513   4.751  1.00  0.00    -0.004 C 
HETATM   22  C1  UNL     1      10.906  -5.958   4.729  1.00  0.00     0.005 C 
ENDBRANCH  20  21
ENDBRANCH  19  20
ENDBRANCH   1  19
TORSDOF 4
ENDMDL
MODEL 3
REMARK VINA RESULT: -5.008895971      3.355      4.570
REMARK  4 active torsions:
REMARK  status: ('A' for Active; 'I' for Inactive)
REMARK    1  A    between atoms: C2_2  and  C3_3 
REMARK    2  A    between atoms: C3_3  and  C4_4 
REMARK    3  A    between atoms: C4_4  and  C5_5 
REMARK    4  A    between atoms: N1_7  and  C7_8 
ROOT
HETATM    1  C5  UNL     1       3.561  -1.800   4.254  1.00  0.00     0.107 C 
HETATM    2  C6  UNL     1       4.243  -2.869   5.063  1.00  0.00     0.133 C 
HETATM    3  N1  UNL     1       5.291  -3.543   4.387  1.00  0.00    -0.203 NA
HETATM    4  S1  UNL     1       4.854  -5.010   3.649  1.00  0.00     0.227 S 
HETATM    5  O1  UNL     1       6.129  -5.653   3.120  1.00  0.00    -0.210 OA
HETATM    6  O2  UNL     1       4.265  -6.001   4.613  1.00  0.00    -0.210 OA
HETATM    7  C13 UNL     1       3.754  -4.845   2.293  1.00  0.00     0.320 C 
HETATM    8  S2  UNL     1       2.472  -3.681   2.747  1.00  0.00     0.241 S 
HETATM    9  O3  UNL     1       1.519  -3.595   1.563  1.00  0.00    -0.205 OA
HETATM   10  O4  UNL     1       1.681  -4.154   3.905  1.00  0.00    -0.205 OA
HETATM   11  N2  UNL     1       3.198  -2.164   2.940  1.00  0.00    -0.313 N 
ATOM     12  H2  UNL     1       3.364  -1.545   2.147  1.00  0.00     0.172 HD
ENDROOT
BRANCH   3  13
HETATM   13  C7  UNL     1       6.530  -3.640   5.071  1.00  0.00     0.074 C 
HETATM   14  C8  UNL     1       6.724  -2.725   6.238  1.00  0.00     0.021 C 
HETATM   15  C9  UNL     1       7.869  -3.266   7.074  1.00  0.00     0.002 C 
HETATM   16  C10 UNL     1       8.822  -4.106   6.283  1.00  0.00     0.000 C 
HETATM   17  C11 UNL     1       8.992  -3.435   4.917  1.00  0.00     0.002 C 
HETATM   18  C12 UNL     1       7.720  -3.554   4.104  1.00  0.00     0.021 C 
ENDBRANCH   3  13
BRANCH   1  19
HETATM   19  C4  UNL     1       2.372  -1.310   5.020  1.00  0.00     0.027 C 
BRANCH  19  20
HETATM   20  C3  UNL     1       1.620  -0.215   4.282  1.00  0.00     0.002 C 
BRANCH  20  21
HETATM   21  C2  UNL     1       1.212   0.801   5.359  1.00  0.00    -0.004 C 
HETATM   22  C1  UNL     1       2.184   1.932   5.417  1.00  0.00     0.005 C 
ENDBRANCH  20  21
ENDBRANCH  19  20
ENDBRANCH   1  19
TORSDOF 4
ENDMDL
MODEL 4
REMARK VINA RESULT: -5.005224280      8.239      9.930
REMARK  4 active torsions:
REMARK  status: ('A' for Active; 'I' for Inactive)
REMARK    1  A    between atoms: C2_2  and  C3_3 
REMARK    2  A    between atoms: C3_3  and  C4_4 
REMARK    3  A    between atoms: C4_4  and  C5_5 
REMARK    4  A    between atoms: N1_7  and  C7_8 
ROOT
HETATM    1  C5  UNL     1      11.099  -9.907   3.135  1.00  0.00     0.107 C 
HETATM    2  C6  UNL     1      11.829  -9.919   1.819  1.00  0.00     0.133 C 
HETATM    3  N1  UNL     1      11.397 -10.922   0.915  1.00  0.00    -0.203 NA
HETATM    4  S1  UNL     1      12.314 -12.354   0.925  1.00  0.00     0.227 S 
HETATM    5  O1  UNL     1      11.802 -13.231  -0.209  1.00  0.00    -0.210 OA
HETATM    6  O2  UNL     1      13.770 -12.121   0.638  1.00  0.00    -0.210 OA
HETATM    7  C13 UNL     1      12.188 -13.288   2.404  1.00  0.00     0.320 C 
HETATM    8  S2  UNL     1      12.310 -12.164   3.792  1.00  0.00     0.241 S 
HETATM    9  O3  UNL     1      12.237 -13.015   5.052  1.00  0.00    -0.205 OA
HETATM   10  O4  UNL     1      13.611 -11.460   3.820  1.00  0.00    -0.205 OA
HETATM   11  N2  UNL     1      10.947 -11.161   3.763  1.00  0.00    -0.313 N 
ATOM     12  H2  UNL     1      10.061 -11.448   4.179  1.00  0.00     0.172 HD
ENDROOT
BRANCH   3  13
HETATM   13  C7  UNL     1      11.088 -10.498  -0.404  1.00  0.00     0.074 C 
HETATM   14  C8  UNL     1      12.034  -9.527  -1.034  1.00  0.00     0.021 C 
HETATM   15  C9  UNL     1      11.793  -9.541  -2.532  1.00  0.00     0.002 C 
HETATM   16  C10 UNL     1      10.409  -9.980  -2.895  1.00  0.00     0.000 C 
HETATM   17  C11 UNL     1       9.454  -9.359  -1.873  1.00  0.00     0.002 C 
HETATM   18  C12 UNL     1       9.640 -10.001  -0.514  1.00  0.00     0.021 C 
ENDBRANCH   3  13
BRANCH   1  19
HETATM   19  C4  UNL     1      11.777  -8.932   4.045  1.00  0.00     0.027 C 
BRANCH  19  20
HETATM   20  C3  UNL     1      10.905  -7.726   4.353  1.00  0.00     0.002 C 
BRANCH  20  21
HETATM   21  C2  UNL     1      11.879  -6.599   4.725  1.00  0.00    -0.004 C 
HETATM   22  C1  UNL     1      11.205  -5.269   4.648  1.00  0.00     0.005 C 
ENDBRANCH  20  21
ENDBRANCH  19  20
ENDBRANCH   1  19
TORSDOF 4
ENDMDL
MODEL 5
REMARK VINA RESULT: -4.962707202      9.746     12.257
REMARK  4 active torsions:
REMARK  status: ('A' for Active; 'I' for Inactive)
REMARK    1  A    between atoms: C2_2  and  C3_3 
REMARK    2  A    between atoms: C3_3  and  C4_4 
REMARK    3  A    between atoms: C4_4  and  C5_5 
REMARK    4  A    between atoms: N1_7  and  C7_8 
ROOT
HETATM    1  C5  UNL     1      15.141 -12.593   3.341  1.00  0.00     0.107 C 
HETATM    2  C6  UNL     1      14.284 -11.369   3.162  1.00  0.00     0.133 C 
HETATM    3  N1  UNL     1      13.140 -11.564   2.348  1.00  0.00    -0.203 NA
HETATM    4  S1  UNL     1      13.324 -11.123   0.717  1.00  0.00     0.227 S 
HETATM    5  O1  UNL     1      11.960 -11.252   0.053  1.00  0.00    -0.210 OA
HETATM    6  O2  UNL     1      13.733  -9.688   0.539  1.00  0.00    -0.210 OA
HETATM    7  C13 UNL     1      14.441 -12.128  -0.187  1.00  0.00     0.320 C 
HETATM    8  S2  UNL     1      15.900 -12.391   0.815  1.00  0.00     0.241 S 
HETATM    9  O3  UNL     1      16.858 -13.231  -0.018  1.00  0.00    -0.205 OA
HETATM   10  O4  UNL     1      16.595 -11.121   1.124  1.00  0.00    -0.205 OA
HETATM   11  N2  UNL     1      15.442 -13.308   2.162  1.00  0.00    -0.313 N 
ATOM     12  H2  UNL     1      15.386 -14.325   2.124  1.00  0.00     0.172 HD
ENDROOT
BRANCH   3  13
HETATM   13  C7  UNL     1      11.900 -11.126   2.881  1.00  0.00     0.074 C 
HETATM   14  C8  UNL     1      11.902  -9.807   3.585  1.00  0.00     0.021 C 
HETATM   15  C9  UNL     1      10.466  -9.325   3.684  1.00  0.00     0.002 C 
HETATM   16  C10 UNL     1       9.472 -10.442   3.640  1.00  0.00     0.000 C 
HETATM   17  C11 UNL     1      10.052 -11.598   4.460  1.00  0.00     0.002 C 
HETATM   18  C12 UNL     1      11.242 -12.209   3.748  1.00  0.00     0.021 C 
ENDBRANCH   3  13
BRANCH   1  19
HETATM   19  C4  UNL     1      16.393 -12.196   4.058  1.00  0.00     0.027 C 
BRANCH  19  20
HETATM   20  C3  UNL     1      16.624 -13.017   5.316  1.00  0.00     0.002 C 
BRANCH  20  21
HETATM   21  C2  UNL     1      17.972 -12.542   5.876  1.00  0.00    -0.004 C 
HETATM   22  C1  UNL     1      18.136 -12.968   7.297  1.00  0.00     0.005 C 
ENDBRANCH  20  21
ENDBRANCH  19  20
ENDBRANCH   1  19
TORSDOF 4
ENDMDL
