MODEL 1
REMARK VINA RESULT: -9.620170477      0.000      0.000
REMARK  5 active torsions:
REMARK  status: ('A' for Active; 'I' for Inactive)
REMARK    1  A    between atoms: C2_2  and  C3_3 
REMARK    2  A    between atoms: C3_3  and  N1_4 
REMARK    3  A    between atoms: C6_7  and  N2_8 
REMARK    4  A    between atoms: C9_12  and  O1_13 
REMARK    5  A    between atoms: C11_17  and  C12_18 
ROOT
HETATM    1  N2  UNL     1       5.943   0.208  15.815  1.00  0.00    -0.371 N 
ATOM      2  H2  UNL     1       6.666   0.514  15.165  1.00  0.00     0.161 HD
HETATM    3  C7  UNL     1       5.035  -0.486  15.291  1.00  0.00     0.106 A 
HETATM    4  C8  UNL     1       3.951  -1.025  15.901  1.00  0.00     0.104 A 
HETATM    5  C9  UNL     1       3.043  -1.827  15.234  1.00  0.00     0.146 A 
HETATM    6  N3  UNL     1       3.258  -2.077  13.929  1.00  0.00    -0.326 N 
ATOM      7  H3  UNL     1       2.602  -2.668  13.415  1.00  0.00     0.169 HD
HETATM    8  C11 UNL     1       4.336  -1.555  13.285  1.00  0.00     0.092 A 
HETATM    9  N4  UNL     1       5.192  -0.779  13.968  1.00  0.00    -0.332 N 
ATOM     10  H4  UNL     1       5.997  -0.391  13.475  1.00  0.00     0.168 HD
ENDROOT
BRANCH   1  11
HETATM   11  C6  UNL     1       6.139   0.642  17.154  1.00  0.00     0.087 C 
HETATM   12  C5  UNL     1       7.506   1.300  17.147  1.00  0.00     0.050 C 
HETATM   13  C4  UNL     1       7.714   2.290  18.261  1.00  0.00     0.082 C 
HETATM   14  N1  UNL     1       6.708   3.240  18.167  1.00  0.00    -0.404 N 
HETATM   15  C22 UNL     1       7.596   1.521  19.556  1.00  0.00     0.034 C 
HETATM   16  C17 UNL     1       5.400   2.732  18.390  1.00  0.00     0.082 C 
HETATM   17  C16 UNL     1       5.036   1.490  17.627  1.00  0.00     0.050 C 
HETATM   18  C18 UNL     1       5.293   2.526  19.888  1.00  0.00     0.034 C 
HETATM   19  C19 UNL     1       6.573   2.031  20.510  1.00  0.00    -0.044 C 
HETATM   20  C20 UNL     1       6.164   0.843  21.396  1.00  0.00     0.015 C 
HETATM   21  C21 UNL     1       7.131   3.068  21.465  1.00  0.00     0.015 C 
BRANCH  14  22
HETATM   22  C3  UNL     1       6.871   4.497  17.630  1.00  0.00     0.117 C 
BRANCH  22  23
HETATM   23  C2  UNL     1       7.316   5.562  18.635  1.00  0.00     0.015 C 
HETATM   24  C1  UNL     1       8.432   6.425  18.097  1.00  0.00     0.006 C 
ENDBRANCH  22  23
ENDBRANCH  14  22
ENDBRANCH   1  11
BRANCH   5  25
HETATM   25  O1  UNL     1       1.932  -2.366  15.894  1.00  0.00    -0.341 OA
HETATM   26  C10 UNL     1       0.628  -2.063  15.443  1.00  0.00     0.211 C 
ENDBRANCH   5  25
BRANCH   8  27
HETATM   27  C12 UNL     1       4.549  -1.900  11.837  1.00  0.00     0.008 C 
HETATM   28  C13 UNL     1       3.344  -2.639  11.350  1.00  0.00     0.022 C 
HETATM   29  C14 UNL     1       4.736  -0.603  11.064  1.00  0.00     0.022 C 
HETATM   30  C15 UNL     1       5.829  -2.704  11.690  1.00  0.00     0.022 C 
ENDBRANCH   8  27
TORSDOF 5
ENDMDL
MODEL 2
REMARK VINA RESULT: -9.359372767      2.285      8.079
REMARK  5 active torsions:
REMARK  status: ('A' for Active; 'I' for Inactive)
REMARK    1  A    between atoms: C2_2  and  C3_3 
REMARK    2  A    between atoms: C3_3  and  N1_4 
REMARK    3  A    between atoms: C6_7  and  N2_8 
REMARK    4  A    between atoms: C9_12  and  O1_13 
REMARK    5  A    between atoms: C11_17  and  C12_18 
ROOT
HETATM    1  N2  UNL     1       6.155   2.649  14.465  1.00  0.00    -0.371 N 
ATOM      2  H2  UNL     1       6.677   3.074  13.699  1.00  0.00     0.161 HD
HETATM    3  C7  UNL     1       6.470   3.075  15.606  1.00  0.00     0.106 A 
HETATM    4  C8  UNL     1       5.953   2.696  16.800  1.00  0.00     0.104 A 
HETATM    5  C9  UNL     1       6.334   3.278  17.995  1.00  0.00     0.146 A 
HETATM    6  N3  UNL     1       7.253   4.261  17.956  1.00  0.00    -0.326 N 
ATOM      7  H3  UNL     1       7.549   4.707  18.825  1.00  0.00     0.169 HD
HETATM    8  C11 UNL     1       7.792   4.668  16.775  1.00  0.00     0.092 A 
HETATM    9  N4  UNL     1       7.397   4.076  15.638  1.00  0.00    -0.332 N 
ATOM     10  H4  UNL     1       7.807   4.388  14.757  1.00  0.00     0.168 HD
ENDROOT
BRANCH   1  11
HETATM   11  C6  UNL     1       5.200   1.680  14.054  1.00  0.00     0.087 C 
HETATM   12  C5  UNL     1       5.326   1.635  12.543  1.00  0.00     0.050 C 
HETATM   13  C4  UNL     1       4.839   0.351  11.927  1.00  0.00     0.082 C 
HETATM   14  N1  UNL     1       5.547  -0.687  12.514  1.00  0.00    -0.404 N 
HETATM   15  C22 UNL     1       3.369   0.240  12.255  1.00  0.00     0.034 C 
HETATM   16  C17 UNL     1       5.303  -0.851  13.903  1.00  0.00     0.082 C 
HETATM   17  C16 UNL     1       5.389   0.394  14.739  1.00  0.00     0.050 C 
HETATM   18  C18 UNL     1       3.938  -1.505  14.002  1.00  0.00     0.034 C 
HETATM   19  C19 UNL     1       2.965  -1.003  12.967  1.00  0.00    -0.044 C 
HETATM   20  C20 UNL     1       1.679  -0.674  13.741  1.00  0.00     0.015 C 
HETATM   21  C21 UNL     1       2.584  -2.122  12.017  1.00  0.00     0.015 C 
BRANCH  14  22
HETATM   22  C3  UNL     1       6.608  -1.337  11.924  1.00  0.00     0.117 C 
BRANCH  22  23
HETATM   23  C2  UNL     1       6.210  -2.497  11.008  1.00  0.00     0.015 C 
HETATM   24  C1  UNL     1       6.275  -2.119   9.547  1.00  0.00     0.006 C 
ENDBRANCH  22  23
ENDBRANCH  14  22
ENDBRANCH   1  11
BRANCH   5  25
HETATM   25  O1  UNL     1       5.782   2.861  19.212  1.00  0.00    -0.341 OA
HETATM   26  C10 UNL     1       5.366   1.520  19.376  1.00  0.00     0.211 C 
ENDBRANCH   5  25
BRANCH   8  27
HETATM   27  C12 UNL     1       8.784   5.798  16.785  1.00  0.00     0.008 C 
HETATM   28  C13 UNL     1      10.137   5.235  16.488  1.00  0.00     0.022 C 
HETATM   29  C14 UNL     1       8.370   6.801  15.719  1.00  0.00     0.022 C 
HETATM   30  C15 UNL     1       8.728   6.511  18.125  1.00  0.00     0.022 C 
ENDBRANCH   8  27
TORSDOF 5
ENDMDL
MODEL 3
REMARK VINA RESULT: -9.267730172      1.927      4.001
REMARK  5 active torsions:
REMARK  status: ('A' for Active; 'I' for Inactive)
REMARK    1  A    between atoms: C2_2  and  C3_3 
REMARK    2  A    between atoms: C3_3  and  N1_4 
REMARK    3  A    between atoms: C6_7  and  N2_8 
REMARK    4  A    between atoms: C9_12  and  O1_13 
REMARK    5  A    between atoms: C11_17  and  C12_18 
ROOT
HETATM    1  N2  UNL     1       5.796   2.668  14.319  1.00  0.00    -0.371 N 
ATOM      2  H2  UNL     1       5.725   2.777  13.307  1.00  0.00     0.161 HD
HETATM    3  C7  UNL     1       5.188   1.666  14.776  1.00  0.00     0.106 A 
HETATM    4  C8  UNL     1       5.104   1.271  16.070  1.00  0.00     0.104 A 
HETATM    5  C9  UNL     1       4.457   0.111  16.454  1.00  0.00     0.146 A 
HETATM    6  N3  UNL     1       3.895  -0.648  15.494  1.00  0.00    -0.326 N 
ATOM      7  H3  UNL     1       3.412  -1.510  15.753  1.00  0.00     0.169 HD
HETATM    8  C11 UNL     1       3.961  -0.284  14.186  1.00  0.00     0.092 A 
HETATM    9  N4  UNL     1       4.597   0.851  13.855  1.00  0.00    -0.332 N 
ATOM     10  H4  UNL     1       4.641   1.116  12.870  1.00  0.00     0.168 HD
ENDROOT
BRANCH   1  11
HETATM   11  C6  UNL     1       6.563   3.676  14.962  1.00  0.00     0.087 C 
HETATM   12  C5  UNL     1       5.711   4.115  16.138  1.00  0.00     0.050 C 
HETATM   13  C4  UNL     1       6.491   4.755  17.254  1.00  0.00     0.082 C 
HETATM   14  N1  UNL     1       7.460   3.848  17.657  1.00  0.00    -0.404 N 
HETATM   15  C22 UNL     1       7.133   5.996  16.682  1.00  0.00     0.034 C 
HETATM   16  C17 UNL     1       8.438   3.557  16.668  1.00  0.00     0.082 C 
HETATM   17  C16 UNL     1       7.913   3.208  15.305  1.00  0.00     0.050 C 
HETATM   18  C18 UNL     1       9.349   4.768  16.630  1.00  0.00     0.034 C 
HETATM   19  C19 UNL     1       8.614   6.069  16.818  1.00  0.00    -0.044 C 
HETATM   20  C20 UNL     1       9.117   6.989  15.694  1.00  0.00     0.015 C 
HETATM   21  C21 UNL     1       9.050   6.739  18.107  1.00  0.00     0.015 C 
BRANCH  14  22
HETATM   22  C3  UNL     1       7.369   3.059  18.782  1.00  0.00     0.117 C 
BRANCH  22  23
HETATM   23  C2  UNL     1       6.632   3.711  19.955  1.00  0.00     0.015 C 
HETATM   24  C1  UNL     1       6.472   2.768  21.123  1.00  0.00     0.006 C 
ENDBRANCH  22  23
ENDBRANCH  14  22
ENDBRANCH   1  11
BRANCH   5  25
HETATM   25  O1  UNL     1       4.385  -0.266  17.800  1.00  0.00    -0.341 OA
HETATM   26  C10 UNL     1       5.120   0.447  18.773  1.00  0.00     0.211 C 
ENDBRANCH   5  25
BRANCH   8  27
HETATM   27  C12 UNL     1       3.352  -1.190  13.151  1.00  0.00     0.008 C 
HETATM   28  C13 UNL     1       4.460  -1.795  12.350  1.00  0.00     0.022 C 
HETATM   29  C14 UNL     1       2.559  -2.267  13.875  1.00  0.00     0.022 C 
HETATM   30  C15 UNL     1       2.375  -0.401  12.298  1.00  0.00     0.022 C 
ENDBRANCH   8  27
TORSDOF 5
ENDMDL
MODEL 4
REMARK VINA RESULT: -9.036351373      4.335      8.912
REMARK  5 active torsions:
REMARK  status: ('A' for Active; 'I' for Inactive)
REMARK    1  A    between atoms: C2_2  and  C3_3 
REMARK    2  A    between atoms: C3_3  and  N1_4 
REMARK    3  A    between atoms: C6_7  and  N2_8 
REMARK    4  A    between atoms: C9_12  and  O1_13 
REMARK    5  A    between atoms: C11_17  and  C12_18 
ROOT
HETATM    1  N2  UNL     1       8.274   5.643  16.338  1.00  0.00    -0.371 N 
ATOM      2  H2  UNL     1       7.908   5.658  15.387  1.00  0.00     0.161 HD
HETATM    3  C7  UNL     1       9.124   6.537  16.580  1.00  0.00     0.106 A 
HETATM    4  C8  UNL     1       9.780   6.760  17.745  1.00  0.00     0.104 A 
HETATM    5  C9  UNL     1      10.654   7.817  17.918  1.00  0.00     0.146 A 
HETATM    6  N3  UNL     1      10.850   8.653  16.881  1.00  0.00    -0.326 N 
ATOM      7  H3  UNL     1      11.490   9.442  16.985  1.00  0.00     0.169 HD
HETATM    8  C11 UNL     1      10.207   8.462  15.698  1.00  0.00     0.092 A 
HETATM    9  N4  UNL     1       9.369   7.422  15.570  1.00  0.00    -0.332 N 
ATOM     10  H4  UNL     1       8.892   7.287  14.678  1.00  0.00     0.168 HD
ENDROOT
BRANCH   1  11
HETATM   11  C6  UNL     1       7.734   4.613  17.156  1.00  0.00     0.087 C 
HETATM   12  C5  UNL     1       6.392   4.290  16.529  1.00  0.00     0.050 C 
HETATM   13  C4  UNL     1       5.878   2.915  16.857  1.00  0.00     0.082 C 
HETATM   14  N1  UNL     1       6.843   2.003  16.456  1.00  0.00    -0.404 N 
HETATM   15  C22 UNL     1       5.694   2.864  18.355  1.00  0.00     0.034 C 
HETATM   16  C17 UNL     1       8.070   2.098  17.166  1.00  0.00     0.082 C 
HETATM   17  C16 UNL     1       8.655   3.476  17.290  1.00  0.00     0.050 C 
HETATM   18  C18 UNL     1       7.805   1.472  18.521  1.00  0.00     0.034 C 
HETATM   19  C19 UNL     1       6.428   1.772  19.052  1.00  0.00    -0.044 C 
HETATM   20  C20 UNL     1       6.642   2.237  20.501  1.00  0.00     0.015 C 
HETATM   21  C21 UNL     1       5.614   0.497  19.159  1.00  0.00     0.015 C 
BRANCH  14  22
HETATM   22  C3  UNL     1       6.778   1.257  15.300  1.00  0.00     0.117 C 
BRANCH  22  23
HETATM   23  C2  UNL     1       5.550   1.541  14.432  1.00  0.00     0.015 C 
HETATM   24  C1  UNL     1       5.905   2.280  13.164  1.00  0.00     0.006 C 
ENDBRANCH  22  23
ENDBRANCH  14  22
ENDBRANCH   1  11
BRANCH   5  25
HETATM   25  O1  UNL     1      11.318   8.016  19.134  1.00  0.00    -0.341 OA
HETATM   26  C10 UNL     1      12.612   7.483  19.328  1.00  0.00     0.211 C 
ENDBRANCH   5  25
BRANCH   8  27
HETATM   27  C12 UNL     1      10.431   9.450  14.586  1.00  0.00     0.008 C 
HETATM   28  C13 UNL     1       9.128   9.671  13.888  1.00  0.00     0.022 C 
HETATM   29  C14 UNL     1      10.941  10.745  15.200  1.00  0.00     0.022 C 
HETATM   30  C15 UNL     1      11.514   8.930  13.657  1.00  0.00     0.022 C 
ENDBRANCH   8  27
TORSDOF 5
ENDMDL
MODEL 5
REMARK VINA RESULT: -8.965849647      1.371      2.952
REMARK  5 active torsions:
REMARK  status: ('A' for Active; 'I' for Inactive)
REMARK    1  A    between atoms: C2_2  and  C3_3 
REMARK    2  A    between atoms: C3_3  and  N1_4 
REMARK    3  A    between atoms: C6_7  and  N2_8 
REMARK    4  A    between atoms: C9_12  and  O1_13 
REMARK    5  A    between atoms: C11_17  and  C12_18 
ROOT
HETATM    1  N2  UNL     1       6.591   1.432  14.184  1.00  0.00    -0.371 N 
ATOM      2  H2  UNL     1       7.302   1.308  13.464  1.00  0.00     0.161 HD
HETATM    3  C7  UNL     1       5.599   0.668  14.069  1.00  0.00     0.106 A 
HETATM    4  C8  UNL     1       4.507   0.605  14.870  1.00  0.00     0.104 A 
HETATM    5  C9  UNL     1       3.497  -0.321  14.683  1.00  0.00     0.146 A 
HETATM    6  N3  UNL     1       3.618  -1.192  13.663  1.00  0.00    -0.326 N 
ATOM      7  H3  UNL     1       2.887  -1.886  13.506  1.00  0.00     0.169 HD
HETATM    8  C11 UNL     1       4.701  -1.160  12.841  1.00  0.00     0.092 A 
HETATM    9  N4  UNL     1       5.658  -0.243  13.055  1.00  0.00    -0.332 N 
ATOM     10  H4  UNL     1       6.465  -0.227  12.432  1.00  0.00     0.168 HD
ENDROOT
BRANCH   1  11
HETATM   11  C6  UNL     1       6.897   2.437  15.141  1.00  0.00     0.087 C 
HETATM   12  C5  UNL     1       5.557   3.052  15.493  1.00  0.00     0.050 C 
HETATM   13  C4  UNL     1       5.530   3.737  16.832  1.00  0.00     0.082 C 
HETATM   14  N1  UNL     1       5.911   2.803  17.785  1.00  0.00    -0.404 N 
HETATM   15  C22 UNL     1       6.534   4.864  16.767  1.00  0.00     0.034 C 
HETATM   16  C17 UNL     1       7.248   2.343  17.652  1.00  0.00     0.082 C 
HETATM   17  C16 UNL     1       7.661   1.903  16.277  1.00  0.00     0.050 C 
HETATM   18  C18 UNL     1       8.119   3.471  18.170  1.00  0.00     0.034 C 
HETATM   19  C19 UNL     1       7.594   4.837  17.812  1.00  0.00    -0.044 C 
HETATM   20  C20 UNL     1       8.799   5.601  17.240  1.00  0.00     0.015 C 
HETATM   21  C21 UNL     1       7.198   5.594  19.064  1.00  0.00     0.015 C 
BRANCH  14  22
HETATM   22  C3  UNL     1       5.037   2.138  18.616  1.00  0.00     0.117 C 
BRANCH  22  23
HETATM   23  C2  UNL     1       5.690   1.512  19.850  1.00  0.00     0.015 C 
HETATM   24  C1  UNL     1       5.882   2.513  20.964  1.00  0.00     0.006 C 
ENDBRANCH  22  23
ENDBRANCH  14  22
ENDBRANCH   1  11
BRANCH   5  25
HETATM   25  O1  UNL     1       2.382  -0.356  15.527  1.00  0.00    -0.341 OA
HETATM   26  C10 UNL     1       1.082  -0.234  14.985  1.00  0.00     0.211 C 
ENDBRANCH   5  25
BRANCH   8  27
HETATM   27  C12 UNL     1       4.804  -2.183  11.743  1.00  0.00     0.008 C 
HETATM   28  C13 UNL     1       3.476  -2.854  11.603  1.00  0.00     0.022 C 
HETATM   29  C14 UNL     1       5.183  -1.461  10.459  1.00  0.00     0.022 C 
HETATM   30  C15 UNL     1       5.923  -3.158  12.062  1.00  0.00     0.022 C 
ENDBRANCH   8  27
TORSDOF 5
ENDMDL
