MODEL 1
REMARK VINA RESULT: -9.992450720      0.000      0.000
REMARK  6 active torsions:
REMARK  status: ('A' for Active; 'I' for Inactive)
REMARK    1  A    between atoms: C2_2  and  C3_3 
REMARK    2  A    between atoms: C10_11  and  C11_12 
REMARK    3  A    between atoms: C11_12  and  C12_13 
REMARK    4  A    between atoms: C12_13  and  C13_14 
REMARK    5  A    between atoms: C13_14  and  O2_16 
REMARK    6  A    between atoms: C20_23  and  O3_24 
ROOT
HETATM    1  C3  UNL     1       6.671   2.717  18.679  1.00  0.00     0.026 C 
HETATM    2  C4  UNL     1       7.492   1.510  19.187  1.00  0.00     0.289 C 
HETATM    3  N1  UNL     1       6.926   0.900  17.946  1.00  0.00     0.131 N 
HETATM    4  C5  UNL     1       7.340   2.234  17.471  1.00  0.00     0.246 C 
HETATM    5  C6  UNL     1       6.621   2.852  16.322  1.00  0.00    -0.008 C 
HETATM    6  C7  UNL     1       7.127   4.317  16.317  1.00  0.00     0.018 C 
HETATM    7  C8  UNL     1       7.064   2.322  14.995  1.00  0.00     0.012 C 
HETATM    8  C9  UNL     1       6.304   2.817  13.820  1.00  0.00     0.005 C 
HETATM    9  C10 UNL     1       5.289   1.920  13.233  1.00  0.00    -0.013 C 
HETATM   10  C15 UNL     1       5.024   0.649  13.973  1.00  0.00     0.013 C 
HETATM   11  C16 UNL     1       4.330   0.794  15.294  1.00  0.00    -0.043 C 
HETATM   12  C17 UNL     1       2.870   0.334  15.019  1.00  0.00     0.015 C 
HETATM   13  C18 UNL     1       4.854  -0.329  16.162  1.00  0.00     0.014 C 
HETATM   14  C19 UNL     1       4.632  -0.012  17.573  1.00  0.00     0.073 C 
HETATM   15  C20 UNL     1       5.530   0.884  18.267  1.00  0.00     0.264 C 
HETATM   16  C21 UNL     1       5.258   2.361  18.195  1.00  0.00     0.069 C 
HETATM   17  C22 UNL     1       5.228   2.772  16.707  1.00  0.00     0.006 C 
HETATM   18  C23 UNL     1       4.217   2.096  15.907  1.00  0.00     0.015 C 
ENDROOT
BRANCH   9  19
HETATM   19  C11 UNL     1       5.566   1.560  11.783  1.00  0.00     0.014 C 
BRANCH  19  20
HETATM   20  C12 UNL     1       4.984   0.236  11.377  1.00  0.00     0.111 C 
BRANCH  20  21
HETATM   21  C13 UNL     1       6.030  -0.819  11.273  1.00  0.00     0.258 C 
HETATM   22  O1  UNL     1       7.221  -0.610  11.002  1.00  0.00    -0.265 OA
BRANCH  21  23
HETATM   23  O2  UNL     1       5.617  -2.124  11.497  1.00  0.00    -0.326 OA
HETATM   24  C14 UNL     1       4.377  -2.435  12.099  1.00  0.00     0.213 C 
ENDBRANCH  21  23
ENDBRANCH  20  21
ENDBRANCH  19  20
ENDBRANCH   9  19
BRANCH   1  25
HETATM   25  C2  UNL     1       6.854   3.847  19.501  1.00  0.00     0.009 C 
HETATM   26  C1  UNL     1       6.475   3.720  20.930  1.00  0.00     0.006 C 
ENDBRANCH   1  25
BRANCH  15  27
HETATM   27  O3  UNL     1       5.292   0.601  19.651  1.00  0.00    -0.362 OA
ATOM     28  H3  UNL     1       4.557   0.014  19.777  1.00  0.00     0.212 HD
ENDBRANCH  15  27
TORSDOF 6
ENDMDL
MODEL 2
REMARK VINA RESULT: -9.791240723      3.026      6.595
REMARK  6 active torsions:
REMARK  status: ('A' for Active; 'I' for Inactive)
REMARK    1  A    between atoms: C2_2  and  C3_3 
REMARK    2  A    between atoms: C10_11  and  C11_12 
REMARK    3  A    between atoms: C11_12  and  C12_13 
REMARK    4  A    between atoms: C12_13  and  C13_14 
REMARK    5  A    between atoms: C13_14  and  O2_16 
REMARK    6  A    between atoms: C20_23  and  O3_24 
ROOT
HETATM    1  C3  UNL     1       4.688   0.589  14.760  1.00  0.00     0.026 C 
HETATM    2  C4  UNL     1       3.200   0.532  15.173  1.00  0.00     0.289 C 
HETATM    3  N1  UNL     1       3.743   1.253  16.363  1.00  0.00     0.131 N 
HETATM    4  C5  UNL     1       4.424   1.942  15.251  1.00  0.00     0.246 C 
HETATM    5  C6  UNL     1       5.756   2.566  15.489  1.00  0.00    -0.008 C 
HETATM    6  C7  UNL     1       6.259   2.912  14.063  1.00  0.00     0.018 C 
HETATM    7  C8  UNL     1       5.672   3.897  16.165  1.00  0.00     0.012 C 
HETATM    8  C9  UNL     1       6.970   4.515  16.530  1.00  0.00     0.005 C 
HETATM    9  C10 UNL     1       7.398   4.430  17.941  1.00  0.00    -0.013 C 
HETATM   10  C15 UNL     1       6.541   3.598  18.841  1.00  0.00     0.013 C 
HETATM   11  C16 UNL     1       6.579   2.119  18.597  1.00  0.00    -0.043 C 
HETATM   12  C17 UNL     1       7.449   1.556  19.757  1.00  0.00     0.015 C 
HETATM   13  C18 UNL     1       5.204   1.605  18.958  1.00  0.00     0.014 C 
HETATM   14  C19 UNL     1       4.974   0.309  18.320  1.00  0.00     0.073 C 
HETATM   15  C20 UNL     1       4.586   0.241  16.928  1.00  0.00     0.264 C 
HETATM   16  C21 UNL     1       5.669   0.233  15.886  1.00  0.00     0.069 C 
HETATM   17  C22 UNL     1       6.533   1.498  16.081  1.00  0.00     0.006 C 
HETATM   18  C23 UNL     1       7.172   1.606  17.385  1.00  0.00     0.015 C 
ENDROOT
BRANCH   9  19
HETATM   19  C11 UNL     1       7.579   5.786  18.601  1.00  0.00     0.014 C 
BRANCH  19  20
HETATM   20  C12 UNL     1       8.206   6.808  17.696  1.00  0.00     0.111 C 
BRANCH  20  21
HETATM   21  C13 UNL     1       9.693   6.754  17.747  1.00  0.00     0.258 C 
HETATM   22  O1  UNL     1      10.407   6.156  16.930  1.00  0.00    -0.265 OA
BRANCH  21  23
HETATM   23  O2  UNL     1      10.301   7.429  18.795  1.00  0.00    -0.326 OA
HETATM   24  C14 UNL     1      11.672   7.775  18.782  1.00  0.00     0.213 C 
ENDBRANCH  21  23
ENDBRANCH  20  21
ENDBRANCH  19  20
ENDBRANCH   9  19
BRANCH   1  25
HETATM   25  C2  UNL     1       4.887   0.046  13.475  1.00  0.00     0.009 C 
HETATM   26  C1  UNL     1       3.793   0.210  12.488  1.00  0.00     0.006 C 
ENDBRANCH   1  25
BRANCH  15  27
HETATM   27  O3  UNL     1       4.027  -1.071  16.794  1.00  0.00    -0.362 OA
ATOM     28  H3  UNL     1       3.773  -1.264  15.899  1.00  0.00     0.212 HD
ENDBRANCH  15  27
TORSDOF 6
ENDMDL
MODEL 3
REMARK VINA RESULT: -9.779032588      2.761      4.403
REMARK  6 active torsions:
REMARK  status: ('A' for Active; 'I' for Inactive)
REMARK    1  A    between atoms: C2_2  and  C3_3 
REMARK    2  A    between atoms: C10_11  and  C11_12 
REMARK    3  A    between atoms: C11_12  and  C12_13 
REMARK    4  A    between atoms: C12_13  and  C13_14 
REMARK    5  A    between atoms: C13_14  and  O2_16 
REMARK    6  A    between atoms: C20_23  and  O3_24 
ROOT
HETATM    1  C3  UNL     1       6.748   3.228  17.024  1.00  0.00     0.026 C 
HETATM    2  C4  UNL     1       6.076   4.545  16.577  1.00  0.00     0.289 C 
HETATM    3  N1  UNL     1       5.492   3.629  15.552  1.00  0.00     0.131 N 
HETATM    4  C5  UNL     1       5.359   2.833  16.787  1.00  0.00     0.246 C 
HETATM    5  C6  UNL     1       5.358   1.346  16.696  1.00  0.00    -0.008 C 
HETATM    6  C7  UNL     1       5.499   0.888  18.171  1.00  0.00     0.018 C 
HETATM    7  C8  UNL     1       4.039   0.781  16.276  1.00  0.00     0.012 C 
HETATM    8  C9  UNL     1       4.009  -0.687  16.059  1.00  0.00     0.005 C 
HETATM    9  C10 UNL     1       4.051  -1.174  14.666  1.00  0.00    -0.013 C 
HETATM   10  C15 UNL     1       4.266  -0.138  13.610  1.00  0.00     0.013 C 
HETATM   11  C16 UNL     1       5.627   0.489  13.577  1.00  0.00    -0.043 C 
HETATM   12  C17 UNL     1       6.326  -0.165  12.350  1.00  0.00     0.015 C 
HETATM   13  C18 UNL     1       5.417   1.908  13.098  1.00  0.00     0.014 C 
HETATM   14  C19 UNL     1       6.562   2.735  13.480  1.00  0.00     0.073 C 
HETATM   15  C20 UNL     1       6.669   3.252  14.827  1.00  0.00     0.264 C 
HETATM   16  C21 UNL     1       7.318   2.388  15.871  1.00  0.00     0.069 C 
HETATM   17  C22 UNL     1       6.552   1.049  15.932  1.00  0.00     0.006 C 
HETATM   18  C23 UNL     1       6.533   0.299  14.684  1.00  0.00     0.015 C 
ENDROOT
BRANCH   9  19
HETATM   19  C11 UNL     1       2.828  -1.987  14.273  1.00  0.00     0.014 C 
BRANCH  19  20
HETATM   20  C12 UNL     1       1.624  -1.141  13.971  1.00  0.00     0.111 C 
BRANCH  20  21
HETATM   21  C13 UNL     1       0.708  -1.047  15.141  1.00  0.00     0.258 C 
HETATM   22  O1  UNL     1       0.201   0.003  15.560  1.00  0.00    -0.265 OA
BRANCH  21  23
HETATM   23  O2  UNL     1       0.415  -2.235  15.795  1.00  0.00    -0.326 OA
HETATM   24  C14 UNL     1      -0.885  -2.550  16.251  1.00  0.00     0.213 C 
ENDBRANCH  21  23
ENDBRANCH  20  21
ENDBRANCH  19  20
ENDBRANCH   9  19
BRANCH   1  25
HETATM   25  C2  UNL     1       7.518   3.411  18.189  1.00  0.00     0.009 C 
HETATM   26  C1  UNL     1       6.934   4.244  19.269  1.00  0.00     0.006 C 
ENDBRANCH   1  25
BRANCH  15  27
HETATM   27  O3  UNL     1       7.602   4.332  14.705  1.00  0.00    -0.362 OA
ATOM     28  H3  UNL     1       8.297   4.139  14.086  1.00  0.00     0.212 HD
ENDBRANCH  15  27
TORSDOF 6
ENDMDL
MODEL 4
REMARK VINA RESULT: -9.720735688      2.359      6.177
REMARK  6 active torsions:
REMARK  status: ('A' for Active; 'I' for Inactive)
REMARK    1  A    between atoms: C2_2  and  C3_3 
REMARK    2  A    between atoms: C10_11  and  C11_12 
REMARK    3  A    between atoms: C11_12  and  C12_13 
REMARK    4  A    between atoms: C12_13  and  C13_14 
REMARK    5  A    between atoms: C13_14  and  O2_16 
REMARK    6  A    between atoms: C20_23  and  O3_24 
ROOT
HETATM    1  C3  UNL     1       4.838  -1.318  12.614  1.00  0.00     0.026 C 
HETATM    2  C4  UNL     1       3.359  -1.291  12.164  1.00  0.00     0.289 C 
HETATM    3  N1  UNL     1       3.315  -0.188  13.170  1.00  0.00     0.131 N 
HETATM    4  C5  UNL     1       4.564   0.109  12.444  1.00  0.00     0.246 C 
HETATM    5  C6  UNL     1       5.660   0.831  13.148  1.00  0.00    -0.008 C 
HETATM    6  C7  UNL     1       6.869   0.692  12.186  1.00  0.00     0.018 C 
HETATM    7  C8  UNL     1       5.440   2.308  13.227  1.00  0.00     0.012 C 
HETATM    8  C9  UNL     1       6.443   3.066  14.016  1.00  0.00     0.005 C 
HETATM    9  C10 UNL     1       6.067   3.482  15.382  1.00  0.00    -0.013 C 
HETATM   10  C15 UNL     1       4.758   2.971  15.891  1.00  0.00     0.013 C 
HETATM   11  C16 UNL     1       4.695   1.500  16.174  1.00  0.00    -0.043 C 
HETATM   12  C17 UNL     1       4.752   1.400  17.726  1.00  0.00     0.015 C 
HETATM   13  C18 UNL     1       3.271   1.084  15.885  1.00  0.00     0.014 C 
HETATM   14  C19 UNL     1       3.211  -0.361  15.659  1.00  0.00     0.073 C 
HETATM   15  C20 UNL     1       3.587  -0.912  14.376  1.00  0.00     0.264 C 
HETATM   16  C21 UNL     1       5.036  -1.230  14.134  1.00  0.00     0.069 C 
HETATM   17  C22 UNL     1       5.855   0.060  14.358  1.00  0.00     0.006 C 
HETATM   18  C23 UNL     1       5.742   0.630  15.693  1.00  0.00     0.015 C 
ENDROOT
BRANCH   9  19
HETATM   19  C11 UNL     1       6.084   4.988  15.581  1.00  0.00     0.014 C 
BRANCH  19  20
HETATM   20  C12 UNL     1       6.560   5.402  16.944  1.00  0.00     0.111 C 
BRANCH  20  21
HETATM   21  C13 UNL     1       7.802   4.682  17.338  1.00  0.00     0.258 C 
HETATM   22  O1  UNL     1       8.929   4.909  16.874  1.00  0.00    -0.265 OA
BRANCH  21  23
HETATM   23  O2  UNL     1       7.664   3.688  18.295  1.00  0.00    -0.326 OA
HETATM   24  C14 UNL     1       8.207   2.393  18.129  1.00  0.00     0.213 C 
ENDBRANCH  21  23
ENDBRANCH  20  21
ENDBRANCH  19  20
ENDBRANCH   9  19
BRANCH   1  25
HETATM   25  C2  UNL     1       5.584  -2.256  11.874  1.00  0.00     0.009 C 
HETATM   26  C1  UNL     1       5.847  -1.948  10.448  1.00  0.00     0.006 C 
ENDBRANCH   1  25
BRANCH  15  27
HETATM   27  O3  UNL     1       2.988  -2.214  14.376  1.00  0.00    -0.362 OA
ATOM     28  H3  UNL     1       3.631  -2.906  14.469  1.00  0.00     0.212 HD
ENDBRANCH  15  27
TORSDOF 6
ENDMDL
MODEL 5
REMARK VINA RESULT: -9.503257806      3.009      6.506
REMARK  6 active torsions:
REMARK  status: ('A' for Active; 'I' for Inactive)
REMARK    1  A    between atoms: C2_2  and  C3_3 
REMARK    2  A    between atoms: C10_11  and  C11_12 
REMARK    3  A    between atoms: C11_12  and  C12_13 
REMARK    4  A    between atoms: C12_13  and  C13_14 
REMARK    5  A    between atoms: C13_14  and  O2_16 
REMARK    6  A    between atoms: C20_23  and  O3_24 
ROOT
HETATM    1  C3  UNL     1       4.542  -0.338  14.222  1.00  0.00     0.026 C 
HETATM    2  C4  UNL     1       3.067  -0.229  14.669  1.00  0.00     0.289 C 
HETATM    3  N1  UNL     1       3.658   0.805  15.571  1.00  0.00     0.131 N 
HETATM    4  C5  UNL     1       4.316   1.107  14.285  1.00  0.00     0.246 C 
HETATM    5  C6  UNL     1       5.664   1.740  14.289  1.00  0.00    -0.008 C 
HETATM    6  C7  UNL     1       6.128   1.625  12.814  1.00  0.00     0.018 C 
HETATM    7  C8  UNL     1       5.623   3.215  14.531  1.00  0.00     0.012 C 
HETATM    8  C9  UNL     1       6.942   3.883  14.659  1.00  0.00     0.005 C 
HETATM    9  C10 UNL     1       7.411   4.218  16.018  1.00  0.00    -0.013 C 
HETATM   10  C15 UNL     1       6.570   3.720  17.149  1.00  0.00     0.013 C 
HETATM   11  C16 UNL     1       6.576   2.237  17.364  1.00  0.00    -0.043 C 
HETATM   12  C17 UNL     1       7.473   2.030  18.619  1.00  0.00     0.015 C 
HETATM   13  C18 UNL     1       5.205   1.891  17.898  1.00  0.00     0.014 C 
HETATM   14  C19 UNL     1       4.934   0.468  17.691  1.00  0.00     0.073 C 
HETATM   15  C20 UNL     1       4.502  -0.008  16.395  1.00  0.00     0.264 C 
HETATM   16  C21 UNL     1       5.552  -0.359  15.378  1.00  0.00     0.069 C 
HETATM   17  C22 UNL     1       6.442   0.883  15.158  1.00  0.00     0.006 C 
HETATM   18  C23 UNL     1       7.123   1.365  16.351  1.00  0.00     0.015 C 
ENDROOT
BRANCH   9  19
HETATM   19  C11 UNL     1       7.635   5.706  16.230  1.00  0.00     0.014 C 
BRANCH  19  20
HETATM   20  C12 UNL     1       8.200   6.035  17.582  1.00  0.00     0.111 C 
BRANCH  20  21
HETATM   21  C13 UNL     1       9.598   6.538  17.490  1.00  0.00     0.258 C 
HETATM   22  O1  UNL     1      10.382   6.284  16.565  1.00  0.00    -0.265 OA
BRANCH  21  23
HETATM   23  O2  UNL     1      10.034   7.348  18.528  1.00  0.00    -0.326 OA
HETATM   24  C14 UNL     1      11.405   7.565  18.799  1.00  0.00     0.213 C 
ENDBRANCH  21  23
ENDBRANCH  20  21
ENDBRANCH  19  20
ENDBRANCH   9  19
BRANCH   1  25
HETATM   25  C2  UNL     1       4.692  -1.249  13.158  1.00  0.00     0.009 C 
HETATM   26  C1  UNL     1       3.609  -2.240  12.949  1.00  0.00     0.006 C 
ENDBRANCH   1  25
BRANCH  15  27
HETATM   27  O3  UNL     1       3.918  -1.285  16.679  1.00  0.00    -0.362 OA
ATOM     28  H3  UNL     1       3.990  -1.519  17.597  1.00  0.00     0.212 HD
ENDBRANCH  15  27
TORSDOF 6
ENDMDL
