MODEL 1
REMARK VINA RESULT: -9.361869464      0.000      0.000
REMARK  7 active torsions:
REMARK  status: ('A' for Active; 'I' for Inactive)
REMARK    1  A    between atoms: C3_3  and  C4_4 
REMARK    2  A    between atoms: C4_4  and  N1_5 
REMARK    3  A    between atoms: C4_4  and  C20_28 
REMARK    4  A    between atoms: N1_5  and  C5_7 
REMARK    5  A    between atoms: C6_10  and  C7_11 
REMARK    6  A    between atoms: C7_11  and  C8_12 
REMARK    7  A    between atoms: C14_20  and  O1_21 
ROOT
HETATM    1  C1  UNL     1       6.938  -0.190  11.699  1.00  0.00     0.012 C 
HETATM    2  C2  UNL     1       6.250   0.567  12.355  1.00  0.00    -0.115 C 
HETATM    3  C3  UNL     1       5.446   1.497  13.099  1.00  0.00     0.118 C 
ENDROOT
BRANCH   3   4
HETATM    4  C4  UNL     1       5.194   1.158  14.498  1.00  0.00     0.101 C 
BRANCH   4   5
HETATM    5  N1  UNL     1       5.218   2.438  15.244  1.00  0.00    -0.369 N 
ATOM      6  H1  UNL     1       4.506   3.138  15.036  1.00  0.00     0.161 HD
BRANCH   5   7
HETATM    7  C5  UNL     1       6.092   2.701  16.136  1.00  0.00     0.115 A 
HETATM    8  N2  UNL     1       6.353   1.932  17.196  1.00  0.00    -0.332 N 
HETATM    9  C6  UNL     1       7.290   2.248  18.119  1.00  0.00     0.083 A 
ATOM     10  H2  UNL     1       5.824   1.068  17.315  1.00  0.00     0.168 HD
HETATM   11  N3  UNL     1       8.010   3.381  17.997  1.00  0.00    -0.345 N 
HETATM   12  C12 UNL     1       7.767   4.179  16.931  1.00  0.00     0.050 A 
ATOM     13  H3  UNL     1       8.718   3.630  18.688  1.00  0.00     0.167 HD
HETATM   14  C13 UNL     1       8.509   5.356  16.797  1.00  0.00     0.068 A 
HETATM   15  C19 UNL     1       6.820   3.877  15.982  1.00  0.00     0.036 A 
HETATM   16  C14 UNL     1       8.281   6.186  15.721  1.00  0.00     0.091 A 
HETATM   17  C16 UNL     1       7.325   5.865  14.777  1.00  0.00     0.079 A 
HETATM   18  C17 UNL     1       7.136   6.780  13.673  1.00  0.00     0.102 C 
HETATM   19  C18 UNL     1       6.604   4.715  14.918  1.00  0.00     0.043 A 
HETATM   20  N4  UNL     1       6.967   7.511  12.790  1.00  0.00    -0.191 NA
BRANCH   9  21
HETATM   21  C7  UNL     1       7.572   1.386  19.294  1.00  0.00     0.084 C 
BRANCH  21  22
HETATM   22  C8  UNL     1       6.479   1.558  20.326  1.00  0.00    -0.045 C 
HETATM   23  C9  UNL     1       6.559   0.485  21.385  1.00  0.00     0.015 C 
HETATM   24  C10 UNL     1       5.136   1.381  19.619  1.00  0.00     0.015 C 
HETATM   25  C11 UNL     1       6.471   2.947  20.924  1.00  0.00     0.015 C 
ENDBRANCH  21  22
ENDBRANCH   9  21
BRANCH  16  26
HETATM   26  O1  UNL     1       9.008   7.359  15.569  1.00  0.00    -0.354 OA
HETATM   27  C15 UNL     1       9.857   7.859  16.579  1.00  0.00     0.210 C 
ENDBRANCH  16  26
ENDBRANCH   5   7
ENDBRANCH   4   5
BRANCH   4  28
HETATM   28  C20 UNL     1       3.979   0.431  14.899  1.00  0.00    -0.030 C 
HETATM   29  C21 UNL     1       3.188  -0.112  13.744  1.00  0.00     0.016 C 
HETATM   30  C22 UNL     1       3.064   1.226  15.811  1.00  0.00     0.016 C 
HETATM   31  C23 UNL     1       4.359  -0.807  15.737  1.00  0.00     0.016 C 
ENDBRANCH   4  28
ENDBRANCH   3   4
TORSDOF 7
ENDMDL
MODEL 2
REMARK VINA RESULT: -9.059534067      1.041      1.336
REMARK  7 active torsions:
REMARK  status: ('A' for Active; 'I' for Inactive)
REMARK    1  A    between atoms: C3_3  and  C4_4 
REMARK    2  A    between atoms: C4_4  and  N1_5 
REMARK    3  A    between atoms: C4_4  and  C20_28 
REMARK    4  A    between atoms: N1_5  and  C5_7 
REMARK    5  A    between atoms: C6_10  and  C7_11 
REMARK    6  A    between atoms: C7_11  and  C8_12 
REMARK    7  A    between atoms: C14_20  and  O1_21 
ROOT
HETATM    1  C1  UNL     1       7.301  -0.580  11.657  1.00  0.00     0.012 C 
HETATM    2  C2  UNL     1       6.579   0.236  12.194  1.00  0.00    -0.115 C 
HETATM    3  C3  UNL     1       5.752   1.236  12.812  1.00  0.00     0.118 C 
ENDROOT
BRANCH   3   4
HETATM    4  C4  UNL     1       4.946   0.796  13.949  1.00  0.00     0.101 C 
BRANCH   4   5
HETATM    5  N1  UNL     1       4.550   2.025  14.675  1.00  0.00    -0.369 N 
ATOM      6  H1  UNL     1       3.855   2.640  14.252  1.00  0.00     0.161 HD
BRANCH   5   7
HETATM    7  C5  UNL     1       5.042   2.346  15.807  1.00  0.00     0.115 A 
HETATM    8  N2  UNL     1       4.880   1.648  16.934  1.00  0.00    -0.332 N 
HETATM    9  C6  UNL     1       5.420   2.024  18.115  1.00  0.00     0.083 A 
ATOM     10  H2  UNL     1       4.324   0.793  16.902  1.00  0.00     0.168 HD
HETATM   11  N3  UNL     1       6.161   3.148  18.198  1.00  0.00    -0.345 N 
HETATM   12  C12 UNL     1       6.342   3.875  17.071  1.00  0.00     0.050 A 
ATOM     13  H3  UNL     1       6.572   3.441  19.084  1.00  0.00     0.167 HD
HETATM   14  C13 UNL     1       7.109   5.041  17.147  1.00  0.00     0.068 A 
HETATM   15  C19 UNL     1       5.803   3.511  15.861  1.00  0.00     0.036 A 
HETATM   16  C14 UNL     1       7.310   5.799  16.015  1.00  0.00     0.091 A 
HETATM   17  C16 UNL     1       6.759   5.417  14.807  1.00  0.00     0.079 A 
HETATM   18  C17 UNL     1       7.008   6.258  13.657  1.00  0.00     0.102 C 
HETATM   19  C18 UNL     1       6.011   4.277  14.743  1.00  0.00     0.043 A 
HETATM   20  N4  UNL     1       7.191   6.930  12.731  1.00  0.00    -0.191 NA
BRANCH   9  21
HETATM   21  C7  UNL     1       5.232   1.241  19.362  1.00  0.00     0.084 C 
BRANCH  21  22
HETATM   22  C8  UNL     1       6.423   1.438  20.273  1.00  0.00    -0.045 C 
HETATM   23  C9  UNL     1       7.719   1.242  19.524  1.00  0.00     0.015 C 
HETATM   24  C10 UNL     1       6.370   0.360  21.353  1.00  0.00     0.015 C 
HETATM   25  C11 UNL     1       6.378   2.769  20.992  1.00  0.00     0.015 C 
ENDBRANCH  21  22
ENDBRANCH   9  21
BRANCH  16  26
HETATM   26  O1  UNL     1       8.068   6.962  16.069  1.00  0.00    -0.354 OA
HETATM   27  C15 UNL     1       9.239   7.065  16.849  1.00  0.00     0.210 C 
ENDBRANCH  16  26
ENDBRANCH   5   7
ENDBRANCH   4   5
BRANCH   4  28
HETATM   28  C20 UNL     1       3.735  -0.017  13.754  1.00  0.00    -0.030 C 
HETATM   29  C21 UNL     1       3.113   0.136  12.396  1.00  0.00     0.016 C 
HETATM   30  C22 UNL     1       2.678   0.196  14.822  1.00  0.00     0.016 C 
HETATM   31  C23 UNL     1       4.083  -1.515  13.865  1.00  0.00     0.016 C 
ENDBRANCH   4  28
ENDBRANCH   3   4
TORSDOF 7
ENDMDL
MODEL 3
REMARK VINA RESULT: -8.962123877      2.572      6.017
REMARK  7 active torsions:
REMARK  status: ('A' for Active; 'I' for Inactive)
REMARK    1  A    between atoms: C3_3  and  C4_4 
REMARK    2  A    between atoms: C4_4  and  N1_5 
REMARK    3  A    between atoms: C4_4  and  C20_28 
REMARK    4  A    between atoms: N1_5  and  C5_7 
REMARK    5  A    between atoms: C6_10  and  C7_11 
REMARK    6  A    between atoms: C7_11  and  C8_12 
REMARK    7  A    between atoms: C14_20  and  O1_21 
ROOT
HETATM    1  C1  UNL     1       6.051   1.608  11.544  1.00  0.00     0.012 C 
HETATM    2  C2  UNL     1       6.142   1.940  12.709  1.00  0.00    -0.115 C 
HETATM    3  C3  UNL     1       6.258   2.287  14.099  1.00  0.00     0.118 C 
ENDROOT
BRANCH   3   4
HETATM    4  C4  UNL     1       5.642   3.550  14.501  1.00  0.00     0.101 C 
BRANCH   4   5
HETATM    5  N1  UNL     1       4.635   3.208  15.534  1.00  0.00    -0.369 N 
ATOM      6  H1  UNL     1       4.011   3.941  15.870  1.00  0.00     0.161 HD
BRANCH   5   7
HETATM    7  C5  UNL     1       4.516   2.034  16.019  1.00  0.00     0.115 A 
HETATM    8  N2  UNL     1       3.989   0.992  15.370  1.00  0.00    -0.332 N 
HETATM    9  C6  UNL     1       3.882  -0.238  15.923  1.00  0.00     0.083 A 
ATOM     10  H2  UNL     1       3.653   1.129  14.417  1.00  0.00     0.168 HD
HETATM   11  N3  UNL     1       4.316  -0.460  17.180  1.00  0.00    -0.345 N 
HETATM   12  C12 UNL     1       4.855   0.578  17.859  1.00  0.00     0.050 A 
ATOM     13  H3  UNL     1       4.239  -1.383  17.606  1.00  0.00     0.167 HD
HETATM   14  C13 UNL     1       5.307   0.357  19.164  1.00  0.00     0.068 A 
HETATM   15  C19 UNL     1       4.974   1.835  17.318  1.00  0.00     0.036 A 
HETATM   16  C14 UNL     1       5.861   1.397  19.878  1.00  0.00     0.091 A 
HETATM   17  C16 UNL     1       5.971   2.654  19.317  1.00  0.00     0.079 A 
HETATM   18  C17 UNL     1       6.562   3.702  20.121  1.00  0.00     0.102 C 
HETATM   19  C18 UNL     1       5.526   2.860  18.043  1.00  0.00     0.043 A 
HETATM   20  N4  UNL     1       7.023   4.551  20.759  1.00  0.00    -0.191 NA
BRANCH   9  21
HETATM   21  C7  UNL     1       3.294  -1.389  15.193  1.00  0.00     0.084 C 
BRANCH  21  22
HETATM   22  C8  UNL     1       3.732  -1.354  13.746  1.00  0.00    -0.045 C 
HETATM   23  C9  UNL     1       3.102  -0.194  13.015  1.00  0.00     0.015 C 
HETATM   24  C10 UNL     1       3.225  -2.628  13.073  1.00  0.00     0.015 C 
HETATM   25  C11 UNL     1       5.238  -1.364  13.605  1.00  0.00     0.015 C 
ENDBRANCH  21  22
ENDBRANCH   9  21
BRANCH  16  26
HETATM   26  O1  UNL     1       6.316   1.198  21.175  1.00  0.00    -0.354 OA
HETATM   27  C15 UNL     1       6.253  -0.057  21.815  1.00  0.00     0.210 C 
ENDBRANCH  16  26
ENDBRANCH   5   7
ENDBRANCH   4   5
BRANCH   4  28
HETATM   28  C20 UNL     1       6.454   4.662  15.023  1.00  0.00    -0.030 C 
HETATM   29  C21 UNL     1       7.793   4.238  15.555  1.00  0.00     0.016 C 
HETATM   30  C22 UNL     1       5.740   5.505  16.062  1.00  0.00     0.016 C 
HETATM   31  C23 UNL     1       6.774   5.656  13.888  1.00  0.00     0.016 C 
ENDBRANCH   4  28
ENDBRANCH   3   4
TORSDOF 7
ENDMDL
MODEL 4
REMARK VINA RESULT: -8.774838297      2.680      5.241
REMARK  7 active torsions:
REMARK  status: ('A' for Active; 'I' for Inactive)
REMARK    1  A    between atoms: C3_3  and  C4_4 
REMARK    2  A    between atoms: C4_4  and  N1_5 
REMARK    3  A    between atoms: C4_4  and  C20_28 
REMARK    4  A    between atoms: N1_5  and  C5_7 
REMARK    5  A    between atoms: C6_10  and  C7_11 
REMARK    6  A    between atoms: C7_11  and  C8_12 
REMARK    7  A    between atoms: C14_20  and  O1_21 
ROOT
HETATM    1  C1  UNL     1       6.247  -2.095  10.051  1.00  0.00     0.012 C 
HETATM    2  C2  UNL     1       6.580  -1.421  11.005  1.00  0.00    -0.115 C 
HETATM    3  C3  UNL     1       7.011  -0.654  12.141  1.00  0.00     0.118 C 
ENDROOT
BRANCH   3   4
HETATM    4  C4  UNL     1       6.004   0.209  12.757  1.00  0.00     0.101 C 
BRANCH   4   5
HETATM    5  N1  UNL     1       6.443   0.422  14.156  1.00  0.00    -0.369 N 
ATOM      6  H1  UNL     1       7.372   0.808  14.323  1.00  0.00     0.161 HD
BRANCH   5   7
HETATM    7  C5  UNL     1       5.707   0.144  15.160  1.00  0.00     0.115 A 
HETATM    8  N2  UNL     1       4.826  -0.860  15.204  1.00  0.00    -0.332 N 
HETATM    9  C6  UNL     1       4.064  -1.121  16.291  1.00  0.00     0.083 A 
ATOM     10  H2  UNL     1       4.724  -1.455  14.383  1.00  0.00     0.168 HD
HETATM   11  N3  UNL     1       4.171  -0.356  17.396  1.00  0.00    -0.345 N 
HETATM   12  C12 UNL     1       5.056   0.667  17.380  1.00  0.00     0.050 A 
ATOM     13  H3  UNL     1       3.601  -0.544  18.221  1.00  0.00     0.167 HD
HETATM   14  C13 UNL     1       5.173   1.465  18.522  1.00  0.00     0.068 A 
HETATM   15  C19 UNL     1       5.840   0.950  16.287  1.00  0.00     0.036 A 
HETATM   16  C14 UNL     1       6.067   2.513  18.532  1.00  0.00     0.091 A 
HETATM   17  C16 UNL     1       6.846   2.782  17.424  1.00  0.00     0.079 A 
HETATM   18  C17 UNL     1       7.764   3.897  17.499  1.00  0.00     0.102 C 
HETATM   19  C18 UNL     1       6.724   1.998  16.313  1.00  0.00     0.043 A 
HETATM   20  N4  UNL     1       8.494   4.795  17.545  1.00  0.00    -0.191 NA
BRANCH   9  21
HETATM   21  C7  UNL     1       3.088  -2.238  16.328  1.00  0.00     0.084 C 
BRANCH  21  22
HETATM   22  C8  UNL     1       2.067  -2.061  15.226  1.00  0.00    -0.045 C 
HETATM   23  C9  UNL     1       1.730  -0.604  15.028  1.00  0.00     0.015 C 
HETATM   24  C10 UNL     1       0.780  -2.757  15.665  1.00  0.00     0.015 C 
HETATM   25  C11 UNL     1       2.497  -2.726  13.937  1.00  0.00     0.015 C 
ENDBRANCH  21  22
ENDBRANCH   9  21
BRANCH  16  26
HETATM   26  O1  UNL     1       6.198   3.317  19.656  1.00  0.00    -0.354 OA
HETATM   27  C15 UNL     1       6.186   2.794  20.966  1.00  0.00     0.210 C 
ENDBRANCH  16  26
ENDBRANCH   5   7
ENDBRANCH   4   5
BRANCH   4  28
HETATM   28  C20 UNL     1       5.676   1.525  12.186  1.00  0.00    -0.030 C 
HETATM   29  C21 UNL     1       5.489   2.603  13.215  1.00  0.00     0.016 C 
HETATM   30  C22 UNL     1       4.483   1.506  11.250  1.00  0.00     0.016 C 
HETATM   31  C23 UNL     1       6.839   2.019  11.302  1.00  0.00     0.016 C 
ENDBRANCH   4  28
ENDBRANCH   3   4
TORSDOF 7
ENDMDL
MODEL 5
REMARK VINA RESULT: -8.745779737      1.820      5.227
REMARK  7 active torsions:
REMARK  status: ('A' for Active; 'I' for Inactive)
REMARK    1  A    between atoms: C3_3  and  C4_4 
REMARK    2  A    between atoms: C4_4  and  N1_5 
REMARK    3  A    between atoms: C4_4  and  C20_28 
REMARK    4  A    between atoms: N1_5  and  C5_7 
REMARK    5  A    between atoms: C6_10  and  C7_11 
REMARK    6  A    between atoms: C7_11  and  C8_12 
REMARK    7  A    between atoms: C14_20  and  O1_21 
ROOT
HETATM    1  C1  UNL     1       3.741  -1.677  16.744  1.00  0.00     0.012 C 
HETATM    2  C2  UNL     1       4.230  -0.661  17.197  1.00  0.00    -0.115 C 
HETATM    3  C3  UNL     1       4.784   0.566  17.700  1.00  0.00     0.118 C 
ENDROOT
BRANCH   3   4
HETATM    4  C4  UNL     1       6.032   0.450  18.452  1.00  0.00     0.101 C 
BRANCH   4   5
HETATM    5  N1  UNL     1       7.117   0.810  17.508  1.00  0.00    -0.369 N 
ATOM      6  H1  UNL     1       8.077   0.829  17.852  1.00  0.00     0.161 HD
BRANCH   5   7
HETATM    7  C5  UNL     1       6.899   1.095  16.284  1.00  0.00     0.115 A 
HETATM    8  N2  UNL     1       6.570   0.208  15.342  1.00  0.00    -0.332 N 
HETATM    9  C6  UNL     1       6.348   0.554  14.053  1.00  0.00     0.083 A 
ATOM     10  H2  UNL     1       6.481  -0.774  15.605  1.00  0.00     0.168 HD
HETATM   11  N3  UNL     1       6.454   1.841  13.666  1.00  0.00    -0.345 N 
HETATM   12  C12 UNL     1       6.787   2.761  14.601  1.00  0.00     0.050 A 
ATOM     13  H3  UNL     1       6.290   2.112  12.697  1.00  0.00     0.167 HD
HETATM   14  C13 UNL     1       6.900   4.098  14.208  1.00  0.00     0.068 A 
HETATM   15  C19 UNL     1       7.017   2.432  15.914  1.00  0.00     0.036 A 
HETATM   16  C14 UNL     1       7.236   5.056  15.139  1.00  0.00     0.091 A 
HETATM   17  C16 UNL     1       7.464   4.705  16.455  1.00  0.00     0.079 A 
HETATM   18  C17 UNL     1       7.814   5.759  17.383  1.00  0.00     0.102 C 
HETATM   19  C18 UNL     1       7.352   3.397  16.829  1.00  0.00     0.043 A 
HETATM   20  N4  UNL     1       8.106   6.592  18.132  1.00  0.00    -0.191 NA
BRANCH   9  21
HETATM   21  C7  UNL     1       5.982  -0.441  13.014  1.00  0.00     0.084 C 
BRANCH  21  22
HETATM   22  C8  UNL     1       4.550  -0.222  12.579  1.00  0.00    -0.045 C 
HETATM   23  C9  UNL     1       3.685   0.189  13.744  1.00  0.00     0.015 C 
HETATM   24  C10 UNL     1       4.006  -1.557  12.073  1.00  0.00     0.015 C 
HETATM   25  C11 UNL     1       4.447   0.749  11.423  1.00  0.00     0.015 C 
ENDBRANCH  21  22
ENDBRANCH   9  21
BRANCH  16  26
HETATM   26  O1  UNL     1       7.354   6.389  14.769  1.00  0.00    -0.354 OA
HETATM   27  C15 UNL     1       6.996   6.852  13.486  1.00  0.00     0.210 C 
ENDBRANCH  16  26
ENDBRANCH   5   7
ENDBRANCH   4   5
BRANCH   4  28
HETATM   28  C20 UNL     1       6.248   1.215  19.691  1.00  0.00    -0.030 C 
HETATM   29  C21 UNL     1       6.018   0.418  20.943  1.00  0.00     0.016 C 
HETATM   30  C22 UNL     1       5.455   2.506  19.759  1.00  0.00     0.016 C 
HETATM   31  C23 UNL     1       7.718   1.673  19.776  1.00  0.00     0.016 C 
ENDBRANCH   4  28
ENDBRANCH   3   4
TORSDOF 7
ENDMDL
