MODEL 1
REMARK VINA RESULT: -6.699302710      0.000      0.000
REMARK  2 active torsions:
REMARK  status: ('A' for Active; 'I' for Inactive)
REMARK       I    between atoms: C1_2  and  N1_3 
REMARK    1  A    between atoms: C1_2  and  C10_15 
REMARK    2  A    between atoms: N1_3  and  C2_5 
ROOT
HETATM    1  C2  UNL     1       7.826  -3.877   4.019  1.00  0.00     0.089 C 
HETATM    2  C3  UNL     1       6.549  -4.629   4.236  1.00  0.00     0.030 C 
HETATM    3  C4  UNL     1       5.852  -3.984   5.405  1.00  0.00     0.071 C 
HETATM    4  C5  UNL     1       6.407  -2.581   5.500  1.00  0.00     0.165 C 
HETATM    5  C6  UNL     1       7.578  -2.512   4.581  1.00  0.00     0.093 C 
HETATM    6  O2  UNL     1       5.360  -1.726   5.087  1.00  0.00    -0.355 OA
HETATM    7  C7  UNL     1       4.633  -1.439   6.260  1.00  0.00     0.173 C 
HETATM    8  C8  UNL     1       5.449  -0.322   6.931  1.00  0.00     0.053 C 
HETATM    9  C9  UNL     1       6.870  -0.893   7.029  1.00  0.00     0.173 C 
HETATM   10  O3  UNL     1       6.756  -2.264   6.820  1.00  0.00    -0.355 OA
ENDROOT
BRANCH   1  11
HETATM   11  N1  UNL     1       8.899  -4.580   4.688  1.00  0.00    -0.356 N 
HETATM   12  C1  UNL     1      10.225  -4.086   4.647  1.00  0.00     0.222 C 
HETATM   13  O1  UNL     1      10.477  -3.024   4.026  1.00  0.00    -0.273 OA
ATOM     14  H1  UNL     1       8.697  -5.442   5.195  1.00  0.00     0.162 HD
BRANCH  12  15
HETATM   15  C10 UNL     1      11.347  -4.782   5.317  1.00  0.00     0.078 C 
HETATM   16  C11 UNL     1      12.695  -4.435   4.696  1.00  0.00     0.014 C 
HETATM   17  C12 UNL     1      13.046  -5.914   4.800  1.00  0.00     0.002 C 
HETATM   18  C13 UNL     1      11.552  -6.186   4.781  1.00  0.00     0.014 C 
ENDBRANCH  12  15
ENDBRANCH   1  11
TORSDOF 2
ENDMDL
MODEL 2
REMARK VINA RESULT: -6.363283919      1.091      1.168
REMARK  2 active torsions:
REMARK  status: ('A' for Active; 'I' for Inactive)
REMARK       I    between atoms: C1_2  and  N1_3 
REMARK    1  A    between atoms: C1_2  and  C10_15 
REMARK    2  A    between atoms: N1_3  and  C2_5 
ROOT
HETATM    1  C2  UNL     1       8.128  -3.113   4.233  1.00  0.00     0.089 C 
HETATM    2  C3  UNL     1       7.162  -3.859   3.366  1.00  0.00     0.030 C 
HETATM    3  C4  UNL     1       5.908  -4.060   4.177  1.00  0.00     0.071 C 
HETATM    4  C5  UNL     1       5.927  -2.993   5.247  1.00  0.00     0.165 C 
HETATM    5  C6  UNL     1       7.280  -2.369   5.216  1.00  0.00     0.093 C 
HETATM    6  O2  UNL     1       4.913  -2.076   4.892  1.00  0.00    -0.355 OA
HETATM    7  C7  UNL     1       3.741  -2.565   5.504  1.00  0.00     0.173 C 
HETATM    8  C8  UNL     1       3.853  -2.072   6.956  1.00  0.00     0.053 C 
HETATM    9  C9  UNL     1       5.228  -2.569   7.423  1.00  0.00     0.173 C 
HETATM   10  O3  UNL     1       5.628  -3.535   6.506  1.00  0.00    -0.355 OA
ENDROOT
BRANCH   1  11
HETATM   11  N1  UNL     1       9.021  -4.064   4.859  1.00  0.00    -0.356 N 
HETATM   12  C1  UNL     1      10.425  -3.923   4.744  1.00  0.00     0.222 C 
HETATM   13  O1  UNL     1      10.906  -2.962   4.096  1.00  0.00    -0.273 OA
ATOM     14  H1  UNL     1       8.634  -4.845   5.389  1.00  0.00     0.162 HD
BRANCH  12  15
HETATM   15  C10 UNL     1      11.367  -4.880   5.369  1.00  0.00     0.078 C 
HETATM   16  C11 UNL     1      12.771  -4.771   4.786  1.00  0.00     0.014 C 
HETATM   17  C12 UNL     1      12.812  -6.295   4.782  1.00  0.00     0.002 C 
HETATM   18  C13 UNL     1      11.295  -6.254   4.730  1.00  0.00     0.014 C 
ENDBRANCH  12  15
ENDBRANCH   1  11
TORSDOF 2
ENDMDL
MODEL 3
REMARK VINA RESULT: -6.347536761      1.738      2.705
REMARK  2 active torsions:
REMARK  status: ('A' for Active; 'I' for Inactive)
REMARK       I    between atoms: C1_2  and  N1_3 
REMARK    1  A    between atoms: C1_2  and  C10_15 
REMARK    2  A    between atoms: N1_3  and  C2_5 
ROOT
HETATM    1  C2  UNL     1       8.264  -3.110   5.815  1.00  0.00     0.089 C 
HETATM    2  C3  UNL     1       7.916  -1.963   6.713  1.00  0.00     0.030 C 
HETATM    3  C4  UNL     1       6.814  -1.192   6.034  1.00  0.00     0.071 C 
HETATM    4  C5  UNL     1       6.160  -2.157   5.072  1.00  0.00     0.165 C 
HETATM    5  C6  UNL     1       7.030  -3.365   5.008  1.00  0.00     0.093 C 
HETATM    6  O2  UNL     1       4.892  -2.448   5.624  1.00  0.00    -0.355 OA
HETATM    7  C7  UNL     1       4.029  -1.462   5.106  1.00  0.00     0.173 C 
HETATM    8  C8  UNL     1       3.677  -1.983   3.703  1.00  0.00     0.053 C 
HETATM    9  C9  UNL     1       5.037  -2.239   3.039  1.00  0.00     0.173 C 
HETATM   10  O3  UNL     1       5.982  -1.571   3.811  1.00  0.00    -0.355 OA
ENDROOT
BRANCH   1  11
HETATM   11  N1  UNL     1       9.404  -2.737   5.006  1.00  0.00    -0.356 N 
HETATM   12  C1  UNL     1      10.584  -3.519   5.013  1.00  0.00     0.222 C 
HETATM   13  O1  UNL     1      10.645  -4.552   5.724  1.00  0.00    -0.273 OA
ATOM     14  H1  UNL     1       9.358  -1.900   4.425  1.00  0.00     0.162 HD
BRANCH  12  15
HETATM   15  C10 UNL     1      11.771  -3.165   4.200  1.00  0.00     0.078 C 
HETATM   16  C11 UNL     1      13.009  -3.953   4.612  1.00  0.00     0.014 C 
HETATM   17  C12 UNL     1      13.793  -2.652   4.486  1.00  0.00     0.002 C 
HETATM   18  C13 UNL     1      12.478  -1.932   4.728  1.00  0.00     0.014 C 
ENDBRANCH  12  15
ENDBRANCH   1  11
TORSDOF 2
ENDMDL
MODEL 4
REMARK VINA RESULT: -6.282759234      5.822     10.273
REMARK  2 active torsions:
REMARK  status: ('A' for Active; 'I' for Inactive)
REMARK       I    between atoms: C1_2  and  N1_3 
REMARK    1  A    between atoms: C1_2  and  C10_15 
REMARK    2  A    between atoms: N1_3  and  C2_5 
ROOT
HETATM    1  C2  UNL     1      12.656  -9.927   3.085  1.00  0.00     0.089 C 
HETATM    2  C3  UNL     1      12.815  -9.656   1.621  1.00  0.00     0.030 C 
HETATM    3  C4  UNL     1      14.240  -9.991   1.264  1.00  0.00     0.071 C 
HETATM    4  C5  UNL     1      14.724 -10.947   2.330  1.00  0.00     0.165 C 
HETATM    5  C6  UNL     1      13.698 -10.950   3.410  1.00  0.00     0.093 C 
HETATM    6  O2  UNL     1      14.830 -12.206   1.698  1.00  0.00    -0.355 OA
HETATM    7  C7  UNL     1      16.138 -12.246   1.172  1.00  0.00     0.173 C 
HETATM    8  C8  UNL     1      17.005 -12.639   2.378  1.00  0.00     0.053 C 
HETATM    9  C9  UNL     1      16.644 -11.611   3.459  1.00  0.00     0.173 C 
HETATM   10  O3  UNL     1      15.988 -10.572   2.808  1.00  0.00    -0.355 OA
ENDROOT
BRANCH   1  11
HETATM   11  N1  UNL     1      12.834  -8.686   3.808  1.00  0.00    -0.356 N 
HETATM   12  C1  UNL     1      11.719  -7.981   4.323  1.00  0.00     0.222 C 
HETATM   13  O1  UNL     1      10.561  -8.436   4.155  1.00  0.00    -0.273 OA
ATOM     14  H1  UNL     1      13.774  -8.315   3.949  1.00  0.00     0.162 HD
BRANCH  12  15
HETATM   15  C10 UNL     1      11.865  -6.708   5.065  1.00  0.00     0.078 C 
HETATM   16  C11 UNL     1      10.898  -5.638   4.570  1.00  0.00     0.014 C 
HETATM   17  C12 UNL     1      12.054  -4.650   4.660  1.00  0.00     0.002 C 
HETATM   18  C13 UNL     1      12.979  -5.845   4.506  1.00  0.00     0.014 C 
ENDBRANCH  12  15
ENDBRANCH   1  11
TORSDOF 2
ENDMDL
MODEL 5
REMARK VINA RESULT: -6.256854432      1.169      1.308
REMARK  2 active torsions:
REMARK  status: ('A' for Active; 'I' for Inactive)
REMARK       I    between atoms: C1_2  and  N1_3 
REMARK    1  A    between atoms: C1_2  and  C10_15 
REMARK    2  A    between atoms: N1_3  and  C2_5 
ROOT
HETATM    1  C2  UNL     1       7.312  -3.072   4.251  1.00  0.00     0.089 C 
HETATM    2  C3  UNL     1       6.515  -4.215   4.800  1.00  0.00     0.030 C 
HETATM    3  C4  UNL     1       5.687  -3.669   5.935  1.00  0.00     0.071 C 
HETATM    4  C5  UNL     1       5.574  -2.181   5.691  1.00  0.00     0.165 C 
HETATM    5  C6  UNL     1       6.529  -1.845   4.598  1.00  0.00     0.093 C 
HETATM    6  O2  UNL     1       4.232  -1.957   5.309  1.00  0.00    -0.355 OA
HETATM    7  C7  UNL     1       3.536  -1.738   6.515  1.00  0.00     0.173 C 
HETATM    8  C8  UNL     1       3.822  -0.263   6.839  1.00  0.00     0.053 C 
HETATM    9  C9  UNL     1       5.352  -0.154   6.806  1.00  0.00     0.173 C 
HETATM   10  O3  UNL     1       5.839  -1.456   6.862  1.00  0.00    -0.355 OA
ENDROOT
BRANCH   1  11
HETATM   11  N1  UNL     1       8.628  -3.094   4.851  1.00  0.00    -0.356 N 
HETATM   12  C1  UNL     1       9.488  -4.204   4.672  1.00  0.00     0.222 C 
HETATM   13  O1  UNL     1       9.110  -5.182   3.982  1.00  0.00    -0.273 OA
ATOM     14  H1  UNL     1       8.940  -2.300   5.411  1.00  0.00     0.162 HD
BRANCH  12  15
HETATM   15  C10 UNL     1      10.840  -4.261   5.274  1.00  0.00     0.078 C 
HETATM   16  C11 UNL     1      11.811  -3.295   4.605  1.00  0.00     0.014 C 
HETATM   17  C12 UNL     1      12.847  -4.412   4.655  1.00  0.00     0.002 C 
HETATM   18  C13 UNL     1      11.679  -5.382   4.693  1.00  0.00     0.014 C 
ENDBRANCH  12  15
ENDBRANCH   1  11
TORSDOF 2
ENDMDL
