MODEL 1
REMARK VINA RESULT: -4.892066791      0.000      0.000
REMARK  4 active torsions:
REMARK  status: ('A' for Active; 'I' for Inactive)
REMARK    1  A    between atoms: O1_2  and  C2_3 
REMARK    2  A    between atoms: C2_3  and  O2_4 
REMARK    3  A    between atoms: C6_8  and  O3_9 
REMARK    4  A    between atoms: C10_14  and  C11_15 
ROOT
HETATM    1  C2  UNL     1       6.087  -2.543   5.501  1.00  0.00     0.167 C 
HETATM    2  C4  UNL     1       7.191  -2.623   6.535  1.00  0.00     0.076 C 
HETATM    3  C5  UNL     1       7.048  -1.621   7.628  1.00  0.00     0.025 C 
HETATM    4  C6  UNL     1       6.361  -0.344   7.262  1.00  0.00     0.128 C 
HETATM    5  C7  UNL     1       4.981  -0.712   6.820  1.00  0.00     0.029 C 
HETATM    6  C8  UNL     1       4.194  -0.871   8.137  1.00  0.00    -0.002 C 
HETATM    7  C9  UNL     1       3.176  -1.914   7.748  1.00  0.00     0.011 C 
HETATM    8  C10 UNL     1       4.255  -2.930   7.242  1.00  0.00     0.000 C 
HETATM    9  C11 UNL     1       5.067  -3.016   8.509  1.00  0.00    -0.000 A 
HETATM   10  C12 UNL     1       6.259  -2.226   8.757  1.00  0.00     0.002 A 
HETATM   11  C13 UNL     1       5.010  -1.599   9.129  1.00  0.00    -0.000 A 
HETATM   12  C14 UNL     1       4.855  -2.088   6.192  1.00  0.00     0.059 C 
ENDROOT
BRANCH   1  13
HETATM   13  O1  UNL     1       5.888  -3.595   4.723  1.00  0.00    -0.359 OA
HETATM   14  C1  UNL     1       6.270  -4.840   4.838  1.00  0.00     0.205 C 
ENDBRANCH   1  13
BRANCH   1  15
HETATM   15  O2  UNL     1       6.363  -1.470   4.588  1.00  0.00    -0.359 OA
HETATM   16  C3  UNL     1       5.547  -1.513   3.484  1.00  0.00     0.205 C 
ENDBRANCH   1  15
BRANCH   4  17
HETATM   17  O3  UNL     1       7.049   0.540   6.491  1.00  0.00    -0.395 OA
ATOM     18  H3  UNL     1       6.555   1.243   6.084  1.00  0.00     0.210 HD
ENDBRANCH   4  17
TORSDOF 4
ENDMDL
MODEL 2
REMARK VINA RESULT: -4.560440795      1.452      2.485
REMARK  4 active torsions:
REMARK  status: ('A' for Active; 'I' for Inactive)
REMARK    1  A    between atoms: O1_2  and  C2_3 
REMARK    2  A    between atoms: C2_3  and  O2_4 
REMARK    3  A    between atoms: C6_8  and  O3_9 
REMARK    4  A    between atoms: C10_14  and  C11_15 
ROOT
HETATM    1  C2  UNL     1       6.816  -1.841   6.227  1.00  0.00     0.167 C 
HETATM    2  C4  UNL     1       6.381  -0.504   6.787  1.00  0.00     0.076 C 
HETATM    3  C5  UNL     1       4.914  -0.269   6.677  1.00  0.00     0.025 C 
HETATM    4  C6  UNL     1       4.226  -0.938   5.531  1.00  0.00     0.128 C 
HETATM    5  C7  UNL     1       4.422  -2.409   5.713  1.00  0.00     0.029 C 
HETATM    6  C8  UNL     1       3.333  -2.810   6.729  1.00  0.00    -0.002 C 
HETATM    7  C9  UNL     1       3.997  -3.968   7.432  1.00  0.00     0.011 C 
HETATM    8  C10 UNL     1       5.278  -3.144   7.800  1.00  0.00     0.000 C 
HETATM    9  C11 UNL     1       4.596  -2.022   8.540  1.00  0.00    -0.000 A 
HETATM   10  C12 UNL     1       4.237  -0.756   7.929  1.00  0.00     0.002 A 
HETATM   11  C13 UNL     1       3.251  -1.806   7.807  1.00  0.00    -0.000 A 
HETATM   12  C14 UNL     1       5.701  -2.799   6.431  1.00  0.00     0.059 C 
ENDROOT
BRANCH   1  13
HETATM   13  O1  UNL     1       7.990  -2.321   6.606  1.00  0.00    -0.359 OA
HETATM   14  C1  UNL     1       8.804  -1.957   7.563  1.00  0.00     0.205 C 
ENDBRANCH   1  13
BRANCH   1  15
HETATM   15  O2  UNL     1       6.911  -1.753   4.797  1.00  0.00    -0.359 OA
HETATM   16  C3  UNL     1       7.634  -2.794   4.265  1.00  0.00     0.205 C 
ENDBRANCH   1  15
BRANCH   4  17
HETATM   17  O3  UNL     1       4.439  -0.429   4.288  1.00  0.00    -0.395 OA
ATOM     18  H3  UNL     1       4.864   0.418   4.228  1.00  0.00     0.210 HD
ENDBRANCH   4  17
TORSDOF 4
ENDMDL
MODEL 3
REMARK VINA RESULT: -4.559942406      1.457      3.031
REMARK  4 active torsions:
REMARK  status: ('A' for Active; 'I' for Inactive)
REMARK    1  A    between atoms: O1_2  and  C2_3 
REMARK    2  A    between atoms: C2_3  and  O2_4 
REMARK    3  A    between atoms: C6_8  and  O3_9 
REMARK    4  A    between atoms: C10_14  and  C11_15 
ROOT
HETATM    1  C2  UNL     1       6.651  -2.666   4.767  1.00  0.00     0.167 C 
HETATM    2  C4  UNL     1       5.613  -1.676   4.283  1.00  0.00     0.076 C 
HETATM    3  C5  UNL     1       4.459  -1.531   5.213  1.00  0.00     0.025 C 
HETATM    4  C6  UNL     1       4.121  -2.735   6.033  1.00  0.00     0.128 C 
HETATM    5  C7  UNL     1       5.324  -3.035   6.869  1.00  0.00     0.029 C 
HETATM    6  C8  UNL     1       5.202  -2.066   8.064  1.00  0.00    -0.002 C 
HETATM    7  C9  UNL     1       6.653  -1.835   8.404  1.00  0.00     0.011 C 
HETATM    8  C10 UNL     1       7.032  -1.392   6.951  1.00  0.00     0.000 C 
HETATM    9  C11 UNL     1       6.037  -0.267   6.812  1.00  0.00    -0.000 A 
HETATM   10  C12 UNL     1       4.738  -0.415   6.183  1.00  0.00     0.002 A 
HETATM   11  C13 UNL     1       4.784  -0.731   7.592  1.00  0.00    -0.000 A 
HETATM   12  C14 UNL     1       6.649  -2.631   6.251  1.00  0.00     0.059 C 
ENDROOT
BRANCH   1  13
HETATM   13  O1  UNL     1       7.866  -2.595   4.247  1.00  0.00    -0.359 OA
HETATM   14  C1  UNL     1       8.956  -3.271   4.502  1.00  0.00     0.205 C 
ENDBRANCH   1  13
BRANCH   1  15
HETATM   15  O2  UNL     1       6.213  -4.001   4.473  1.00  0.00    -0.359 OA
HETATM   16  C3  UNL     1       5.998  -4.187   3.129  1.00  0.00     0.205 C 
ENDBRANCH   1  15
BRANCH   4  17
HETATM   17  O3  UNL     1       3.526  -3.780   5.398  1.00  0.00    -0.395 OA
ATOM     18  H3  UNL     1       4.051  -4.556   5.246  1.00  0.00     0.210 HD
ENDBRANCH   4  17
TORSDOF 4
ENDMDL
MODEL 4
REMARK VINA RESULT: -4.559913835      1.704      3.802
REMARK  4 active torsions:
REMARK  status: ('A' for Active; 'I' for Inactive)
REMARK    1  A    between atoms: O1_2  and  C2_3 
REMARK    2  A    between atoms: C2_3  and  O2_4 
REMARK    3  A    between atoms: C6_8  and  O3_9 
REMARK    4  A    between atoms: C10_14  and  C11_15 
ROOT
HETATM    1  C2  UNL     1       5.219  -2.760   7.658  1.00  0.00     0.167 C 
HETATM    2  C4  UNL     1       4.443  -1.559   7.159  1.00  0.00     0.076 C 
HETATM    3  C5  UNL     1       5.182  -0.763   6.139  1.00  0.00     0.025 C 
HETATM    4  C6  UNL     1       6.673  -0.787   6.241  1.00  0.00     0.128 C 
HETATM    5  C7  UNL     1       7.090  -2.214   6.071  1.00  0.00     0.029 C 
HETATM    6  C8  UNL     1       7.093  -2.424   4.543  1.00  0.00    -0.002 C 
HETATM    7  C9  UNL     1       6.747  -3.890   4.447  1.00  0.00     0.011 C 
HETATM    8  C10 UNL     1       5.448  -3.747   5.311  1.00  0.00     0.000 C 
HETATM    9  C11 UNL     1       4.764  -2.691   4.480  1.00  0.00    -0.000 A 
HETATM   10  C12 UNL     1       4.835  -1.270   4.766  1.00  0.00     0.002 A 
HETATM   11  C13 UNL     1       5.902  -1.791   3.942  1.00  0.00    -0.000 A 
HETATM   12  C14 UNL     1       6.075  -3.238   6.543  1.00  0.00     0.059 C 
ENDROOT
BRANCH   1  13
HETATM   13  O1  UNL     1       4.545  -3.732   8.249  1.00  0.00    -0.359 OA
HETATM   14  C1  UNL     1       3.305  -4.129   8.118  1.00  0.00     0.205 C 
ENDBRANCH   1  13
BRANCH   1  15
HETATM   15  O2  UNL     1       6.175  -2.337   8.642  1.00  0.00    -0.359 OA
HETATM   16  C3  UNL     1       5.573  -2.007   9.833  1.00  0.00     0.205 C 
ENDBRANCH   1  15
BRANCH   4  17
HETATM   17  O3  UNL     1       7.244  -0.087   7.257  1.00  0.00    -0.395 OA
ATOM     18  H3  UNL     1       8.140   0.206   7.137  1.00  0.00     0.210 HD
ENDBRANCH   4  17
TORSDOF 4
ENDMDL
MODEL 5
REMARK VINA RESULT: -4.455598492      1.097      1.424
REMARK  4 active torsions:
REMARK  status: ('A' for Active; 'I' for Inactive)
REMARK    1  A    between atoms: O1_2  and  C2_3 
REMARK    2  A    between atoms: C2_3  and  O2_4 
REMARK    3  A    between atoms: C6_8  and  O3_9 
REMARK    4  A    between atoms: C10_14  and  C11_15 
ROOT
HETATM    1  C2  UNL     1       5.768  -2.704   5.587  1.00  0.00     0.167 C 
HETATM    2  C4  UNL     1       6.238  -2.747   7.026  1.00  0.00     0.076 C 
HETATM    3  C5  UNL     1       5.938  -1.499   7.781  1.00  0.00     0.025 C 
HETATM    4  C6  UNL     1       5.887  -0.240   6.976  1.00  0.00     0.128 C 
HETATM    5  C7  UNL     1       4.793  -0.420   5.971  1.00  0.00     0.029 C 
HETATM    6  C8  UNL     1       3.506  -0.087   6.754  1.00  0.00    -0.002 C 
HETATM    7  C9  UNL     1       2.500  -0.966   6.053  1.00  0.00     0.011 C 
HETATM    8  C10 UNL     1       3.340  -2.272   6.260  1.00  0.00     0.000 C 
HETATM    9  C11 UNL     1       3.459  -2.204   7.761  1.00  0.00    -0.000 A 
HETATM   10  C12 UNL     1       4.600  -1.635   8.454  1.00  0.00     0.002 A 
HETATM   11  C13 UNL     1       3.559  -0.697   8.097  1.00  0.00    -0.000 A 
HETATM   12  C14 UNL     1       4.553  -1.853   5.536  1.00  0.00     0.059 C 
ENDROOT
BRANCH   1  13
HETATM   13  O1  UNL     1       5.626  -3.852   4.946  1.00  0.00    -0.359 OA
HETATM   14  C1  UNL     1       5.357  -5.057   5.378  1.00  0.00     0.205 C 
ENDBRANCH   1  13
BRANCH   1  15
HETATM   15  O2  UNL     1       6.714  -1.967   4.796  1.00  0.00    -0.359 OA
HETATM   16  C3  UNL     1       7.859  -2.690   4.561  1.00  0.00     0.205 C 
ENDBRANCH   1  15
BRANCH   4  17
HETATM   17  O3  UNL     1       7.067   0.268   6.530  1.00  0.00    -0.395 OA
ATOM     18  H3  UNL     1       7.166   0.387   5.592  1.00  0.00     0.210 HD
ENDBRANCH   4  17
TORSDOF 4
ENDMDL
