MODEL 1
REMARK VINA RESULT: -6.684254913      0.000      0.000
REMARK  2 active torsions:
REMARK  status: ('A' for Active; 'I' for Inactive)
REMARK    1  A    between atoms: C3_3  and  N1_4 
REMARK    2  A    between atoms: C6_7  and  C7_8 
ROOT
HETATM    1  N1  UNL     1      11.803  -5.740   4.387  1.00  0.00     0.100 N 
HETATM    2  C4  UNL     1      12.640  -6.901   4.456  1.00  0.00     0.276 C 
HETATM    3  C5  UNL     1      13.340  -6.163   5.621  1.00  0.00     0.068 C 
HETATM    4  C6  UNL     1      12.980  -4.992   4.720  1.00  0.00     0.254 C 
ENDROOT
BRANCH   1   5
HETATM    5  C3  UNL     1      10.651  -5.654   5.205  1.00  0.00     0.226 C 
HETATM    6  C2  UNL     1       9.590  -4.869   4.437  1.00  0.00     0.063 C 
HETATM    7  C1  UNL     1       8.186  -5.284   4.822  1.00  0.00     0.234 C 
HETATM    8  N2  UNL     1       7.907  -6.645   4.397  1.00  0.00    -0.075 N 
HETATM    9  C14 UNL     1       9.145  -7.417   4.310  1.00  0.00     0.234 C 
ATOM     10  H22 UNL     1       7.219  -7.098   5.000  1.00  0.00     0.277 HD
ATOM     11  H21 UNL     1       7.381  -6.670   3.523  1.00  0.00     0.277 HD
HETATM   12  C13 UNL     1       9.984  -6.997   5.482  1.00  0.00     0.063 C 
ENDBRANCH   1   5
BRANCH   4  13
HETATM   13  C7  UNL     1      12.864  -3.653   5.306  1.00  0.00     0.159 C 
HETATM   14  O1  UNL     1      11.939  -2.906   4.553  1.00  0.00    -0.378 OA
HETATM   15  C8  UNL     1      12.606  -1.862   3.967  1.00  0.00     0.122 C 
HETATM   16  C9  UNL     1      12.954  -0.861   5.051  1.00  0.00     0.032 C 
HETATM   17  C12 UNL     1      14.026  -2.427   3.744  1.00  0.00     0.039 C 
HETATM   18  C10 UNL     1      14.014  -1.576   5.897  1.00  0.00     0.010 C 
HETATM   19  C11 UNL     1      14.169  -2.898   5.181  1.00  0.00     0.019 C 
ENDBRANCH   4  13
TORSDOF 2
ENDMDL
MODEL 2
REMARK VINA RESULT: -6.596281914      1.994      5.414
REMARK  2 active torsions:
REMARK  status: ('A' for Active; 'I' for Inactive)
REMARK    1  A    between atoms: C3_3  and  N1_4 
REMARK    2  A    between atoms: C6_7  and  C7_8 
ROOT
HETATM    1  N1  UNL     1      10.499  -5.430   5.404  1.00  0.00     0.100 N 
HETATM    2  C4  UNL     1      10.599  -6.826   5.709  1.00  0.00     0.276 C 
HETATM    3  C5  UNL     1       9.643  -7.021   4.509  1.00  0.00     0.068 C 
HETATM    4  C6  UNL     1       9.132  -5.702   5.067  1.00  0.00     0.254 C 
ENDROOT
BRANCH   1   5
HETATM    5  C3  UNL     1      11.367  -4.856   4.443  1.00  0.00     0.226 C 
HETATM    6  C2  UNL     1      11.528  -3.376   4.784  1.00  0.00     0.063 C 
HETATM    7  C1  UNL     1      12.872  -2.835   4.347  1.00  0.00     0.234 C 
HETATM    8  N2  UNL     1      13.952  -3.430   5.116  1.00  0.00    -0.075 N 
HETATM    9  C14 UNL     1      13.562  -4.752   5.604  1.00  0.00     0.234 C 
ATOM     10  H22 UNL     1      14.823  -3.463   4.587  1.00  0.00     0.277 HD
ATOM     11  H21 UNL     1      14.259  -2.821   5.875  1.00  0.00     0.277 HD
HETATM   12  C13 UNL     1      12.791  -5.399   4.490  1.00  0.00     0.063 C 
ENDBRANCH   1   5
BRANCH   4  13
HETATM   13  C7  UNL     1       8.394  -4.794   4.183  1.00  0.00     0.159 C 
HETATM   14  O1  UNL     1       8.032  -3.646   4.911  1.00  0.00    -0.378 OA
HETATM   15  C8  UNL     1       6.665  -3.602   4.992  1.00  0.00     0.122 C 
HETATM   16  C9  UNL     1       6.125  -3.243   3.621  1.00  0.00     0.032 C 
HETATM   17  C12 UNL     1       6.260  -5.093   4.990  1.00  0.00     0.039 C 
HETATM   18  C10 UNL     1       6.426  -4.478   2.763  1.00  0.00     0.010 C 
HETATM   19  C11 UNL     1       7.082  -5.414   3.754  1.00  0.00     0.019 C 
ENDBRANCH   4  13
TORSDOF 2
ENDMDL
MODEL 3
REMARK VINA RESULT: -5.653316995      2.487      5.455
REMARK  2 active torsions:
REMARK  status: ('A' for Active; 'I' for Inactive)
REMARK    1  A    between atoms: C3_3  and  N1_4 
REMARK    2  A    between atoms: C6_7  and  C7_8 
ROOT
HETATM    1  N1  UNL     1      10.405  -4.501   4.436  1.00  0.00     0.100 N 
HETATM    2  C4  UNL     1      10.905  -3.241   4.902  1.00  0.00     0.276 C 
HETATM    3  C5  UNL     1       9.599  -3.180   5.728  1.00  0.00     0.068 C 
HETATM    4  C6  UNL     1       9.108  -3.891   4.477  1.00  0.00     0.254 C 
ENDROOT
BRANCH   1   5
HETATM    5  C3  UNL     1      10.660  -5.677   5.182  1.00  0.00     0.226 C 
HETATM    6  C2  UNL     1      10.403  -6.874   4.268  1.00  0.00     0.063 C 
HETATM    7  C1  UNL     1      11.259  -8.066   4.638  1.00  0.00     0.234 C 
HETATM    8  N2  UNL     1      12.665  -7.801   4.383  1.00  0.00    -0.075 N 
HETATM    9  C14 UNL     1      12.935  -6.366   4.456  1.00  0.00     0.234 C 
ATOM     10  H22 UNL     1      13.272  -8.333   5.007  1.00  0.00     0.277 HD
ATOM     11  H21 UNL     1      12.972  -8.200   3.496  1.00  0.00     0.277 HD
HETATM   12  C13 UNL     1      12.117  -5.843   5.601  1.00  0.00     0.063 C 
ENDBRANCH   1   5
BRANCH   4  13
HETATM   13  C7  UNL     1       7.903  -4.722   4.556  1.00  0.00     0.159 C 
HETATM   14  O1  UNL     1       7.550  -5.136   3.259  1.00  0.00    -0.378 OA
HETATM   15  C8  UNL     1       6.337  -4.582   2.946  1.00  0.00     0.122 C 
HETATM   16  C9  UNL     1       5.273  -5.290   3.762  1.00  0.00     0.032 C 
HETATM   17  C12 UNL     1       6.343  -3.249   3.725  1.00  0.00     0.039 C 
HETATM   18  C10 UNL     1       5.546  -4.843   5.203  1.00  0.00     0.010 C 
HETATM   19  C11 UNL     1       6.722  -3.908   5.040  1.00  0.00     0.019 C 
ENDBRANCH   4  13
TORSDOF 2
ENDMDL
MODEL 4
REMARK VINA RESULT: -5.427968668      4.303      6.408
REMARK  2 active torsions:
REMARK  status: ('A' for Active; 'I' for Inactive)
REMARK    1  A    between atoms: C3_3  and  N1_4 
REMARK    2  A    between atoms: C6_7  and  C7_8 
ROOT
HETATM    1  N1  UNL     1       6.291  -1.743   5.609  1.00  0.00     0.100 N 
HETATM    2  C4  UNL     1       5.561  -1.376   4.432  1.00  0.00     0.276 C 
HETATM    3  C5  UNL     1       5.947  -2.783   3.917  1.00  0.00     0.068 C 
HETATM    4  C6  UNL     1       7.186  -2.427   4.723  1.00  0.00     0.254 C 
ENDROOT
BRANCH   1   5
HETATM    5  C3  UNL     1       5.640  -2.452   6.648  1.00  0.00     0.226 C 
HETATM    6  C2  UNL     1       6.249  -2.001   7.974  1.00  0.00     0.063 C 
HETATM    7  C1  UNL     1       5.259  -2.097   9.115  1.00  0.00     0.234 C 
HETATM    8  N2  UNL     1       4.176  -1.141   8.951  1.00  0.00    -0.075 N 
HETATM    9  C14 UNL     1       3.983  -0.828   7.537  1.00  0.00     0.234 C 
ATOM     10  H22 UNL     1       3.314  -1.464   9.390  1.00  0.00     0.277 HD
ATOM     11  H21 UNL     1       4.324  -0.300   9.509  1.00  0.00     0.277 HD
HETATM   12  C13 UNL     1       4.159  -2.120   6.793  1.00  0.00     0.063 C 
ENDBRANCH   1   5
BRANCH   4  13
HETATM   13  C7  UNL     1       8.043  -3.507   5.224  1.00  0.00     0.159 C 
HETATM   14  O1  UNL     1       9.066  -2.947   6.011  1.00  0.00    -0.378 OA
HETATM   15  C8  UNL     1      10.264  -3.188   5.393  1.00  0.00     0.122 C 
HETATM   16  C9  UNL     1      10.578  -4.665   5.540  1.00  0.00     0.032 C 
HETATM   17  C12 UNL     1       9.894  -3.204   3.893  1.00  0.00     0.039 C 
HETATM   18  C10 UNL     1       9.535  -5.360   4.656  1.00  0.00     0.010 C 
HETATM   19  C11 UNL     1       8.760  -4.195   4.084  1.00  0.00     0.019 C 
ENDBRANCH   4  13
TORSDOF 2
ENDMDL
MODEL 5
REMARK VINA RESULT: -5.124070139      2.680      6.124
REMARK  2 active torsions:
REMARK  status: ('A' for Active; 'I' for Inactive)
REMARK    1  A    between atoms: C3_3  and  N1_4 
REMARK    2  A    between atoms: C6_7  and  C7_8 
ROOT
HETATM    1  N1  UNL     1       9.620  -4.459   4.112  1.00  0.00     0.100 N 
HETATM    2  C4  UNL     1       9.788  -3.050   4.308  1.00  0.00     0.276 C 
HETATM    3  C5  UNL     1       8.523  -3.159   5.193  1.00  0.00     0.068 C 
HETATM    4  C6  UNL     1       8.211  -4.195   4.125  1.00  0.00     0.254 C 
ENDROOT
BRANCH   1   5
HETATM    5  C3  UNL     1      10.181  -5.370   5.040  1.00  0.00     0.226 C 
HETATM    6  C2  UNL     1      10.360  -6.710   4.329  1.00  0.00     0.063 C 
HETATM    7  C1  UNL     1      11.518  -7.503   4.896  1.00  0.00     0.234 C 
HETATM    8  N2  UNL     1      12.787  -6.852   4.614  1.00  0.00    -0.075 N 
HETATM    9  C14 UNL     1      12.596  -5.411   4.457  1.00  0.00     0.234 C 
ATOM     10  H22 UNL     1      13.490  -7.066   5.322  1.00  0.00     0.277 HD
ATOM     11  H21 UNL     1      13.254  -7.263   3.807  1.00  0.00     0.277 HD
HETATM   12  C13 UNL     1      11.590  -5.005   5.495  1.00  0.00     0.063 C 
ENDBRANCH   1   5
BRANCH   4  13
HETATM   13  C7  UNL     1       7.260  -5.268   4.431  1.00  0.00     0.159 C 
HETATM   14  O1  UNL     1       7.161  -6.120   3.316  1.00  0.00    -0.378 OA
HETATM   15  C8  UNL     1       5.884  -6.039   2.826  1.00  0.00     0.122 C 
HETATM   16  C9  UNL     1       4.963  -6.749   3.799  1.00  0.00     0.032 C 
HETATM   17  C12 UNL     1       5.465  -4.591   3.162  1.00  0.00     0.039 C 
HETATM   18  C10 UNL     1       4.962  -5.848   5.040  1.00  0.00     0.010 C 
HETATM   19  C11 UNL     1       5.866  -4.711   4.621  1.00  0.00     0.019 C 
ENDBRANCH   4  13
TORSDOF 2
ENDMDL
