MODEL 1
REMARK VINA RESULT: -4.837649590      0.000      0.000
REMARK  3 active torsions:
REMARK  status: ('A' for Active; 'I' for Inactive)
REMARK    1  A    between atoms: C2_2  and  N1_3 
REMARK    2  A    between atoms: N1_3  and  C4_5 
REMARK    3  A    between atoms: C8_10  and  O2_11 
ROOT
HETATM    1  C4  UNL     1       7.193  -3.536   5.183  1.00  0.00     0.150 C 
HETATM    2  C5  UNL     1       6.955  -2.057   5.002  1.00  0.00     0.029 C 
HETATM    3  C6  UNL     1       5.846  -1.709   4.074  1.00  0.00     0.017 C 
HETATM    4  C7  UNL     1       5.351  -2.769   3.167  1.00  0.00     0.176 C 
HETATM    5  O1  UNL     1       5.552  -4.060   3.607  1.00  0.00    -0.353 OA
HETATM    6  C8  UNL     1       5.820  -4.142   4.967  1.00  0.00     0.183 C 
HETATM    7  C9  UNL     1       4.772  -3.514   5.829  1.00  0.00     0.076 C 
HETATM    8  C10 UNL     1       4.950  -2.091   6.184  1.00  0.00     0.000 C 
HETATM    9  C11 UNL     1       4.643  -1.263   4.921  1.00  0.00     0.012 C 
HETATM   10  C12 UNL     1       6.372  -1.629   6.362  1.00  0.00    -0.030 A 
HETATM   11  C13 UNL     1       6.729  -0.373   6.994  1.00  0.00     0.011 A 
HETATM   12  C14 UNL     1       7.130  -1.761   7.596  1.00  0.00     0.011 A 
ENDROOT
BRANCH   1  13
HETATM   13  N1  UNL     1       8.216  -4.100   4.438  1.00  0.00    -0.388 N 
HETATM   14  C3  UNL     1       8.501  -5.472   4.476  1.00  0.00     0.149 C 
BRANCH  13  15
HETATM   15  C2  UNL     1       9.183  -3.244   3.878  1.00  0.00     0.054 C 
HETATM   16  C1  UNL     1      10.557  -3.351   4.496  1.00  0.00     0.054 C 
ENDBRANCH  13  15
ENDBRANCH   1  13
BRANCH   6  17
HETATM   17  O2  UNL     1       5.914  -5.500   5.262  1.00  0.00    -0.364 OA
ATOM     18  H2  UNL     1       6.133  -5.952   4.455  1.00  0.00     0.213 HD
ENDBRANCH   6  17
TORSDOF 3
ENDMDL
MODEL 2
REMARK VINA RESULT: -4.828008766      1.740      4.114
REMARK  3 active torsions:
REMARK  status: ('A' for Active; 'I' for Inactive)
REMARK    1  A    between atoms: C2_2  and  N1_3 
REMARK    2  A    between atoms: N1_3  and  C4_5 
REMARK    3  A    between atoms: C8_10  and  O2_11 
ROOT
HETATM    1  C4  UNL     1       6.407  -2.084   5.512  1.00  0.00     0.150 C 
HETATM    2  C5  UNL     1       6.678  -3.564   5.622  1.00  0.00     0.029 C 
HETATM    3  C6  UNL     1       5.481  -4.434   5.466  1.00  0.00     0.017 C 
HETATM    4  C7  UNL     1       4.149  -3.800   5.591  1.00  0.00     0.176 C 
HETATM    5  O1  UNL     1       4.111  -2.453   5.301  1.00  0.00    -0.353 OA
HETATM    6  C8  UNL     1       5.214  -2.014   4.580  1.00  0.00     0.183 C 
HETATM    7  C9  UNL     1       5.437  -2.759   3.303  1.00  0.00     0.076 C 
HETATM    8  C10 UNL     1       6.317  -3.944   3.355  1.00  0.00     0.000 C 
HETATM    9  C11 UNL     1       5.535  -5.064   4.066  1.00  0.00     0.012 C 
HETATM   10  C12 UNL     1       7.460  -3.873   4.332  1.00  0.00    -0.030 A 
HETATM   11  C13 UNL     1       8.584  -4.789   4.311  1.00  0.00     0.011 A 
HETATM   12  C14 UNL     1       8.746  -3.254   4.049  1.00  0.00     0.011 A 
ENDROOT
BRANCH   1  13
HETATM   13  N1  UNL     1       6.276  -1.383   6.699  1.00  0.00    -0.388 N 
HETATM   14  C3  UNL     1       6.433   0.009   6.768  1.00  0.00     0.149 C 
BRANCH  13  15
HETATM   15  C2  UNL     1       6.299  -2.106   7.907  1.00  0.00     0.054 C 
HETATM   16  C1  UNL     1       5.062  -1.952   8.761  1.00  0.00     0.054 C 
ENDBRANCH  13  15
ENDBRANCH   1  13
BRANCH   6  17
HETATM   17  O2  UNL     1       4.983  -0.669   4.300  1.00  0.00    -0.364 OA
ATOM     18  H2  UNL     1       4.215  -0.622   3.742  1.00  0.00     0.213 HD
ENDBRANCH   6  17
TORSDOF 3
ENDMDL
MODEL 3
REMARK VINA RESULT: -4.793926941      2.287      3.635
REMARK  3 active torsions:
REMARK  status: ('A' for Active; 'I' for Inactive)
REMARK    1  A    between atoms: C2_2  and  N1_3 
REMARK    2  A    between atoms: N1_3  and  C4_5 
REMARK    3  A    between atoms: C8_10  and  O2_11 
ROOT
HETATM    1  C4  UNL     1       6.975  -1.783   5.960  1.00  0.00     0.150 C 
HETATM    2  C5  UNL     1       5.696  -2.583   5.998  1.00  0.00     0.029 C 
HETATM    3  C6  UNL     1       5.028  -2.634   7.326  1.00  0.00     0.017 C 
HETATM    4  C7  UNL     1       5.823  -2.241   8.511  1.00  0.00     0.176 C 
HETATM    5  O1  UNL     1       6.870  -1.381   8.257  1.00  0.00    -0.353 OA
HETATM    6  C8  UNL     1       6.765  -0.734   7.033  1.00  0.00     0.183 C 
HETATM    7  C9  UNL     1       5.488   0.023   6.856  1.00  0.00     0.076 C 
HETATM    8  C10 UNL     1       4.356  -0.696   6.236  1.00  0.00     0.000 C 
HETATM    9  C11 UNL     1       3.816  -1.690   7.282  1.00  0.00     0.012 C 
HETATM   10  C12 UNL     1       4.717  -1.714   5.187  1.00  0.00    -0.030 A 
HETATM   11  C13 UNL     1       3.752  -2.289   4.269  1.00  0.00     0.011 A 
HETATM   12  C14 UNL     1       4.948  -1.403   3.785  1.00  0.00     0.011 A 
ENDROOT
BRANCH   1  13
HETATM   13  N1  UNL     1       8.160  -2.495   6.048  1.00  0.00    -0.388 N 
HETATM   14  C3  UNL     1       9.151  -2.186   6.991  1.00  0.00     0.149 C 
BRANCH  13  15
HETATM   15  C2  UNL     1       8.514  -3.336   4.975  1.00  0.00     0.054 C 
HETATM   16  C1  UNL     1      10.001  -3.481   4.748  1.00  0.00     0.054 C 
ENDBRANCH  13  15
ENDBRANCH   1  13
BRANCH   6  17
HETATM   17  O2  UNL     1       7.842   0.149   6.968  1.00  0.00    -0.364 OA
ATOM     18  H2  UNL     1       8.066   0.388   7.860  1.00  0.00     0.213 HD
ENDBRANCH   6  17
TORSDOF 3
ENDMDL
MODEL 4
REMARK VINA RESULT: -4.591746259      2.443      4.730
REMARK  3 active torsions:
REMARK  status: ('A' for Active; 'I' for Inactive)
REMARK    1  A    between atoms: C2_2  and  N1_3 
REMARK    2  A    between atoms: N1_3  and  C4_5 
REMARK    3  A    between atoms: C8_10  and  O2_11 
ROOT
HETATM    1  C4  UNL     1       4.426  -0.818   5.674  1.00  0.00     0.150 C 
HETATM    2  C5  UNL     1       5.039  -1.917   6.507  1.00  0.00     0.029 C 
HETATM    3  C6  UNL     1       4.964  -3.276   5.904  1.00  0.00     0.017 C 
HETATM    4  C7  UNL     1       4.013  -3.481   4.788  1.00  0.00     0.176 C 
HETATM    5  O1  UNL     1       3.702  -2.348   4.067  1.00  0.00    -0.353 OA
HETATM    6  C8  UNL     1       4.607  -1.311   4.252  1.00  0.00     0.183 C 
HETATM    7  C9  UNL     1       6.023  -1.683   3.948  1.00  0.00     0.076 C 
HETATM    8  C10 UNL     1       6.843  -2.200   5.063  1.00  0.00     0.000 C 
HETATM    9  C11 UNL     1       6.357  -3.631   5.362  1.00  0.00     0.012 C 
HETATM   10  C12 UNL     1       6.548  -1.621   6.421  1.00  0.00    -0.030 A 
HETATM   11  C13 UNL     1       7.431  -1.774   7.561  1.00  0.00     0.011 A 
HETATM   12  C14 UNL     1       7.114  -0.379   6.925  1.00  0.00     0.011 A 
ENDROOT
BRANCH   1  13
HETATM   13  N1  UNL     1       3.141  -0.424   6.008  1.00  0.00    -0.388 N 
HETATM   14  C3  UNL     1       2.608   0.809   5.607  1.00  0.00     0.149 C 
BRANCH  13  15
HETATM   15  C2  UNL     1       2.471  -1.128   7.027  1.00  0.00     0.054 C 
HETATM   16  C1  UNL     1       2.180  -0.320   8.270  1.00  0.00     0.054 C 
ENDBRANCH  13  15
ENDBRANCH   1  13
BRANCH   6  17
HETATM   17  O2  UNL     1       4.201  -0.286   3.401  1.00  0.00    -0.364 OA
ATOM     18  H2  UNL     1       4.968   0.242   3.207  1.00  0.00     0.213 HD
ENDBRANCH   6  17
TORSDOF 3
ENDMDL
MODEL 5
REMARK VINA RESULT: -4.588059202      2.370      3.948
REMARK  3 active torsions:
REMARK  status: ('A' for Active; 'I' for Inactive)
REMARK    1  A    between atoms: C2_2  and  N1_3 
REMARK    2  A    between atoms: N1_3  and  C4_5 
REMARK    3  A    between atoms: C8_10  and  O2_11 
ROOT
HETATM    1  C4  UNL     1       5.056  -2.221   5.867  1.00  0.00     0.150 C 
HETATM    2  C5  UNL     1       5.451  -3.012   7.090  1.00  0.00     0.029 C 
HETATM    3  C6  UNL     1       6.311  -2.281   8.059  1.00  0.00     0.017 C 
HETATM    4  C7  UNL     1       6.982  -1.048   7.589  1.00  0.00     0.176 C 
HETATM    5  O1  UNL     1       6.360  -0.405   6.541  1.00  0.00    -0.353 OA
HETATM    6  C8  UNL     1       5.037  -0.790   6.365  1.00  0.00     0.183 C 
HETATM    7  C9  UNL     1       4.190  -0.617   7.586  1.00  0.00     0.076 C 
HETATM    8  C10 UNL     1       4.090  -1.766   8.509  1.00  0.00     0.000 C 
HETATM    9  C11 UNL     1       5.435  -1.873   9.254  1.00  0.00     0.012 C 
HETATM   10  C12 UNL     1       4.129  -3.129   7.871  1.00  0.00    -0.030 A 
HETATM   11  C13 UNL     1       3.746  -4.344   8.564  1.00  0.00     0.011 A 
HETATM   12  C14 UNL     1       2.968  -3.809   7.316  1.00  0.00     0.011 A 
ENDROOT
BRANCH   1  13
HETATM   13  N1  UNL     1       5.796  -2.440   4.717  1.00  0.00    -0.388 N 
HETATM   14  C3  UNL     1       5.400  -1.944   3.466  1.00  0.00     0.149 C 
BRANCH  13  15
HETATM   15  C2  UNL     1       6.790  -3.438   4.742  1.00  0.00     0.054 C 
HETATM   16  C1  UNL     1       8.142  -2.998   4.232  1.00  0.00     0.054 C 
ENDBRANCH  13  15
ENDBRANCH   1  13
BRANCH   6  17
HETATM   17  O2  UNL     1       4.536   0.002   5.335  1.00  0.00    -0.364 OA
ATOM     18  H2  UNL     1       4.508   0.898   5.653  1.00  0.00     0.213 HD
ENDBRANCH   6  17
TORSDOF 3
ENDMDL
