MODEL 1
REMARK VINA RESULT: -5.933540078      0.000      0.000
REMARK  2 active torsions:
REMARK  status: ('A' for Active; 'I' for Inactive)
REMARK    1  A    between atoms: C2_2  and  O2_4 
REMARK    2  A    between atoms: O2_4  and  C3_5 
ROOT
HETATM    1  C3  UNL     1     -21.214  -2.578  -9.866  1.00  0.00     0.156 C 
HETATM    2  C4  UNL     1     -22.223  -2.801 -10.964  1.00  0.00     0.042 C 
HETATM    3  C5  UNL     1     -23.292  -3.801 -10.576  1.00  0.00     0.105 C 
HETATM    4  C6  UNL     1     -22.706  -5.078 -10.023  1.00  0.00     0.282 C 
HETATM    5  O3  UNL     1     -22.642  -6.017 -11.023  1.00  0.00    -0.331 OA
HETATM    6  C7  UNL     1     -23.636  -6.946 -10.815  1.00  0.00     0.200 C 
HETATM    7  C8  UNL     1     -24.465  -6.336  -9.711  1.00  0.00     0.200 C 
HETATM    8  O4  UNL     1     -23.541  -5.579  -9.024  1.00  0.00    -0.331 OA
HETATM    9  O5  UNL     1     -21.426  -4.886  -9.512  1.00  0.00    -0.330 OA
HETATM   10  C9  UNL     1     -21.339  -3.666  -8.825  1.00  0.00     0.206 C 
ENDROOT
BRANCH   1  11
HETATM   11  O2  UNL     1     -21.246  -1.292  -9.325  1.00  0.00    -0.314 OA
BRANCH  11  12
HETATM   12  C2  UNL     1     -20.614  -0.924  -8.173  1.00  0.00     0.255 C 
HETATM   13  C1  UNL     1     -21.222  -0.185  -7.050  1.00  0.00     0.126 C 
HETATM   14  O1  UNL     1     -19.390  -1.244  -8.048  1.00  0.00    -0.266 OA
ENDBRANCH  11  12
ENDBRANCH   1  11
TORSDOF 2
ENDMDL
MODEL 2
REMARK VINA RESULT: -5.513385734      2.014      5.953
REMARK  2 active torsions:
REMARK  status: ('A' for Active; 'I' for Inactive)
REMARK    1  A    between atoms: C2_2  and  O2_4 
REMARK    2  A    between atoms: O2_4  and  C3_5 
ROOT
HETATM    1  C3  UNL     1     -24.495  -6.319 -10.100  1.00  0.00     0.156 C 
HETATM    2  C4  UNL     1     -24.781  -4.968  -9.499  1.00  0.00     0.042 C 
HETATM    3  C5  UNL     1     -23.871  -3.886 -10.042  1.00  0.00     0.105 C 
HETATM    4  C6  UNL     1     -22.414  -4.281  -9.978  1.00  0.00     0.282 C 
HETATM    5  O3  UNL     1     -21.849  -3.744  -8.848  1.00  0.00    -0.331 OA
HETATM    6  C7  UNL     1     -21.052  -2.685  -9.219  1.00  0.00     0.200 C 
HETATM    7  C8  UNL     1     -21.384  -2.486 -10.677  1.00  0.00     0.200 C 
HETATM    8  O4  UNL     1     -21.741  -3.754 -11.081  1.00  0.00    -0.331 OA
HETATM    9  O5  UNL     1     -22.250  -5.662  -9.944  1.00  0.00    -0.330 OA
HETATM   10  C9  UNL     1     -23.159  -6.296 -10.804  1.00  0.00     0.206 C 
ENDROOT
BRANCH   1  11
HETATM   11  O2  UNL     1     -25.529  -6.812 -10.897  1.00  0.00    -0.314 OA
BRANCH  11  12
HETATM   12  C2  UNL     1     -25.688  -8.126 -11.228  1.00  0.00     0.255 C 
HETATM   13  C1  UNL     1     -24.861  -9.248 -10.743  1.00  0.00     0.126 C 
HETATM   14  O1  UNL     1     -26.633  -8.420 -12.025  1.00  0.00    -0.266 OA
ENDBRANCH  11  12
ENDBRANCH   1  11
TORSDOF 2
ENDMDL
MODEL 3
REMARK VINA RESULT: -5.166398572      2.885      5.851
REMARK  2 active torsions:
REMARK  status: ('A' for Active; 'I' for Inactive)
REMARK    1  A    between atoms: C2_2  and  O2_4 
REMARK    2  A    between atoms: O2_4  and  C3_5 
ROOT
HETATM    1  C3  UNL     1     -25.839  -4.900 -10.204  1.00  0.00     0.156 C 
HETATM    2  C4  UNL     1     -25.778  -3.395 -10.250  1.00  0.00     0.042 C 
HETATM    3  C5  UNL     1     -24.468  -2.884 -10.813  1.00  0.00     0.105 C 
HETATM    4  C6  UNL     1     -23.272  -3.520 -10.143  1.00  0.00     0.282 C 
HETATM    5  O3  UNL     1     -22.807  -2.684  -9.158  1.00  0.00    -0.331 OA
HETATM    6  C7  UNL     1     -21.645  -2.092  -9.600  1.00  0.00     0.200 C 
HETATM    7  C8  UNL     1     -21.582  -2.480 -11.057  1.00  0.00     0.200 C 
HETATM    8  O4  UNL     1     -22.249  -3.685 -11.077  1.00  0.00    -0.331 OA
HETATM    9  O5  UNL     1     -23.588  -4.748  -9.571  1.00  0.00    -0.330 OA
HETATM   10  C9  UNL     1     -24.457  -5.477 -10.395  1.00  0.00     0.206 C 
ENDROOT
BRANCH   1  11
HETATM   11  O2  UNL     1     -26.790  -5.451 -11.065  1.00  0.00    -0.314 OA
BRANCH  11  12
HETATM   12  C2  UNL     1     -28.036  -4.935 -11.271  1.00  0.00     0.255 C 
HETATM   13  C1  UNL     1     -29.162  -4.984 -10.319  1.00  0.00     0.126 C 
HETATM   14  O1  UNL     1     -28.255  -4.356 -12.381  1.00  0.00    -0.266 OA
ENDBRANCH  11  12
ENDBRANCH   1  11
TORSDOF 2
ENDMDL
MODEL 4
REMARK VINA RESULT: -5.152505586      1.326      5.088
REMARK  2 active torsions:
REMARK  status: ('A' for Active; 'I' for Inactive)
REMARK    1  A    between atoms: C2_2  and  O2_4 
REMARK    2  A    between atoms: O2_4  and  C3_5 
ROOT
HETATM    1  C3  UNL     1     -22.451  -4.193 -10.680  1.00  0.00     0.156 C 
HETATM    2  C4  UNL     1     -21.755  -4.386  -9.358  1.00  0.00     0.042 C 
HETATM    3  C5  UNL     1     -21.805  -3.147  -8.488  1.00  0.00     0.105 C 
HETATM    4  C6  UNL     1     -21.361  -1.909  -9.232  1.00  0.00     0.282 C 
HETATM    5  O3  UNL     1     -20.040  -1.662  -8.952  1.00  0.00    -0.331 OA
HETATM    6  C7  UNL     1     -19.968  -0.591  -8.091  1.00  0.00     0.200 C 
HETATM    7  C8  UNL     1     -21.404  -0.363  -7.690  1.00  0.00     0.200 C 
HETATM    8  O4  UNL     1     -22.100  -0.811  -8.791  1.00  0.00    -0.331 OA
HETATM    9  O5  UNL     1     -21.505  -2.049 -10.608  1.00  0.00    -0.330 OA
HETATM   10  C9  UNL     1     -22.695  -2.722 -10.923  1.00  0.00     0.206 C 
ENDROOT
BRANCH   1  11
HETATM   11  O2  UNL     1     -23.598  -4.974 -10.832  1.00  0.00    -0.314 OA
BRANCH  11  12
HETATM   12  C2  UNL     1     -24.569  -5.111  -9.884  1.00  0.00     0.255 C 
HETATM   13  C1  UNL     1     -25.473  -4.045  -9.410  1.00  0.00     0.126 C 
HETATM   14  O1  UNL     1     -24.716  -6.257  -9.357  1.00  0.00    -0.266 OA
ENDBRANCH  11  12
ENDBRANCH   1  11
TORSDOF 2
ENDMDL
MODEL 5
REMARK VINA RESULT: -4.980151532      3.526      5.400
REMARK  2 active torsions:
REMARK  status: ('A' for Active; 'I' for Inactive)
REMARK    1  A    between atoms: C2_2  and  O2_4 
REMARK    2  A    between atoms: O2_4  and  C3_5 
ROOT
HETATM    1  C3  UNL     1     -24.863  -6.719 -10.279  1.00  0.00     0.156 C 
HETATM    2  C4  UNL     1     -23.401  -7.077 -10.336  1.00  0.00     0.042 C 
HETATM    3  C5  UNL     1     -23.115  -8.197 -11.315  1.00  0.00     0.105 C 
HETATM    4  C6  UNL     1     -24.022  -9.386 -11.103  1.00  0.00     0.282 C 
HETATM    5  O3  UNL     1     -23.372 -10.321 -10.336  1.00  0.00    -0.331 OA
HETATM    6  C7  UNL     1     -22.988 -11.363 -11.149  1.00  0.00     0.200 C 
HETATM    7  C8  UNL     1     -23.266 -10.848 -12.540  1.00  0.00     0.200 C 
HETATM    8  O4  UNL     1     -24.312  -9.974 -12.334  1.00  0.00    -0.331 OA
HETATM    9  O5  UNL     1     -25.205  -9.031 -10.463  1.00  0.00    -0.330 OA
HETATM   10  C9  UNL     1     -25.684  -7.802 -10.939  1.00  0.00     0.206 C 
ENDROOT
BRANCH   1  11
HETATM   11  O2  UNL     1     -25.149  -5.440 -10.761  1.00  0.00    -0.314 OA
BRANCH  11  12
HETATM   12  C2  UNL     1     -24.878  -4.285 -10.089  1.00  0.00     0.255 C 
HETATM   13  C1  UNL     1     -23.720  -3.400 -10.320  1.00  0.00     0.126 C 
HETATM   14  O1  UNL     1     -25.692  -3.930  -9.179  1.00  0.00    -0.266 OA
ENDBRANCH  11  12
ENDBRANCH   1  11
TORSDOF 2
ENDMDL
