MODEL 1
REMARK VINA RESULT: -4.505352609      0.000      0.000
REMARK  1 active torsions:
REMARK  status: ('A' for Active; 'I' for Inactive)
REMARK    1  A    between atoms: C2_2  and  C3_3 
REMARK       I    between atoms: C3_3  and  N1_5 
ROOT
HETATM    1  C3  UNL     1     -21.963  -4.077  -9.870  1.00  0.00     0.220 C 
HETATM    2  O1  UNL     1     -21.098  -4.598  -9.084  1.00  0.00    -0.273 OA
HETATM    3  N1  UNL     1     -23.158  -4.798 -10.071  1.00  0.00    -0.331 N 
HETATM    4  C4  UNL     1     -24.290  -4.394 -10.888  1.00  0.00     0.186 C 
HETATM    5  C5  UNL     1     -25.504  -5.030 -10.249  1.00  0.00     0.178 C 
HETATM    6  C6  UNL     1     -24.966  -5.774  -9.080  1.00  0.00     0.101 C 
HETATM    7  C7  UNL     1     -23.547  -6.095  -9.511  1.00  0.00     0.199 C 
HETATM    8  C8  UNL     1     -23.503  -7.159 -10.491  1.00  0.00     0.085 C 
HETATM    9  N2  UNL     1     -23.447  -7.993 -11.270  1.00  0.00    -0.195 NA
HETATM   10  N3  UNL     1     -26.234  -5.888 -11.182  1.00  0.00    -0.058 NA
HETATM   11  O2  UNL     1     -27.496  -5.412 -11.226  1.00  0.00    -0.258 OA
HETATM   12  C9  UNL     1     -27.643  -4.833  -9.967  1.00  0.00     0.367 C 
HETATM   13  O3  UNL     1     -26.463  -4.066  -9.884  1.00  0.00    -0.334 OA
ENDROOT
BRANCH   1  14
HETATM   14  C2  UNL     1     -21.655  -2.778 -10.505  1.00  0.00     0.098 C 
HETATM   15  C1  UNL     1     -22.008  -1.607  -9.629  1.00  0.00     0.014 C 
ENDBRANCH   1  14
TORSDOF 1
ENDMDL
MODEL 2
REMARK VINA RESULT: -4.464799912      4.306      6.604
REMARK  1 active torsions:
REMARK  status: ('A' for Active; 'I' for Inactive)
REMARK    1  A    between atoms: C2_2  and  C3_3 
REMARK       I    between atoms: C3_3  and  N1_5 
ROOT
HETATM    1  C3  UNL     1     -25.349  -8.181 -11.054  1.00  0.00     0.220 C 
HETATM    2  O1  UNL     1     -26.397  -8.011 -11.768  1.00  0.00    -0.273 OA
HETATM    3  N1  UNL     1     -24.675  -9.412 -11.194  1.00  0.00    -0.331 N 
HETATM    4  C4  UNL     1     -23.455  -9.816 -10.517  1.00  0.00     0.186 C 
HETATM    5  C5  UNL     1     -22.763 -10.778 -11.457  1.00  0.00     0.178 C 
HETATM    6  C6  UNL     1     -23.662 -10.858 -12.637  1.00  0.00     0.101 C 
HETATM    7  C7  UNL     1     -25.025 -10.553 -12.043  1.00  0.00     0.199 C 
HETATM    8  C8  UNL     1     -25.552 -11.668 -11.287  1.00  0.00     0.085 C 
HETATM    9  N2  UNL     1     -25.982 -12.535 -10.680  1.00  0.00    -0.195 NA
HETATM   10  N3  UNL     1     -22.521 -12.080 -10.835  1.00  0.00    -0.058 NA
HETATM   11  O2  UNL     1     -21.192 -12.296 -10.915  1.00  0.00    -0.258 OA
HETATM   12  C9  UNL     1     -20.836 -11.571 -12.050  1.00  0.00     0.367 C 
HETATM   13  O3  UNL     1     -21.468 -10.337 -11.789  1.00  0.00    -0.334 OA
ENDROOT
BRANCH   1  14
HETATM   14  C2  UNL     1     -24.924  -7.095 -10.145  1.00  0.00     0.098 C 
HETATM   15  C1  UNL     1     -23.773  -6.297 -10.693  1.00  0.00     0.014 C 
ENDBRANCH   1  14
TORSDOF 1
ENDMDL
MODEL 3
REMARK VINA RESULT: -4.457042844      4.460      6.157
REMARK  1 active torsions:
REMARK  status: ('A' for Active; 'I' for Inactive)
REMARK    1  A    between atoms: C2_2  and  C3_3 
REMARK       I    between atoms: C3_3  and  N1_5 
ROOT
HETATM    1  C3  UNL     1     -24.358  -7.719 -10.868  1.00  0.00     0.220 C 
HETATM    2  O1  UNL     1     -25.562  -7.373 -10.607  1.00  0.00    -0.273 OA
HETATM    3  N1  UNL     1     -24.182  -8.905 -11.612  1.00  0.00    -0.331 N 
HETATM    4  C4  UNL     1     -22.920  -9.474 -12.052  1.00  0.00     0.186 C 
HETATM    5  C5  UNL     1     -23.231 -10.223 -13.329  1.00  0.00     0.178 C 
HETATM    6  C6  UNL     1     -24.689 -10.022 -13.533  1.00  0.00     0.101 C 
HETATM    7  C7  UNL     1     -25.203  -9.824 -12.119  1.00  0.00     0.199 C 
HETATM    8  C8  UNL     1     -25.251 -11.066 -11.378  1.00  0.00     0.085 C 
HETATM    9  N2  UNL     1     -25.291 -12.034 -10.773  1.00  0.00    -0.195 NA
HETATM   10  N3  UNL     1     -22.856 -11.634 -13.248  1.00  0.00    -0.058 NA
HETATM   11  O2  UNL     1     -22.000 -11.857 -14.267  1.00  0.00    -0.258 OA
HETATM   12  C9  UNL     1     -22.398 -10.910 -15.207  1.00  0.00     0.367 C 
HETATM   13  O3  UNL     1     -22.461  -9.749 -14.408  1.00  0.00    -0.334 OA
ENDROOT
BRANCH   1  14
HETATM   14  C2  UNL     1     -23.252  -6.868 -10.379  1.00  0.00     0.098 C 
HETATM   15  C1  UNL     1     -23.523  -5.401 -10.569  1.00  0.00     0.014 C 
ENDBRANCH   1  14
TORSDOF 1
ENDMDL
MODEL 4
REMARK VINA RESULT: -4.443385016      2.025      4.910
REMARK  1 active torsions:
REMARK  status: ('A' for Active; 'I' for Inactive)
REMARK    1  A    between atoms: C2_2  and  C3_3 
REMARK       I    between atoms: C3_3  and  N1_5 
ROOT
HETATM    1  C3  UNL     1     -24.437  -7.831 -10.767  1.00  0.00     0.220 C 
HETATM    2  O1  UNL     1     -25.457  -8.309 -10.160  1.00  0.00    -0.273 OA
HETATM    3  N1  UNL     1     -24.127  -6.477 -10.523  1.00  0.00    -0.331 N 
HETATM    4  C4  UNL     1     -23.007  -5.730 -11.070  1.00  0.00     0.186 C 
HETATM    5  C5  UNL     1     -22.674  -4.676 -10.038  1.00  0.00     0.178 C 
HETATM    6  C6  UNL     1     -23.656  -4.900  -8.945  1.00  0.00     0.101 C 
HETATM    7  C7  UNL     1     -24.835  -5.517  -9.673  1.00  0.00     0.199 C 
HETATM    8  C8  UNL     1     -25.576  -4.537 -10.438  1.00  0.00     0.085 C 
HETATM    9  N2  UNL     1     -26.170  -3.779 -11.054  1.00  0.00    -0.195 NA
HETATM   10  N3  UNL     1     -22.737  -3.323 -10.590  1.00  0.00    -0.058 NA
HETATM   11  O2  UNL     1     -21.523  -2.772 -10.379  1.00  0.00    -0.258 OA
HETATM   12  C9  UNL     1     -21.082  -3.442  -9.241  1.00  0.00     0.367 C 
HETATM   13  O3  UNL     1     -21.341  -4.781  -9.600  1.00  0.00    -0.334 OA
ENDROOT
BRANCH   1  14
HETATM   14  C2  UNL     1     -23.667  -8.715 -11.667  1.00  0.00     0.098 C 
HETATM   15  C1  UNL     1     -23.313 -10.028 -11.026  1.00  0.00     0.014 C 
ENDBRANCH   1  14
TORSDOF 1
ENDMDL
MODEL 5
REMARK VINA RESULT: -4.324880386      4.110      5.616
REMARK  1 active torsions:
REMARK  status: ('A' for Active; 'I' for Inactive)
REMARK    1  A    between atoms: C2_2  and  C3_3 
REMARK       I    between atoms: C3_3  and  N1_5 
ROOT
HETATM    1  C3  UNL     1     -24.043  -7.500 -10.783  1.00  0.00     0.220 C 
HETATM    2  O1  UNL     1     -22.920  -7.008 -10.417  1.00  0.00    -0.273 OA
HETATM    3  N1  UNL     1     -24.017  -8.781 -11.371  1.00  0.00    -0.331 N 
HETATM    4  C4  UNL     1     -25.161  -9.548 -11.832  1.00  0.00     0.186 C 
HETATM    5  C5  UNL     1     -24.769 -11.001 -11.679  1.00  0.00     0.178 C 
HETATM    6  C6  UNL     1     -23.390 -10.960 -11.127  1.00  0.00     0.101 C 
HETATM    7  C7  UNL     1     -22.860  -9.636 -11.646  1.00  0.00     0.199 C 
HETATM    8  C8  UNL     1     -22.533  -9.694 -13.055  1.00  0.00     0.085 C 
HETATM    9  N2  UNL     1     -22.276  -9.718 -14.168  1.00  0.00    -0.195 NA
HETATM   10  N3  UNL     1     -24.855 -11.733 -12.943  1.00  0.00    -0.058 NA
HETATM   11  O2  UNL     1     -25.697 -12.765 -12.726  1.00  0.00    -0.258 OA
HETATM   12  C9  UNL     1     -25.538 -13.002 -11.363  1.00  0.00     0.367 C 
HETATM   13  O3  UNL     1     -25.666 -11.696 -10.846  1.00  0.00    -0.334 OA
ENDROOT
BRANCH   1  14
HETATM   14  C2  UNL     1     -25.270  -6.703 -10.569  1.00  0.00     0.098 C 
HETATM   15  C1  UNL     1     -24.981  -5.246 -10.335  1.00  0.00     0.014 C 
ENDBRANCH   1  14
TORSDOF 1
ENDMDL
