MODEL 1
REMARK VINA RESULT: -3.710904628      0.000      0.000
REMARK  1 active torsions:
REMARK  status: ('A' for Active; 'I' for Inactive)
REMARK    1  A    between atoms: C2_2  and  N1_3 
ROOT
HETATM    1  C1  UNL     1     -21.917 -12.648 -13.411  1.00  0.00     0.051 C 
HETATM    2  C2  UNL     1     -21.937 -11.657 -12.266  1.00  0.00     0.147 C 
HETATM    3  C3  UNL     1     -22.878 -12.176 -11.175  1.00  0.00     0.174 C 
HETATM    4  C4  UNL     1     -24.174 -12.516 -11.868  1.00  0.00     0.155 C 
HETATM    5  N2  UNL     1     -24.643 -11.330 -12.531  1.00  0.00    -0.192 NA
HETATM    6  C5  UNL     1     -25.060 -10.413 -11.457  1.00  0.00     0.152 C 
HETATM    7  C6  UNL     1     -23.777 -10.093 -10.705  1.00  0.00     0.140 C 
HETATM    8  C7  UNL     1     -22.888  -9.391 -11.734  1.00  0.00     0.070 C 
HETATM    9  C8  UNL     1     -22.574 -10.392 -12.795  1.00  0.00     0.184 C 
HETATM   10  O3  UNL     1     -23.790 -10.780 -13.379  1.00  0.00    -0.295 OA
HETATM   11  O4  UNL     1     -23.145 -11.213 -10.231  1.00  0.00    -0.375 OA
ENDROOT
BRANCH   2  12
HETATM   12  N1  UNL     1     -20.626 -11.464 -11.731  1.00  0.00    -0.140 N 
HETATM   13  O1  UNL     1     -20.237 -12.197 -10.808  1.00  0.00    -0.536 OA
HETATM   14  O2  UNL     1     -19.793 -10.492 -12.212  1.00  0.00    -0.536 OA
ENDBRANCH   2  12
TORSDOF 1
ENDMDL
MODEL 2
REMARK VINA RESULT: -3.648796170      2.983      4.157
REMARK  1 active torsions:
REMARK  status: ('A' for Active; 'I' for Inactive)
REMARK    1  A    between atoms: C2_2  and  N1_3 
ROOT
HETATM    1  C1  UNL     1     -21.463 -12.067 -13.427  1.00  0.00     0.051 C 
HETATM    2  C2  UNL     1     -20.063 -12.364 -12.934  1.00  0.00     0.147 C 
HETATM    3  C3  UNL     1     -19.957 -13.857 -12.609  1.00  0.00     0.174 C 
HETATM    4  C4  UNL     1     -21.129 -14.175 -11.713  1.00  0.00     0.155 C 
HETATM    5  N2  UNL     1     -21.048 -13.317 -10.563  1.00  0.00    -0.192 NA
HETATM    6  C5  UNL     1     -19.888 -13.796  -9.791  1.00  0.00     0.152 C 
HETATM    7  C6  UNL     1     -18.692 -13.537 -10.694  1.00  0.00     0.140 C 
HETATM    8  C7  UNL     1     -18.663 -12.017 -10.875  1.00  0.00     0.070 C 
HETATM    9  C8  UNL     1     -19.902 -11.641 -11.616  1.00  0.00     0.184 C 
HETATM   10  O3  UNL     1     -20.996 -12.021 -10.824  1.00  0.00    -0.295 OA
HETATM   11  O4  UNL     1     -18.805 -14.148 -11.916  1.00  0.00    -0.375 OA
ENDROOT
BRANCH   2  12
HETATM   12  N1  UNL     1     -19.086 -12.005 -13.913  1.00  0.00    -0.140 N 
HETATM   13  O1  UNL     1     -18.705 -12.861 -14.728  1.00  0.00    -0.536 OA
HETATM   14  O2  UNL     1     -18.563 -10.744 -13.973  1.00  0.00    -0.536 OA
ENDBRANCH   2  12
TORSDOF 1
ENDMDL
MODEL 3
REMARK VINA RESULT: -3.612054163      3.307      4.380
REMARK  1 active torsions:
REMARK  status: ('A' for Active; 'I' for Inactive)
REMARK    1  A    between atoms: C2_2  and  N1_3 
ROOT
HETATM    1  C1  UNL     1     -16.993 -12.567 -12.169  1.00  0.00     0.051 C 
HETATM    2  C2  UNL     1     -18.462 -12.372 -11.861  1.00  0.00     0.147 C 
HETATM    3  C3  UNL     1     -19.277 -13.394 -12.660  1.00  0.00     0.174 C 
HETATM    4  C4  UNL     1     -18.809 -13.277 -14.090  1.00  0.00     0.155 C 
HETATM    5  N2  UNL     1     -19.005 -11.916 -14.507  1.00  0.00    -0.192 NA
HETATM    6  C5  UNL     1     -20.464 -11.738 -14.610  1.00  0.00     0.152 C 
HETATM    7  C6  UNL     1     -20.972 -11.904 -13.186  1.00  0.00     0.140 C 
HETATM    8  C7  UNL     1     -20.317 -10.763 -12.403  1.00  0.00     0.070 C 
HETATM    9  C8  UNL     1     -18.847 -11.016 -12.410  1.00  0.00     0.184 C 
HETATM   10  O3  UNL     1     -18.425 -11.001 -13.748  1.00  0.00    -0.295 OA
HETATM   11  O4  UNL     1     -20.622 -13.108 -12.632  1.00  0.00    -0.375 OA
ENDROOT
BRANCH   2  12
HETATM   12  N1  UNL     1     -18.720 -12.524 -10.464  1.00  0.00    -0.140 N 
HETATM   13  O1  UNL     1     -17.859 -12.159  -9.648  1.00  0.00    -0.536 OA
HETATM   14  O2  UNL     1     -19.890 -13.062 -10.007  1.00  0.00    -0.536 OA
ENDBRANCH   2  12
TORSDOF 1
ENDMDL
MODEL 4
REMARK VINA RESULT: -3.605449648      2.043      3.863
REMARK  1 active torsions:
REMARK  status: ('A' for Active; 'I' for Inactive)
REMARK    1  A    between atoms: C2_2  and  N1_3 
ROOT
HETATM    1  C1  UNL     1     -22.792 -12.890 -12.513  1.00  0.00     0.051 C 
HETATM    2  C2  UNL     1     -21.949 -11.637 -12.401  1.00  0.00     0.147 C 
HETATM    3  C3  UNL     1     -21.709 -11.072 -13.804  1.00  0.00     0.174 C 
HETATM    4  C4  UNL     1     -21.199 -12.223 -14.637  1.00  0.00     0.155 C 
HETATM    5  N2  UNL     1     -20.017 -12.736 -14.002  1.00  0.00    -0.192 NA
HETATM    6  C5  UNL     1     -18.986 -11.700 -14.184  1.00  0.00     0.152 C 
HETATM    7  C6  UNL     1     -19.499 -10.504 -13.396  1.00  0.00     0.140 C 
HETATM    8  C7  UNL     1     -19.562 -10.992 -11.947  1.00  0.00     0.070 C 
HETATM    9  C8  UNL     1     -20.592 -12.069 -11.891  1.00  0.00     0.184 C 
HETATM   10  O3  UNL     1     -20.165 -13.102 -12.739  1.00  0.00    -0.295 OA
HETATM   11  O4  UNL     1     -20.743 -10.093 -13.802  1.00  0.00    -0.375 OA
ENDROOT
BRANCH   2  12
HETATM   12  N1  UNL     1     -22.589 -10.658 -11.581  1.00  0.00    -0.140 N 
HETATM   13  O1  UNL     1     -22.889 -10.951 -10.413  1.00  0.00    -0.536 OA
HETATM   14  O2  UNL     1     -22.879  -9.408 -12.054  1.00  0.00    -0.536 OA
ENDBRANCH   2  12
TORSDOF 1
ENDMDL
MODEL 5
REMARK VINA RESULT: -3.604695415      1.926      4.121
REMARK  1 active torsions:
REMARK  status: ('A' for Active; 'I' for Inactive)
REMARK    1  A    between atoms: C2_2  and  N1_3 
ROOT
HETATM    1  C1  UNL     1     -26.191 -11.390 -11.484  1.00  0.00     0.051 C 
HETATM    2  C2  UNL     1     -25.336 -10.273 -12.044  1.00  0.00     0.147 C 
HETATM    3  C3  UNL     1     -24.439 -10.840 -13.149  1.00  0.00     0.174 C 
HETATM    4  C4  UNL     1     -23.761 -12.052 -12.557  1.00  0.00     0.155 C 
HETATM    5  N2  UNL     1     -23.049 -11.627 -11.383  1.00  0.00    -0.192 NA
HETATM    6  C5  UNL     1     -21.924 -10.813 -11.872  1.00  0.00     0.152 C 
HETATM    7  C6  UNL     1     -22.580  -9.605 -12.524  1.00  0.00     0.140 C 
HETATM    8  C7  UNL     1     -23.330  -8.908 -11.386  1.00  0.00     0.070 C 
HETATM    9  C8  UNL     1     -24.404  -9.840 -10.935  1.00  0.00     0.184 C 
HETATM   10  O3  UNL     1     -23.779 -11.007 -10.470  1.00  0.00    -0.295 OA
HETATM   11  O4  UNL     1     -23.459  -9.948 -13.518  1.00  0.00    -0.375 OA
ENDROOT
BRANCH   2  12
HETATM   12  N1  UNL     1     -26.145  -9.217 -12.564  1.00  0.00    -0.140 N 
HETATM   13  O1  UNL     1     -26.478  -9.244 -13.760  1.00  0.00    -0.536 OA
HETATM   14  O2  UNL     1     -26.560  -8.179 -11.777  1.00  0.00    -0.536 OA
ENDBRANCH   2  12
TORSDOF 1
ENDMDL
