MODEL 1
REMARK VINA RESULT: -5.609545927      0.000      0.000
REMARK  3 active torsions:
REMARK  status: ('A' for Active; 'I' for Inactive)
REMARK    1  A    between atoms: N3_6  and  N4_8 
REMARK    2  A    between atoms: N5_10  and  O1_11 
REMARK    3  A    between atoms: N5_10  and  N6_13 
ROOT
HETATM    1  N1  UNL     1     -23.330  -7.997 -10.941  1.00  0.00    -0.189 NA
HETATM    2  C1  UNL     1     -23.457  -6.864 -10.686  1.00  0.00     0.131 C 
HETATM    3  C2  UNL     1     -23.614  -5.464 -10.397  1.00  0.00     0.210 C 
HETATM    4  C3  UNL     1     -24.929  -4.891 -10.328  1.00  0.00     0.131 C 
HETATM    5  N2  UNL     1     -25.996  -4.433 -10.256  1.00  0.00    -0.189 NA
HETATM    6  N3  UNL     1     -22.533  -4.785 -10.212  1.00  0.00    -0.264 N 
ATOM      7  H3  UNL     1     -21.644  -5.280 -10.282  1.00  0.00     0.190 HD
ENDROOT
BRANCH   6   8
HETATM    8  N4  UNL     1     -22.495  -3.432  -9.925  1.00  0.00    -0.199 N 
HETATM    9  N5  UNL     1     -21.450  -2.934  -9.417  1.00  0.00    -0.082 N 
ATOM     10  H4  UNL     1     -23.304  -2.842 -10.122  1.00  0.00     0.212 HD
BRANCH   9  11
HETATM   11  O1  UNL     1     -20.391  -3.779  -9.172  1.00  0.00    -0.252 OA
ATOM     12  H1  UNL     1     -19.932  -3.685  -8.346  1.00  0.00     0.248 HD
ENDBRANCH   9  11
BRANCH   9  13
HETATM   13  N6  UNL     1     -21.412  -1.579  -9.130  1.00  0.00    -0.281 N 
HETATM   14  C4  UNL     1     -22.609  -0.808  -9.227  1.00  0.00     0.172 C 
HETATM   15  C5  UNL     1     -22.700   0.049  -7.962  1.00  0.00     0.189 C 
HETATM   16  O2  UNL     1     -21.767  -0.345  -7.014  1.00  0.00    -0.388 OA
HETATM   17  C6  UNL     1     -20.464  -0.194  -7.446  1.00  0.00     0.189 C 
HETATM   18  C7  UNL     1     -20.191  -0.949  -8.740  1.00  0.00     0.172 C 
ENDBRANCH   9  13
ENDBRANCH   6   8
TORSDOF 3
ENDMDL
MODEL 2
REMARK VINA RESULT: -5.557417533      2.080      5.778
REMARK  3 active torsions:
REMARK  status: ('A' for Active; 'I' for Inactive)
REMARK    1  A    between atoms: N3_6  and  N4_8 
REMARK    2  A    between atoms: N5_10  and  O1_11 
REMARK    3  A    between atoms: N5_10  and  N6_13 
ROOT
HETATM    1  N1  UNL     1     -18.924   0.193  -6.303  1.00  0.00    -0.189 NA
HETATM    2  C1  UNL     1     -19.864  -0.106  -6.931  1.00  0.00     0.131 C 
HETATM    3  C2  UNL     1     -21.028  -0.487  -7.683  1.00  0.00     0.210 C 
HETATM    4  C3  UNL     1     -22.241   0.271  -7.558  1.00  0.00     0.131 C 
HETATM    5  N2  UNL     1     -23.217   0.897  -7.468  1.00  0.00    -0.189 NA
HETATM    6  N3  UNL     1     -20.911  -1.519  -8.449  1.00  0.00    -0.264 N 
ATOM      7  H3  UNL     1     -20.009  -1.993  -8.471  1.00  0.00     0.190 HD
ENDROOT
BRANCH   6   8
HETATM    8  N4  UNL     1     -21.925  -2.026  -9.243  1.00  0.00    -0.199 N 
HETATM    9  N5  UNL     1     -21.891  -3.241  -9.591  1.00  0.00    -0.082 N 
ATOM     10  H4  UNL     1     -22.692  -1.425  -9.544  1.00  0.00     0.212 HD
BRANCH   9  11
HETATM   11  O1  UNL     1     -20.830  -4.004  -9.155  1.00  0.00    -0.252 OA
ATOM     12  H1  UNL     1     -20.779  -4.903  -9.457  1.00  0.00     0.248 HD
ENDBRANCH   9  11
BRANCH   9  13
HETATM   13  N6  UNL     1     -22.906  -3.750 -10.386  1.00  0.00    -0.281 N 
HETATM   14  C4  UNL     1     -22.893  -5.133 -10.739  1.00  0.00     0.172 C 
HETATM   15  C5  UNL     1     -24.305  -5.675 -10.502  1.00  0.00     0.189 C 
HETATM   16  O2  UNL     1     -25.085  -4.767  -9.801  1.00  0.00    -0.388 OA
HETATM   17  C6  UNL     1     -25.276  -3.581 -10.483  1.00  0.00     0.189 C 
HETATM   18  C7  UNL     1     -23.960  -2.908 -10.852  1.00  0.00     0.172 C 
ENDBRANCH   9  13
ENDBRANCH   6   8
TORSDOF 3
ENDMDL
MODEL 3
REMARK VINA RESULT: -5.298538817      2.397      3.332
REMARK  3 active torsions:
REMARK  status: ('A' for Active; 'I' for Inactive)
REMARK    1  A    between atoms: N3_6  and  N4_8 
REMARK    2  A    between atoms: N5_10  and  O1_11 
REMARK    3  A    between atoms: N5_10  and  N6_13 
ROOT
HETATM    1  N1  UNL     1     -23.082 -10.693 -11.356  1.00  0.00    -0.189 NA
HETATM    2  C1  UNL     1     -23.452  -9.593 -11.213  1.00  0.00     0.131 C 
HETATM    3  C2  UNL     1     -23.906  -8.237 -11.062  1.00  0.00     0.210 C 
HETATM    4  C3  UNL     1     -25.308  -7.938 -11.150  1.00  0.00     0.131 C 
HETATM    5  N2  UNL     1     -26.445  -7.702 -11.204  1.00  0.00    -0.189 NA
HETATM    6  N3  UNL     1     -23.001  -7.343 -10.850  1.00  0.00    -0.264 N 
ATOM      7  H3  UNL     1     -22.030  -7.652 -10.804  1.00  0.00     0.190 HD
ENDROOT
BRANCH   6   8
HETATM    8  N4  UNL     1     -23.255  -5.993 -10.681  1.00  0.00    -0.199 N 
HETATM    9  N5  UNL     1     -22.437  -5.284 -10.027  1.00  0.00    -0.082 N 
ATOM     10  H4  UNL     1     -24.095  -5.574 -11.080  1.00  0.00     0.212 HD
BRANCH   9  11
HETATM   11  O1  UNL     1     -21.321  -5.905  -9.512  1.00  0.00    -0.252 OA
ATOM     12  H1  UNL     1     -21.294  -6.056  -8.574  1.00  0.00     0.248 HD
ENDBRANCH   9  11
BRANCH   9  13
HETATM   13  N6  UNL     1     -22.691  -3.933  -9.858  1.00  0.00    -0.281 N 
HETATM   14  C4  UNL     1     -21.714  -3.110  -9.221  1.00  0.00     0.172 C 
HETATM   15  C5  UNL     1     -21.557  -1.849 -10.075  1.00  0.00     0.189 C 
HETATM   16  O2  UNL     1     -22.194  -1.983 -11.299  1.00  0.00    -0.388 OA
HETATM   17  C6  UNL     1     -23.559  -2.157 -11.181  1.00  0.00     0.189 C 
HETATM   18  C7  UNL     1     -23.916  -3.357 -10.314  1.00  0.00     0.172 C 
ENDBRANCH   9  13
ENDBRANCH   6   8
TORSDOF 3
ENDMDL
MODEL 4
REMARK VINA RESULT: -5.194172490      2.326      6.242
REMARK  3 active torsions:
REMARK  status: ('A' for Active; 'I' for Inactive)
REMARK    1  A    between atoms: N3_6  and  N4_8 
REMARK    2  A    between atoms: N5_10  and  O1_11 
REMARK    3  A    between atoms: N5_10  and  N6_13 
ROOT
HETATM    1  N1  UNL     1     -22.764   1.716  -7.528  1.00  0.00    -0.189 NA
HETATM    2  C1  UNL     1     -22.555   0.656  -7.976  1.00  0.00     0.131 C 
HETATM    3  C2  UNL     1     -22.289  -0.636  -8.548  1.00  0.00     0.210 C 
HETATM    4  C3  UNL     1     -20.987  -1.225  -8.411  1.00  0.00     0.131 C 
HETATM    5  N2  UNL     1     -19.937  -1.708  -8.283  1.00  0.00    -0.189 NA
HETATM    6  N3  UNL     1     -23.265  -1.206  -9.170  1.00  0.00    -0.264 N 
ATOM      7  H3  UNL     1     -24.154  -0.708  -9.216  1.00  0.00     0.190 HD
ENDROOT
BRANCH   6   8
HETATM    8  N4  UNL     1     -23.190  -2.446  -9.780  1.00  0.00    -0.199 N 
HETATM    9  N5  UNL     1     -24.225  -3.169  -9.847  1.00  0.00    -0.082 N 
ATOM     10  H4  UNL     1     -22.307  -2.774 -10.172  1.00  0.00     0.212 HD
BRANCH   9  11
HETATM   11  O1  UNL     1     -25.388  -2.675  -9.300  1.00  0.00    -0.252 OA
ATOM     12  H1  UNL     1     -25.537  -2.820  -8.373  1.00  0.00     0.248 HD
ENDBRANCH   9  11
BRANCH   9  13
HETATM   13  N6  UNL     1     -24.150  -4.411 -10.457  1.00  0.00    -0.281 N 
HETATM   14  C4  UNL     1     -22.870  -4.969 -10.755  1.00  0.00     0.172 C 
HETATM   15  C5  UNL     1     -22.891  -6.426 -10.285  1.00  0.00     0.189 C 
HETATM   16  O2  UNL     1     -24.010  -6.693  -9.510  1.00  0.00    -0.388 OA
HETATM   17  C6  UNL     1     -25.195  -6.531 -10.200  1.00  0.00     0.189 C 
HETATM   18  C7  UNL     1     -25.335  -5.134 -10.790  1.00  0.00     0.172 C 
ENDBRANCH   9  13
ENDBRANCH   6   8
TORSDOF 3
ENDMDL
MODEL 5
REMARK VINA RESULT: -4.990925441      4.129      6.949
REMARK  3 active torsions:
REMARK  status: ('A' for Active; 'I' for Inactive)
REMARK    1  A    between atoms: N3_6  and  N4_8 
REMARK    2  A    between atoms: N5_10  and  O1_11 
REMARK    3  A    between atoms: N5_10  and  N6_13 
ROOT
HETATM    1  N1  UNL     1     -21.568  -4.116  -9.816  1.00  0.00    -0.189 NA
HETATM    2  C1  UNL     1     -22.604  -4.609 -10.041  1.00  0.00     0.131 C 
HETATM    3  C2  UNL     1     -23.873  -5.212 -10.343  1.00  0.00     0.210 C 
HETATM    4  C3  UNL     1     -23.952  -6.621 -10.605  1.00  0.00     0.131 C 
HETATM    5  N2  UNL     1     -24.015  -7.766 -10.800  1.00  0.00    -0.189 NA
HETATM    6  N3  UNL     1     -24.898  -4.428 -10.362  1.00  0.00    -0.264 N 
ATOM      7  H3  UNL     1     -24.742  -3.439 -10.164  1.00  0.00     0.190 HD
ENDROOT
BRANCH   6   8
HETATM    8  N4  UNL     1     -26.193  -4.834 -10.633  1.00  0.00    -0.199 N 
HETATM    9  N5  UNL     1     -27.048  -3.978 -10.999  1.00  0.00    -0.082 N 
ATOM     10  H4  UNL     1     -26.454  -5.815 -10.539  1.00  0.00     0.212 HD
BRANCH   9  11
HETATM   11  O1  UNL     1     -26.638  -2.668 -11.107  1.00  0.00    -0.252 OA
ATOM     12  H1  UNL     1     -26.829  -2.083 -10.383  1.00  0.00     0.248 HD
ENDBRANCH   9  11
BRANCH   9  13
HETATM   13  N6  UNL     1     -28.345  -4.384 -11.271  1.00  0.00    -0.281 N 
HETATM   14  C4  UNL     1     -29.263  -3.456 -11.847  1.00  0.00     0.172 C 
HETATM   15  C5  UNL     1     -29.969  -4.175 -13.001  1.00  0.00     0.189 C 
HETATM   16  O2  UNL     1     -29.354  -5.382 -13.299  1.00  0.00    -0.388 OA
HETATM   17  C6  UNL     1     -29.393  -6.280 -12.250  1.00  0.00     0.189 C 
HETATM   18  C7  UNL     1     -28.768  -5.716 -10.981  1.00  0.00     0.172 C 
ENDBRANCH   9  13
ENDBRANCH   6   8
TORSDOF 3
ENDMDL
