MODEL 1
REMARK VINA RESULT: -6.394319852      0.000      0.000
REMARK  1 active torsions:
REMARK  status: ('A' for Active; 'I' for Inactive)
REMARK    1  A    between atoms: N1_7  and  C3_9 
ROOT
HETATM    1  O1  UNL     1     -22.158  -1.438  -9.503  1.00  0.00    -0.196 OA
HETATM    2  S1  UNL     1     -22.807  -2.310 -10.507  1.00  0.00     0.296 S 
HETATM    3  O2  UNL     1     -23.057  -1.604 -11.810  1.00  0.00    -0.196 OA
HETATM    4  C1  UNL     1     -24.341  -3.008  -9.891  1.00  0.00     0.350 C 
HETATM    5  O3  UNL     1     -23.896  -4.313  -9.577  1.00  0.00    -0.299 OA
HETATM    6  C2  UNL     1     -22.881  -4.767 -10.363  1.00  0.00     0.277 C 
HETATM    7  N1  UNL     1     -22.720  -5.984 -10.744  1.00  0.00    -0.345 N 
ATOM      8  H1  UNL     1     -21.926  -6.227 -11.336  1.00  0.00     0.164 HD
HETATM    9  O4  UNL     1     -21.980  -3.780 -10.751  1.00  0.00    -0.190 OA
ENDROOT
BRANCH   7  10
HETATM   10  C3  UNL     1     -23.638  -6.996 -10.349  1.00  0.00     0.085 C 
HETATM   11  C4  UNL     1     -25.030  -6.570 -10.798  1.00  0.00     0.025 C 
HETATM   12  C5  UNL     1     -25.792  -7.843 -10.953  1.00  0.00     0.002 C 
HETATM   13  C6  UNL     1     -24.791  -8.982 -10.827  1.00  0.00     0.002 C 
HETATM   14  C7  UNL     1     -23.459  -8.309 -11.066  1.00  0.00     0.025 C 
ENDBRANCH   7  10
TORSDOF 1
ENDMDL
MODEL 2
REMARK VINA RESULT: -6.048156898      3.887      5.208
REMARK  1 active torsions:
REMARK  status: ('A' for Active; 'I' for Inactive)
REMARK    1  A    between atoms: N1_7  and  C3_9 
ROOT
HETATM    1  O1  UNL     1     -30.082  -3.862 -11.179  1.00  0.00    -0.196 OA
HETATM    2  S1  UNL     1     -28.774  -4.163 -11.803  1.00  0.00     0.296 S 
HETATM    3  O2  UNL     1     -28.902  -4.575 -13.243  1.00  0.00    -0.196 OA
HETATM    4  C1  UNL     1     -27.873  -5.417 -10.889  1.00  0.00     0.350 C 
HETATM    5  O3  UNL     1     -26.949  -4.591 -10.207  1.00  0.00    -0.299 OA
HETATM    6  C2  UNL     1     -26.605  -3.457 -10.876  1.00  0.00     0.277 C 
HETATM    7  N1  UNL     1     -25.445  -2.903 -10.857  1.00  0.00    -0.345 N 
ATOM      8  H1  UNL     1     -25.285  -2.051 -11.395  1.00  0.00     0.164 HD
HETATM    9  O4  UNL     1     -27.642  -2.903 -11.621  1.00  0.00    -0.190 OA
ENDROOT
BRANCH   7  10
HETATM   10  C3  UNL     1     -24.384  -3.465 -10.095  1.00  0.00     0.085 C 
HETATM   11  C4  UNL     1     -24.127  -4.874 -10.614  1.00  0.00     0.025 C 
HETATM   12  C5  UNL     1     -22.701  -5.155 -10.280  1.00  0.00     0.002 C 
HETATM   13  C6  UNL     1     -22.089  -3.848  -9.796  1.00  0.00     0.002 C 
HETATM   14  C7  UNL     1     -23.049  -2.798 -10.306  1.00  0.00     0.025 C 
ENDBRANCH   7  10
TORSDOF 1
ENDMDL
MODEL 3
REMARK VINA RESULT: -5.904015599      3.879      5.768
REMARK  1 active torsions:
REMARK  status: ('A' for Active; 'I' for Inactive)
REMARK    1  A    between atoms: N1_7  and  C3_9 
ROOT
HETATM    1  O1  UNL     1     -24.477 -10.932 -10.346  1.00  0.00    -0.196 OA
HETATM    2  S1  UNL     1     -24.799  -9.756 -11.184  1.00  0.00     0.296 S 
HETATM    3  O2  UNL     1     -25.815 -10.065 -12.249  1.00  0.00    -0.196 OA
HETATM    4  C1  UNL     1     -23.330  -9.048 -11.933  1.00  0.00     0.350 C 
HETATM    5  O3  UNL     1     -23.145  -7.935 -11.080  1.00  0.00    -0.299 OA
HETATM    6  C2  UNL     1     -24.294  -7.430 -10.555  1.00  0.00     0.277 C 
HETATM    7  N1  UNL     1     -24.522  -6.186 -10.320  1.00  0.00    -0.345 N 
ATOM      8  H1  UNL     1     -25.419  -5.904  -9.924  1.00  0.00     0.164 HD
HETATM    9  O4  UNL     1     -25.259  -8.392 -10.272  1.00  0.00    -0.190 OA
ENDROOT
BRANCH   7  10
HETATM   10  C3  UNL     1     -23.538  -5.200 -10.605  1.00  0.00     0.085 C 
HETATM   11  C4  UNL     1     -24.200  -3.832 -10.507  1.00  0.00     0.025 C 
HETATM   12  C5  UNL     1     -23.092  -2.890 -10.178  1.00  0.00     0.002 C 
HETATM   13  C6  UNL     1     -21.866  -3.733  -9.860  1.00  0.00     0.002 C 
HETATM   14  C7  UNL     1     -22.443  -5.101  -9.575  1.00  0.00     0.025 C 
ENDBRANCH   7  10
TORSDOF 1
ENDMDL
MODEL 4
REMARK VINA RESULT: -5.782826734      4.609      6.203
REMARK  1 active torsions:
REMARK  status: ('A' for Active; 'I' for Inactive)
REMARK    1  A    between atoms: N1_7  and  C3_9 
ROOT
HETATM    1  O1  UNL     1     -23.835 -12.083 -11.357  1.00  0.00    -0.196 OA
HETATM    2  S1  UNL     1     -24.468 -10.848 -11.871  1.00  0.00     0.296 S 
HETATM    3  O2  UNL     1     -25.648 -11.130 -12.759  1.00  0.00    -0.196 OA
HETATM    4  C1  UNL     1     -23.291  -9.805 -12.735  1.00  0.00     0.350 C 
HETATM    5  O3  UNL     1     -23.057  -8.836 -11.732  1.00  0.00    -0.299 OA
HETATM    6  C2  UNL     1     -24.115  -8.610 -10.907  1.00  0.00     0.277 C 
HETATM    7  N1  UNL     1     -24.432  -7.475 -10.393  1.00  0.00    -0.345 N 
ATOM      8  H1  UNL     1     -25.248  -7.406  -9.786  1.00  0.00     0.164 HD
HETATM    9  O4  UNL     1     -24.876  -9.744 -10.638  1.00  0.00    -0.190 OA
ENDROOT
BRANCH   7  10
HETATM   10  C3  UNL     1     -23.656  -6.313 -10.665  1.00  0.00     0.085 C 
HETATM   11  C4  UNL     1     -24.556  -5.096 -10.494  1.00  0.00     0.025 C 
HETATM   12  C5  UNL     1     -23.631  -3.976 -10.156  1.00  0.00     0.002 C 
HETATM   13  C6  UNL     1     -22.261  -4.588  -9.904  1.00  0.00     0.002 C 
HETATM   14  C7  UNL     1     -22.566  -6.048  -9.659  1.00  0.00     0.025 C 
ENDBRANCH   7  10
TORSDOF 1
ENDMDL
MODEL 5
REMARK VINA RESULT: -5.696428430      4.699      6.193
REMARK  1 active torsions:
REMARK  status: ('A' for Active; 'I' for Inactive)
REMARK    1  A    between atoms: N1_7  and  C3_9 
ROOT
HETATM    1  O1  UNL     1     -23.684 -11.921 -12.756  1.00  0.00    -0.196 OA
HETATM    2  S1  UNL     1     -23.025 -11.179 -11.659  1.00  0.00     0.296 S 
HETATM    3  O2  UNL     1     -21.879 -11.940 -11.054  1.00  0.00    -0.196 OA
HETATM    4  C1  UNL     1     -24.189 -10.711 -10.376  1.00  0.00     0.350 C 
HETATM    5  O3  UNL     1     -24.365  -9.347 -10.705  1.00  0.00    -0.299 OA
HETATM    6  C2  UNL     1     -23.279  -8.760 -11.277  1.00  0.00     0.277 C 
HETATM    7  N1  UNL     1     -22.913  -7.540 -11.102  1.00  0.00    -0.345 N 
ATOM      8  H1  UNL     1     -22.079  -7.191 -11.575  1.00  0.00     0.164 HD
HETATM    9  O4  UNL     1     -22.549  -9.605 -12.108  1.00  0.00    -0.190 OA
ENDROOT
BRANCH   7  10
HETATM   10  C3  UNL     1     -23.656  -6.672 -10.255  1.00  0.00     0.085 C 
HETATM   11  C4  UNL     1     -22.990  -5.302 -10.283  1.00  0.00     0.025 C 
HETATM   12  C5  UNL     1     -24.078  -4.337  -9.953  1.00  0.00     0.002 C 
HETATM   13  C6  UNL     1     -25.387  -5.114  -9.971  1.00  0.00     0.002 C 
HETATM   14  C7  UNL     1     -25.045  -6.363 -10.751  1.00  0.00     0.025 C 
ENDBRANCH   7  10
TORSDOF 1
ENDMDL
