MODEL 1
REMARK VINA RESULT: -9.059497139      0.000      0.000
REMARK  13 active torsions:
REMARK  status: ('A' for Active; 'I' for Inactive)
REMARK       I    between atoms: C2_2  and  N1_4 
REMARK    1  A    between atoms: N1_4  and  C3_6 
REMARK    2  A    between atoms: C3_6  and  S1_9 
REMARK    3  A    between atoms: S1_9  and  C5_10 
REMARK    4  A    between atoms: C5_10  and  C6_11 
REMARK    5  A    between atoms: C7_12  and  C8_13 
REMARK    6  A    between atoms: N3_14  and  O2_16 
REMARK    7  A    between atoms: C9_20  and  N5_21 
REMARK    8  A    between atoms: N5_21  and  N6_23 
REMARK    9  A    between atoms: C10_28  and  N8_29 
REMARK   10  A    between atoms: N8_29  and  C11_31 
REMARK   11  A    between atoms: C12_35  and  S2_36 
REMARK   12  A    between atoms: S2_36  and  C13_37 
REMARK   13  A    between atoms: C14_42  and  N13_43 
ROOT
HETATM    1  C3  UNL     1      18.509  -6.129   6.968  1.00  0.00     0.255 C 
HETATM    2  C4  UNL     1      17.519  -5.053   7.207  1.00  0.00     0.095 C 
HETATM    3  N2  UNL     1      16.721  -4.256   7.412  1.00  0.00    -0.194 NA
ENDROOT
BRANCH   1   4
HETATM    4  N1  UNL     1      19.267  -6.378   8.180  1.00  0.00    -0.336 N 
HETATM    5  C2  UNL     1      20.258  -5.412   8.589  1.00  0.00     0.215 C 
HETATM    6  C1  UNL     1      20.986  -5.829   9.843  1.00  0.00     0.117 C 
HETATM    7  O1  UNL     1      20.442  -4.402   7.935  1.00  0.00    -0.274 OA
ATOM      8  H1  UNL     1      19.102  -7.220   8.733  1.00  0.00     0.164 HD
ENDBRANCH   1   4
BRANCH   1   9
HETATM    9  S1  UNL     1      17.551  -7.613   6.631  1.00  0.00    -0.124 SA
BRANCH   9  10
HETATM   10  C5  UNL     1      16.455  -7.494   5.244  1.00  0.00     0.122 C 
BRANCH  10  11
HETATM   11  C6  UNL     1      16.875  -8.335   4.119  1.00  0.00     0.024 A 
HETATM   12  C7  UNL     1      16.096  -9.510   3.920  1.00  0.00     0.077 A 
HETATM   13  N4  UNL     1      16.496 -10.310   2.930  1.00  0.00    -0.188 N 
HETATM   14  C9  UNL     1      17.528 -10.088   2.159  1.00  0.00     0.698 A 
ATOM     15  H4  UNL     1      15.956 -11.160   2.762  1.00  0.00     0.184 HD
HETATM   16  N7  UNL     1      18.297  -8.961   2.346  1.00  0.00    -0.175 N 
HETATM   17  C10 UNL     1      17.980  -8.072   3.325  1.00  0.00     0.128 A 
ATOM     18  H7  UNL     1      19.107  -8.792   1.748  1.00  0.00     0.186 HD
BRANCH  12  19
HETATM   19  C8  UNL     1      14.959  -9.736   4.768  1.00  0.00     0.144 C 
HETATM   20  N3  UNL     1      14.094 -10.617   4.675  1.00  0.00    -0.278 N 
ATOM     21  H3  UNL     1      13.421 -10.501   5.432  1.00  0.00     0.193 HD
BRANCH  20  22
HETATM   22  O2  UNL     1      13.738 -11.650   3.944  1.00  0.00    -0.290 OA
ATOM     23  H2  UNL     1      12.985 -12.178   3.708  1.00  0.00     0.244 HD
ENDBRANCH  20  22
ENDBRANCH  12  19
BRANCH  14  24
HETATM   24  N5  UNL     1      17.830 -10.839   1.156  1.00  0.00    -0.138 N 
ATOM     25  H5  UNL     1      17.150 -11.492   0.765  1.00  0.00     0.205 HD
BRANCH  24  26
HETATM   26  N6  UNL     1      19.135 -10.730   0.611  1.00  0.00    -0.331 N 
ATOM     27  H62 UNL     1      19.474  -9.830   0.273  1.00  0.00     0.177 HD
ATOM     28  H61 UNL     1      19.710 -11.572   0.572  1.00  0.00     0.177 HD
ENDBRANCH  24  26
ENDBRANCH  14  24
BRANCH  17  29
HETATM   29  N8  UNL     1      18.738  -7.132   3.609  1.00  0.00    -0.340 N 
ATOM     30  H8  UNL     1      19.122  -7.311   4.538  1.00  0.00     0.164 HD
BRANCH  29  31
HETATM   31  C11 UNL     1      19.246  -5.981   3.173  1.00  0.00     0.354 C 
HETATM   32  N9  UNL     1      18.735  -5.447   1.858  1.00  0.00    -0.023 N 
HETATM   33  C12 UNL     1      19.512  -4.249   2.204  1.00  0.00     0.319 C 
ATOM     34  H92 UNL     1      18.863  -5.946   0.978  1.00  0.00     0.283 HD
ATOM     35  H91 UNL     1      17.742  -5.408   1.633  1.00  0.00     0.283 HD
HETATM   36  S3  UNL     1      18.691  -4.357   3.840  1.00  0.00    -0.072 SA
BRANCH  33  37
HETATM   37  S2  UNL     1      19.071  -2.837   1.194  1.00  0.00    -0.072 SA
BRANCH  37  38
HETATM   38  C13 UNL     1      20.342  -1.530   1.570  1.00  0.00     0.305 C 
HETATM   39  N10 UNL     1      20.509  -0.708   0.391  1.00  0.00    -0.285 N 
HETATM   40  N11 UNL     1      20.859   0.597   0.611  1.00  0.00    -0.029 NA
ATOM     41  H10 UNL     1      20.375  -1.080  -0.549  1.00  0.00     0.180 HD
HETATM   42  N12 UNL     1      20.298   1.142   1.764  1.00  0.00    -0.066 NA
HETATM   43  C14 UNL     1      20.645   0.269   2.886  1.00  0.00     0.436 C 
HETATM   44  O3  UNL     1      19.913  -0.901   2.702  1.00  0.00    -0.311 OA
BRANCH  43  45
HETATM   45  N13 UNL     1      20.242   1.014   4.074  1.00  0.00    -0.037 N 
ATOM     46 3H13 UNL     1      19.413   1.593   3.939  1.00  0.00     0.279 HD
ATOM     47 2H13 UNL     1      19.856   0.431   4.817  1.00  0.00     0.279 HD
ATOM     48 1H13 UNL     1      21.074   1.537   4.346  1.00  0.00     0.279 HD
ENDBRANCH  43  45
ENDBRANCH  37  38
ENDBRANCH  33  37
ENDBRANCH  29  31
ENDBRANCH  17  29
ENDBRANCH  10  11
ENDBRANCH   9  10
ENDBRANCH   1   9
TORSDOF 13
ENDMDL
MODEL 2
REMARK VINA RESULT: -8.876356087      3.515      8.199
REMARK  13 active torsions:
REMARK  status: ('A' for Active; 'I' for Inactive)
REMARK       I    between atoms: C2_2  and  N1_4 
REMARK    1  A    between atoms: N1_4  and  C3_6 
REMARK    2  A    between atoms: C3_6  and  S1_9 
REMARK    3  A    between atoms: S1_9  and  C5_10 
REMARK    4  A    between atoms: C5_10  and  C6_11 
REMARK    5  A    between atoms: C7_12  and  C8_13 
REMARK    6  A    between atoms: N3_14  and  O2_16 
REMARK    7  A    between atoms: C9_20  and  N5_21 
REMARK    8  A    between atoms: N5_21  and  N6_23 
REMARK    9  A    between atoms: C10_28  and  N8_29 
REMARK   10  A    between atoms: N8_29  and  C11_31 
REMARK   11  A    between atoms: C12_35  and  S2_36 
REMARK   12  A    between atoms: S2_36  and  C13_37 
REMARK   13  A    between atoms: C14_42  and  N13_43 
ROOT
HETATM    1  C3  UNL     1      18.649  -4.778   2.883  1.00  0.00     0.255 C 
HETATM    2  C4  UNL     1      19.097  -4.253   4.194  1.00  0.00     0.095 C 
HETATM    3  N2  UNL     1      19.472  -3.890   5.215  1.00  0.00    -0.194 NA
ENDROOT
BRANCH   1   4
HETATM    4  N1  UNL     1      19.626  -4.448   1.862  1.00  0.00    -0.336 N 
HETATM    5  C2  UNL     1      19.341  -3.363   0.954  1.00  0.00     0.215 C 
HETATM    6  C1  UNL     1      20.432  -3.168  -0.070  1.00  0.00     0.117 C 
HETATM    7  O1  UNL     1      18.307  -2.730   1.055  1.00  0.00    -0.274 OA
ATOM      8  H1  UNL     1      20.498  -4.973   1.788  1.00  0.00     0.164 HD
ENDBRANCH   1   4
BRANCH   1   9
HETATM    9  S1  UNL     1      18.641  -6.569   3.045  1.00  0.00    -0.124 SA
BRANCH   9  10
HETATM   10  C5  UNL     1      18.381  -7.166   4.693  1.00  0.00     0.122 C 
BRANCH  10  11
HETATM   11  C6  UNL     1      17.035  -7.716   4.888  1.00  0.00     0.024 A 
HETATM   12  C7  UNL     1      16.286  -7.118   5.941  1.00  0.00     0.077 A 
HETATM   13  N4  UNL     1      15.078  -7.640   6.163  1.00  0.00    -0.188 N 
HETATM   14  C9  UNL     1      14.560  -8.636   5.494  1.00  0.00     0.698 A 
ATOM     15  H4  UNL     1      14.517  -7.230   6.910  1.00  0.00     0.184 HD
HETATM   16  N7  UNL     1      15.276  -9.232   4.479  1.00  0.00    -0.175 N 
HETATM   17  C10 UNL     1      16.519  -8.778   4.164  1.00  0.00     0.128 A 
ATOM     18  H7  UNL     1      14.873 -10.014   3.963  1.00  0.00     0.186 HD
BRANCH  12  19
HETATM   19  C8  UNL     1      16.864  -6.018   6.661  1.00  0.00     0.144 C 
HETATM   20  N3  UNL     1      16.814  -4.810   6.389  1.00  0.00    -0.278 N 
ATOM     21  H3  UNL     1      17.329  -4.290   7.099  1.00  0.00     0.193 HD
BRANCH  20  22
HETATM   22  O2  UNL     1      16.330  -3.964   5.509  1.00  0.00    -0.290 OA
ATOM     23  H2  UNL     1      16.020  -3.071   5.418  1.00  0.00     0.244 HD
ENDBRANCH  20  22
ENDBRANCH  12  19
BRANCH  14  24
HETATM   24  N5  UNL     1      13.355  -9.054   5.678  1.00  0.00    -0.138 N 
ATOM     25  H5  UNL     1      12.585  -8.707   5.104  1.00  0.00     0.205 HD
BRANCH  24  26
HETATM   26  N6  UNL     1      13.129 -10.010   6.701  1.00  0.00    -0.331 N 
ATOM     27  H62 UNL     1      13.340 -10.993   6.536  1.00  0.00     0.177 HD
ATOM     28  H61 UNL     1      12.755  -9.680   7.591  1.00  0.00     0.177 HD
ENDBRANCH  24  26
ENDBRANCH  14  24
BRANCH  17  29
HETATM   29  N8  UNL     1      17.240  -9.389   3.360  1.00  0.00    -0.340 N 
ATOM     30  H8  UNL     1      18.211  -9.160   3.575  1.00  0.00     0.164 HD
BRANCH  29  31
HETATM   31  C11 UNL     1      17.239 -10.229   2.326  1.00  0.00     0.354 C 
HETATM   32  N9  UNL     1      18.476 -11.062   2.102  1.00  0.00    -0.023 N 
HETATM   33  C12 UNL     1      17.661 -11.744   1.088  1.00  0.00     0.319 C 
ATOM     34  H92 UNL     1      19.383 -10.647   1.886  1.00  0.00     0.283 HD
ATOM     35  H91 UNL     1      18.942 -11.563   2.857  1.00  0.00     0.283 HD
HETATM   36  S3  UNL     1      16.377 -11.854   2.394  1.00  0.00    -0.072 SA
BRANCH  33  37
HETATM   37  S2  UNL     1      18.385 -13.296   0.565  1.00  0.00    -0.072 SA
BRANCH  37  38
HETATM   38  C13 UNL     1      19.581 -12.865  -0.794  1.00  0.00     0.305 C 
HETATM   39  N10 UNL     1      20.137 -11.560  -0.512  1.00  0.00    -0.285 N 
HETATM   40  N11 UNL     1      21.410 -11.337  -0.964  1.00  0.00    -0.029 NA
ATOM     41  H10 UNL     1      19.611 -10.848  -0.006  1.00  0.00     0.180 HD
HETATM   42  N12 UNL     1      22.227 -12.464  -0.921  1.00  0.00    -0.066 NA
HETATM   43  C14 UNL     1      21.550 -13.536  -1.652  1.00  0.00     0.436 C 
HETATM   44  O3  UNL     1      20.460 -13.906  -0.867  1.00  0.00    -0.311 OA
BRANCH  43  45
HETATM   45  N13 UNL     1      22.550 -14.591  -1.774  1.00  0.00    -0.037 N 
ATOM     46 3H13 UNL     1      23.190 -14.650  -0.982  1.00  0.00     0.279 HD
ATOM     47 2H13 UNL     1      22.170 -15.534  -1.686  1.00  0.00     0.279 HD
ATOM     48 1H13 UNL     1      23.010 -14.410  -2.666  1.00  0.00     0.279 HD
ENDBRANCH  43  45
ENDBRANCH  37  38
ENDBRANCH  33  37
ENDBRANCH  29  31
ENDBRANCH  17  29
ENDBRANCH  10  11
ENDBRANCH   9  10
ENDBRANCH   1   9
TORSDOF 13
ENDMDL
MODEL 3
REMARK VINA RESULT: -8.621154496      3.334      8.070
REMARK  13 active torsions:
REMARK  status: ('A' for Active; 'I' for Inactive)
REMARK       I    between atoms: C2_2  and  N1_4 
REMARK    1  A    between atoms: N1_4  and  C3_6 
REMARK    2  A    between atoms: C3_6  and  S1_9 
REMARK    3  A    between atoms: S1_9  and  C5_10 
REMARK    4  A    between atoms: C5_10  and  C6_11 
REMARK    5  A    between atoms: C7_12  and  C8_13 
REMARK    6  A    between atoms: N3_14  and  O2_16 
REMARK    7  A    between atoms: C9_20  and  N5_21 
REMARK    8  A    between atoms: N5_21  and  N6_23 
REMARK    9  A    between atoms: C10_28  and  N8_29 
REMARK   10  A    between atoms: N8_29  and  C11_31 
REMARK   11  A    between atoms: C12_35  and  S2_36 
REMARK   12  A    between atoms: S2_36  and  C13_37 
REMARK   13  A    between atoms: C14_42  and  N13_43 
ROOT
HETATM    1  C3  UNL     1      18.557  -4.809   2.909  1.00  0.00     0.255 C 
HETATM    2  C4  UNL     1      19.041  -4.308   4.217  1.00  0.00     0.095 C 
HETATM    3  N2  UNL     1      19.443  -3.965   5.234  1.00  0.00    -0.194 NA
ENDROOT
BRANCH   1   4
HETATM    4  N1  UNL     1      19.521  -4.488   1.873  1.00  0.00    -0.336 N 
HETATM    5  C2  UNL     1      19.285  -3.334   1.040  1.00  0.00     0.215 C 
HETATM    6  C1  UNL     1      20.352  -3.155  -0.012  1.00  0.00     0.117 C 
HETATM    7  O1  UNL     1      18.303  -2.637   1.214  1.00  0.00    -0.274 OA
ATOM      8  H1  UNL     1      20.350  -5.067   1.736  1.00  0.00     0.164 HD
ENDBRANCH   1   4
BRANCH   1   9
HETATM    9  S1  UNL     1      18.514  -6.601   3.052  1.00  0.00    -0.124 SA
BRANCH   9  10
HETATM   10  C5  UNL     1      18.290  -7.212   4.700  1.00  0.00     0.122 C 
BRANCH  10  11
HETATM   11  C6  UNL     1      16.934  -7.718   4.935  1.00  0.00     0.024 A 
HETATM   12  C7  UNL     1      16.228  -7.080   5.995  1.00  0.00     0.077 A 
HETATM   13  N4  UNL     1      15.011  -7.562   6.253  1.00  0.00    -0.188 N 
HETATM   14  C9  UNL     1      14.448  -8.554   5.614  1.00  0.00     0.698 A 
ATOM     15  H4  UNL     1      14.480  -7.124   7.006  1.00  0.00     0.184 HD
HETATM   16  N7  UNL     1      15.123  -9.188   4.594  1.00  0.00    -0.175 N 
HETATM   17  C10 UNL     1      16.371  -8.777   4.242  1.00  0.00     0.128 A 
ATOM     18  H7  UNL     1      14.686  -9.967   4.101  1.00  0.00     0.186 HD
BRANCH  12  19
HETATM   19  C8  UNL     1      16.854  -5.985   6.681  1.00  0.00     0.144 C 
HETATM   20  N3  UNL     1      16.817  -4.780   6.400  1.00  0.00    -0.278 N 
ATOM     21  H3  UNL     1      17.369  -4.264   7.085  1.00  0.00     0.193 HD
BRANCH  20  22
HETATM   22  O2  UNL     1      16.317  -3.932   5.530  1.00  0.00    -0.290 OA
ATOM     23  H2  UNL     1      15.674  -3.862   4.834  1.00  0.00     0.244 HD
ENDBRANCH  20  22
ENDBRANCH  12  19
BRANCH  14  24
HETATM   24  N5  UNL     1      13.236  -8.933   5.833  1.00  0.00    -0.138 N 
ATOM     25  H5  UNL     1      12.456  -8.521   5.320  1.00  0.00     0.205 HD
BRANCH  24  26
HETATM   26  N6  UNL     1      13.018  -9.940   6.808  1.00  0.00    -0.331 N 
ATOM     27  H62 UNL     1      13.251 -10.910   6.601  1.00  0.00     0.177 HD
ATOM     28  H61 UNL     1      12.626  -9.659   7.708  1.00  0.00     0.177 HD
ENDBRANCH  24  26
ENDBRANCH  14  24
BRANCH  17  29
HETATM   29  N8  UNL     1      17.055  -9.422   3.434  1.00  0.00    -0.340 N 
ATOM     30  H8  UNL     1      18.029  -9.147   3.559  1.00  0.00     0.164 HD
BRANCH  29  31
HETATM   31  C11 UNL     1      17.011 -10.336   2.465  1.00  0.00     0.354 C 
HETATM   32  N9  UNL     1      18.254 -11.153   2.220  1.00  0.00    -0.023 N 
HETATM   33  C12 UNL     1      17.396 -11.928   1.314  1.00  0.00     0.319 C 
ATOM     34  H92 UNL     1      19.133 -10.734   1.915  1.00  0.00     0.283 HD
ATOM     35  H91 UNL     1      18.782 -11.586   2.977  1.00  0.00     0.283 HD
HETATM   36  S3  UNL     1      16.203 -11.972   2.707  1.00  0.00    -0.072 SA
BRANCH  33  37
HETATM   37  S2  UNL     1      18.129 -13.497   0.857  1.00  0.00    -0.072 SA
BRANCH  37  38
HETATM   38  C13 UNL     1      19.192 -13.146  -0.630  1.00  0.00     0.305 C 
HETATM   39  N10 UNL     1      18.656 -13.881  -1.754  1.00  0.00    -0.285 N 
HETATM   40  N11 UNL     1      18.846 -13.318  -2.987  1.00  0.00    -0.029 NA
ATOM     41  H10 UNL     1      18.167 -14.768  -1.634  1.00  0.00     0.180 HD
HETATM   42  N12 UNL     1      18.800 -11.926  -2.982  1.00  0.00    -0.066 NA
HETATM   43  C14 UNL     1      19.766 -11.450  -1.991  1.00  0.00     0.436 C 
HETATM   44  O3  UNL     1      19.237 -11.787  -0.748  1.00  0.00    -0.311 OA
BRANCH  43  45
HETATM   45  N13 UNL     1      19.840 -10.009  -2.208  1.00  0.00    -0.037 N 
ATOM     46 3H13 UNL     1      19.040  -9.493  -1.842  1.00  0.00     0.279 HD
ATOM     47 2H13 UNL     1      20.548  -9.541  -1.643  1.00  0.00     0.279 HD
ATOM     48 1H13 UNL     1      19.976  -9.905  -3.214  1.00  0.00     0.279 HD
ENDBRANCH  43  45
ENDBRANCH  37  38
ENDBRANCH  33  37
ENDBRANCH  29  31
ENDBRANCH  17  29
ENDBRANCH  10  11
ENDBRANCH   9  10
ENDBRANCH   1   9
TORSDOF 13
ENDMDL
MODEL 4
REMARK VINA RESULT: -8.507365715      3.123      8.059
REMARK  13 active torsions:
REMARK  status: ('A' for Active; 'I' for Inactive)
REMARK       I    between atoms: C2_2  and  N1_4 
REMARK    1  A    between atoms: N1_4  and  C3_6 
REMARK    2  A    between atoms: C3_6  and  S1_9 
REMARK    3  A    between atoms: S1_9  and  C5_10 
REMARK    4  A    between atoms: C5_10  and  C6_11 
REMARK    5  A    between atoms: C7_12  and  C8_13 
REMARK    6  A    between atoms: N3_14  and  O2_16 
REMARK    7  A    between atoms: C9_20  and  N5_21 
REMARK    8  A    between atoms: N5_21  and  N6_23 
REMARK    9  A    between atoms: C10_28  and  N8_29 
REMARK   10  A    between atoms: N8_29  and  C11_31 
REMARK   11  A    between atoms: C12_35  and  S2_36 
REMARK   12  A    between atoms: S2_36  and  C13_37 
REMARK   13  A    between atoms: C14_42  and  N13_43 
ROOT
HETATM    1  C3  UNL     1      18.653  -4.187   2.842  1.00  0.00     0.255 C 
HETATM    2  C4  UNL     1      19.283  -3.600   4.047  1.00  0.00     0.095 C 
HETATM    3  N2  UNL     1      19.805  -3.185   4.979  1.00  0.00    -0.194 NA
ENDROOT
BRANCH   1   4
HETATM    4  N1  UNL     1      19.374  -3.765   1.655  1.00  0.00    -0.336 N 
HETATM    5  C2  UNL     1      18.948  -2.566   0.975  1.00  0.00     0.215 C 
HETATM    6  C1  UNL     1      19.768  -2.280  -0.258  1.00  0.00     0.117 C 
HETATM    7  O1  UNL     1      18.011  -1.915   1.400  1.00  0.00    -0.274 OA
ATOM      8  H1  UNL     1      20.166  -4.306   1.308  1.00  0.00     0.164 HD
ENDBRANCH   1   4
BRANCH   1   9
HETATM    9  S1  UNL     1      18.874  -5.966   2.987  1.00  0.00    -0.124 SA
BRANCH   9  10
HETATM   10  C5  UNL     1      18.802  -6.593   4.643  1.00  0.00     0.122 C 
BRANCH  10  11
HETATM   11  C6  UNL     1      17.453  -7.021   5.026  1.00  0.00     0.024 A 
HETATM   12  C7  UNL     1      16.902  -6.345   6.153  1.00  0.00     0.077 A 
HETATM   13  N4  UNL     1      15.695  -6.757   6.544  1.00  0.00    -0.188 N 
HETATM   14  C9  UNL     1      15.011  -7.714   5.974  1.00  0.00     0.698 A 
ATOM     15  H4  UNL     1      15.274  -6.290   7.347  1.00  0.00     0.184 HD
HETATM   16  N7  UNL     1      15.534  -8.384   4.889  1.00  0.00    -0.175 N 
HETATM   17  C10 UNL     1      16.758  -8.045   4.403  1.00  0.00     0.128 A 
ATOM     18  H7  UNL     1      15.002  -9.136   4.451  1.00  0.00     0.186 HD
BRANCH  12  19
HETATM   19  C8  UNL     1      17.661  -5.289   6.762  1.00  0.00     0.144 C 
HETATM   20  N3  UNL     1      18.458  -5.362   7.707  1.00  0.00    -0.278 N 
ATOM     21  H3  UNL     1      18.827  -4.431   7.900  1.00  0.00     0.193 HD
BRANCH  20  22
HETATM   22  O2  UNL     1      18.996  -6.216   8.548  1.00  0.00    -0.290 OA
ATOM     23  H2  UNL     1      19.762  -6.351   9.093  1.00  0.00     0.244 HD
ENDBRANCH  20  22
ENDBRANCH  12  19
BRANCH  14  24
HETATM   24  N5  UNL     1      13.810  -8.023   6.324  1.00  0.00    -0.138 N 
ATOM     25  H5  UNL     1      13.419  -7.694   7.208  1.00  0.00     0.205 HD
BRANCH  24  26
HETATM   26  N6  UNL     1      13.047  -8.835   5.446  1.00  0.00    -0.331 N 
ATOM     27  H62 UNL     1      12.464  -9.583   5.820  1.00  0.00     0.177 HD
ATOM     28  H61 UNL     1      13.104  -8.644   4.446  1.00  0.00     0.177 HD
ENDBRANCH  24  26
ENDBRANCH  14  24
BRANCH  17  29
HETATM   29  N8  UNL     1      17.312  -8.727   3.528  1.00  0.00    -0.340 N 
ATOM     30  H8  UNL     1      18.295  -8.454   3.495  1.00  0.00     0.164 HD
BRANCH  29  31
HETATM   31  C11 UNL     1      17.123  -9.678   2.615  1.00  0.00     0.354 C 
HETATM   32  N9  UNL     1      18.255 -10.642   2.365  1.00  0.00    -0.023 N 
HETATM   33  C12 UNL     1      17.275 -11.361   1.541  1.00  0.00     0.319 C 
ATOM     34  H92 UNL     1      19.160 -10.340   2.001  1.00  0.00     0.283 HD
ATOM     35  H91 UNL     1      18.768 -11.091   3.123  1.00  0.00     0.283 HD
HETATM   36  S3  UNL     1      16.152 -11.199   2.982  1.00  0.00    -0.072 SA
BRANCH  33  37
HETATM   37  S2  UNL     1      17.810 -13.024   1.143  1.00  0.00    -0.072 SA
BRANCH  37  38
HETATM   38  C13 UNL     1      18.796 -12.877  -0.428  1.00  0.00     0.305 C 
HETATM   39  N10 UNL     1      18.066 -13.542  -1.485  1.00  0.00    -0.285 N 
HETATM   40  N11 UNL     1      18.245 -13.043  -2.747  1.00  0.00    -0.029 NA
ATOM     41  H10 UNL     1      17.455 -14.337  -1.301  1.00  0.00     0.180 HD
HETATM   42  N12 UNL     1      18.418 -11.661  -2.785  1.00  0.00    -0.066 NA
HETATM   43  C14 UNL     1      19.519 -11.323  -1.884  1.00  0.00     0.436 C 
HETATM   44  O3  UNL     1      19.043 -11.545  -0.595  1.00  0.00    -0.311 OA
BRANCH  43  45
HETATM   45  N13 UNL     1      19.800  -9.917  -2.154  1.00  0.00    -0.037 N 
ATOM     46 3H13 UNL     1      18.974  -9.365  -2.386  1.00  0.00     0.279 HD
ATOM     47 2H13 UNL     1      20.067  -9.382  -1.327  1.00  0.00     0.279 HD
ATOM     48 1H13 UNL     1      20.510  -9.930  -2.887  1.00  0.00     0.279 HD
ENDBRANCH  43  45
ENDBRANCH  37  38
ENDBRANCH  33  37
ENDBRANCH  29  31
ENDBRANCH  17  29
ENDBRANCH  10  11
ENDBRANCH   9  10
ENDBRANCH   1   9
TORSDOF 13
ENDMDL
MODEL 5
REMARK VINA RESULT: -8.499339523      2.487      5.415
REMARK  13 active torsions:
REMARK  status: ('A' for Active; 'I' for Inactive)
REMARK       I    between atoms: C2_2  and  N1_4 
REMARK    1  A    between atoms: N1_4  and  C3_6 
REMARK    2  A    between atoms: C3_6  and  S1_9 
REMARK    3  A    between atoms: S1_9  and  C5_10 
REMARK    4  A    between atoms: C5_10  and  C6_11 
REMARK    5  A    between atoms: C7_12  and  C8_13 
REMARK    6  A    between atoms: N3_14  and  O2_16 
REMARK    7  A    between atoms: C9_20  and  N5_21 
REMARK    8  A    between atoms: N5_21  and  N6_23 
REMARK    9  A    between atoms: C10_28  and  N8_29 
REMARK   10  A    between atoms: N8_29  and  C11_31 
REMARK   11  A    between atoms: C12_35  and  S2_36 
REMARK   12  A    between atoms: S2_36  and  C13_37 
REMARK   13  A    between atoms: C14_42  and  N13_43 
ROOT
HETATM    1  C3  UNL     1      18.241 -11.302   1.745  1.00  0.00     0.255 C 
HETATM    2  C4  UNL     1      16.848 -11.758   1.964  1.00  0.00     0.095 C 
HETATM    3  N2  UNL     1      15.756 -12.060   2.136  1.00  0.00    -0.194 NA
ENDROOT
BRANCH   1   4
HETATM    4  N1  UNL     1      18.441 -10.986   0.343  1.00  0.00    -0.336 N 
HETATM    5  C2  UNL     1      19.773 -11.075  -0.205  1.00  0.00     0.215 C 
HETATM    6  C1  UNL     1      19.825 -10.680  -1.660  1.00  0.00     0.117 C 
HETATM    7  O1  UNL     1      20.706 -11.421   0.495  1.00  0.00    -0.274 OA
ATOM      8  H1  UNL     1      17.655 -10.707  -0.245  1.00  0.00     0.164 HD
ENDBRANCH   1   4
BRANCH   1   9
HETATM    9  S1  UNL     1      18.406  -9.763   2.660  1.00  0.00    -0.124 SA
BRANCH   9  10
HETATM   10  C5  UNL     1      16.937  -8.774   2.725  1.00  0.00     0.122 C 
BRANCH  10  11
HETATM   11  C6  UNL     1      16.875  -7.934   3.925  1.00  0.00     0.024 A 
HETATM   12  C7  UNL     1      15.884  -8.312   4.876  1.00  0.00     0.077 A 
HETATM   13  N4  UNL     1      15.783  -7.529   5.950  1.00  0.00    -0.188 N 
HETATM   14  C9  UNL     1      16.512  -6.467   6.174  1.00  0.00     0.698 A 
ATOM     15  H4  UNL     1      15.083  -7.776   6.650  1.00  0.00     0.184 HD
HETATM   16  N7  UNL     1      17.467  -6.082   5.259  1.00  0.00    -0.175 N 
HETATM   17  C10 UNL     1      17.660  -6.810   4.126  1.00  0.00     0.128 A 
ATOM     18  H7  UNL     1      18.031  -5.249   5.431  1.00  0.00     0.186 HD
BRANCH  12  19
HETATM   19  C8  UNL     1      15.097  -9.486   4.622  1.00  0.00     0.144 C 
HETATM   20  N3  UNL     1      13.878  -9.642   4.773  1.00  0.00    -0.278 N 
ATOM     21  H3  UNL     1      13.631 -10.595   4.505  1.00  0.00     0.193 HD
BRANCH  20  22
HETATM   22  O2  UNL     1      12.791  -9.012   5.158  1.00  0.00    -0.290 OA
ATOM     23  H2  UNL     1      11.866  -8.925   4.963  1.00  0.00     0.244 HD
ENDBRANCH  20  22
ENDBRANCH  12  19
BRANCH  14  24
HETATM   24  N5  UNL     1      16.445  -5.787   7.266  1.00  0.00    -0.138 N 
ATOM     25  H5  UNL     1      16.068  -6.199   8.120  1.00  0.00     0.205 HD
BRANCH  24  26
HETATM   26  N6  UNL     1      16.913  -4.448   7.247  1.00  0.00    -0.331 N 
ATOM     27  H62 UNL     1      16.538  -3.786   6.568  1.00  0.00     0.177 HD
ATOM     28  H61 UNL     1      17.624  -4.178   7.927  1.00  0.00     0.177 HD
ENDBRANCH  24  26
ENDBRANCH  14  24
BRANCH  17  29
HETATM   29  N8  UNL     1      18.405  -6.404   3.221  1.00  0.00    -0.340 N 
ATOM     30  H8  UNL     1      18.452  -7.130   2.506  1.00  0.00     0.164 HD
BRANCH  29  31
HETATM   31  C11 UNL     1      19.165  -5.386   2.820  1.00  0.00     0.354 C 
HETATM   32  N9  UNL     1      18.740  -4.643   1.579  1.00  0.00    -0.023 N 
HETATM   33  C12 UNL     1      19.814  -3.709   1.941  1.00  0.00     0.319 C 
ATOM     34  H92 UNL     1      18.690  -5.091   0.664  1.00  0.00     0.283 HD
ATOM     35  H91 UNL     1      17.779  -4.340   1.426  1.00  0.00     0.283 HD
HETATM   36  S3  UNL     1      19.077  -3.731   3.621  1.00  0.00    -0.072 SA
BRANCH  33  37
HETATM   37  S2  UNL     1      19.695  -2.159   1.052  1.00  0.00    -0.072 SA
BRANCH  37  38
HETATM   38  C13 UNL     1      19.701  -0.827   2.352  1.00  0.00     0.305 C 
HETATM   39  N10 UNL     1      21.026  -0.251   2.406  1.00  0.00    -0.285 N 
HETATM   40  N11 UNL     1      21.096   1.065   2.774  1.00  0.00    -0.029 NA
ATOM     41  H10 UNL     1      21.860  -0.794   2.182  1.00  0.00     0.180 HD
HETATM   42  N12 UNL     1      20.023   1.832   2.326  1.00  0.00    -0.066 NA
HETATM   43  C14 UNL     1      18.791   1.186   2.778  1.00  0.00     0.436 C 
HETATM   44  O3  UNL     1      18.676   0.016   2.032  1.00  0.00    -0.311 OA
BRANCH  43  45
HETATM   45  N13 UNL     1      17.738   2.153   2.490  1.00  0.00    -0.037 N 
ATOM     46 3H13 UNL     1      18.035   2.925   1.893  1.00  0.00     0.279 HD
ATOM     47 2H13 UNL     1      17.010   1.800   1.868  1.00  0.00     0.279 HD
ATOM     48 1H13 UNL     1      17.395   2.444   3.406  1.00  0.00     0.279 HD
ENDBRANCH  43  45
ENDBRANCH  37  38
ENDBRANCH  33  37
ENDBRANCH  29  31
ENDBRANCH  17  29
ENDBRANCH  10  11
ENDBRANCH   9  10
ENDBRANCH   1   9
TORSDOF 13
ENDMDL
