MODEL 1
REMARK VINA RESULT: -9.435030040      0.000      0.000
REMARK  13 active torsions:
REMARK  status: ('A' for Active; 'I' for Inactive)
REMARK    1  A    between atoms: O1_2  and  C2_3 
REMARK    2  A    between atoms: C2_3  and  C3_5 
REMARK    3  A    between atoms: C3_5  and  O3_6 
REMARK    4  A    between atoms: C3_5  and  C14_32 
REMARK    5  A    between atoms: O3_6  and  N1_7 
REMARK    6  A    between atoms: C4_9  and  C5_10 
REMARK    7  A    between atoms: C6_13  and  C7_14 
REMARK    8  A    between atoms: C8_17  and  C9_18 
REMARK    9  A    between atoms: C9_18  and  O5_19 
REMARK   10  A    between atoms: C10_22  and  C11_23 
REMARK   11  A    between atoms: C12_26  and  O9_27 
REMARK   12  A    between atoms: C13_29  and  O10_30 
REMARK   13  A    between atoms: C16_37  and  N6_38 
ROOT
HETATM    1  C5  UNL     1      19.170  -3.503   3.489  1.00  0.00     0.086 A 
HETATM    2  N2  UNL     1      19.561  -2.215   3.238  1.00  0.00    -0.352 N 
ATOM      3  H2  UNL     1      19.502  -1.529   3.991  1.00  0.00     0.166 HD
HETATM    4  C6  UNL     1      20.025  -1.817   2.020  1.00  0.00     0.077 A 
HETATM    5  C10 UNL     1      20.095  -2.740   1.029  1.00  0.00     0.103 A 
HETATM    6  C12 UNL     1      19.703  -4.078   1.246  1.00  0.00     0.120 A 
HETATM    7  C13 UNL     1      19.227  -4.462   2.521  1.00  0.00     0.128 A 
ENDROOT
BRANCH   1   8
HETATM    8  C4  UNL     1      18.686  -3.834   4.825  1.00  0.00     0.146 C 
HETATM    9  N1  UNL     1      17.514  -4.157   5.166  1.00  0.00    -0.274 N 
ATOM     10  H1  UNL     1      16.801  -4.198   4.438  1.00  0.00     0.193 HD
BRANCH   9  11
HETATM   11  O3  UNL     1      17.142  -4.452   6.426  1.00  0.00    -0.260 OA
BRANCH  11  12
HETATM   12  C3  UNL     1      17.234  -5.698   7.057  1.00  0.00     0.293 C 
BRANCH  12  13
HETATM   13  C2  UNL     1      18.539  -5.880   7.750  1.00  0.00     0.295 C 
HETATM   14  O2  UNL     1      18.798  -6.861   8.491  1.00  0.00    -0.262 OA
BRANCH  13  15
HETATM   15  O1  UNL     1      19.514  -4.921   7.566  1.00  0.00    -0.324 OA
HETATM   16  C1  UNL     1      20.476  -4.604   8.584  1.00  0.00     0.213 C 
ENDBRANCH  13  15
ENDBRANCH  12  13
BRANCH  12  17
HETATM   17  C14 UNL     1      16.945  -6.831   6.136  1.00  0.00     0.093 A 
HETATM   18  C15 UNL     1      15.688  -7.405   6.083  1.00  0.00     0.146 A 
HETATM   19  N4  UNL     1      14.668  -6.902   6.922  1.00  0.00    -0.081 NA
HETATM   20  N5  UNL     1      15.448  -8.438   5.233  1.00  0.00    -0.178 N 
HETATM   21  C16 UNL     1      16.403  -8.933   4.426  1.00  0.00     0.680 A 
ATOM     22  H5  UNL     1      14.516  -8.851   5.206  1.00  0.00     0.185 HD
HETATM   23  N7  UNL     1      17.630  -8.383   4.467  1.00  0.00    -0.156 N 
HETATM   24  C17 UNL     1      17.908  -7.355   5.298  1.00  0.00     0.272 A 
ATOM     25  H7  UNL     1      18.363  -8.749   3.859  1.00  0.00     0.187 HD
HETATM   26  O11 UNL     1      19.063  -6.849   5.327  1.00  0.00    -0.267 OA
BRANCH  21  27
HETATM   27  N6  UNL     1      16.152  -9.924   3.617  1.00  0.00    -0.234 N 
ATOM     28  H62 UNL     1      15.633  -9.766   2.753  1.00  0.00     0.174 HD
ATOM     29  H61 UNL     1      16.467 -10.870   3.833  1.00  0.00     0.174 HD
ENDBRANCH  21  27
ENDBRANCH  12  17
ENDBRANCH  11  12
ENDBRANCH   9  11
ENDBRANCH   1   8
BRANCH   7  30
HETATM   30  O10 UNL     1      18.864  -5.753   2.688  1.00  0.00    -0.356 OA
ATOM     31  H10 UNL     1      19.272  -6.359   3.296  1.00  0.00     0.218 HD
ENDBRANCH   7  30
BRANCH   4  32
HETATM   32  C7  UNL     1      20.495  -0.438   1.889  1.00  0.00     0.296 C 
HETATM   33  N3  UNL     1      21.106   0.013   3.169  1.00  0.00    -0.059 NA
HETATM   34  O4  UNL     1      21.146   1.355   2.996  1.00  0.00    -0.249 OA
HETATM   35  C8  UNL     1      20.214   1.686   2.041  1.00  0.00     0.309 C 
HETATM   36  O6  UNL     1      19.508   0.520   1.736  1.00  0.00    -0.328 OA
BRANCH  35  37
HETATM   37  C9  UNL     1      19.301   2.789   2.519  1.00  0.00     0.226 C 
BRANCH  37  38
HETATM   38  O5  UNL     1      18.108   2.767   1.811  1.00  0.00    -0.396 OA
ATOM     39  H5  UNL     1      17.856   3.648   1.562  1.00  0.00     0.209 HD
ENDBRANCH  37  38
ENDBRANCH  35  37
ENDBRANCH   4  32
BRANCH   6  40
HETATM   40  O9  UNL     1      19.752  -5.044   0.289  1.00  0.00    -0.357 OA
ATOM     41  H9  UNL     1      20.002  -5.944   0.461  1.00  0.00     0.218 HD
ENDBRANCH   6  40
BRANCH   5  42
HETATM   42  C11 UNL     1      20.485  -2.405  -0.358  1.00  0.00     0.214 C 
HETATM   43  O7  UNL     1      19.451  -1.850  -1.114  1.00  0.00    -0.644 OA
HETATM   44  O8  UNL     1      21.321  -3.247  -1.004  1.00  0.00    -0.644 OA
ENDBRANCH   5  42
TORSDOF 13
ENDMDL
MODEL 2
REMARK VINA RESULT: -9.276034990      4.386      8.597
REMARK  13 active torsions:
REMARK  status: ('A' for Active; 'I' for Inactive)
REMARK    1  A    between atoms: O1_2  and  C2_3 
REMARK    2  A    between atoms: C2_3  and  C3_5 
REMARK    3  A    between atoms: C3_5  and  O3_6 
REMARK    4  A    between atoms: C3_5  and  C14_32 
REMARK    5  A    between atoms: O3_6  and  N1_7 
REMARK    6  A    between atoms: C4_9  and  C5_10 
REMARK    7  A    between atoms: C6_13  and  C7_14 
REMARK    8  A    between atoms: C8_17  and  C9_18 
REMARK    9  A    between atoms: C9_18  and  O5_19 
REMARK   10  A    between atoms: C10_22  and  C11_23 
REMARK   11  A    between atoms: C12_26  and  O9_27 
REMARK   12  A    between atoms: C13_29  and  O10_30 
REMARK   13  A    between atoms: C16_37  and  N6_38 
ROOT
HETATM    1  C5  UNL     1      16.276 -10.136   3.166  1.00  0.00     0.086 A 
HETATM    2  N2  UNL     1      17.286 -10.455   2.300  1.00  0.00    -0.352 N 
ATOM      3  H2  UNL     1      17.987  -9.746   2.082  1.00  0.00     0.166 HD
HETATM    4  C6  UNL     1      17.389 -11.683   1.718  1.00  0.00     0.077 A 
HETATM    5  C10 UNL     1      16.448 -12.613   2.016  1.00  0.00     0.103 A 
HETATM    6  C12 UNL     1      15.391 -12.326   2.905  1.00  0.00     0.120 A 
HETATM    7  C13 UNL     1      15.311 -11.043   3.495  1.00  0.00     0.128 A 
ENDROOT
BRANCH   1   8
HETATM    8  C4  UNL     1      16.249  -8.794   3.739  1.00  0.00     0.146 C 
HETATM    9  N1  UNL     1      16.370  -8.468   4.953  1.00  0.00    -0.274 N 
ATOM     10  H1  UNL     1      16.504  -9.214   5.635  1.00  0.00     0.193 HD
BRANCH   9  11
HETATM   11  O3  UNL     1      16.335  -7.201   5.407  1.00  0.00    -0.260 OA
BRANCH  11  12
HETATM   12  C3  UNL     1      17.420  -6.448   5.873  1.00  0.00     0.293 C 
BRANCH  12  13
HETATM   13  C2  UNL     1      17.092  -5.707   7.122  1.00  0.00     0.295 C 
HETATM   14  O2  UNL     1      15.926  -5.607   7.581  1.00  0.00    -0.262 OA
BRANCH  13  15
HETATM   15  O1  UNL     1      18.122  -5.100   7.810  1.00  0.00    -0.324 OA
HETATM   16  C1  UNL     1      19.307  -5.812   8.198  1.00  0.00     0.213 C 
ENDBRANCH  13  15
ENDBRANCH  12  13
BRANCH  12  17
HETATM   17  C14 UNL     1      17.979  -5.541   4.834  1.00  0.00     0.093 A 
HETATM   18  C15 UNL     1      19.016  -5.949   4.014  1.00  0.00     0.146 A 
HETATM   19  N4  UNL     1      19.547  -7.248   4.175  1.00  0.00    -0.081 NA
HETATM   20  N5  UNL     1      19.509  -5.103   3.071  1.00  0.00    -0.178 N 
HETATM   21  C16 UNL     1      19.018  -3.862   2.900  1.00  0.00     0.680 A 
ATOM     22  H5  UNL     1      20.274  -5.418   2.475  1.00  0.00     0.185 HD
HETATM   23  N7  UNL     1      18.009  -3.454   3.690  1.00  0.00    -0.156 N 
HETATM   24  C17 UNL     1      17.492  -4.265   4.639  1.00  0.00     0.272 A 
ATOM     25  H7  UNL     1      17.627  -2.516   3.570  1.00  0.00     0.187 HD
HETATM   26  O11 UNL     1      16.546  -3.870   5.373  1.00  0.00    -0.267 OA
BRANCH  21  27
HETATM   27  N6  UNL     1      19.505  -3.067   1.990  1.00  0.00    -0.234 N 
ATOM     28  H62 UNL     1      19.589  -3.380   1.022  1.00  0.00     0.174 HD
ATOM     29  H61 UNL     1      19.810  -2.122   2.226  1.00  0.00     0.174 HD
ENDBRANCH  21  27
ENDBRANCH  12  17
ENDBRANCH  11  12
ENDBRANCH   9  11
ENDBRANCH   1   8
BRANCH   7  30
HETATM   30  O10 UNL     1      14.284 -10.809   4.342  1.00  0.00    -0.356 OA
ATOM     31  H10 UNL     1      13.408 -11.164   4.247  1.00  0.00     0.218 HD
ENDBRANCH   7  30
BRANCH   4  32
HETATM   32  C7  UNL     1      18.556 -11.940   0.875  1.00  0.00     0.296 C 
HETATM   33  N3  UNL     1      19.732 -11.189   1.394  1.00  0.00    -0.059 NA
HETATM   34  O4  UNL     1      20.579 -11.245   0.340  1.00  0.00    -0.249 OA
HETATM   35  C8  UNL     1      19.834 -11.483  -0.790  1.00  0.00     0.309 C 
HETATM   36  O6  UNL     1      18.490 -11.435  -0.412  1.00  0.00    -0.328 OA
BRANCH  35  37
HETATM   37  C9  UNL     1      20.148 -10.487  -1.880  1.00  0.00     0.226 C 
BRANCH  37  38
HETATM   38  O5  UNL     1      18.995  -9.826  -2.275  1.00  0.00    -0.396 OA
ATOM     39  H5  UNL     1      18.420  -9.692  -1.531  1.00  0.00     0.209 HD
ENDBRANCH  37  38
ENDBRANCH  35  37
ENDBRANCH   4  32
BRANCH   6  40
HETATM   40  O9  UNL     1      14.421 -13.220   3.239  1.00  0.00    -0.357 OA
ATOM     41  H9  UNL     1      14.595 -14.054   3.659  1.00  0.00     0.218 HD
ENDBRANCH   6  40
BRANCH   5  42
HETATM   42  C11 UNL     1      16.398 -13.943   1.371  1.00  0.00     0.214 C 
HETATM   43  O7  UNL     1      15.219 -14.178   0.659  1.00  0.00    -0.644 OA
HETATM   44  O8  UNL     1      16.918 -14.995   2.040  1.00  0.00    -0.644 OA
ENDBRANCH   5  42
TORSDOF 13
ENDMDL
MODEL 3
REMARK VINA RESULT: -9.244123231      2.944      8.740
REMARK  13 active torsions:
REMARK  status: ('A' for Active; 'I' for Inactive)
REMARK    1  A    between atoms: O1_2  and  C2_3 
REMARK    2  A    between atoms: C2_3  and  C3_5 
REMARK    3  A    between atoms: C3_5  and  O3_6 
REMARK    4  A    between atoms: C3_5  and  C14_32 
REMARK    5  A    between atoms: O3_6  and  N1_7 
REMARK    6  A    between atoms: C4_9  and  C5_10 
REMARK    7  A    between atoms: C6_13  and  C7_14 
REMARK    8  A    between atoms: C8_17  and  C9_18 
REMARK    9  A    between atoms: C9_18  and  O5_19 
REMARK   10  A    between atoms: C10_22  and  C11_23 
REMARK   11  A    between atoms: C12_26  and  O9_27 
REMARK   12  A    between atoms: C13_29  and  O10_30 
REMARK   13  A    between atoms: C16_37  and  N6_38 
ROOT
HETATM    1  C5  UNL     1      17.729  -5.344   4.902  1.00  0.00     0.086 A 
HETATM    2  N2  UNL     1      17.942  -6.371   4.024  1.00  0.00    -0.352 N 
ATOM      3  H2  UNL     1      18.602  -6.233   3.257  1.00  0.00     0.166 HD
HETATM    4  C6  UNL     1      17.306  -7.572   4.134  1.00  0.00     0.077 A 
HETATM    5  C10 UNL     1      16.430  -7.739   5.156  1.00  0.00     0.103 A 
HETATM    6  C12 UNL     1      16.182  -6.706   6.084  1.00  0.00     0.120 A 
HETATM    7  C13 UNL     1      16.859  -5.473   5.945  1.00  0.00     0.128 A 
ENDROOT
BRANCH   1   8
HETATM    8  C4  UNL     1      18.456  -4.096   4.701  1.00  0.00     0.146 C 
HETATM    9  N1  UNL     1      18.349  -3.282   3.741  1.00  0.00    -0.274 N 
ATOM     10  H1  UNL     1      17.680  -3.503   3.004  1.00  0.00     0.193 HD
BRANCH   9  11
HETATM   11  O3  UNL     1      19.059  -2.144   3.626  1.00  0.00    -0.260 OA
BRANCH  11  12
HETATM   12  C3  UNL     1      19.967  -1.823   2.609  1.00  0.00     0.293 C 
BRANCH  12  13
HETATM   13  C2  UNL     1      20.768  -0.611   2.936  1.00  0.00     0.295 C 
HETATM   14  O2  UNL     1      21.767  -0.242   2.268  1.00  0.00    -0.262 OA
BRANCH  13  15
HETATM   15  O1  UNL     1      20.393   0.144   4.027  1.00  0.00    -0.324 OA
HETATM   16  C1  UNL     1      20.197   1.563   3.944  1.00  0.00     0.213 C 
ENDBRANCH  13  15
ENDBRANCH  12  13
BRANCH  12  17
HETATM   17  C14 UNL     1      19.316  -1.701   1.276  1.00  0.00     0.093 A 
HETATM   18  C15 UNL     1      19.703  -2.503   0.217  1.00  0.00     0.146 A 
HETATM   19  N4  UNL     1      20.733  -3.450   0.414  1.00  0.00    -0.081 NA
HETATM   20  N5  UNL     1      19.093  -2.374  -0.991  1.00  0.00    -0.178 N 
HETATM   21  C16 UNL     1      18.111  -1.480  -1.201  1.00  0.00     0.680 A 
ATOM     22  H5  UNL     1      19.390  -2.973  -1.761  1.00  0.00     0.185 HD
HETATM   23  N7  UNL     1      17.724  -0.695  -0.180  1.00  0.00    -0.156 N 
HETATM   24  C17 UNL     1      18.305  -0.793   1.036  1.00  0.00     0.272 A 
ATOM     25  H7  UNL     1      16.979  -0.014  -0.326  1.00  0.00     0.187 HD
HETATM   26  O11 UNL     1      17.935  -0.050   1.985  1.00  0.00    -0.267 OA
BRANCH  21  27
HETATM   27  N6  UNL     1      17.539  -1.373  -2.367  1.00  0.00    -0.234 N 
ATOM     28  H62 UNL     1      18.010  -1.713  -3.206  1.00  0.00     0.174 HD
ATOM     29  H61 UNL     1      16.615  -0.949  -2.463  1.00  0.00     0.174 HD
ENDBRANCH  21  27
ENDBRANCH  12  17
ENDBRANCH  11  12
ENDBRANCH   9  11
ENDBRANCH   1   8
BRANCH   7  30
HETATM   30  O10 UNL     1      16.594  -4.509   6.856  1.00  0.00    -0.356 OA
ATOM     31  H10 UNL     1      15.774  -4.033   6.921  1.00  0.00     0.218 HD
ENDBRANCH   7  30
BRANCH   4  32
HETATM   32  C7  UNL     1      17.674  -8.626   3.190  1.00  0.00     0.296 C 
HETATM   33  N3  UNL     1      16.754  -8.605   2.021  1.00  0.00    -0.059 NA
HETATM   34  O4  UNL     1      16.993  -9.813   1.461  1.00  0.00    -0.249 OA
HETATM   35  C8  UNL     1      17.527 -10.630   2.430  1.00  0.00     0.309 C 
HETATM   36  O6  UNL     1      17.480  -9.923   3.633  1.00  0.00    -0.328 OA
BRANCH  35  37
HETATM   37  C9  UNL     1      16.787 -11.942   2.517  1.00  0.00     0.226 C 
BRANCH  37  38
HETATM   38  O5  UNL     1      15.562 -11.763   3.143  1.00  0.00    -0.396 OA
ATOM     39  H5  UNL     1      14.866 -12.144   2.621  1.00  0.00     0.209 HD
ENDBRANCH  37  38
ENDBRANCH  35  37
ENDBRANCH   4  32
BRANCH   6  40
HETATM   40  O9  UNL     1      15.315  -6.820   7.127  1.00  0.00    -0.357 OA
ATOM     41  H9  UNL     1      14.371  -6.860   7.026  1.00  0.00     0.218 HD
ENDBRANCH   6  40
BRANCH   5  42
HETATM   42  C11 UNL     1      15.607  -8.957   5.320  1.00  0.00     0.214 C 
HETATM   43  O7  UNL     1      14.493  -9.000   4.478  1.00  0.00    -0.644 OA
HETATM   44  O8  UNL     1      15.441  -9.450   6.567  1.00  0.00    -0.644 OA
ENDBRANCH   5  42
TORSDOF 13
ENDMDL
MODEL 4
REMARK VINA RESULT: -9.103772681      1.530      2.235
REMARK  13 active torsions:
REMARK  status: ('A' for Active; 'I' for Inactive)
REMARK    1  A    between atoms: O1_2  and  C2_3 
REMARK    2  A    between atoms: C2_3  and  C3_5 
REMARK    3  A    between atoms: C3_5  and  O3_6 
REMARK    4  A    between atoms: C3_5  and  C14_32 
REMARK    5  A    between atoms: O3_6  and  N1_7 
REMARK    6  A    between atoms: C4_9  and  C5_10 
REMARK    7  A    between atoms: C6_13  and  C7_14 
REMARK    8  A    between atoms: C8_17  and  C9_18 
REMARK    9  A    between atoms: C9_18  and  O5_19 
REMARK   10  A    between atoms: C10_22  and  C11_23 
REMARK   11  A    between atoms: C12_26  and  O9_27 
REMARK   12  A    between atoms: C13_29  and  O10_30 
REMARK   13  A    between atoms: C16_37  and  N6_38 
ROOT
HETATM    1  C5  UNL     1      19.222  -3.234   3.002  1.00  0.00     0.086 A 
HETATM    2  N2  UNL     1      19.033  -1.910   3.288  1.00  0.00    -0.352 N 
ATOM      3  H2  UNL     1      18.755  -1.647   4.234  1.00  0.00     0.166 HD
HETATM    4  C6  UNL     1      19.201  -0.930   2.356  1.00  0.00     0.077 A 
HETATM    5  C10 UNL     1      19.568  -1.295   1.103  1.00  0.00     0.103 A 
HETATM    6  C12 UNL     1      19.775  -2.649   0.766  1.00  0.00     0.120 A 
HETATM    7  C13 UNL     1      19.595  -3.644   1.755  1.00  0.00     0.128 A 
ENDROOT
BRANCH   1   8
HETATM    8  C4  UNL     1      19.018  -4.212   4.066  1.00  0.00     0.146 C 
HETATM    9  N1  UNL     1      18.685  -5.424   3.950  1.00  0.00    -0.274 N 
ATOM     10  H1  UNL     1      18.534  -5.789   3.009  1.00  0.00     0.193 HD
BRANCH   9  11
HETATM   11  O3  UNL     1      18.515  -6.269   4.985  1.00  0.00    -0.260 OA
BRANCH  11  12
HETATM   12  C3  UNL     1      17.482  -6.238   5.930  1.00  0.00     0.293 C 
BRANCH  12  13
HETATM   13  C2  UNL     1      17.999  -6.249   7.325  1.00  0.00     0.295 C 
HETATM   14  O2  UNL     1      18.426  -7.284   7.897  1.00  0.00    -0.262 OA
BRANCH  13  15
HETATM   15  O1  UNL     1      18.010  -5.061   8.026  1.00  0.00    -0.324 OA
HETATM   16  C1  UNL     1      19.085  -4.703   8.907  1.00  0.00     0.213 C 
ENDBRANCH  13  15
ENDBRANCH  12  13
BRANCH  12  17
HETATM   17  C14 UNL     1      16.475  -7.312   5.714  1.00  0.00     0.093 A 
HETATM   18  C15 UNL     1      16.736  -8.376   4.870  1.00  0.00     0.146 A 
HETATM   19  N4  UNL     1      17.981  -8.435   4.205  1.00  0.00    -0.081 NA
HETATM   20  N5  UNL     1      15.800  -9.346   4.689  1.00  0.00    -0.178 N 
HETATM   21  C16 UNL     1      14.609  -9.310   5.312  1.00  0.00     0.680 A 
ATOM     22  H5  UNL     1      16.008 -10.123   4.063  1.00  0.00     0.185 HD
HETATM   23  N7  UNL     1      14.343  -8.282   6.136  1.00  0.00    -0.156 N 
HETATM   24  C17 UNL     1      15.246  -7.299   6.342  1.00  0.00     0.272 A 
ATOM     25  H7  UNL     1      13.443  -8.244   6.615  1.00  0.00     0.187 HD
HETATM   26  O11 UNL     1      14.983  -6.339   7.118  1.00  0.00    -0.267 OA
BRANCH  21  27
HETATM   27  N6  UNL     1      13.725 -10.251   5.125  1.00  0.00    -0.234 N 
ATOM     28  H62 UNL     1      13.731 -10.801   4.266  1.00  0.00     0.174 HD
ATOM     29  H61 UNL     1      13.016 -10.453   5.830  1.00  0.00     0.174 HD
ENDBRANCH  21  27
ENDBRANCH  12  17
ENDBRANCH  11  12
ENDBRANCH   9  11
ENDBRANCH   1   8
BRANCH   7  30
HETATM   30  O10 UNL     1      19.805  -4.929   1.392  1.00  0.00    -0.356 OA
ATOM     31  H10 UNL     1      20.507  -5.227   0.825  1.00  0.00     0.218 HD
ENDBRANCH   7  30
BRANCH   4  32
HETATM   32  C7  UNL     1      19.054   0.458   2.794  1.00  0.00     0.296 C 
HETATM   33  N3  UNL     1      17.905   1.093   2.093  1.00  0.00    -0.059 NA
HETATM   34  O4  UNL     1      18.133   2.406   2.326  1.00  0.00    -0.249 OA
HETATM   35  C8  UNL     1      19.468   2.558   2.618  1.00  0.00     0.309 C 
HETATM   36  O6  UNL     1      20.075   1.316   2.422  1.00  0.00    -0.328 OA
BRANCH  35  37
HETATM   37  C9  UNL     1      20.101   3.635   1.770  1.00  0.00     0.226 C 
BRANCH  37  38
HETATM   38  O5  UNL     1      20.272   3.185   0.469  1.00  0.00    -0.396 OA
ATOM     39  H5  UNL     1      20.774   3.814  -0.035  1.00  0.00     0.209 HD
ENDBRANCH  37  38
ENDBRANCH  35  37
ENDBRANCH   4  32
BRANCH   6  40
HETATM   40  O9  UNL     1      20.143  -3.072  -0.474  1.00  0.00    -0.357 OA
ATOM     41  H9  UNL     1      20.938  -2.792  -0.912  1.00  0.00     0.218 HD
ENDBRANCH   6  40
BRANCH   5  42
HETATM   42  C11 UNL     1      19.683  -0.334  -0.016  1.00  0.00     0.214 C 
HETATM   43  O7  UNL     1      18.963  -0.707  -1.153  1.00  0.00    -0.644 OA
HETATM   44  O8  UNL     1      20.878   0.259  -0.225  1.00  0.00    -0.644 OA
ENDBRANCH   5  42
TORSDOF 13
ENDMDL
MODEL 5
REMARK VINA RESULT: -9.012429217      4.341      8.524
REMARK  13 active torsions:
REMARK  status: ('A' for Active; 'I' for Inactive)
REMARK    1  A    between atoms: O1_2  and  C2_3 
REMARK    2  A    between atoms: C2_3  and  C3_5 
REMARK    3  A    between atoms: C3_5  and  O3_6 
REMARK    4  A    between atoms: C3_5  and  C14_32 
REMARK    5  A    between atoms: O3_6  and  N1_7 
REMARK    6  A    between atoms: C4_9  and  C5_10 
REMARK    7  A    between atoms: C6_13  and  C7_14 
REMARK    8  A    between atoms: C8_17  and  C9_18 
REMARK    9  A    between atoms: C9_18  and  O5_19 
REMARK   10  A    between atoms: C10_22  and  C11_23 
REMARK   11  A    between atoms: C12_26  and  O9_27 
REMARK   12  A    between atoms: C13_29  and  O10_30 
REMARK   13  A    between atoms: C16_37  and  N6_38 
ROOT
HETATM    1  C5  UNL     1      16.427  -9.987   3.266  1.00  0.00     0.086 A 
HETATM    2  N2  UNL     1      17.377 -10.400   2.372  1.00  0.00    -0.352 N 
ATOM      3  H2  UNL     1      18.135  -9.760   2.130  1.00  0.00     0.166 HD
HETATM    4  C6  UNL     1      17.349 -11.634   1.794  1.00  0.00     0.077 A 
HETATM    5  C10 UNL     1      16.335 -12.472   2.124  1.00  0.00     0.103 A 
HETATM    6  C12 UNL     1      15.337 -12.086   3.042  1.00  0.00     0.120 A 
HETATM    7  C13 UNL     1      15.394 -10.800   3.628  1.00  0.00     0.128 A 
ENDROOT
BRANCH   1   8
HETATM    8  C4  UNL     1      16.542  -8.647   3.833  1.00  0.00     0.146 C 
HETATM    9  N1  UNL     1      16.423  -8.305   5.043  1.00  0.00    -0.274 N 
ATOM     10  H1  UNL     1      16.221  -9.035   5.726  1.00  0.00     0.193 HD
BRANCH   9  11
HETATM   11  O3  UNL     1      16.543  -7.041   5.492  1.00  0.00    -0.260 OA
BRANCH  11  12
HETATM   12  C3  UNL     1      17.734  -6.371   5.796  1.00  0.00     0.293 C 
BRANCH  12  13
HETATM   13  C2  UNL     1      17.622  -5.569   7.045  1.00  0.00     0.295 C 
HETATM   14  O2  UNL     1      16.544  -5.412   7.671  1.00  0.00    -0.262 OA
BRANCH  13  15
HETATM   15  O1  UNL     1      18.762  -4.970   7.540  1.00  0.00    -0.324 OA
HETATM   16  C1  UNL     1      19.049  -4.916   8.945  1.00  0.00     0.213 C 
ENDBRANCH  13  15
ENDBRANCH  12  13
BRANCH  12  17
HETATM   17  C14 UNL     1      18.234  -5.545   4.663  1.00  0.00     0.093 A 
HETATM   18  C15 UNL     1      17.689  -4.304   4.389  1.00  0.00     0.146 A 
HETATM   19  N4  UNL     1      16.641  -3.820   5.204  1.00  0.00    -0.081 NA
HETATM   20  N5  UNL     1      18.163  -3.568   3.349  1.00  0.00    -0.178 N 
HETATM   21  C16 UNL     1      19.159  -4.008   2.561  1.00  0.00     0.680 A 
ATOM     22  H5  UNL     1      17.749  -2.655   3.160  1.00  0.00     0.185 HD
HETATM   23  N7  UNL     1      19.699  -5.213   2.817  1.00  0.00    -0.156 N 
HETATM   24  C17 UNL     1      19.256  -5.975   3.841  1.00  0.00     0.272 A 
ATOM     25  H7  UNL     1      20.456  -5.558   2.226  1.00  0.00     0.187 HD
HETATM   26  O11 UNL     1      19.770  -7.104   4.069  1.00  0.00    -0.267 OA
BRANCH  21  27
HETATM   27  N6  UNL     1      19.599  -3.287   1.568  1.00  0.00    -0.234 N 
ATOM     28  H62 UNL     1      19.238  -2.345   1.416  1.00  0.00     0.174 HD
ATOM     29  H61 UNL     1      20.308  -3.649   0.929  1.00  0.00     0.174 HD
ENDBRANCH  21  27
ENDBRANCH  12  17
ENDBRANCH  11  12
ENDBRANCH   9  11
ENDBRANCH   1   8
BRANCH   7  30
HETATM   30  O10 UNL     1      14.418 -10.469   4.504  1.00  0.00    -0.356 OA
ATOM     31  H10 UNL     1      14.052  -9.598   4.607  1.00  0.00     0.218 HD
ENDBRANCH   7  30
BRANCH   4  32
HETATM   32  C7  UNL     1      18.462 -12.000   0.918  1.00  0.00     0.296 C 
HETATM   33  N3  UNL     1      19.707 -11.319   1.368  1.00  0.00    -0.059 NA
HETATM   34  O4  UNL     1      20.507 -11.468   0.287  1.00  0.00    -0.249 OA
HETATM   35  C8  UNL     1      19.703 -11.688  -0.806  1.00  0.00     0.309 C 
HETATM   36  O6  UNL     1      18.382 -11.533  -0.382  1.00  0.00    -0.328 OA
BRANCH  35  37
HETATM   37  C9  UNL     1      20.044 -10.752  -1.941  1.00  0.00     0.226 C 
BRANCH  37  38
HETATM   38  O5  UNL     1      18.955  -9.949  -2.247  1.00  0.00    -0.396 OA
ATOM     39  H5  UNL     1      19.062  -9.088  -1.861  1.00  0.00     0.209 HD
ENDBRANCH  37  38
ENDBRANCH  35  37
ENDBRANCH   4  32
BRANCH   6  40
HETATM   40  O9  UNL     1      14.298 -12.885   3.409  1.00  0.00    -0.357 OA
ATOM     41  H9  UNL     1      14.114 -13.132   4.308  1.00  0.00     0.218 HD
ENDBRANCH   6  40
BRANCH   5  42
HETATM   42  C11 UNL     1      16.143 -13.793   1.488  1.00  0.00     0.214 C 
HETATM   43  O7  UNL     1      14.844 -14.007   1.021  1.00  0.00    -0.644 OA
HETATM   44  O8  UNL     1      16.772 -14.858   2.030  1.00  0.00    -0.644 OA
ENDBRANCH   5  42
TORSDOF 13
ENDMDL
