MODEL 1
REMARK VINA RESULT: -8.414234671      0.000      0.000
REMARK  11 active torsions:
REMARK  status: ('A' for Active; 'I' for Inactive)
REMARK    1  A    between atoms: C2_2  and  C3_3 
REMARK    2  A    between atoms: C2_2  and  C16_21 
REMARK    3  A    between atoms: C3_3  and  C5_5 
REMARK    4  A    between atoms: C5_5  and  O1_6 
REMARK    5  A    between atoms: C5_5  and  C6_8 
REMARK    6  A    between atoms: C6_8  and  C7_9 
REMARK    7  A    between atoms: C8_10  and  C10_12 
REMARK    8  A    between atoms: C10_12  and  O2_13 
REMARK    9  A    between atoms: C10_12  and  C11_15 
REMARK   10  A    between atoms: C20_25  and  O4_26 
REMARK   11  A    between atoms: C22_29  and  O5_30 
ROOT
HETATM    1  C16 UNL     1      60.696  78.164  82.162  1.00  0.00     0.099 C 
HETATM    2  C17 UNL     1      62.114  77.698  82.413  1.00  0.00     0.056 C 
HETATM    3  C18 UNL     1      62.855  78.257  83.540  1.00  0.00    -0.011 C 
HETATM    4  C19 UNL     1      62.586  77.430  84.787  1.00  0.00     0.018 C 
HETATM    5  C20 UNL     1      64.351  78.074  83.247  1.00  0.00     0.129 C 
HETATM    6  C21 UNL     1      64.772  78.841  82.033  1.00  0.00     0.064 C 
HETATM    7  C22 UNL     1      64.094  80.162  81.867  1.00  0.00     0.121 C 
HETATM    8  C23 UNL     1      63.492  80.669  83.134  1.00  0.00     0.037 C 
HETATM    9  C24 UNL     1      62.574  79.711  83.823  1.00  0.00    -0.001 C 
HETATM   10  C25 UNL     1      61.162  80.077  83.629  1.00  0.00     0.014 C 
HETATM   11  C26 UNL     1      60.500  79.608  82.344  1.00  0.00     0.039 C 
HETATM   12  C27 UNL     1      59.013  79.760  82.679  1.00  0.00     0.089 C 
HETATM   13  C28 UNL     1      58.184  80.428  81.664  1.00  0.00     0.021 C 
HETATM   14  C29 UNL     1      58.643  78.370  83.017  1.00  0.00     0.264 C 
HETATM   15  O6  UNL     1      57.487  77.922  83.230  1.00  0.00    -0.265 OA
HETATM   16  O7  UNL     1      59.796  77.604  83.069  1.00  0.00    -0.305 OA
ENDROOT
BRANCH   1  17
HETATM   17  C2  UNL     1      60.405  77.603  80.797  1.00  0.00    -0.048 C 
HETATM   18  C1  UNL     1      59.752  76.447  80.756  1.00  0.00     0.018 C 
BRANCH  17  19
HETATM   19  C3  UNL     1      60.660  78.258  79.516  1.00  0.00     0.042 C 
HETATM   20  C4  UNL     1      59.501  78.009  78.516  1.00  0.00     0.017 C 
BRANCH  19  21
HETATM   21  C5  UNL     1      61.897  78.120  78.753  1.00  0.00     0.129 C 
BRANCH  21  22
HETATM   22  O1  UNL     1      62.744  79.243  78.961  1.00  0.00    -0.395 OA
ATOM     23  H1  UNL     1      62.685  79.849  78.231  1.00  0.00     0.210 HD
ENDBRANCH  21  22
BRANCH  21  24
HETATM   24  C6  UNL     1      61.947  77.624  77.372  1.00  0.00     0.059 C 
BRANCH  24  25
HETATM   25  C7  UNL     1      62.615  76.302  77.228  1.00  0.00    -0.019 C 
HETATM   26  C8  UNL     1      63.905  76.144  76.999  1.00  0.00    -0.059 C 
HETATM   27  C9  UNL     1      64.844  77.295  76.858  1.00  0.00     0.046 C 
BRANCH  26  28
HETATM   28  C10 UNL     1      64.431  74.750  76.874  1.00  0.00     0.150 C 
BRANCH  28  29
HETATM   29  O2  UNL     1      65.603  74.672  77.586  1.00  0.00    -0.391 OA
ATOM     30  H2  UNL     1      65.557  73.905  78.144  1.00  0.00     0.210 HD
ENDBRANCH  28  29
BRANCH  28  31
HETATM   31  C11 UNL     1      64.628  74.506  75.392  1.00  0.00     0.023 C 
HETATM   32  C12 UNL     1      63.303  74.095  74.749  1.00  0.00     0.034 C 
HETATM   33  C13 UNL     1      63.558  73.819  73.300  1.00  0.00     0.168 C 
HETATM   34  O3  UNL     1      64.904  73.926  72.953  1.00  0.00    -0.391 OA
HETATM   35  C14 UNL     1      65.703  73.082  73.690  1.00  0.00     0.168 C 
HETATM   36  C15 UNL     1      65.590  73.370  75.170  1.00  0.00     0.034 C 
ENDBRANCH  28  31
ENDBRANCH  26  28
ENDBRANCH  24  25
ENDBRANCH  21  24
ENDBRANCH  19  21
ENDBRANCH  17  19
ENDBRANCH   1  17
BRANCH   5  37
HETATM   37  O4  UNL     1      65.124  78.439  84.328  1.00  0.00    -0.395 OA
ATOM     38  H4  UNL     1      66.035  78.206  84.198  1.00  0.00     0.210 HD
ENDBRANCH   5  37
BRANCH   7  39
HETATM   39  O5  UNL     1      65.071  81.105  81.471  1.00  0.00    -0.395 OA
ATOM     40  H5  UNL     1      64.673  81.967  81.497  1.00  0.00     0.210 HD
ENDBRANCH   7  39
TORSDOF 11
ENDMDL
MODEL 2
REMARK VINA RESULT: -8.259535133      1.683      3.906
REMARK  11 active torsions:
REMARK  status: ('A' for Active; 'I' for Inactive)
REMARK    1  A    between atoms: C2_2  and  C3_3 
REMARK    2  A    between atoms: C2_2  and  C16_21 
REMARK    3  A    between atoms: C3_3  and  C5_5 
REMARK    4  A    between atoms: C5_5  and  O1_6 
REMARK    5  A    between atoms: C5_5  and  C6_8 
REMARK    6  A    between atoms: C6_8  and  C7_9 
REMARK    7  A    between atoms: C8_10  and  C10_12 
REMARK    8  A    between atoms: C10_12  and  O2_13 
REMARK    9  A    between atoms: C10_12  and  C11_15 
REMARK   10  A    between atoms: C20_25  and  O4_26 
REMARK   11  A    between atoms: C22_29  and  O5_30 
ROOT
HETATM    1  C16 UNL     1      60.487  78.819  80.976  1.00  0.00     0.099 C 
HETATM    2  C17 UNL     1      59.118  78.896  81.617  1.00  0.00     0.056 C 
HETATM    3  C18 UNL     1      59.009  79.314  83.011  1.00  0.00    -0.011 C 
HETATM    4  C19 UNL     1      58.896  80.829  83.081  1.00  0.00     0.018 C 
HETATM    5  C20 UNL     1      57.676  78.782  83.552  1.00  0.00     0.129 C 
HETATM    6  C21 UNL     1      57.637  77.286  83.548  1.00  0.00     0.064 C 
HETATM    7  C22 UNL     1      58.938  76.631  83.881  1.00  0.00     0.121 C 
HETATM    8  C23 UNL     1      59.884  77.543  84.588  1.00  0.00     0.037 C 
HETATM    9  C24 UNL     1      60.133  78.847  83.901  1.00  0.00    -0.001 C 
HETATM   10  C25 UNL     1      61.446  78.867  83.237  1.00  0.00     0.014 C 
HETATM   11  C26 UNL     1      61.524  78.253  81.848  1.00  0.00     0.039 C 
HETATM   12  C27 UNL     1      62.838  78.833  81.318  1.00  0.00     0.089 C 
HETATM   13  C28 UNL     1      63.761  77.878  80.683  1.00  0.00     0.021 C 
HETATM   14  C29 UNL     1      62.351  79.938  80.468  1.00  0.00     0.264 C 
HETATM   15  O6  UNL     1      63.031  80.652  79.684  1.00  0.00    -0.265 OA
HETATM   16  O7  UNL     1      60.989  80.084  80.666  1.00  0.00    -0.305 OA
ENDROOT
BRANCH   1  17
HETATM   17  C2  UNL     1      60.206  78.091  79.690  1.00  0.00    -0.048 C 
HETATM   18  C1  UNL     1      59.844  76.817  79.796  1.00  0.00     0.018 C 
BRANCH  17  19
HETATM   19  C3  UNL     1      60.176  78.673  78.351  1.00  0.00     0.042 C 
HETATM   20  C4  UNL     1      58.724  78.769  77.811  1.00  0.00     0.017 C 
BRANCH  19  21
HETATM   21  C5  UNL     1      60.998  78.216  77.235  1.00  0.00     0.129 C 
BRANCH  21  22
HETATM   22  O1  UNL     1      60.342  77.174  76.521  1.00  0.00    -0.395 OA
ATOM     23  H1  UNL     1      60.320  76.377  77.037  1.00  0.00     0.210 HD
ENDBRANCH  21  22
BRANCH  21  24
HETATM   24  C6  UNL     1      62.448  78.011  77.325  1.00  0.00     0.059 C 
BRANCH  24  25
HETATM   25  C7  UNL     1      62.869  76.591  77.178  1.00  0.00    -0.019 C 
HETATM   26  C8  UNL     1      64.122  76.201  77.031  1.00  0.00    -0.059 C 
HETATM   27  C9  UNL     1      65.264  77.160  76.995  1.00  0.00     0.046 C 
BRANCH  26  28
HETATM   28  C10 UNL     1      64.390  74.736  76.891  1.00  0.00     0.150 C 
BRANCH  28  29
HETATM   29  O2  UNL     1      65.494  74.432  77.649  1.00  0.00    -0.391 OA
ATOM     30  H2  UNL     1      66.258  74.484  77.087  1.00  0.00     0.210 HD
ENDBRANCH  28  29
BRANCH  28  31
HETATM   31  C11 UNL     1      64.607  74.487  75.413  1.00  0.00     0.023 C 
HETATM   32  C12 UNL     1      63.279  74.134  74.741  1.00  0.00     0.034 C 
HETATM   33  C13 UNL     1      63.552  73.851  73.297  1.00  0.00     0.168 C 
HETATM   34  O3  UNL     1      64.908  73.902  72.978  1.00  0.00    -0.391 OA
HETATM   35  C14 UNL     1      65.655  73.024  73.729  1.00  0.00     0.168 C 
HETATM   36  C15 UNL     1      65.524  73.312  75.207  1.00  0.00     0.034 C 
ENDBRANCH  28  31
ENDBRANCH  26  28
ENDBRANCH  24  25
ENDBRANCH  21  24
ENDBRANCH  19  21
ENDBRANCH  17  19
ENDBRANCH   1  17
BRANCH   5  37
HETATM   37  O4  UNL     1      57.421  79.258  84.820  1.00  0.00    -0.395 OA
ATOM     38  H4  UNL     1      56.967  80.092  84.793  1.00  0.00     0.210 HD
ENDBRANCH   5  37
BRANCH   7  39
HETATM   39  O5  UNL     1      58.671  75.555  84.760  1.00  0.00    -0.395 OA
ATOM     40  H5  UNL     1      59.320  74.880  84.602  1.00  0.00     0.210 HD
ENDBRANCH   7  39
TORSDOF 11
ENDMDL
MODEL 3
REMARK VINA RESULT: -8.133737789      4.169      6.541
REMARK  11 active torsions:
REMARK  status: ('A' for Active; 'I' for Inactive)
REMARK    1  A    between atoms: C2_2  and  C3_3 
REMARK    2  A    between atoms: C2_2  and  C16_21 
REMARK    3  A    between atoms: C3_3  and  C5_5 
REMARK    4  A    between atoms: C5_5  and  O1_6 
REMARK    5  A    between atoms: C5_5  and  C6_8 
REMARK    6  A    between atoms: C6_8  and  C7_9 
REMARK    7  A    between atoms: C8_10  and  C10_12 
REMARK    8  A    between atoms: C10_12  and  O2_13 
REMARK    9  A    between atoms: C10_12  and  C11_15 
REMARK   10  A    between atoms: C20_25  and  O4_26 
REMARK   11  A    between atoms: C22_29  and  O5_30 
ROOT
HETATM    1  C16 UNL     1      62.654  78.536  79.704  1.00  0.00     0.099 C 
HETATM    2  C17 UNL     1      62.133  79.294  80.906  1.00  0.00     0.056 C 
HETATM    3  C18 UNL     1      63.084  79.825  81.876  1.00  0.00    -0.011 C 
HETATM    4  C19 UNL     1      63.522  81.218  81.451  1.00  0.00     0.018 C 
HETATM    5  C20 UNL     1      62.334  80.023  83.201  1.00  0.00     0.129 C 
HETATM    6  C21 UNL     1      61.839  78.723  83.752  1.00  0.00     0.064 C 
HETATM    7  C22 UNL     1      62.759  77.565  83.534  1.00  0.00     0.121 C 
HETATM    8  C23 UNL     1      64.159  77.985  83.235  1.00  0.00     0.037 C 
HETATM    9  C24 UNL     1      64.297  78.962  82.112  1.00  0.00    -0.001 C 
HETATM   10  C25 UNL     1      64.794  78.313  80.888  1.00  0.00     0.014 C 
HETATM   11  C26 UNL     1      63.763  77.624  80.008  1.00  0.00     0.039 C 
HETATM   12  C27 UNL     1      64.522  77.479  78.685  1.00  0.00     0.089 C 
HETATM   13  C28 UNL     1      64.461  76.156  78.043  1.00  0.00     0.021 C 
HETATM   14  C29 UNL     1      63.978  78.611  77.908  1.00  0.00     0.264 C 
HETATM   15  O6  UNL     1      64.172  78.859  76.689  1.00  0.00    -0.265 OA
HETATM   16  O7  UNL     1      63.198  79.391  78.745  1.00  0.00    -0.305 OA
ENDROOT
BRANCH   1  17
HETATM   17  C2  UNL     1      61.403  77.922  79.137  1.00  0.00    -0.048 C 
HETATM   18  C1  UNL     1      60.833  76.962  79.858  1.00  0.00     0.018 C 
BRANCH  17  19
HETATM   19  C3  UNL     1      60.689  78.354  77.938  1.00  0.00     0.042 C 
HETATM   20  C4  UNL     1      59.209  78.694  78.256  1.00  0.00     0.017 C 
BRANCH  19  21
HETATM   21  C5  UNL     1      60.678  77.621  76.676  1.00  0.00     0.129 C 
BRANCH  21  22
HETATM   22  O1  UNL     1      61.467  76.442  76.773  1.00  0.00    -0.395 OA
ATOM     23  H1  UNL     1      62.251  76.603  77.285  1.00  0.00     0.210 HD
ENDBRANCH  21  22
BRANCH  21  24
HETATM   24  C6  UNL     1      60.787  78.266  75.362  1.00  0.00     0.059 C 
BRANCH  24  25
HETATM   25  C7  UNL     1      59.650  77.973  74.447  1.00  0.00    -0.019 C 
HETATM   26  C8  UNL     1      58.658  78.810  74.206  1.00  0.00    -0.059 C 
HETATM   27  C9  UNL     1      58.573  80.159  74.836  1.00  0.00     0.046 C 
BRANCH  26  28
HETATM   28  C10 UNL     1      57.583  78.371  73.264  1.00  0.00     0.150 C 
BRANCH  28  29
HETATM   29  O2  UNL     1      58.175  77.682  72.235  1.00  0.00    -0.391 OA
ATOM     30  H2  UNL     1      57.498  77.446  71.612  1.00  0.00     0.210 HD
ENDBRANCH  28  29
BRANCH  28  31
HETATM   31  C11 UNL     1      56.888  79.635  72.800  1.00  0.00     0.023 C 
HETATM   32  C12 UNL     1      55.377  79.500  72.986  1.00  0.00     0.034 C 
HETATM   33  C13 UNL     1      54.734  80.750  72.471  1.00  0.00     0.168 C 
HETATM   34  O3  UNL     1      55.646  81.638  71.903  1.00  0.00    -0.391 OA
HETATM   35  C14 UNL     1      56.354  81.070  70.869  1.00  0.00     0.168 C 
HETATM   36  C15 UNL     1      57.128  79.857  71.331  1.00  0.00     0.034 C 
ENDBRANCH  28  31
ENDBRANCH  26  28
ENDBRANCH  24  25
ENDBRANCH  21  24
ENDBRANCH  19  21
ENDBRANCH  17  19
ENDBRANCH   1  17
BRANCH   5  37
HETATM   37  O4  UNL     1      63.120  80.663  84.134  1.00  0.00    -0.395 OA
ATOM     38  H4  UNL     1      62.731  81.483  84.412  1.00  0.00     0.210 HD
ENDBRANCH   5  37
BRANCH   7  39
HETATM   39  O5  UNL     1      62.803  76.814  84.732  1.00  0.00    -0.395 OA
ATOM     40  H5  UNL     1      63.680  76.886  85.091  1.00  0.00     0.210 HD
ENDBRANCH   7  39
TORSDOF 11
ENDMDL
MODEL 4
REMARK VINA RESULT: -8.116312609      1.725      2.344
REMARK  11 active torsions:
REMARK  status: ('A' for Active; 'I' for Inactive)
REMARK    1  A    between atoms: C2_2  and  C3_3 
REMARK    2  A    between atoms: C2_2  and  C16_21 
REMARK    3  A    between atoms: C3_3  and  C5_5 
REMARK    4  A    between atoms: C5_5  and  O1_6 
REMARK    5  A    between atoms: C5_5  and  C6_8 
REMARK    6  A    between atoms: C6_8  and  C7_9 
REMARK    7  A    between atoms: C8_10  and  C10_12 
REMARK    8  A    between atoms: C10_12  and  O2_13 
REMARK    9  A    between atoms: C10_12  and  C11_15 
REMARK   10  A    between atoms: C20_25  and  O4_26 
REMARK   11  A    between atoms: C22_29  and  O5_30 
ROOT
HETATM    1  C16 UNL     1      62.184  79.149  81.954  1.00  0.00     0.099 C 
HETATM    2  C17 UNL     1      62.641  77.992  82.817  1.00  0.00     0.056 C 
HETATM    3  C18 UNL     1      62.919  78.228  84.230  1.00  0.00    -0.011 C 
HETATM    4  C19 UNL     1      61.643  78.052  85.038  1.00  0.00     0.018 C 
HETATM    5  C20 UNL     1      63.859  77.114  84.710  1.00  0.00     0.129 C 
HETATM    6  C21 UNL     1      65.175  77.160  83.999  1.00  0.00     0.064 C 
HETATM    7  C22 UNL     1      65.675  78.536  83.705  1.00  0.00     0.121 C 
HETATM    8  C23 UNL     1      65.030  79.582  84.553  1.00  0.00     0.037 C 
HETATM    9  C24 UNL     1      63.535  79.569  84.539  1.00  0.00    -0.001 C 
HETATM   10  C25 UNL     1      62.992  80.660  83.714  1.00  0.00     0.014 C 
HETATM   11  C26 UNL     1      62.893  80.407  82.217  1.00  0.00     0.039 C 
HETATM   12  C27 UNL     1      61.919  81.503  81.774  1.00  0.00     0.089 C 
HETATM   13  C28 UNL     1      62.311  82.280  80.587  1.00  0.00     0.021 C 
HETATM   14  C29 UNL     1      60.652  80.750  81.676  1.00  0.00     0.264 C 
HETATM   15  O6  UNL     1      59.558  81.161  81.209  1.00  0.00    -0.265 OA
HETATM   16  O7  UNL     1      60.849  79.480  82.192  1.00  0.00    -0.305 OA
ENDROOT
BRANCH   1  17
HETATM   17  C2  UNL     1      62.293  78.583  80.565  1.00  0.00    -0.048 C 
HETATM   18  C1  UNL     1      61.384  77.677  80.219  1.00  0.00     0.018 C 
BRANCH  17  19
HETATM   19  C3  UNL     1      63.219  79.015  79.521  1.00  0.00     0.042 C 
HETATM   20  C4  UNL     1      62.459  79.489  78.255  1.00  0.00     0.017 C 
BRANCH  19  21
HETATM   21  C5  UNL     1      64.352  78.226  79.047  1.00  0.00     0.129 C 
BRANCH  21  22
HETATM   22  O1  UNL     1      65.530  78.552  79.774  1.00  0.00    -0.395 OA
ATOM     23  H1  UNL     1      65.693  77.910  80.455  1.00  0.00     0.210 HD
ENDBRANCH  21  22
BRANCH  21  24
HETATM   24  C6  UNL     1      64.620  77.960  77.628  1.00  0.00     0.059 C 
BRANCH  24  25
HETATM   25  C7  UNL     1      64.705  76.514  77.289  1.00  0.00    -0.019 C 
HETATM   26  C8  UNL     1      63.681  75.787  76.880  1.00  0.00    -0.059 C 
HETATM   27  C9  UNL     1      62.310  76.351  76.714  1.00  0.00     0.046 C 
BRANCH  26  28
HETATM   28  C10 UNL     1      63.921  74.342  76.580  1.00  0.00     0.150 C 
BRANCH  28  29
HETATM   29  O2  UNL     1      64.861  73.875  77.465  1.00  0.00    -0.391 OA
ATOM     30  H2  UNL     1      64.450  73.805  78.319  1.00  0.00     0.210 HD
ENDBRANCH  28  29
BRANCH  28  31
HETATM   31  C11 UNL     1      64.392  74.285  75.141  1.00  0.00     0.023 C 
HETATM   32  C12 UNL     1      63.223  73.927  74.222  1.00  0.00     0.034 C 
HETATM   33  C13 UNL     1      63.745  73.835  72.822  1.00  0.00     0.168 C 
HETATM   34  O3  UNL     1      65.126  74.012  72.744  1.00  0.00    -0.391 OA
HETATM   35  C14 UNL     1      65.815  73.102  73.512  1.00  0.00     0.168 C 
HETATM   36  C15 UNL     1      65.426  73.204  74.969  1.00  0.00     0.034 C 
ENDBRANCH  28  31
ENDBRANCH  26  28
ENDBRANCH  24  25
ENDBRANCH  21  24
ENDBRANCH  19  21
ENDBRANCH  17  19
ENDBRANCH   1  17
BRANCH   5  37
HETATM   37  O4  UNL     1      64.056  77.173  86.073  1.00  0.00    -0.395 OA
ATOM     38  H4  UNL     1      63.954  76.318  86.475  1.00  0.00     0.210 HD
ENDBRANCH   5  37
BRANCH   7  39
HETATM   39  O5  UNL     1      67.059  78.569  83.997  1.00  0.00    -0.395 OA
ATOM     40  H5  UNL     1      67.181  79.096  84.778  1.00  0.00     0.210 HD
ENDBRANCH   7  39
TORSDOF 11
ENDMDL
MODEL 5
REMARK VINA RESULT: -8.062128479      3.977      6.665
REMARK  11 active torsions:
REMARK  status: ('A' for Active; 'I' for Inactive)
REMARK    1  A    between atoms: C2_2  and  C3_3 
REMARK    2  A    between atoms: C2_2  and  C16_21 
REMARK    3  A    between atoms: C3_3  and  C5_5 
REMARK    4  A    between atoms: C5_5  and  O1_6 
REMARK    5  A    between atoms: C5_5  and  C6_8 
REMARK    6  A    between atoms: C6_8  and  C7_9 
REMARK    7  A    between atoms: C8_10  and  C10_12 
REMARK    8  A    between atoms: C10_12  and  O2_13 
REMARK    9  A    between atoms: C10_12  and  C11_15 
REMARK   10  A    between atoms: C20_25  and  O4_26 
REMARK   11  A    between atoms: C22_29  and  O5_30 
ROOT
HETATM    1  C16 UNL     1      62.592  78.535  79.533  1.00  0.00     0.099 C 
HETATM    2  C17 UNL     1      62.021  79.314  80.698  1.00  0.00     0.056 C 
HETATM    3  C18 UNL     1      62.931  79.857  81.702  1.00  0.00    -0.011 C 
HETATM    4  C19 UNL     1      63.395  81.241  81.275  1.00  0.00     0.018 C 
HETATM    5  C20 UNL     1      62.123  80.079  82.988  1.00  0.00     0.129 C 
HETATM    6  C21 UNL     1      61.597  78.791  83.537  1.00  0.00     0.064 C 
HETATM    7  C22 UNL     1      62.519  77.626  83.379  1.00  0.00     0.121 C 
HETATM    8  C23 UNL     1      63.934  78.034  83.137  1.00  0.00     0.037 C 
HETATM    9  C24 UNL     1      64.128  78.992  82.006  1.00  0.00    -0.001 C 
HETATM   10  C25 UNL     1      64.676  78.322  80.816  1.00  0.00     0.014 C 
HETATM   11  C26 UNL     1      63.682  77.622  79.901  1.00  0.00     0.039 C 
HETATM   12  C27 UNL     1      64.499  77.453  78.616  1.00  0.00     0.089 C 
HETATM   13  C28 UNL     1      64.460  76.121  77.993  1.00  0.00     0.021 C 
HETATM   14  C29 UNL     1      63.997  78.575  77.797  1.00  0.00     0.264 C 
HETATM   15  O6  UNL     1      64.246  78.802  76.585  1.00  0.00    -0.265 OA
HETATM   16  O7  UNL     1      63.184  79.372  78.586  1.00  0.00    -0.305 OA
ENDROOT
BRANCH   1  17
HETATM   17  C2  UNL     1      61.365  77.917  78.920  1.00  0.00    -0.048 C 
HETATM   18  C1  UNL     1      60.786  76.938  79.607  1.00  0.00     0.018 C 
BRANCH  17  19
HETATM   19  C3  UNL     1      60.680  78.363  77.709  1.00  0.00     0.042 C 
HETATM   20  C4  UNL     1      59.203  78.734  78.003  1.00  0.00     0.017 C 
BRANCH  19  21
HETATM   21  C5  UNL     1      60.675  77.631  76.447  1.00  0.00     0.129 C 
BRANCH  21  22
HETATM   22  O1  UNL     1      61.458  76.447  76.550  1.00  0.00    -0.395 OA
ATOM     23  H1  UNL     1      62.056  76.503  77.287  1.00  0.00     0.210 HD
ENDBRANCH  21  22
BRANCH  21  24
HETATM   24  C6  UNL     1      60.797  78.275  75.134  1.00  0.00     0.059 C 
BRANCH  24  25
HETATM   25  C7  UNL     1      59.637  78.036  74.233  1.00  0.00    -0.019 C 
HETATM   26  C8  UNL     1      58.730  78.948  73.935  1.00  0.00    -0.059 C 
HETATM   27  C9  UNL     1      58.775  80.335  74.481  1.00  0.00     0.046 C 
BRANCH  26  28
HETATM   28  C10 UNL     1      57.616  78.557  73.016  1.00  0.00     0.150 C 
BRANCH  28  29
HETATM   29  O2  UNL     1      57.865  79.115  71.787  1.00  0.00    -0.391 OA
ATOM     30  H2  UNL     1      57.085  79.584  71.514  1.00  0.00     0.210 HD
ENDBRANCH  28  29
BRANCH  28  31
HETATM   31  C11 UNL     1      56.344  79.079  73.651  1.00  0.00     0.023 C 
HETATM   32  C12 UNL     1      55.535  77.919  74.232  1.00  0.00     0.034 C 
HETATM   33  C13 UNL     1      54.269  78.478  74.804  1.00  0.00     0.168 C 
HETATM   34  O3  UNL     1      54.132  79.849  74.587  1.00  0.00    -0.391 OA
HETATM   35  C14 UNL     1      54.171  80.173  73.250  1.00  0.00     0.168 C 
HETATM   36  C15 UNL     1      55.474  79.740  72.616  1.00  0.00     0.034 C 
ENDBRANCH  28  31
ENDBRANCH  26  28
ENDBRANCH  24  25
ENDBRANCH  21  24
ENDBRANCH  19  21
ENDBRANCH  17  19
ENDBRANCH   1  17
BRANCH   5  37
HETATM   37  O4  UNL     1      62.870  80.731  83.945  1.00  0.00    -0.395 OA
ATOM     38  H4  UNL     1      62.949  80.211  84.736  1.00  0.00     0.210 HD
ENDBRANCH   5  37
BRANCH   7  39
HETATM   39  O5  UNL     1      62.505  76.893  84.590  1.00  0.00    -0.395 OA
ATOM     40  H5  UNL     1      62.664  77.502  85.301  1.00  0.00     0.210 HD
ENDBRANCH   7  39
TORSDOF 11
ENDMDL
