MODEL 1
REMARK VINA RESULT: -7.600776032      0.000      0.000
REMARK  9 active torsions:
REMARK  status: ('A' for Active; 'I' for Inactive)
REMARK    1  A    between atoms: C2_2  and  N1_3 
REMARK    2  A    between atoms: N1_3  and  C3_6 
REMARK    3  A    between atoms: C3_6  and  C4_7 
REMARK    4  A    between atoms: C5_9  and  O2_10 
REMARK    5  A    between atoms: C6_12  and  N2_13 
REMARK       I    between atoms: N2_13  and  C7_15 
REMARK    6  A    between atoms: C7_15  and  C8_17 
REMARK    7  A    between atoms: C19_30  and  O6_31 
REMARK    8  A    between atoms: O6_31  and  C20_32 
REMARK       I    between atoms: C20_32  and  N3_34 
REMARK    9  A    between atoms: N3_34  and  C21_36 
ROOT
HETATM    1  C4  UNL     1      13.962  34.820  75.542  1.00  0.00     0.179 C 
HETATM    2  O1  UNL     1      14.059  34.819  74.150  1.00  0.00    -0.350 OA
HETATM    3  C5  UNL     1      15.233  34.276  73.684  1.00  0.00     0.280 C 
HETATM    4  C6  UNL     1      16.054  35.310  72.898  1.00  0.00     0.146 C 
HETATM    5  C9  UNL     1      15.381  35.646  71.597  1.00  0.00     0.108 C 
HETATM    6  C10 UNL     1      15.309  37.125  71.433  1.00  0.00     0.129 C 
HETATM    7  O5  UNL     1      15.807  37.907  72.225  1.00  0.00    -0.298 OA
HETATM    8  C11 UNL     1      14.608  37.724  70.261  1.00  0.00     0.078 C 
HETATM    9  C12 UNL     1      13.129  37.904  70.506  1.00  0.00     0.007 C 
HETATM   10  C13 UNL     1      12.845  38.953  71.558  1.00  0.00     0.000 C 
HETATM   11  C14 UNL     1      11.415  38.812  71.979  1.00  0.00     0.000 C 
HETATM   12  C15 UNL     1      11.176  39.271  73.402  1.00  0.00     0.000 C 
HETATM   13  C16 UNL     1      10.909  38.048  74.240  1.00  0.00     0.000 C 
HETATM   14  C17 UNL     1      11.872  37.849  75.354  1.00  0.00     0.002 C 
HETATM   15  C18 UNL     1      13.111  37.086  74.962  1.00  0.00     0.035 C 
HETATM   16  C19 UNL     1      13.521  36.167  76.076  1.00  0.00     0.164 C 
ENDROOT
BRANCH  16  17
HETATM   17  O6  UNL     1      14.607  36.673  76.836  1.00  0.00    -0.296 OA
BRANCH  17  18
HETATM   18  C20 UNL     1      14.371  37.467  77.926  1.00  0.00     0.365 C 
HETATM   19  O7  UNL     1      14.229  36.915  79.031  1.00  0.00    -0.238 OA
HETATM   20  N3  UNL     1      14.279  38.889  77.868  1.00  0.00    -0.302 N 
ATOM     21  H3  UNL     1      14.393  39.359  76.970  1.00  0.00     0.171 HD
BRANCH  20  22
HETATM   22  C21 UNL     1      14.031  39.666  79.032  1.00  0.00     0.049 A 
HETATM   23  C22 UNL     1      12.752  39.812  79.526  1.00  0.00    -0.032 A 
HETATM   24  C23 UNL     1      11.585  39.158  78.852  1.00  0.00     0.050 C 
HETATM   25  C24 UNL     1      12.514  40.565  80.653  1.00  0.00     0.051 A 
HETATM   26  C25 UNL     1      13.570  41.176  81.290  1.00  0.00     0.117 A 
HETATM   27  F1  UNL     1      13.288  41.907  82.396  1.00  0.00    -0.206 F 
HETATM   28  C26 UNL     1      14.867  41.043  80.810  1.00  0.00     0.051 A 
HETATM   29  C27 UNL     1      15.075  40.287  79.685  1.00  0.00    -0.032 A 
HETATM   30  C28 UNL     1      16.482  40.145  79.168  1.00  0.00     0.050 C 
ENDBRANCH  20  22
ENDBRANCH  17  18
ENDBRANCH  16  17
BRANCH   1  31
HETATM   31  C3  UNL     1      13.036  33.716  76.041  1.00  0.00     0.266 C 
BRANCH  31  32
HETATM   32  N1  UNL     1      12.993  32.644  75.102  1.00  0.00    -0.073 N 
ATOM     33  H12 UNL     1      13.544  31.835  75.391  1.00  0.00     0.277 HD
ATOM     34  H11 UNL     1      13.499  32.846  74.239  1.00  0.00     0.277 HD
BRANCH  32  35
HETATM   35  C2  UNL     1      11.574  32.326  74.878  1.00  0.00     0.228 C 
HETATM   36  C1  UNL     1      10.818  33.513  74.348  1.00  0.00     0.034 C 
ENDBRANCH  32  35
ENDBRANCH  31  32
ENDBRANCH   1  31
BRANCH   3  37
HETATM   37  O2  UNL     1      15.040  33.204  72.815  1.00  0.00    -0.369 OA
ATOM     38  H2  UNL     1      14.671  32.437  73.239  1.00  0.00     0.212 HD
ENDBRANCH   3  37
BRANCH   4  39
HETATM   39  N2  UNL     1      17.368  34.771  72.610  1.00  0.00    -0.345 N 
HETATM   40  C7  UNL     1      18.549  35.303  73.210  1.00  0.00     0.279 C 
HETATM   41  O3  UNL     1      18.406  36.266  74.004  1.00  0.00    -0.265 OA
ATOM     42  H2  UNL     1      17.452  33.989  71.961  1.00  0.00     0.163 HD
BRANCH  40  43
HETATM   43  C8  UNL     1      19.867  34.791  72.946  1.00  0.00     0.332 C 
HETATM   44  O4  UNL     1      20.658  34.460  73.870  1.00  0.00    -0.297 OA
ENDBRANCH  40  43
ENDBRANCH   4  39
TORSDOF 9
ENDMDL
MODEL 2
REMARK VINA RESULT: -7.596751292      0.081      1.370
REMARK  9 active torsions:
REMARK  status: ('A' for Active; 'I' for Inactive)
REMARK    1  A    between atoms: C2_2  and  N1_3 
REMARK    2  A    between atoms: N1_3  and  C3_6 
REMARK    3  A    between atoms: C3_6  and  C4_7 
REMARK    4  A    between atoms: C5_9  and  O2_10 
REMARK    5  A    between atoms: C6_12  and  N2_13 
REMARK       I    between atoms: N2_13  and  C7_15 
REMARK    6  A    between atoms: C7_15  and  C8_17 
REMARK    7  A    between atoms: C19_30  and  O6_31 
REMARK    8  A    between atoms: O6_31  and  C20_32 
REMARK       I    between atoms: C20_32  and  N3_34 
REMARK    9  A    between atoms: N3_34  and  C21_36 
ROOT
HETATM    1  C4  UNL     1      13.944  34.807  75.533  1.00  0.00     0.179 C 
HETATM    2  O1  UNL     1      14.056  34.789  74.142  1.00  0.00    -0.350 OA
HETATM    3  C5  UNL     1      15.227  34.223  73.695  1.00  0.00     0.280 C 
HETATM    4  C6  UNL     1      16.072  35.236  72.906  1.00  0.00     0.146 C 
HETATM    5  C9  UNL     1      15.418  35.567  71.595  1.00  0.00     0.108 C 
HETATM    6  C10 UNL     1      15.370  37.046  71.412  1.00  0.00     0.129 C 
HETATM    7  O5  UNL     1      15.870  37.829  72.202  1.00  0.00    -0.298 OA
HETATM    8  C11 UNL     1      14.690  37.641  70.227  1.00  0.00     0.078 C 
HETATM    9  C12 UNL     1      13.212  37.845  70.453  1.00  0.00     0.007 C 
HETATM   10  C13 UNL     1      12.931  38.910  71.489  1.00  0.00     0.000 C 
HETATM   11  C14 UNL     1      11.495  38.794  71.897  1.00  0.00     0.000 C 
HETATM   12  C15 UNL     1      11.248  39.273  73.311  1.00  0.00     0.000 C 
HETATM   13  C16 UNL     1      10.953  38.064  74.159  1.00  0.00     0.000 C 
HETATM   14  C17 UNL     1      11.901  37.863  75.286  1.00  0.00     0.002 C 
HETATM   15  C18 UNL     1      13.133  37.078  74.917  1.00  0.00     0.035 C 
HETATM   16  C19 UNL     1      13.517  36.167  76.046  1.00  0.00     0.164 C 
ENDROOT
BRANCH  16  17
HETATM   17  O6  UNL     1      14.603  36.666  76.812  1.00  0.00    -0.296 OA
BRANCH  17  18
HETATM   18  C20 UNL     1      14.365  37.460  77.902  1.00  0.00     0.365 C 
HETATM   19  O7  UNL     1      14.234  36.908  79.009  1.00  0.00    -0.238 OA
HETATM   20  N3  UNL     1      14.260  38.881  77.842  1.00  0.00    -0.302 N 
ATOM     21  H3  UNL     1      14.364  39.350  76.942  1.00  0.00     0.171 HD
BRANCH  20  22
HETATM   22  C21 UNL     1      14.011  39.658  79.005  1.00  0.00     0.049 A 
HETATM   23  C22 UNL     1      15.046  40.273  79.678  1.00  0.00    -0.032 A 
HETATM   24  C23 UNL     1      16.461  40.141  79.205  1.00  0.00     0.050 C 
HETATM   25  C24 UNL     1      14.803  41.025  80.806  1.00  0.00     0.051 A 
HETATM   26  C25 UNL     1      13.512  41.161  81.259  1.00  0.00     0.117 A 
HETATM   27  F1  UNL     1      13.321  41.910  82.372  1.00  0.00    -0.206 F 
HETATM   28  C26 UNL     1      12.454  40.550  80.598  1.00  0.00     0.051 A 
HETATM   29  C27 UNL     1      12.724  39.806  79.477  1.00  0.00    -0.032 A 
HETATM   30  C28 UNL     1      11.576  39.145  78.762  1.00  0.00     0.050 C 
ENDBRANCH  20  22
ENDBRANCH  17  18
ENDBRANCH  16  17
BRANCH   1  31
HETATM   31  C3  UNL     1      12.997  33.722  76.033  1.00  0.00     0.266 C 
BRANCH  31  32
HETATM   32  N1  UNL     1      12.942  32.644  75.102  1.00  0.00    -0.073 N 
ATOM     33  H12 UNL     1      13.486  31.832  75.396  1.00  0.00     0.277 HD
ATOM     34  H11 UNL     1      13.449  32.835  74.237  1.00  0.00     0.277 HD
BRANCH  32  35
HETATM   35  C2  UNL     1      11.520  32.339  74.882  1.00  0.00     0.228 C 
HETATM   36  C1  UNL     1      10.771  33.534  74.359  1.00  0.00     0.034 C 
ENDBRANCH  32  35
ENDBRANCH  31  32
ENDBRANCH   1  31
BRANCH   3  37
HETATM   37  O2  UNL     1      15.028  33.144  72.836  1.00  0.00    -0.369 OA
ATOM     38  H2  UNL     1      15.168  32.301  73.252  1.00  0.00     0.212 HD
ENDBRANCH   3  37
BRANCH   4  39
HETATM   39  N2  UNL     1      17.382  34.675  72.639  1.00  0.00    -0.345 N 
HETATM   40  C7  UNL     1      18.563  35.199  73.244  1.00  0.00     0.279 C 
HETATM   41  O3  UNL     1      18.426  36.174  74.024  1.00  0.00    -0.265 OA
ATOM     42  H2  UNL     1      17.461  33.883  72.001  1.00  0.00     0.163 HD
BRANCH  40  43
HETATM   43  C8  UNL     1      19.877  34.665  73.000  1.00  0.00     0.332 C 
HETATM   44  O4  UNL     1      20.641  34.305  73.936  1.00  0.00    -0.297 OA
ENDBRANCH  40  43
ENDBRANCH   4  39
TORSDOF 9
ENDMDL
MODEL 3
REMARK VINA RESULT: -7.086401644      1.923      2.810
REMARK  9 active torsions:
REMARK  status: ('A' for Active; 'I' for Inactive)
REMARK    1  A    between atoms: C2_2  and  N1_3 
REMARK    2  A    between atoms: N1_3  and  C3_6 
REMARK    3  A    between atoms: C3_6  and  C4_7 
REMARK    4  A    between atoms: C5_9  and  O2_10 
REMARK    5  A    between atoms: C6_12  and  N2_13 
REMARK       I    between atoms: N2_13  and  C7_15 
REMARK    6  A    between atoms: C7_15  and  C8_17 
REMARK    7  A    between atoms: C19_30  and  O6_31 
REMARK    8  A    between atoms: O6_31  and  C20_32 
REMARK       I    between atoms: C20_32  and  N3_34 
REMARK    9  A    between atoms: N3_34  and  C21_36 
ROOT
HETATM    1  C4  UNL     1      12.804  34.555  75.025  1.00  0.00     0.179 C 
HETATM    2  O1  UNL     1      12.348  34.951  73.766  1.00  0.00    -0.350 OA
HETATM    3  C5  UNL     1      13.272  34.762  72.766  1.00  0.00     0.280 C 
HETATM    4  C6  UNL     1      13.666  36.095  72.110  1.00  0.00     0.146 C 
HETATM    5  C9  UNL     1      12.521  36.654  71.314  1.00  0.00     0.108 C 
HETATM    6  C10 UNL     1      12.314  38.088  71.663  1.00  0.00     0.129 C 
HETATM    7  O5  UNL     1      13.041  38.696  72.430  1.00  0.00    -0.298 OA
HETATM    8  C11 UNL     1      11.181  38.856  71.074  1.00  0.00     0.078 C 
HETATM    9  C12 UNL     1       9.909  38.709  71.873  1.00  0.00     0.007 C 
HETATM   10  C13 UNL     1      10.005  39.367  73.231  1.00  0.00     0.000 C 
HETATM   11  C14 UNL     1       8.864  38.876  74.067  1.00  0.00     0.000 C 
HETATM   12  C15 UNL     1       9.178  38.883  75.548  1.00  0.00     0.000 C 
HETATM   13  C16 UNL     1       9.323  37.451  75.992  1.00  0.00     0.000 C 
HETATM   14  C17 UNL     1      10.654  37.121  76.564  1.00  0.00     0.002 C 
HETATM   15  C18 UNL     1      11.678  36.715  75.537  1.00  0.00     0.035 C 
HETATM   16  C19 UNL     1      12.539  35.611  76.078  1.00  0.00     0.164 C 
ENDROOT
BRANCH  16  17
HETATM   17  O6  UNL     1      13.808  36.067  76.519  1.00  0.00    -0.296 OA
BRANCH  17  18
HETATM   18  C20 UNL     1      13.926  37.291  77.121  1.00  0.00     0.365 C 
HETATM   19  O7  UNL     1      14.121  38.282  76.396  1.00  0.00    -0.238 OA
HETATM   20  N3  UNL     1      13.840  37.495  78.530  1.00  0.00    -0.302 N 
ATOM     21  H3  UNL     1      13.682  36.693  79.140  1.00  0.00     0.171 HD
BRANCH  20  22
HETATM   22  C21 UNL     1      13.971  38.788  79.103  1.00  0.00     0.049 A 
HETATM   23  C22 UNL     1      15.211  39.372  79.256  1.00  0.00    -0.032 A 
HETATM   24  C23 UNL     1      16.458  38.661  78.824  1.00  0.00     0.050 C 
HETATM   25  C24 UNL     1      15.336  40.625  79.813  1.00  0.00     0.051 A 
HETATM   26  C25 UNL     1      14.206  41.297  80.217  1.00  0.00     0.117 A 
HETATM   27  F1  UNL     1      14.378  42.528  80.759  1.00  0.00    -0.206 F 
HETATM   28  C26 UNL     1      12.947  40.729  80.073  1.00  0.00     0.051 A 
HETATM   29  C27 UNL     1      12.852  39.479  79.516  1.00  0.00    -0.032 A 
HETATM   30  C28 UNL     1      11.485  38.866  79.361  1.00  0.00     0.050 C 
ENDBRANCH  20  22
ENDBRANCH  17  18
ENDBRANCH  16  17
BRANCH   1  31
HETATM   31  C3  UNL     1      12.206  33.217  75.443  1.00  0.00     0.266 C 
BRANCH  31  32
HETATM   32  N1  UNL     1      12.926  32.143  74.843  1.00  0.00    -0.073 N 
ATOM     33  H12 UNL     1      13.416  31.560  75.522  1.00  0.00     0.277 HD
ATOM     34  H11 UNL     1      13.746  32.453  74.320  1.00  0.00     0.277 HD
BRANCH  32  35
HETATM   35  C2  UNL     1      11.968  31.390  74.019  1.00  0.00     0.228 C 
HETATM   36  C1  UNL     1      10.662  31.183  74.739  1.00  0.00     0.034 C 
ENDBRANCH  32  35
ENDBRANCH  31  32
ENDBRANCH   1  31
BRANCH   3  37
HETATM   37  O2  UNL     1      12.810  33.951  71.731  1.00  0.00    -0.369 OA
ATOM     38  H2  UNL     1      11.903  33.687  71.836  1.00  0.00     0.212 HD
ENDBRANCH   3  37
BRANCH   4  39
HETATM   39  N2  UNL     1      14.789  35.886  71.217  1.00  0.00    -0.345 N 
HETATM   40  C7  UNL     1      16.050  36.517  71.433  1.00  0.00     0.279 C 
HETATM   41  O3  UNL     1      16.153  37.268  72.435  1.00  0.00    -0.265 OA
ATOM     42  H2  UNL     1      14.674  35.270  70.412  1.00  0.00     0.163 HD
BRANCH  40  43
HETATM   43  C8  UNL     1      17.184  36.330  70.567  1.00  0.00     0.332 C 
HETATM   44  O4  UNL     1      17.165  36.667  69.352  1.00  0.00    -0.297 OA
ENDBRANCH  40  43
ENDBRANCH   4  39
TORSDOF 9
ENDMDL
MODEL 4
REMARK VINA RESULT: -6.966134525      4.670      7.166
REMARK  9 active torsions:
REMARK  status: ('A' for Active; 'I' for Inactive)
REMARK    1  A    between atoms: C2_2  and  N1_3 
REMARK    2  A    between atoms: N1_3  and  C3_6 
REMARK    3  A    between atoms: C3_6  and  C4_7 
REMARK    4  A    between atoms: C5_9  and  O2_10 
REMARK    5  A    between atoms: C6_12  and  N2_13 
REMARK       I    between atoms: N2_13  and  C7_15 
REMARK    6  A    between atoms: C7_15  and  C8_17 
REMARK    7  A    between atoms: C19_30  and  O6_31 
REMARK    8  A    between atoms: O6_31  and  C20_32 
REMARK       I    between atoms: C20_32  and  N3_34 
REMARK    9  A    between atoms: N3_34  and  C21_36 
ROOT
HETATM    1  C4  UNL     1       9.627  37.832  75.621  1.00  0.00     0.179 C 
HETATM    2  O1  UNL     1      10.809  37.620  74.909  1.00  0.00    -0.350 OA
HETATM    3  C5  UNL     1      10.652  36.791  73.823  1.00  0.00     0.280 C 
HETATM    4  C6  UNL     1      11.503  35.520  73.964  1.00  0.00     0.146 C 
HETATM    5  C9  UNL     1      12.966  35.842  73.844  1.00  0.00     0.108 C 
HETATM    6  C10 UNL     1      13.717  35.211  74.966  1.00  0.00     0.129 C 
HETATM    7  O5  UNL     1      13.190  34.483  75.791  1.00  0.00    -0.298 OA
HETATM    8  C11 UNL     1      15.179  35.449  75.128  1.00  0.00     0.078 C 
HETATM    9  C12 UNL     1      15.474  36.694  75.928  1.00  0.00     0.007 C 
HETATM   10  C13 UNL     1      15.059  36.558  77.375  1.00  0.00     0.000 C 
HETATM   11  C14 UNL     1      15.058  37.924  77.989  1.00  0.00     0.000 C 
HETATM   12  C15 UNL     1      14.074  38.052  79.132  1.00  0.00     0.000 C 
HETATM   13  C16 UNL     1      12.940  38.926  78.665  1.00  0.00     0.000 C 
HETATM   14  C17 UNL     1      11.608  38.267  78.697  1.00  0.00     0.002 C 
HETATM   15  C18 UNL     1      11.281  37.489  77.450  1.00  0.00     0.035 C 
HETATM   16  C19 UNL     1       9.827  37.649  77.112  1.00  0.00     0.164 C 
ENDROOT
BRANCH  16  17
HETATM   17  O6  UNL     1       9.047  36.525  77.487  1.00  0.00    -0.296 OA
BRANCH  17  18
HETATM   18  C20 UNL     1       8.274  36.572  78.616  1.00  0.00     0.365 C 
HETATM   19  O7  UNL     1       8.055  37.684  79.128  1.00  0.00    -0.238 OA
HETATM   20  N3  UNL     1       7.707  35.422  79.240  1.00  0.00    -0.302 N 
ATOM     21  H3  UNL     1       7.876  34.501  78.834  1.00  0.00     0.171 HD
BRANCH  20  22
HETATM   22  C21 UNL     1       6.912  35.528  80.413  1.00  0.00     0.049 A 
HETATM   23  C22 UNL     1       5.540  35.642  80.329  1.00  0.00    -0.032 A 
HETATM   24  C23 UNL     1       4.846  35.659  79.002  1.00  0.00     0.050 C 
HETATM   25  C24 UNL     1       4.772  35.745  81.467  1.00  0.00     0.051 A 
HETATM   26  C25 UNL     1       5.386  35.733  82.698  1.00  0.00     0.117 A 
HETATM   27  F1  UNL     1       4.590  35.836  83.789  1.00  0.00    -0.206 F 
HETATM   28  C26 UNL     1       6.767  35.618  82.806  1.00  0.00     0.051 A 
HETATM   29  C27 UNL     1       7.508  35.518  81.656  1.00  0.00    -0.032 A 
HETATM   30  C28 UNL     1       9.004  35.395  81.777  1.00  0.00     0.050 C 
ENDBRANCH  20  22
ENDBRANCH  17  18
ENDBRANCH  16  17
BRANCH   1  31
HETATM   31  C3  UNL     1       9.029  39.201  75.323  1.00  0.00     0.266 C 
BRANCH  31  32
HETATM   32  N1  UNL     1       9.403  39.632  74.016  1.00  0.00    -0.073 N 
ATOM     33  H12 UNL     1      10.180  39.098  73.626  1.00  0.00     0.277 HD
ATOM     34  H11 UNL     1       9.855  40.546  74.010  1.00  0.00     0.277 HD
BRANCH  32  35
HETATM   35  C2  UNL     1       8.191  39.581  73.184  1.00  0.00     0.228 C 
HETATM   36  C1  UNL     1       8.524  39.630  71.718  1.00  0.00     0.034 C 
ENDBRANCH  32  35
ENDBRANCH  31  32
ENDBRANCH   1  31
BRANCH   3  37
HETATM   37  O2  UNL     1      11.039  37.377  72.619  1.00  0.00    -0.369 OA
ATOM     38  H2  UNL     1      10.327  37.815  72.167  1.00  0.00     0.212 HD
ENDBRANCH   3  37
BRANCH   4  39
HETATM   39  N2  UNL     1      11.152  34.580  72.917  1.00  0.00    -0.345 N 
HETATM   40  C7  UNL     1      10.676  33.268  73.211  1.00  0.00     0.279 C 
HETATM   41  O3  UNL     1      10.572  32.952  74.423  1.00  0.00    -0.265 OA
ATOM     42  H2  UNL     1      11.247  34.866  71.942  1.00  0.00     0.163 HD
BRANCH  40  43
HETATM   43  C8  UNL     1      10.319  32.312  72.197  1.00  0.00     0.332 C 
HETATM   44  O4  UNL     1      10.496  31.073  72.347  1.00  0.00    -0.297 OA
ENDBRANCH  40  43
ENDBRANCH   4  39
TORSDOF 9
ENDMDL
MODEL 5
REMARK VINA RESULT: -6.919292559      2.662      5.796
REMARK  9 active torsions:
REMARK  status: ('A' for Active; 'I' for Inactive)
REMARK    1  A    between atoms: C2_2  and  N1_3 
REMARK    2  A    between atoms: N1_3  and  C3_6 
REMARK    3  A    between atoms: C3_6  and  C4_7 
REMARK    4  A    between atoms: C5_9  and  O2_10 
REMARK    5  A    between atoms: C6_12  and  N2_13 
REMARK       I    between atoms: N2_13  and  C7_15 
REMARK    6  A    between atoms: C7_15  and  C8_17 
REMARK    7  A    between atoms: C19_30  and  O6_31 
REMARK    8  A    between atoms: O6_31  and  C20_32 
REMARK       I    between atoms: C20_32  and  N3_34 
REMARK    9  A    between atoms: N3_34  and  C21_36 
ROOT
HETATM    1  C4  UNL     1      13.529  35.892  73.037  1.00  0.00     0.179 C 
HETATM    2  O1  UNL     1      13.703  34.753  72.249  1.00  0.00    -0.350 OA
HETATM    3  C5  UNL     1      12.534  34.069  72.011  1.00  0.00     0.280 C 
HETATM    4  C6  UNL     1      12.591  32.646  72.588  1.00  0.00     0.146 C 
HETATM    5  C9  UNL     1      13.559  31.797  71.816  1.00  0.00     0.108 C 
HETATM    6  C10 UNL     1      14.475  31.091  72.756  1.00  0.00     0.129 C 
HETATM    7  O5  UNL     1      14.366  31.162  73.968  1.00  0.00    -0.298 OA
HETATM    8  C11 UNL     1      15.590  30.247  72.239  1.00  0.00     0.078 C 
HETATM    9  C12 UNL     1      16.842  31.048  71.973  1.00  0.00     0.007 C 
HETATM   10  C13 UNL     1      17.467  31.573  73.246  1.00  0.00     0.000 C 
HETATM   11  C14 UNL     1      18.468  32.622  72.872  1.00  0.00     0.000 C 
HETATM   12  C15 UNL     1      18.660  33.660  73.957  1.00  0.00     0.000 C 
HETATM   13  C16 UNL     1      18.040  34.946  73.475  1.00  0.00     0.000 C 
HETATM   14  C17 UNL     1      16.947  35.459  74.342  1.00  0.00     0.002 C 
HETATM   15  C18 UNL     1      15.590  34.894  74.014  1.00  0.00     0.035 C 
HETATM   16  C19 UNL     1      14.542  35.959  74.161  1.00  0.00     0.164 C 
ENDROOT
BRANCH  16  17
HETATM   17  O6  UNL     1      13.809  35.846  75.371  1.00  0.00    -0.296 OA
BRANCH  17  18
HETATM   18  C20 UNL     1      13.666  36.932  76.191  1.00  0.00     0.365 C 
HETATM   19  O7  UNL     1      13.757  38.064  75.683  1.00  0.00    -0.238 OA
HETATM   20  N3  UNL     1      13.421  36.842  77.594  1.00  0.00    -0.302 N 
ATOM     21  H3  UNL     1      13.344  35.922  78.027  1.00  0.00     0.171 HD
BRANCH  20  22
HETATM   22  C21 UNL     1      13.282  38.004  78.400  1.00  0.00     0.049 A 
HETATM   23  C22 UNL     1      12.035  38.484  78.740  1.00  0.00    -0.032 A 
HETATM   24  C23 UNL     1      10.789  37.796  78.271  1.00  0.00     0.050 C 
HETATM   25  C24 UNL     1      11.903  39.610  79.521  1.00  0.00     0.051 A 
HETATM   26  C25 UNL     1      13.032  40.258  79.964  1.00  0.00     0.117 A 
HETATM   27  F1  UNL     1      12.852  41.362  80.730  1.00  0.00    -0.206 F 
HETATM   28  C26 UNL     1      14.299  39.793  79.634  1.00  0.00     0.051 A 
HETATM   29  C27 UNL     1      14.401  38.670  78.854  1.00  0.00    -0.032 A 
HETATM   30  C28 UNL     1      15.776  38.169  78.497  1.00  0.00     0.050 C 
ENDBRANCH  20  22
ENDBRANCH  17  18
ENDBRANCH  16  17
BRANCH   1  31
HETATM   31  C3  UNL     1      13.569  37.165  72.201  1.00  0.00     0.266 C 
BRANCH  31  32
HETATM   32  N1  UNL     1      12.847  38.208  72.852  1.00  0.00    -0.073 N 
ATOM     33  H12 UNL     1      12.908  39.102  72.363  1.00  0.00     0.277 HD
ATOM     34  H11 UNL     1      13.278  38.508  73.727  1.00  0.00     0.277 HD
BRANCH  32  35
HETATM   35  C2  UNL     1      11.466  37.734  73.022  1.00  0.00     0.228 C 
HETATM   36  C1  UNL     1      10.728  38.538  74.057  1.00  0.00     0.034 C 
ENDBRANCH  32  35
ENDBRANCH  31  32
ENDBRANCH   1  31
BRANCH   3  37
HETATM   37  O2  UNL     1      12.248  33.917  70.655  1.00  0.00    -0.369 OA
ATOM     38  H2  UNL     1      12.224  34.740  70.181  1.00  0.00     0.212 HD
ENDBRANCH   3  37
BRANCH   4  39
HETATM   39  N2  UNL     1      11.278  32.036  72.510  1.00  0.00    -0.345 N 
HETATM   40  C7  UNL     1      10.582  31.595  73.675  1.00  0.00     0.279 C 
HETATM   41  O3  UNL     1      11.153  31.757  74.782  1.00  0.00    -0.265 OA
ATOM     42  H2  UNL     1      10.840  31.918  71.596  1.00  0.00     0.163 HD
BRANCH  40  43
HETATM   43  C8  UNL     1       9.279  30.986  73.631  1.00  0.00     0.332 C 
HETATM   44  O4  UNL     1       8.419  31.171  74.535  1.00  0.00    -0.297 OA
ENDBRANCH  40  43
ENDBRANCH   4  39
TORSDOF 9
ENDMDL
