MODEL 1
REMARK VINA RESULT: -9.485717337      0.000      0.000
REMARK  10 active torsions:
REMARK  status: ('A' for Active; 'I' for Inactive)
REMARK    1  A    between atoms: C1_1  and  C25_44 
REMARK    2  A    between atoms: N1_2  and  N2_4 
REMARK    3  A    between atoms: N2_4  and  C2_6 
REMARK    4  A    between atoms: C3_9  and  N4_10 
REMARK    5  A    between atoms: N4_10  and  C4_12 
REMARK    6  A    between atoms: C4_12  and  C5_13 
REMARK    7  A    between atoms: C10_18  and  C11_19 
REMARK    8  A    between atoms: C11_19  and  C12_20 
REMARK    9  A    between atoms: N8_34  and  C20_36 
REMARK   10  A    between atoms: C20_36  and  C21_37 
ROOT
HETATM    1  C2  UNL     1      14.151  38.383  77.265  1.00  0.00     0.260 A 
HETATM    2  N3  UNL     1      12.961  37.772  77.408  1.00  0.00    -0.153 N 
ATOM      3  H3  UNL     1      12.700  37.030  76.758  1.00  0.00     0.188 HD
HETATM    4  C3  UNL     1      12.116  38.116  78.381  1.00  0.00     0.684 A 
HETATM    5  N7  UNL     1      12.503  39.114  79.228  1.00  0.00    -0.154 N 
ATOM      6  H7  UNL     1      11.884  39.405  79.984  1.00  0.00     0.188 HD
HETATM    7  C19 UNL     1      13.689  39.715  79.073  1.00  0.00     0.245 A 
HETATM    8  N8  UNL     1      14.084  40.653  79.841  1.00  0.00    -0.331 N 
ATOM      9  H8  UNL     1      15.004  41.051  79.649  1.00  0.00     0.168 HD
HETATM   10  O1  UNL     1      14.503  39.334  78.083  1.00  0.00    -0.244 OA
ENDROOT
BRANCH   4  11
HETATM   11  N4  UNL     1      10.979  37.610  78.597  1.00  0.00    -0.222 N 
ATOM     12  H4  UNL     1      10.806  36.724  78.123  1.00  0.00     0.178 HD
BRANCH  11  13
HETATM   13  C4  UNL     1       9.903  38.081  79.397  1.00  0.00     0.179 C 
BRANCH  13  14
HETATM   14  C5  UNL     1       8.912  36.957  79.581  1.00  0.00    -0.011 A 
HETATM   15  C6  UNL     1       8.271  36.411  78.475  1.00  0.00     0.011 A 
HETATM   16  C7  UNL     1       7.364  35.388  78.638  1.00  0.00     0.002 A 
HETATM   17  C8  UNL     1       7.075  34.885  79.888  1.00  0.00     0.016 A 
HETATM   18  C9  UNL     1       7.721  35.438  80.971  1.00  0.00     0.017 A 
HETATM   19  C10 UNL     1       7.670  35.165  82.346  1.00  0.00     0.042 A 
HETATM   20  C18 UNL     1       8.632  36.463  80.830  1.00  0.00     0.068 A 
HETATM   21  N5  UNL     1       8.512  35.994  82.985  1.00  0.00    -0.303 N 
HETATM   22  N6  UNL     1       9.079  36.760  82.073  1.00  0.00    -0.299 N 
ATOM     23  H5  UNL     1       8.682  36.025  83.990  1.00  0.00     0.186 HD
ATOM     24  H6  UNL     1       9.766  37.485  82.278  1.00  0.00     0.187 HD
BRANCH  19  25
HETATM   25  C11 UNL     1       6.801  34.121  82.929  1.00  0.00     0.098 C 
BRANCH  25  26
HETATM   26  C12 UNL     1       5.650  34.791  83.629  1.00  0.00    -0.052 A 
HETATM   27  C13 UNL     1       4.754  35.605  82.982  1.00  0.00     0.007 A 
HETATM   28  C14 UNL     1       3.708  36.212  83.632  1.00  0.00     0.001 A 
HETATM   29  C15 UNL     1       3.565  35.985  84.993  1.00  0.00     0.000 A 
HETATM   30  C16 UNL     1       4.434  35.180  85.690  1.00  0.00     0.001 A 
HETATM   31  C17 UNL     1       5.464  34.594  84.998  1.00  0.00     0.007 A 
ENDBRANCH  25  26
ENDBRANCH  19  25
ENDBRANCH  13  14
ENDBRANCH  11  13
ENDBRANCH   4  11
BRANCH   1  32
HETATM   32  N2  UNL     1      14.933  38.011  76.303  1.00  0.00    -0.265 N 
ATOM     33  H2  UNL     1      15.352  38.706  75.684  1.00  0.00     0.190 HD
BRANCH  32  34
HETATM   34  N1  UNL     1      15.197  36.671  76.120  1.00  0.00    -0.308 N 
HETATM   35  C1  UNL     1      15.053  36.134  74.971  1.00  0.00     0.126 C 
ATOM     36  H1  UNL     1      15.511  36.104  76.907  1.00  0.00     0.186 HD
BRANCH  35  37
HETATM   37  C25 UNL     1      14.601  36.979  73.851  1.00  0.00     0.021 A 
HETATM   38  C26 UNL     1      15.364  37.516  72.840  1.00  0.00     0.021 A 
HETATM   39  C27 UNL     1      14.737  38.265  71.929  1.00  0.00     0.008 A 
HETATM   40  C28 UNL     1      13.389  38.440  72.070  1.00  0.00     0.050 A 
HETATM   41  S1  UNL     1      13.034  37.550  73.476  1.00  0.00    -0.101 SA
ENDBRANCH  35  37
ENDBRANCH  32  34
ENDBRANCH   1  32
BRANCH   8  42
HETATM   42  C20 UNL     1      13.376  41.189  80.924  1.00  0.00     0.104 C 
BRANCH  42  43
HETATM   43  C21 UNL     1      14.383  41.650  81.949  1.00  0.00    -0.004 A 
HETATM   44  C22 UNL     1      15.448  42.492  81.813  1.00  0.00     0.031 A 
HETATM   45  C23 UNL     1      16.063  42.598  83.050  1.00  0.00     0.088 A 
HETATM   46  N9  UNL     1      15.366  41.827  83.909  1.00  0.00    -0.374 N 
HETATM   47  C24 UNL     1      14.339  41.241  83.258  1.00  0.00     0.100 A 
ATOM     48  H9  UNL     1      15.582  41.706  84.898  1.00  0.00     0.164 HD
ENDBRANCH  42  43
ENDBRANCH   8  42
TORSDOF 10
ENDMDL
MODEL 2
REMARK VINA RESULT: -9.252562940      2.038      6.046
REMARK  10 active torsions:
REMARK  status: ('A' for Active; 'I' for Inactive)
REMARK    1  A    between atoms: C1_1  and  C25_44 
REMARK    2  A    between atoms: N1_2  and  N2_4 
REMARK    3  A    between atoms: N2_4  and  C2_6 
REMARK    4  A    between atoms: C3_9  and  N4_10 
REMARK    5  A    between atoms: N4_10  and  C4_12 
REMARK    6  A    between atoms: C4_12  and  C5_13 
REMARK    7  A    between atoms: C10_18  and  C11_19 
REMARK    8  A    between atoms: C11_19  and  C12_20 
REMARK    9  A    between atoms: N8_34  and  C20_36 
REMARK   10  A    between atoms: C20_36  and  C21_37 
ROOT
HETATM    1  C2  UNL     1      14.380  39.062  79.036  1.00  0.00     0.260 A 
HETATM    2  N3  UNL     1      13.104  38.750  79.323  1.00  0.00    -0.153 N 
ATOM      3  H3  UNL     1      12.728  38.983  80.242  1.00  0.00     0.188 HD
HETATM    4  C3  UNL     1      12.320  38.141  78.432  1.00  0.00     0.684 A 
HETATM    5  N7  UNL     1      12.863  37.844  77.214  1.00  0.00    -0.154 N 
ATOM      6  H7  UNL     1      12.294  37.379  76.507  1.00  0.00     0.188 HD
HETATM    7  C19 UNL     1      14.135  38.159  76.942  1.00  0.00     0.245 A 
HETATM    8  N8  UNL     1      14.678  37.896  75.819  1.00  0.00    -0.331 N 
ATOM      9  H8  UNL     1      15.652  38.176  75.699  1.00  0.00     0.168 HD
HETATM   10  O1  UNL     1      14.880  38.771  77.868  1.00  0.00    -0.244 OA
ENDROOT
BRANCH   4  11
HETATM   11  N4  UNL     1      11.116  37.801  78.604  1.00  0.00    -0.222 N 
ATOM     12  H4  UNL     1      10.748  37.153  77.908  1.00  0.00     0.178 HD
BRANCH  11  13
HETATM   13  C4  UNL     1      10.193  38.180  79.616  1.00  0.00     0.179 C 
BRANCH  13  14
HETATM   14  C5  UNL     1       9.127  37.116  79.718  1.00  0.00    -0.011 A 
HETATM   15  C6  UNL     1       8.510  36.642  78.566  1.00  0.00     0.011 A 
HETATM   16  C7  UNL     1       7.535  35.674  78.654  1.00  0.00     0.002 A 
HETATM   17  C8  UNL     1       7.152  35.155  79.872  1.00  0.00     0.016 A 
HETATM   18  C9  UNL     1       7.777  35.637  81.001  1.00  0.00     0.017 A 
HETATM   19  C10 UNL     1       7.640  35.331  82.364  1.00  0.00     0.042 A 
HETATM   20  C18 UNL     1       8.755  36.606  80.936  1.00  0.00     0.068 A 
HETATM   21  N5  UNL     1       8.498  36.088  83.067  1.00  0.00    -0.303 N 
HETATM   22  N6  UNL     1       9.156  36.841  82.207  1.00  0.00    -0.299 N 
ATOM     23  H5  UNL     1       8.619  36.080  84.079  1.00  0.00     0.186 HD
ATOM     24  H6  UNL     1       9.875  37.516  82.467  1.00  0.00     0.187 HD
BRANCH  19  25
HETATM   25  C11 UNL     1       6.680  34.328  82.872  1.00  0.00     0.098 C 
BRANCH  25  26
HETATM   26  C12 UNL     1       5.461  35.047  83.384  1.00  0.00    -0.052 A 
HETATM   27  C13 UNL     1       4.682  35.852  82.592  1.00  0.00     0.007 A 
HETATM   28  C14 UNL     1       3.572  36.504  83.070  1.00  0.00     0.001 A 
HETATM   29  C15 UNL     1       3.240  36.333  84.406  1.00  0.00     0.000 A 
HETATM   30  C16 UNL     1       3.987  35.538  85.243  1.00  0.00     0.001 A 
HETATM   31  C17 UNL     1       5.087  34.907  84.720  1.00  0.00     0.007 A 
ENDBRANCH  25  26
ENDBRANCH  19  25
ENDBRANCH  13  14
ENDBRANCH  11  13
ENDBRANCH   4  11
BRANCH   1  32
HETATM   32  N2  UNL     1      15.098  39.653  79.937  1.00  0.00    -0.265 N 
ATOM     33  H2  UNL     1      15.267  39.201  80.836  1.00  0.00     0.190 HD
BRANCH  32  34
HETATM   34  N1  UNL     1      15.634  40.895  79.674  1.00  0.00    -0.308 N 
HETATM   35  C1  UNL     1      15.338  41.896  80.409  1.00  0.00     0.126 C 
ATOM     36  H1  UNL     1      16.271  41.016  78.887  1.00  0.00     0.186 HD
BRANCH  35  37
HETATM   37  C25 UNL     1      14.415  41.690  81.540  1.00  0.00     0.021 A 
HETATM   38  C26 UNL     1      13.058  41.469  81.489  1.00  0.00     0.021 A 
HETATM   39  C27 UNL     1      12.418  41.317  82.652  1.00  0.00     0.008 A 
HETATM   40  C28 UNL     1      13.157  41.394  83.799  1.00  0.00     0.050 A 
HETATM   41  S1  UNL     1      14.732  41.677  83.220  1.00  0.00    -0.101 SA
ENDBRANCH  35  37
ENDBRANCH  32  34
ENDBRANCH   1  32
BRANCH   8  42
HETATM   42  C20 UNL     1      14.063  37.260  74.732  1.00  0.00     0.104 C 
BRANCH  42  43
HETATM   43  C21 UNL     1      15.108  37.069  73.662  1.00  0.00    -0.004 A 
HETATM   44  C22 UNL     1      16.155  36.194  73.604  1.00  0.00     0.031 A 
HETATM   45  C23 UNL     1      16.823  36.413  72.411  1.00  0.00     0.088 A 
HETATM   46  N9  UNL     1      16.176  37.405  71.768  1.00  0.00    -0.374 N 
HETATM   47  C24 UNL     1      15.130  37.819  72.513  1.00  0.00     0.100 A 
ATOM     48  H9  UNL     1      16.437  37.786  70.858  1.00  0.00     0.164 HD
ENDBRANCH  42  43
ENDBRANCH   8  42
TORSDOF 10
ENDMDL
MODEL 3
REMARK VINA RESULT: -9.246784861      1.264      1.683
REMARK  10 active torsions:
REMARK  status: ('A' for Active; 'I' for Inactive)
REMARK    1  A    between atoms: C1_1  and  C25_44 
REMARK    2  A    between atoms: N1_2  and  N2_4 
REMARK    3  A    between atoms: N2_4  and  C2_6 
REMARK    4  A    between atoms: C3_9  and  N4_10 
REMARK    5  A    between atoms: N4_10  and  C4_12 
REMARK    6  A    between atoms: C4_12  and  C5_13 
REMARK    7  A    between atoms: C10_18  and  C11_19 
REMARK    8  A    between atoms: C11_19  and  C12_20 
REMARK    9  A    between atoms: N8_34  and  C20_36 
REMARK   10  A    between atoms: C20_36  and  C21_37 
ROOT
HETATM    1  C2  UNL     1      14.143  38.151  76.865  1.00  0.00     0.260 A 
HETATM    2  N3  UNL     1      12.920  37.591  76.898  1.00  0.00    -0.153 N 
ATOM      3  H3  UNL     1      12.665  36.908  76.185  1.00  0.00     0.188 HD
HETATM    4  C3  UNL     1      12.035  37.910  77.845  1.00  0.00     0.684 A 
HETATM    5  N7  UNL     1      12.416  38.830  78.779  1.00  0.00    -0.154 N 
ATOM      6  H7  UNL     1      11.767  39.099  79.518  1.00  0.00     0.188 HD
HETATM    7  C19 UNL     1      13.635  39.380  78.733  1.00  0.00     0.245 A 
HETATM    8  N8  UNL     1      14.026  40.244  79.586  1.00  0.00    -0.331 N 
ATOM      9  H8  UNL     1      14.973  40.608  79.474  1.00  0.00     0.168 HD
HETATM   10  O1  UNL     1      14.488  39.027  77.766  1.00  0.00    -0.244 OA
ENDROOT
BRANCH   4  11
HETATM   11  N4  UNL     1      10.866  37.447  77.961  1.00  0.00    -0.222 N 
ATOM     12  H4  UNL     1      10.727  36.522  77.554  1.00  0.00     0.178 HD
BRANCH  11  13
HETATM   13  C4  UNL     1       9.713  38.013  78.568  1.00  0.00     0.179 C 
BRANCH  13  14
HETATM   14  C5  UNL     1       9.330  37.164  79.757  1.00  0.00    -0.011 A 
HETATM   15  C6  UNL     1       9.966  37.356  80.978  1.00  0.00     0.011 A 
HETATM   16  C7  UNL     1       9.623  36.583  82.064  1.00  0.00     0.002 A 
HETATM   17  C8  UNL     1       8.650  35.611  81.969  1.00  0.00     0.016 A 
HETATM   18  C9  UNL     1       8.031  35.438  80.751  1.00  0.00     0.017 A 
HETATM   19  C10 UNL     1       7.018  34.568  80.318  1.00  0.00     0.042 A 
HETATM   20  C18 UNL     1       8.360  36.200  79.651  1.00  0.00     0.068 A 
HETATM   21  N5  UNL     1       6.765  34.809  79.021  1.00  0.00    -0.303 N 
HETATM   22  N6  UNL     1       7.568  35.782  78.636  1.00  0.00    -0.299 N 
ATOM     23  H5  UNL     1       6.077  34.328  78.441  1.00  0.00     0.186 HD
ATOM     24  H6  UNL     1       7.589  36.169  77.693  1.00  0.00     0.187 HD
BRANCH  19  25
HETATM   25  C11 UNL     1       6.381  33.569  81.202  1.00  0.00     0.098 C 
BRANCH  25  26
HETATM   26  C12 UNL     1       5.603  34.296  82.265  1.00  0.00    -0.052 A 
HETATM   27  C13 UNL     1       4.719  35.307  81.984  1.00  0.00     0.007 A 
HETATM   28  C14 UNL     1       4.015  35.964  82.962  1.00  0.00     0.001 A 
HETATM   29  C15 UNL     1       4.217  35.581  84.280  1.00  0.00     0.000 A 
HETATM   30  C16 UNL     1       5.092  34.575  84.617  1.00  0.00     0.001 A 
HETATM   31  C17 UNL     1       5.772  33.946  83.605  1.00  0.00     0.007 A 
ENDBRANCH  25  26
ENDBRANCH  19  25
ENDBRANCH  13  14
ENDBRANCH  11  13
ENDBRANCH   4  11
BRANCH   1  32
HETATM   32  N2  UNL     1      14.963  37.807  75.925  1.00  0.00    -0.265 N 
ATOM     33  H2  UNL     1      15.472  38.520  75.401  1.00  0.00     0.190 HD
BRANCH  32  34
HETATM   34  N1  UNL     1      15.145  36.472  75.635  1.00  0.00    -0.308 N 
HETATM   35  C1  UNL     1      14.901  36.024  74.465  1.00  0.00     0.126 C 
ATOM     36  H1  UNL     1      15.478  35.837  76.361  1.00  0.00     0.186 HD
BRANCH  35  37
HETATM   37  C25 UNL     1      14.423  36.966  73.437  1.00  0.00     0.021 A 
HETATM   38  C26 UNL     1      15.170  37.628  72.491  1.00  0.00     0.021 A 
HETATM   39  C27 UNL     1      14.520  38.447  71.659  1.00  0.00     0.008 A 
HETATM   40  C28 UNL     1      13.167  38.564  71.812  1.00  0.00     0.050 A 
HETATM   41  S1  UNL     1      12.839  37.523  73.117  1.00  0.00    -0.101 SA
ENDBRANCH  35  37
ENDBRANCH  32  34
ENDBRANCH   1  32
BRANCH   8  42
HETATM   42  C20 UNL     1      13.279  40.741  80.662  1.00  0.00     0.104 C 
BRANCH  42  43
HETATM   43  C21 UNL     1      14.212  41.543  81.536  1.00  0.00    -0.004 A 
HETATM   44  C22 UNL     1      14.081  41.921  82.841  1.00  0.00     0.031 A 
HETATM   45  C23 UNL     1      15.211  42.646  83.185  1.00  0.00     0.088 A 
HETATM   46  N9  UNL     1      16.002  42.693  82.095  1.00  0.00    -0.374 N 
HETATM   47  C24 UNL     1      15.411  42.028  81.080  1.00  0.00     0.100 A 
ATOM     48  H9  UNL     1      16.907  43.160  82.044  1.00  0.00     0.164 HD
ENDBRANCH  42  43
ENDBRANCH   8  42
TORSDOF 10
ENDMDL
MODEL 4
REMARK VINA RESULT: -9.164920175      1.235      1.794
REMARK  10 active torsions:
REMARK  status: ('A' for Active; 'I' for Inactive)
REMARK    1  A    between atoms: C1_1  and  C25_44 
REMARK    2  A    between atoms: N1_2  and  N2_4 
REMARK    3  A    between atoms: N2_4  and  C2_6 
REMARK    4  A    between atoms: C3_9  and  N4_10 
REMARK    5  A    between atoms: N4_10  and  C4_12 
REMARK    6  A    between atoms: C4_12  and  C5_13 
REMARK    7  A    between atoms: C10_18  and  C11_19 
REMARK    8  A    between atoms: C11_19  and  C12_20 
REMARK    9  A    between atoms: N8_34  and  C20_36 
REMARK   10  A    between atoms: C20_36  and  C21_37 
ROOT
HETATM    1  C2  UNL     1      13.821  37.670  77.478  1.00  0.00     0.260 A 
HETATM    2  N3  UNL     1      12.566  37.228  77.676  1.00  0.00    -0.153 N 
ATOM      3  H3  UNL     1      12.233  36.420  77.151  1.00  0.00     0.188 HD
HETATM    4  C3  UNL     1      11.748  37.826  78.545  1.00  0.00     0.684 A 
HETATM    5  N7  UNL     1      12.233  38.905  79.226  1.00  0.00    -0.154 N 
ATOM      6  H7  UNL     1      11.637  39.388  79.898  1.00  0.00     0.188 HD
HETATM    7  C19 UNL     1      13.483  39.335  79.018  1.00  0.00     0.245 A 
HETATM    8  N8  UNL     1      13.970  40.341  79.632  1.00  0.00    -0.331 N 
ATOM      9  H8  UNL     1      14.933  40.595  79.412  1.00  0.00     0.168 HD
HETATM   10  O1  UNL     1      14.265  38.702  78.138  1.00  0.00    -0.244 OA
ENDROOT
BRANCH   4  11
HETATM   11  N4  UNL     1      10.556  37.494  78.799  1.00  0.00    -0.222 N 
ATOM     12  H4  UNL     1      10.132  36.862  78.120  1.00  0.00     0.178 HD
BRANCH  11  13
HETATM   13  C4  UNL     1       9.713  37.863  79.881  1.00  0.00     0.179 C 
BRANCH  13  14
HETATM   14  C5  UNL     1       8.701  36.764  80.099  1.00  0.00    -0.011 A 
HETATM   15  C6  UNL     1       8.026  36.220  79.012  1.00  0.00     0.011 A 
HETATM   16  C7  UNL     1       7.100  35.220  79.205  1.00  0.00     0.002 A 
HETATM   17  C8  UNL     1       6.823  34.739  80.467  1.00  0.00     0.016 A 
HETATM   18  C9  UNL     1       7.503  35.290  81.530  1.00  0.00     0.017 A 
HETATM   19  C10 UNL     1       7.471  35.036  82.909  1.00  0.00     0.042 A 
HETATM   20  C18 UNL     1       8.433  36.292  81.358  1.00  0.00     0.068 A 
HETATM   21  N5  UNL     1       8.344  35.853  83.521  1.00  0.00    -0.303 N 
HETATM   22  N6  UNL     1       8.911  36.595  82.589  1.00  0.00    -0.299 N 
ATOM     23  H5  UNL     1       8.535  35.893  84.522  1.00  0.00     0.186 HD
ATOM     24  H6  UNL     1       9.618  37.306  82.772  1.00  0.00     0.187 HD
BRANCH  19  25
HETATM   25  C11 UNL     1       6.590  34.019  83.522  1.00  0.00     0.098 C 
BRANCH  25  26
HETATM   26  C12 UNL     1       5.488  34.725  84.264  1.00  0.00    -0.052 A 
HETATM   27  C13 UNL     1       4.547  35.505  83.639  1.00  0.00     0.007 A 
HETATM   28  C14 UNL     1       3.546  36.145  84.326  1.00  0.00     0.001 A 
HETATM   29  C15 UNL     1       3.497  35.988  85.704  1.00  0.00     0.000 A 
HETATM   30  C16 UNL     1       4.414  35.219  86.380  1.00  0.00     0.001 A 
HETATM   31  C17 UNL     1       5.396  34.598  85.650  1.00  0.00     0.007 A 
ENDBRANCH  25  26
ENDBRANCH  19  25
ENDBRANCH  13  14
ENDBRANCH  11  13
ENDBRANCH   4  11
BRANCH   1  32
HETATM   32  N2  UNL     1      14.573  37.054  76.623  1.00  0.00    -0.265 N 
ATOM     33  H2  UNL     1      15.076  36.210  76.896  1.00  0.00     0.190 HD
BRANCH  32  34
HETATM   34  N1  UNL     1      14.690  37.548  75.341  1.00  0.00    -0.308 N 
HETATM   35  C1  UNL     1      14.239  36.884  74.348  1.00  0.00     0.126 C 
ATOM     36  H1  UNL     1      15.141  38.449  75.184  1.00  0.00     0.186 HD
BRANCH  35  37
HETATM   37  C25 UNL     1      13.591  35.585  74.606  1.00  0.00     0.021 A 
HETATM   38  C26 UNL     1      14.199  34.368  74.808  1.00  0.00     0.021 A 
HETATM   39  C27 UNL     1      13.406  33.314  75.017  1.00  0.00     0.008 A 
HETATM   40  C28 UNL     1      12.056  33.524  75.013  1.00  0.00     0.050 A 
HETATM   41  S1  UNL     1      11.931  35.195  74.718  1.00  0.00    -0.101 SA
ENDBRANCH  35  37
ENDBRANCH  32  34
ENDBRANCH   1  32
BRANCH   8  42
HETATM   42  C20 UNL     1      13.308  41.130  80.582  1.00  0.00     0.104 C 
BRANCH  42  43
HETATM   43  C21 UNL     1      14.348  41.683  81.524  1.00  0.00    -0.004 A 
HETATM   44  C22 UNL     1      14.245  42.022  82.842  1.00  0.00     0.031 A 
HETATM   45  C23 UNL     1      15.484  42.483  83.258  1.00  0.00     0.088 A 
HETATM   46  N9  UNL     1      16.311  42.415  82.196  1.00  0.00    -0.374 N 
HETATM   47  C24 UNL     1      15.639  41.931  81.130  1.00  0.00     0.100 A 
ATOM     48  H9  UNL     1      17.294  42.687  82.197  1.00  0.00     0.164 HD
ENDBRANCH  42  43
ENDBRANCH   8  42
TORSDOF 10
ENDMDL
MODEL 5
REMARK VINA RESULT: -9.058911868      2.320      6.116
REMARK  10 active torsions:
REMARK  status: ('A' for Active; 'I' for Inactive)
REMARK    1  A    between atoms: C1_1  and  C25_44 
REMARK    2  A    between atoms: N1_2  and  N2_4 
REMARK    3  A    between atoms: N2_4  and  C2_6 
REMARK    4  A    between atoms: C3_9  and  N4_10 
REMARK    5  A    between atoms: N4_10  and  C4_12 
REMARK    6  A    between atoms: C4_12  and  C5_13 
REMARK    7  A    between atoms: C10_18  and  C11_19 
REMARK    8  A    between atoms: C11_19  and  C12_20 
REMARK    9  A    between atoms: N8_34  and  C20_36 
REMARK   10  A    between atoms: C20_36  and  C21_37 
ROOT
HETATM    1  C2  UNL     1      14.617  38.578  78.823  1.00  0.00     0.260 A 
HETATM    2  N3  UNL     1      13.284  38.424  78.725  1.00  0.00    -0.153 N 
ATOM      3  H3  UNL     1      12.676  38.900  79.390  1.00  0.00     0.188 HD
HETATM    4  C3  UNL     1      12.742  37.660  77.774  1.00  0.00     0.684 A 
HETATM    5  N7  UNL     1      13.591  37.038  76.905  1.00  0.00    -0.154 N 
ATOM      6  H7  UNL     1      13.213  36.447  76.165  1.00  0.00     0.188 HD
HETATM    7  C19 UNL     1      14.915  37.199  77.015  1.00  0.00     0.245 A 
HETATM    8  N8  UNL     1      15.740  36.633  76.224  1.00  0.00    -0.331 N 
ATOM      9  H8  UNL     1      16.731  36.816  76.382  1.00  0.00     0.168 HD
HETATM   10  O1  UNL     1      15.411  37.976  77.983  1.00  0.00    -0.244 OA
ENDROOT
BRANCH   4  11
HETATM   11  N4  UNL     1      11.509  37.446  77.600  1.00  0.00    -0.222 N 
ATOM     12  H4  UNL     1      11.289  36.590  77.093  1.00  0.00     0.178 HD
BRANCH  11  13
HETATM   13  C4  UNL     1      10.381  38.212  78.000  1.00  0.00     0.179 C 
BRANCH  13  14
HETATM   14  C5  UNL     1       9.213  37.277  78.204  1.00  0.00    -0.011 A 
HETATM   15  C6  UNL     1       8.634  36.645  77.110  1.00  0.00     0.011 A 
HETATM   16  C7  UNL     1       7.567  35.794  77.289  1.00  0.00     0.002 A 
HETATM   17  C8  UNL     1       7.052  35.551  78.544  1.00  0.00     0.016 A 
HETATM   18  C9  UNL     1       7.640  36.187  79.615  1.00  0.00     0.017 A 
HETATM   19  C10 UNL     1       7.379  36.159  80.994  1.00  0.00     0.042 A 
HETATM   20  C18 UNL     1       8.709  37.042  79.458  1.00  0.00     0.068 A 
HETATM   21  N5  UNL     1       8.255  36.963  81.617  1.00  0.00    -0.303 N 
HETATM   22  N6  UNL     1       9.041  37.482  80.694  1.00  0.00    -0.299 N 
ATOM     23  H5  UNL     1       8.304  37.139  82.621  1.00  0.00     0.186 HD
ATOM     24  H6  UNL     1       9.802  38.132  80.887  1.00  0.00     0.187 HD
BRANCH  19  25
HETATM   25  C11 UNL     1       6.294  35.353  81.593  1.00  0.00     0.098 C 
BRANCH  25  26
HETATM   26  C12 UNL     1       5.091  36.237  81.786  1.00  0.00    -0.052 A 
HETATM   27  C13 UNL     1       4.770  37.258  80.927  1.00  0.00     0.007 A 
HETATM   28  C14 UNL     1       3.670  38.058  81.113  1.00  0.00     0.001 A 
HETATM   29  C15 UNL     1       2.865  37.814  82.216  1.00  0.00     0.000 A 
HETATM   30  C16 UNL     1       3.142  36.805  83.108  1.00  0.00     0.001 A 
HETATM   31  C17 UNL     1       4.251  36.030  82.880  1.00  0.00     0.007 A 
ENDBRANCH  25  26
ENDBRANCH  19  25
ENDBRANCH  13  14
ENDBRANCH  11  13
ENDBRANCH   4  11
BRANCH   1  32
HETATM   32  N2  UNL     1      15.092  39.329  79.764  1.00  0.00    -0.265 N 
ATOM     33  H2  UNL     1      14.983  39.059  80.742  1.00  0.00     0.190 HD
BRANCH  32  34
HETATM   34  N1  UNL     1      15.745  40.498  79.437  1.00  0.00    -0.308 N 
HETATM   35  C1  UNL     1      15.499  41.577  80.074  1.00  0.00     0.126 C 
ATOM     36  H1  UNL     1      16.429  40.502  78.681  1.00  0.00     0.186 HD
BRANCH  35  37
HETATM   37  C25 UNL     1      14.506  41.541  81.163  1.00  0.00     0.021 A 
HETATM   38  C26 UNL     1      13.162  41.261  81.066  1.00  0.00     0.021 A 
HETATM   39  C27 UNL     1      12.447  41.295  82.194  1.00  0.00     0.008 A 
HETATM   40  C28 UNL     1      13.101  41.604  83.353  1.00  0.00     0.050 A 
HETATM   41  S1  UNL     1      14.705  41.839  82.834  1.00  0.00    -0.101 SA
ENDBRANCH  35  37
ENDBRANCH  32  34
ENDBRANCH   1  32
BRANCH   8  42
HETATM   42  C20 UNL     1      15.414  35.785  75.158  1.00  0.00     0.104 C 
BRANCH  42  43
HETATM   43  C21 UNL     1      15.512  36.589  73.885  1.00  0.00    -0.004 A 
HETATM   44  C22 UNL     1      14.681  37.551  73.389  1.00  0.00     0.031 A 
HETATM   45  C23 UNL     1      15.210  37.988  72.186  1.00  0.00     0.088 A 
HETATM   46  N9  UNL     1      16.346  37.293  71.974  1.00  0.00    -0.374 N 
HETATM   47  C24 UNL     1      16.547  36.436  72.997  1.00  0.00     0.100 A 
ATOM     48  H9  UNL     1      16.959  37.398  71.166  1.00  0.00     0.164 HD
ENDBRANCH  42  43
ENDBRANCH   8  42
TORSDOF 10
ENDMDL
