MODEL 1
REMARK VINA RESULT: -7.657531220      0.000      0.000
REMARK  11 active torsions:
REMARK  status: ('A' for Active; 'I' for Inactive)
REMARK    1  A    between atoms: C2_2  and  O1_3 
REMARK    2  A    between atoms: O1_3  and  C3_4 
REMARK       I    between atoms: C3_4  and  N1_6 
REMARK    3  A    between atoms: N1_6  and  C4_7 
REMARK    4  A    between atoms: C4_7  and  C5_8 
REMARK    5  A    between atoms: C5_8  and  C6_9 
REMARK    6  A    between atoms: C6_9  and  C7_10 
REMARK    7  A    between atoms: C7_10  and  N2_11 
REMARK    8  A    between atoms: C7_10  and  S1_15 
REMARK    9  A    between atoms: S1_15  and  C8_16 
REMARK   10  A    between atoms: C10_20  and  N4_21 
REMARK       I    between atoms: N4_21  and  C11_23 
REMARK       I    between atoms: C11_23  and  N5_25 
REMARK   11  A    between atoms: N5_25  and  C12_27 
ROOT
HETATM    1  C8  UNL     1      11.065  37.790  78.562  1.00  0.00     0.062 A 
HETATM    2  C9  UNL     1      11.140  38.009  79.753  1.00  0.00     0.116 A 
HETATM    3  N3  UNL     1      10.262  37.838  80.727  1.00  0.00    -0.345 N 
ATOM      4  H3  UNL     1      10.405  38.067  81.711  1.00  0.00     0.167 HD
HETATM    5  C10 UNL     1       9.060  37.265  80.147  1.00  0.00     0.153 A 
HETATM    6  S3  UNL     1       9.397  37.122  78.497  1.00  0.00    -0.045 SA
ENDROOT
BRANCH   5   7
HETATM    7  N4  UNL     1       8.116  37.076  80.977  1.00  0.00    -0.288 N 
HETATM    8  C11 UNL     1       8.202  35.778  81.728  1.00  0.00     0.328 C 
HETATM    9  O3  UNL     1       9.301  35.308  81.778  1.00  0.00    -0.247 OA
HETATM   10  N5  UNL     1       7.014  35.310  82.260  1.00  0.00    -0.288 N 
ATOM     11  H5  UNL     1       7.133  34.380  82.662  1.00  0.00     0.172 HD
ATOM     12  H4  UNL     1       7.362  37.749  81.121  1.00  0.00     0.172 HD
BRANCH  10  13
HETATM   13  C12 UNL     1       5.827  35.711  82.389  1.00  0.00     0.153 A 
HETATM   14  N6  UNL     1       5.273  36.659  81.475  1.00  0.00    -0.335 N 
HETATM   15  C13 UNL     1       4.058  37.058  81.865  1.00  0.00     0.052 A 
ATOM     16  H6  UNL     1       5.744  36.990  80.633  1.00  0.00     0.168 HD
HETATM   17  C14 UNL     1       3.361  38.083  81.096  1.00  0.00     0.031 A 
HETATM   18  C18 UNL     1       3.418  36.670  82.938  1.00  0.00     0.052 A 
HETATM   19  C15 UNL     1       2.183  38.606  81.419  1.00  0.00     0.004 A 
HETATM   20  C16 UNL     1       1.505  38.160  82.594  1.00  0.00     0.020 A 
HETATM   21  C17 UNL     1       2.205  37.206  83.278  1.00  0.00     0.030 A 
HETATM   22 BR1  UNL     1       1.434  36.429  84.888  1.00  0.00    -0.050 Br
HETATM   23  S2  UNL     1       4.601  35.556  83.571  1.00  0.00    -0.050 SA
ENDBRANCH  10  13
ENDBRANCH   5   7
BRANCH   1  24
HETATM   24  S1  UNL     1      12.220  37.978  77.232  1.00  0.00    -0.088 SA
BRANCH  24  25
HETATM   25  C7  UNL     1      13.849  38.231  77.590  1.00  0.00     0.250 C 
BRANCH  25  26
HETATM   26  C6  UNL     1      14.519  37.684  78.869  1.00  0.00     0.046 C 
BRANCH  26  27
HETATM   27  C5  UNL     1      14.968  38.884  79.549  1.00  0.00     0.036 C 
BRANCH  27  28
HETATM   28  C4  UNL     1      14.265  40.163  79.581  1.00  0.00     0.224 C 
BRANCH  28  29
HETATM   29  N1  UNL     1      14.902  40.891  80.675  1.00  0.00    -0.391 NA
HETATM   30  C3  UNL     1      15.476  41.543  81.643  1.00  0.00     0.434 C 
HETATM   31  O2  UNL     1      16.485  42.237  81.854  1.00  0.00    -0.221 OA
BRANCH  30  32
HETATM   32  O1  UNL     1      14.743  41.379  82.935  1.00  0.00    -0.293 OA
BRANCH  32  33
HETATM   33  C2  UNL     1      13.593  42.235  83.049  1.00  0.00     0.177 C 
HETATM   34  C1  UNL     1      12.363  41.504  83.397  1.00  0.00     0.034 C 
ENDBRANCH  32  33
ENDBRANCH  30  32
ENDBRANCH  28  29
ENDBRANCH  27  28
ENDBRANCH  26  27
ENDBRANCH  25  26
BRANCH  25  35
HETATM   35  N2  UNL     1      14.778  38.154  76.506  1.00  0.00    -0.066 N 
ATOM     36  H23 UNL     1      15.275  37.263  76.483  1.00  0.00     0.275 HD
ATOM     37  H22 UNL     1      14.313  38.081  75.601  1.00  0.00     0.275 HD
ATOM     38  H21 UNL     1      15.412  38.951  76.553  1.00  0.00     0.275 HD
ENDBRANCH  25  35
ENDBRANCH  24  25
ENDBRANCH   1  24
TORSDOF 11
ENDMDL
MODEL 2
REMARK VINA RESULT: -7.544756019      2.682      3.865
REMARK  11 active torsions:
REMARK  status: ('A' for Active; 'I' for Inactive)
REMARK    1  A    between atoms: C2_2  and  O1_3 
REMARK    2  A    between atoms: O1_3  and  C3_4 
REMARK       I    between atoms: C3_4  and  N1_6 
REMARK    3  A    between atoms: N1_6  and  C4_7 
REMARK    4  A    between atoms: C4_7  and  C5_8 
REMARK    5  A    between atoms: C5_8  and  C6_9 
REMARK    6  A    between atoms: C6_9  and  C7_10 
REMARK    7  A    between atoms: C7_10  and  N2_11 
REMARK    8  A    between atoms: C7_10  and  S1_15 
REMARK    9  A    between atoms: S1_15  and  C8_16 
REMARK   10  A    between atoms: C10_20  and  N4_21 
REMARK       I    between atoms: N4_21  and  C11_23 
REMARK       I    between atoms: C11_23  and  N5_25 
REMARK   11  A    between atoms: N5_25  and  C12_27 
ROOT
HETATM    1  C8  UNL     1      13.651  39.170  79.202  1.00  0.00     0.062 A 
HETATM    2  C9  UNL     1      12.661  39.755  79.590  1.00  0.00     0.116 A 
HETATM    3  N3  UNL     1      11.441  39.322  79.858  1.00  0.00    -0.345 N 
ATOM      4  H3  UNL     1      10.655  39.894  80.169  1.00  0.00     0.167 HD
HETATM    5  C10 UNL     1      11.419  37.886  79.633  1.00  0.00     0.153 A 
HETATM    6  S3  UNL     1      12.983  37.502  79.122  1.00  0.00    -0.045 SA
ENDROOT
BRANCH   5   7
HETATM    7  N4  UNL     1      10.287  37.342  79.827  1.00  0.00    -0.288 N 
HETATM    8  C11 UNL     1       9.266  37.643  78.768  1.00  0.00     0.328 C 
HETATM    9  O3  UNL     1       9.727  37.974  77.716  1.00  0.00    -0.247 OA
HETATM   10  N5  UNL     1       7.943  37.493  79.146  1.00  0.00    -0.288 N 
ATOM     11  H5  UNL     1       7.312  37.815  78.412  1.00  0.00     0.172 HD
ATOM     12  H4  UNL     1      10.089  36.750  80.633  1.00  0.00     0.172 HD
BRANCH  10  13
HETATM   13  C12 UNL     1       7.300  37.070  80.143  1.00  0.00     0.153 A 
HETATM   14  N6  UNL     1       7.976  36.454  81.241  1.00  0.00    -0.335 N 
HETATM   15  C13 UNL     1       7.110  35.952  82.126  1.00  0.00     0.052 A 
ATOM     16  H6  UNL     1       8.991  36.404  81.338  1.00  0.00     0.168 HD
HETATM   17  C14 UNL     1       7.613  35.216  83.281  1.00  0.00     0.031 A 
HETATM   18  C18 UNL     1       5.804  35.983  82.042  1.00  0.00     0.052 A 
HETATM   19  C15 UNL     1       6.852  34.617  84.191  1.00  0.00     0.004 A 
HETATM   20  C16 UNL     1       5.429  34.672  84.076  1.00  0.00     0.020 A 
HETATM   21  C17 UNL     1       5.014  35.365  82.974  1.00  0.00     0.030 A 
HETATM   22 BR1  UNL     1       3.107  35.598  82.657  1.00  0.00    -0.050 Br
HETATM   23  S2  UNL     1       5.650  36.845  80.533  1.00  0.00    -0.050 SA
ENDBRANCH  10  13
ENDBRANCH   5   7
BRANCH   1  24
HETATM   24  S1  UNL     1      15.304  39.704  78.858  1.00  0.00    -0.088 SA
BRANCH  24  25
HETATM   25  C7  UNL     1      15.954  40.982  79.746  1.00  0.00     0.250 C 
BRANCH  25  26
HETATM   26  C6  UNL     1      15.097  41.892  80.652  1.00  0.00     0.046 C 
BRANCH  26  27
HETATM   27  C5  UNL     1      15.930  42.069  81.828  1.00  0.00     0.036 C 
BRANCH  27  28
HETATM   28  C4  UNL     1      15.490  42.595  83.116  1.00  0.00     0.224 C 
BRANCH  28  29
HETATM   29  N1  UNL     1      14.226  41.909  83.368  1.00  0.00    -0.391 NA
HETATM   30  C3  UNL     1      13.097  41.302  83.584  1.00  0.00     0.434 C 
HETATM   31  O2  UNL     1      11.974  41.171  83.068  1.00  0.00    -0.221 OA
BRANCH  30  32
HETATM   32  O1  UNL     1      13.102  40.563  84.885  1.00  0.00    -0.293 OA
BRANCH  32  33
HETATM   33  C2  UNL     1      14.396  40.052  85.243  1.00  0.00     0.177 C 
HETATM   34  C1  UNL     1      14.482  39.636  86.653  1.00  0.00     0.034 C 
ENDBRANCH  32  33
ENDBRANCH  30  32
ENDBRANCH  28  29
ENDBRANCH  27  28
ENDBRANCH  26  27
ENDBRANCH  25  26
BRANCH  25  35
HETATM   35  N2  UNL     1      17.226  40.771  80.364  1.00  0.00    -0.066 N 
ATOM     36  H23 UNL     1      17.598  39.839  80.178  1.00  0.00     0.275 HD
ATOM     37  H22 UNL     1      17.968  41.312  79.920  1.00  0.00     0.275 HD
ATOM     38  H21 UNL     1      17.149  40.966  81.362  1.00  0.00     0.275 HD
ENDBRANCH  25  35
ENDBRANCH  24  25
ENDBRANCH   1  24
TORSDOF 11
ENDMDL
MODEL 3
REMARK VINA RESULT: -7.475707161      1.622      1.923
REMARK  11 active torsions:
REMARK  status: ('A' for Active; 'I' for Inactive)
REMARK    1  A    between atoms: C2_2  and  O1_3 
REMARK    2  A    between atoms: O1_3  and  C3_4 
REMARK       I    between atoms: C3_4  and  N1_6 
REMARK    3  A    between atoms: N1_6  and  C4_7 
REMARK    4  A    between atoms: C4_7  and  C5_8 
REMARK    5  A    between atoms: C5_8  and  C6_9 
REMARK    6  A    between atoms: C6_9  and  C7_10 
REMARK    7  A    between atoms: C7_10  and  N2_11 
REMARK    8  A    between atoms: C7_10  and  S1_15 
REMARK    9  A    between atoms: S1_15  and  C8_16 
REMARK   10  A    between atoms: C10_20  and  N4_21 
REMARK       I    between atoms: N4_21  and  C11_23 
REMARK       I    between atoms: C11_23  and  N5_25 
REMARK   11  A    between atoms: N5_25  and  C12_27 
ROOT
HETATM    1  C8  UNL     1      11.175  38.057  79.509  1.00  0.00     0.062 A 
HETATM    2  C9  UNL     1      11.092  37.789  80.690  1.00  0.00     0.116 A 
HETATM    3  N3  UNL     1      10.062  37.414  81.428  1.00  0.00    -0.345 N 
ATOM      4  H3  UNL     1      10.079  37.222  82.430  1.00  0.00     0.167 HD
HETATM    5  C10 UNL     1       8.901  37.323  80.559  1.00  0.00     0.153 A 
HETATM    6  S3  UNL     1       9.467  37.765  79.030  1.00  0.00    -0.045 SA
ENDROOT
BRANCH   5   7
HETATM    7  N4  UNL     1       7.825  36.999  81.153  1.00  0.00    -0.288 N 
HETATM    8  C11 UNL     1       7.406  35.573  80.938  1.00  0.00     0.328 C 
HETATM    9  O3  UNL     1       8.294  34.838  80.620  1.00  0.00    -0.247 OA
HETATM   10  N5  UNL     1       6.064  35.302  81.142  1.00  0.00    -0.288 N 
ATOM     11  H5  UNL     1       5.838  34.343  80.877  1.00  0.00     0.172 HD
ATOM     12  H4  UNL     1       7.291  37.651  81.728  1.00  0.00     0.172 HD
BRANCH  10  13
HETATM   13  C12 UNL     1       5.043  35.908  81.564  1.00  0.00     0.153 A 
HETATM   14  N6  UNL     1       4.532  37.048  80.871  1.00  0.00    -0.335 N 
HETATM   15  C13 UNL     1       3.538  37.626  81.551  1.00  0.00     0.052 A 
ATOM     16  H6  UNL     1       4.881  37.379  79.970  1.00  0.00     0.168 HD
HETATM   17  C14 UNL     1       2.937  38.852  81.037  1.00  0.00     0.031 A 
HETATM   18  C18 UNL     1       3.063  37.246  82.710  1.00  0.00     0.052 A 
HETATM   19  C15 UNL     1       1.991  39.552  81.654  1.00  0.00     0.004 A 
HETATM   20  C16 UNL     1       1.488  39.110  82.916  1.00  0.00     0.020 A 
HETATM   21  C17 UNL     1       2.090  37.963  83.353  1.00  0.00     0.030 A 
HETATM   22 BR1  UNL     1       1.515  37.165  85.033  1.00  0.00    -0.050 Br
HETATM   23  S2  UNL     1       4.081  35.855  82.977  1.00  0.00    -0.050 SA
ENDBRANCH  10  13
ENDBRANCH   5   7
BRANCH   1  24
HETATM   24  S1  UNL     1      12.534  38.535  78.479  1.00  0.00    -0.088 SA
BRANCH  24  25
HETATM   25  C7  UNL     1      13.726  39.546  79.111  1.00  0.00     0.250 C 
BRANCH  25  26
HETATM   26  C6  UNL     1      13.404  40.755  80.015  1.00  0.00     0.046 C 
BRANCH  26  27
HETATM   27  C5  UNL     1      14.678  41.046  80.648  1.00  0.00     0.036 C 
BRANCH  27  28
HETATM   28  C4  UNL     1      15.024  42.279  81.347  1.00  0.00     0.224 C 
BRANCH  28  29
HETATM   29  N1  UNL     1      15.391  41.836  82.689  1.00  0.00    -0.391 NA
HETATM   30  C3  UNL     1      15.727  41.446  83.883  1.00  0.00     0.434 C 
HETATM   31  O2  UNL     1      16.675  41.538  84.682  1.00  0.00    -0.221 OA
BRANCH  30  32
HETATM   32  O1  UNL     1      14.688  40.561  84.492  1.00  0.00    -0.293 OA
BRANCH  32  33
HETATM   33  C2  UNL     1      15.177  39.792  85.604  1.00  0.00     0.177 C 
HETATM   34  C1  UNL     1      14.227  39.736  86.728  1.00  0.00     0.034 C 
ENDBRANCH  32  33
ENDBRANCH  30  32
ENDBRANCH  28  29
ENDBRANCH  27  28
ENDBRANCH  26  27
ENDBRANCH  25  26
BRANCH  25  35
HETATM   35  N2  UNL     1      14.934  38.930  79.567  1.00  0.00    -0.066 N 
ATOM     36  H23 UNL     1      15.764  39.335  79.133  1.00  0.00     0.275 HD
ATOM     37  H22 UNL     1      15.149  39.167  80.535  1.00  0.00     0.275 HD
ATOM     38  H21 UNL     1      14.871  37.923  79.419  1.00  0.00     0.275 HD
ENDBRANCH  25  35
ENDBRANCH  24  25
ENDBRANCH   1  24
TORSDOF 11
ENDMDL
MODEL 4
REMARK VINA RESULT: -7.352536508      6.774     11.874
REMARK  11 active torsions:
REMARK  status: ('A' for Active; 'I' for Inactive)
REMARK    1  A    between atoms: C2_2  and  O1_3 
REMARK    2  A    between atoms: O1_3  and  C3_4 
REMARK       I    between atoms: C3_4  and  N1_6 
REMARK    3  A    between atoms: N1_6  and  C4_7 
REMARK    4  A    between atoms: C4_7  and  C5_8 
REMARK    5  A    between atoms: C5_8  and  C6_9 
REMARK    6  A    between atoms: C6_9  and  C7_10 
REMARK    7  A    between atoms: C7_10  and  N2_11 
REMARK    8  A    between atoms: C7_10  and  S1_15 
REMARK    9  A    between atoms: S1_15  and  C8_16 
REMARK   10  A    between atoms: C10_20  and  N4_21 
REMARK       I    between atoms: N4_21  and  C11_23 
REMARK       I    between atoms: C11_23  and  N5_25 
REMARK   11  A    between atoms: N5_25  and  C12_27 
ROOT
HETATM    1  C8  UNL     1      12.628  37.360  77.029  1.00  0.00     0.062 A 
HETATM    2  C9  UNL     1      12.767  36.251  76.557  1.00  0.00     0.116 A 
HETATM    3  N3  UNL     1      13.758  35.716  75.865  1.00  0.00    -0.345 N 
ATOM      4  H3  UNL     1      13.784  34.767  75.489  1.00  0.00     0.167 HD
HETATM    5  C10 UNL     1      14.802  36.718  75.735  1.00  0.00     0.153 A 
HETATM    6  S3  UNL     1      14.201  38.079  76.535  1.00  0.00    -0.045 SA
ENDROOT
BRANCH   5   7
HETATM    7  N4  UNL     1      15.810  36.341  75.059  1.00  0.00    -0.288 N 
HETATM    8  C11 UNL     1      15.521  36.086  73.607  1.00  0.00     0.328 C 
HETATM    9  O3  UNL     1      14.552  36.648  73.189  1.00  0.00    -0.247 OA
HETATM   10  N5  UNL     1      16.409  35.250  72.954  1.00  0.00    -0.288 N 
ATOM     11  H5  UNL     1      16.091  35.043  72.007  1.00  0.00     0.172 HD
ATOM     12  H4  UNL     1      16.737  36.221  75.467  1.00  0.00     0.172 HD
BRANCH  10  13
HETATM   13  C12 UNL     1      17.502  34.673  73.201  1.00  0.00     0.153 A 
HETATM   14  N6  UNL     1      17.578  33.247  73.264  1.00  0.00    -0.335 N 
HETATM   15  C13 UNL     1      18.783  32.842  73.674  1.00  0.00     0.052 A 
ATOM     16  H6  UNL     1      16.810  32.619  73.026  1.00  0.00     0.168 HD
HETATM   17  C14 UNL     1      19.029  31.418  73.873  1.00  0.00     0.031 A 
HETATM   18  C18 UNL     1      19.794  33.607  73.998  1.00  0.00     0.052 A 
HETATM   19  C15 UNL     1      20.161  30.900  74.338  1.00  0.00     0.004 A 
HETATM   20  C16 UNL     1      21.250  31.759  74.678  1.00  0.00     0.020 A 
HETATM   21  C17 UNL     1      20.962  33.081  74.480  1.00  0.00     0.030 A 
HETATM   22 BR1  UNL     1      22.330  34.419  74.839  1.00  0.00    -0.050 Br
HETATM   23  S2  UNL     1      19.062  35.163  73.702  1.00  0.00    -0.050 SA
ENDBRANCH  10  13
ENDBRANCH   5   7
BRANCH   1  24
HETATM   24  S1  UNL     1      11.336  38.107  77.982  1.00  0.00    -0.088 SA
BRANCH  24  25
HETATM   25  C7  UNL     1      11.671  38.632  79.549  1.00  0.00     0.250 C 
BRANCH  25  26
HETATM   26  C6  UNL     1      12.206  40.045  79.861  1.00  0.00     0.046 C 
BRANCH  26  27
HETATM   27  C5  UNL     1      13.632  39.922  79.620  1.00  0.00     0.036 C 
BRANCH  27  28
HETATM   28  C4  UNL     1      14.514  40.983  79.145  1.00  0.00     0.224 C 
BRANCH  28  29
HETATM   29  N1  UNL     1      15.063  41.564  80.367  1.00  0.00    -0.391 NA
HETATM   30  C3  UNL     1      15.560  42.078  81.452  1.00  0.00     0.434 C 
HETATM   31  O2  UNL     1      16.657  42.226  82.018  1.00  0.00    -0.221 OA
BRANCH  30  32
HETATM   32  O1  UNL     1      14.495  42.624  82.348  1.00  0.00    -0.293 OA
BRANCH  32  33
HETATM   33  C2  UNL     1      13.878  41.623  83.174  1.00  0.00     0.177 C 
HETATM   34  C1  UNL     1      12.418  41.780  83.278  1.00  0.00     0.034 C 
ENDBRANCH  32  33
ENDBRANCH  30  32
ENDBRANCH  28  29
ENDBRANCH  27  28
ENDBRANCH  26  27
ENDBRANCH  25  26
BRANCH  25  35
HETATM   35  N2  UNL     1      10.762  38.237  80.581  1.00  0.00    -0.066 N 
ATOM     36  H23 UNL     1      10.531  37.245  80.536  1.00  0.00     0.275 HD
ATOM     37  H22 UNL     1      11.198  38.242  81.503  1.00  0.00     0.275 HD
ATOM     38  H21 UNL     1       9.934  38.831  80.541  1.00  0.00     0.275 HD
ENDBRANCH  25  35
ENDBRANCH  24  25
ENDBRANCH   1  24
TORSDOF 11
ENDMDL
MODEL 5
REMARK VINA RESULT: -7.292389563      3.500      4.391
REMARK  11 active torsions:
REMARK  status: ('A' for Active; 'I' for Inactive)
REMARK    1  A    between atoms: C2_2  and  O1_3 
REMARK    2  A    between atoms: O1_3  and  C3_4 
REMARK       I    between atoms: C3_4  and  N1_6 
REMARK    3  A    between atoms: N1_6  and  C4_7 
REMARK    4  A    between atoms: C4_7  and  C5_8 
REMARK    5  A    between atoms: C5_8  and  C6_9 
REMARK    6  A    between atoms: C6_9  and  C7_10 
REMARK    7  A    between atoms: C7_10  and  N2_11 
REMARK    8  A    between atoms: C7_10  and  S1_15 
REMARK    9  A    between atoms: S1_15  and  C8_16 
REMARK   10  A    between atoms: C10_20  and  N4_21 
REMARK       I    between atoms: N4_21  and  C11_23 
REMARK       I    between atoms: C11_23  and  N5_25 
REMARK   11  A    between atoms: N5_25  and  C12_27 
ROOT
HETATM    1  C8  UNL     1      13.409  38.975  79.210  1.00  0.00     0.062 A 
HETATM    2  C9  UNL     1      12.474  39.665  79.562  1.00  0.00     0.116 A 
HETATM    3  N3  UNL     1      11.213  39.360  79.814  1.00  0.00    -0.345 N 
ATOM      4  H3  UNL     1      10.480  40.014  80.092  1.00  0.00     0.167 HD
HETATM    5  C10 UNL     1      11.054  37.928  79.624  1.00  0.00     0.153 A 
HETATM    6  S3  UNL     1      12.583  37.379  79.157  1.00  0.00    -0.045 SA
ENDROOT
BRANCH   5   7
HETATM    7  N4  UNL     1       9.871  37.502  79.806  1.00  0.00    -0.288 N 
HETATM    8  C11 UNL     1       9.516  37.255  81.244  1.00  0.00     0.328 C 
HETATM    9  O3  UNL     1      10.185  37.859  82.029  1.00  0.00    -0.247 OA
HETATM   10  N5  UNL     1       8.471  36.376  81.465  1.00  0.00    -0.288 N 
ATOM     11  H5  UNL     1       8.359  36.179  82.459  1.00  0.00     0.172 HD
ATOM     12  H4  UNL     1       9.216  37.342  79.040  1.00  0.00     0.172 HD
BRANCH  10  13
HETATM   13  C12 UNL     1       7.618  35.750  80.780  1.00  0.00     0.153 A 
HETATM   14  N6  UNL     1       7.713  34.334  80.610  1.00  0.00    -0.335 N 
HETATM   15  C13 UNL     1       6.801  33.887  79.742  1.00  0.00     0.052 A 
ATOM     16  H6  UNL     1       8.391  33.741  81.090  1.00  0.00     0.168 HD
HETATM   17  C14 UNL     1       6.791  32.473  79.381  1.00  0.00     0.031 A 
HETATM   18  C18 UNL     1       5.920  34.607  79.097  1.00  0.00     0.052 A 
HETATM   19  C15 UNL     1       5.979  31.923  78.484  1.00  0.00     0.004 A 
HETATM   20  C16 UNL     1       5.023  32.733  77.799  1.00  0.00     0.020 A 
HETATM   21  C17 UNL     1       5.082  34.047  78.170  1.00  0.00     0.030 A 
HETATM   22 BR1  UNL     1       3.829  35.315  77.387  1.00  0.00    -0.050 Br
HETATM   23  S2  UNL     1       6.326  36.175  79.743  1.00  0.00    -0.050 SA
ENDBRANCH  10  13
ENDBRANCH   5   7
BRANCH   1  24
HETATM   24  S1  UNL     1      15.113  39.337  78.889  1.00  0.00    -0.088 SA
BRANCH  24  25
HETATM   25  C7  UNL     1      15.798  40.723  79.563  1.00  0.00     0.250 C 
BRANCH  25  26
HETATM   26  C6  UNL     1      14.984  41.741  80.390  1.00  0.00     0.046 C 
BRANCH  26  27
HETATM   27  C5  UNL     1      15.820  41.966  81.556  1.00  0.00     0.036 C 
BRANCH  27  28
HETATM   28  C4  UNL     1      15.415  42.651  82.779  1.00  0.00     0.224 C 
BRANCH  28  29
HETATM   29  N1  UNL     1      14.180  41.979  83.171  1.00  0.00    -0.391 NA
HETATM   30  C3  UNL     1      13.075  41.384  83.512  1.00  0.00     0.434 C 
HETATM   31  O2  UNL     1      11.928  41.186  83.077  1.00  0.00    -0.221 OA
BRANCH  30  32
HETATM   32  O1  UNL     1      13.165  40.785  84.879  1.00  0.00    -0.293 OA
BRANCH  32  33
HETATM   33  C2  UNL     1      14.419  40.129  85.131  1.00  0.00     0.177 C 
HETATM   34  C1  UNL     1      14.526  39.594  86.499  1.00  0.00     0.034 C 
ENDBRANCH  32  33
ENDBRANCH  30  32
ENDBRANCH  28  29
ENDBRANCH  27  28
ENDBRANCH  26  27
ENDBRANCH  25  26
BRANCH  25  35
HETATM   35  N2  UNL     1      17.106  40.599  80.129  1.00  0.00    -0.066 N 
ATOM     36  H23 UNL     1      17.302  41.327  80.816  1.00  0.00     0.275 HD
ATOM     37  H22 UNL     1      17.185  39.792  80.748  1.00  0.00     0.275 HD
ATOM     38  H21 UNL     1      17.794  40.579  79.377  1.00  0.00     0.275 HD
ENDBRANCH  25  35
ENDBRANCH  24  25
ENDBRANCH   1  24
TORSDOF 11
ENDMDL
