MODEL 1
REMARK VINA RESULT: -9.057527374      0.000      0.000
REMARK  9 active torsions:
REMARK  status: ('A' for Active; 'I' for Inactive)
REMARK    1  A    between atoms: O1_2  and  C2_3 
REMARK    2  A    between atoms: C4_5  and  C5_6 
REMARK    3  A    between atoms: C5_6  and  C6_7 
REMARK    4  A    between atoms: C6_7  and  N1_8 
REMARK       I    between atoms: N1_8  and  C7_10 
REMARK    5  A    between atoms: C7_10  and  C8_12 
REMARK    6  A    between atoms: C12_18  and  N3_19 
REMARK    7  A    between atoms: N3_19  and  C13_21 
REMARK    8  A    between atoms: N5_30  and  C19_31 
REMARK    9  A    between atoms: C30_44  and  O4_45 
ROOT
HETATM    1  C8  UNL     1      13.524  37.472  75.209  1.00  0.00     0.101 A 
HETATM    2  C9  UNL     1      14.666  37.356  74.455  1.00  0.00     0.037 A 
HETATM    3  C10 UNL     1      14.626  37.433  73.084  1.00  0.00     0.008 A 
HETATM    4  C11 UNL     1      15.753  37.327  72.309  1.00  0.00     0.103 A 
HETATM    5  N2  UNL     1      15.729  37.404  70.969  1.00  0.00    -0.352 N 
ATOM      6  H2  UNL     1      16.588  37.320  70.426  1.00  0.00     0.166 HD
HETATM    7  C12 UNL     1      14.549  37.595  70.360  1.00  0.00     0.103 A 
HETATM    8  C17 UNL     1      13.348  37.714  71.066  1.00  0.00     0.079 A 
HETATM    9  C18 UNL     1      13.390  37.632  72.435  1.00  0.00     0.057 A 
HETATM   10  N5  UNL     1      12.246  37.747  73.178  1.00  0.00    -0.285 N 
HETATM   11  C27 UNL     1      12.344  37.665  74.522  1.00  0.00     0.268 A 
HETATM   12  O3  UNL     1      11.313  37.771  75.191  1.00  0.00    -0.267 OA
ENDROOT
BRANCH   1  13
HETATM   13  C7  UNL     1      13.533  37.396  76.668  1.00  0.00     0.257 C 
HETATM   14  N1  UNL     1      12.876  38.382  77.432  1.00  0.00    -0.356 N 
ATOM     15  H1  UNL     1      12.395  39.150  76.963  1.00  0.00     0.162 HD
HETATM   16  O2  UNL     1      14.119  36.460  77.262  1.00  0.00    -0.267 OA
BRANCH  14  17
HETATM   17  C6  UNL     1      12.880  38.310  78.872  1.00  0.00     0.127 C 
BRANCH  17  18
HETATM   18  C5  UNL     1      12.281  39.552  79.489  1.00  0.00     0.058 C 
BRANCH  18  19
HETATM   19  C4  UNL     1      13.349  40.339  80.138  1.00  0.00    -0.051 A 
HETATM   20  C3  UNL     1      13.108  41.122  81.257  1.00  0.00     0.047 A 
HETATM   21  C2  UNL     1      14.094  41.857  81.867  1.00  0.00     0.104 A 
HETATM   22  C30 UNL     1      15.365  41.808  81.337  1.00  0.00     0.138 A 
HETATM   23  C29 UNL     1      15.629  41.037  80.225  1.00  0.00     0.152 A 
HETATM   24  C28 UNL     1      14.634  40.293  79.607  1.00  0.00     0.052 A 
HETATM   25  F1  UNL     1      16.889  41.004  79.720  1.00  0.00    -0.203 F 
BRANCH  21  26
HETATM   26  O1  UNL     1      13.796  42.615  82.973  1.00  0.00    -0.353 OA
HETATM   27  C1  UNL     1      12.605  42.533  83.693  1.00  0.00     0.210 C 
ENDBRANCH  21  26
BRANCH  22  28
HETATM   28  O4  UNL     1      16.404  42.530  81.907  1.00  0.00    -0.355 OA
ATOM     29  H4  UNL     1      17.220  42.664  81.440  1.00  0.00     0.218 HD
ENDBRANCH  22  28
ENDBRANCH  18  19
ENDBRANCH  17  18
ENDBRANCH  14  17
ENDBRANCH   1  13
BRANCH  10  30
HETATM   30  C19 UNL     1      10.990  37.937  72.538  1.00  0.00    -0.002 C 
HETATM   31  C20 UNL     1       9.890  36.976  72.892  1.00  0.00     0.053 C 
HETATM   32  C21 UNL     1       8.912  36.882  71.727  1.00  0.00     0.006 C 
HETATM   33  C22 UNL     1       7.627  37.587  72.071  1.00  0.00     0.000 C 
HETATM   34  C23 UNL     1       7.722  39.090  72.044  1.00  0.00     0.000 C 
HETATM   35  C24 UNL     1       8.185  39.598  73.366  1.00  0.00     0.000 C 
HETATM   36  C25 UNL     1       9.633  39.859  73.519  1.00  0.00     0.006 C 
HETATM   37  C26 UNL     1      10.564  39.369  72.496  1.00  0.00     0.053 C 
ENDBRANCH  10  30
BRANCH   7  38
HETATM   38  N3  UNL     1      14.459  37.679  69.085  1.00  0.00    -0.370 N 
ATOM     39  H3  UNL     1      14.616  36.823  68.553  1.00  0.00     0.161 HD
BRANCH  38  40
HETATM   40  C13 UNL     1      14.159  38.859  68.339  1.00  0.00     0.110 C 
HETATM   41  C14 UNL     1      12.763  38.873  67.770  1.00  0.00     0.054 C 
HETATM   42  C15 UNL     1      12.927  39.606  66.466  1.00  0.00     0.234 C 
HETATM   43  N4  UNL     1      14.327  39.741  66.217  1.00  0.00    -0.073 N 
HETATM   44  C16 UNL     1      15.009  38.815  67.067  1.00  0.00     0.257 C 
ATOM     45  H42 UNL     1      14.568  39.627  65.233  1.00  0.00     0.277 HD
ATOM     46  H41 UNL     1      14.659  40.698  66.327  1.00  0.00     0.277 HD
ENDBRANCH  38  40
ENDBRANCH   7  38
TORSDOF 9
ENDMDL
MODEL 2
REMARK VINA RESULT: -8.874533659      1.371      1.964
REMARK  9 active torsions:
REMARK  status: ('A' for Active; 'I' for Inactive)
REMARK    1  A    between atoms: O1_2  and  C2_3 
REMARK    2  A    between atoms: C4_5  and  C5_6 
REMARK    3  A    between atoms: C5_6  and  C6_7 
REMARK    4  A    between atoms: C6_7  and  N1_8 
REMARK       I    between atoms: N1_8  and  C7_10 
REMARK    5  A    between atoms: C7_10  and  C8_12 
REMARK    6  A    between atoms: C12_18  and  N3_19 
REMARK    7  A    between atoms: N3_19  and  C13_21 
REMARK    8  A    between atoms: N5_30  and  C19_31 
REMARK    9  A    between atoms: C30_44  and  O4_45 
ROOT
HETATM    1  C8  UNL     1      13.386  37.457  75.999  1.00  0.00     0.101 A 
HETATM    2  C9  UNL     1      14.544  37.129  75.338  1.00  0.00     0.037 A 
HETATM    3  C10 UNL     1      14.577  37.026  73.967  1.00  0.00     0.008 A 
HETATM    4  C11 UNL     1      15.723  36.706  73.283  1.00  0.00     0.103 A 
HETATM    5  N2  UNL     1      15.770  36.607  71.945  1.00  0.00    -0.352 N 
ATOM      6  H2  UNL     1      16.641  36.365  71.470  1.00  0.00     0.166 HD
HETATM    7  C12 UNL     1      14.648  36.832  71.246  1.00  0.00     0.103 A 
HETATM    8  C17 UNL     1      13.435  37.164  71.856  1.00  0.00     0.079 A 
HETATM    9  C18 UNL     1      13.403  37.260  73.224  1.00  0.00     0.057 A 
HETATM   10  N5  UNL     1      12.244  37.587  73.875  1.00  0.00    -0.285 N 
HETATM   11  C27 UNL     1      12.268  37.675  75.222  1.00  0.00     0.268 A 
HETATM   12  O3  UNL     1      11.224  37.971  75.808  1.00  0.00    -0.267 OA
ENDROOT
BRANCH   1  13
HETATM   13  C7  UNL     1      13.318  37.575  77.454  1.00  0.00     0.257 C 
HETATM   14  N1  UNL     1      12.744  38.719  78.044  1.00  0.00    -0.356 N 
ATOM     15  H1  UNL     1      12.377  39.465  77.454  1.00  0.00     0.162 HD
HETATM   16  O2  UNL     1      13.764  36.668  78.197  1.00  0.00    -0.267 OA
BRANCH  14  17
HETATM   17  C6  UNL     1      12.672  38.839  79.480  1.00  0.00     0.127 C 
BRANCH  17  18
HETATM   18  C5  UNL     1      12.102  40.175  79.894  1.00  0.00     0.058 C 
BRANCH  18  19
HETATM   19  C4  UNL     1      13.064  40.865  80.777  1.00  0.00    -0.051 A 
HETATM   20  C3  UNL     1      14.423  40.894  80.501  1.00  0.00     0.047 A 
HETATM   21  C2  UNL     1      15.325  41.532  81.316  1.00  0.00     0.104 A 
HETATM   22  C30 UNL     1      14.851  42.160  82.448  1.00  0.00     0.138 A 
HETATM   23  C29 UNL     1      13.504  42.144  82.743  1.00  0.00     0.152 A 
HETATM   24  C28 UNL     1      12.591  41.500  81.920  1.00  0.00     0.052 A 
HETATM   25  F1  UNL     1      13.060  42.770  83.862  1.00  0.00    -0.203 F 
BRANCH  21  26
HETATM   26  O1  UNL     1      16.660  41.527  80.992  1.00  0.00    -0.353 OA
HETATM   27  C1  UNL     1      17.236  40.718  80.014  1.00  0.00     0.210 C 
ENDBRANCH  21  26
BRANCH  22  28
HETATM   28  O4  UNL     1      15.714  42.820  83.311  1.00  0.00    -0.355 OA
ATOM     29  H4  UNL     1      16.654  42.697  83.251  1.00  0.00     0.218 HD
ENDBRANCH  22  28
ENDBRANCH  18  19
ENDBRANCH  17  18
ENDBRANCH  14  17
ENDBRANCH   1  13
BRANCH  10  30
HETATM   30  C19 UNL     1      11.046  37.814  73.141  1.00  0.00    -0.002 C 
HETATM   31  C20 UNL     1       9.844  36.998  73.524  1.00  0.00     0.053 C 
HETATM   32  C21 UNL     1       8.925  36.864  72.316  1.00  0.00     0.006 C 
HETATM   33  C22 UNL     1       7.696  37.712  72.501  1.00  0.00     0.000 C 
HETATM   34  C23 UNL     1       7.933  39.189  72.323  1.00  0.00     0.000 C 
HETATM   35  C24 UNL     1       8.370  39.796  73.611  1.00  0.00     0.000 C 
HETATM   36  C25 UNL     1       9.826  39.945  73.828  1.00  0.00     0.006 C 
HETATM   37  C26 UNL     1      10.761  39.265  72.922  1.00  0.00     0.053 C 
ENDBRANCH  10  30
BRANCH   7  38
HETATM   38  N3  UNL     1      14.628  36.754  69.968  1.00  0.00    -0.370 N 
ATOM     39  H3  UNL     1      14.236  35.905  69.562  1.00  0.00     0.161 HD
BRANCH  38  40
HETATM   40  C13 UNL     1      15.104  37.747  69.057  1.00  0.00     0.110 C 
HETATM   41  C14 UNL     1      14.002  38.488  68.346  1.00  0.00     0.054 C 
HETATM   42  C15 UNL     1      14.589  38.764  66.987  1.00  0.00     0.234 C 
HETATM   43  N4  UNL     1      15.795  38.006  66.875  1.00  0.00    -0.073 N 
HETATM   44  C16 UNL     1      15.776  37.007  67.898  1.00  0.00     0.257 C 
ATOM     45  H42 UNL     1      15.934  37.617  65.943  1.00  0.00     0.277 HD
ATOM     46  H41 UNL     1      16.632  38.587  66.904  1.00  0.00     0.277 HD
ENDBRANCH  38  40
ENDBRANCH   7  38
TORSDOF 9
ENDMDL
MODEL 3
REMARK VINA RESULT: -8.686509043      0.927      1.168
REMARK  9 active torsions:
REMARK  status: ('A' for Active; 'I' for Inactive)
REMARK    1  A    between atoms: O1_2  and  C2_3 
REMARK    2  A    between atoms: C4_5  and  C5_6 
REMARK    3  A    between atoms: C5_6  and  C6_7 
REMARK    4  A    between atoms: C6_7  and  N1_8 
REMARK       I    between atoms: N1_8  and  C7_10 
REMARK    5  A    between atoms: C7_10  and  C8_12 
REMARK    6  A    between atoms: C12_18  and  N3_19 
REMARK    7  A    between atoms: N3_19  and  C13_21 
REMARK    8  A    between atoms: N5_30  and  C19_31 
REMARK    9  A    between atoms: C30_44  and  O4_45 
ROOT
HETATM    1  C8  UNL     1      13.591  37.505  75.085  1.00  0.00     0.101 A 
HETATM    2  C9  UNL     1      14.727  37.387  74.322  1.00  0.00     0.037 A 
HETATM    3  C10 UNL     1      14.680  37.501  72.953  1.00  0.00     0.008 A 
HETATM    4  C11 UNL     1      15.802  37.394  72.169  1.00  0.00     0.103 A 
HETATM    5  N2  UNL     1      15.772  37.507  70.832  1.00  0.00    -0.352 N 
ATOM      6  H2  UNL     1      16.626  37.421  70.282  1.00  0.00     0.166 HD
HETATM    7  C12 UNL     1      14.592  37.737  70.235  1.00  0.00     0.103 A 
HETATM    8  C17 UNL     1      13.398  37.861  70.951  1.00  0.00     0.079 A 
HETATM    9  C18 UNL     1      13.446  37.741  72.317  1.00  0.00     0.057 A 
HETATM   10  N5  UNL     1      12.308  37.859  73.069  1.00  0.00    -0.285 N 
HETATM   11  C27 UNL     1      12.412  37.739  74.410  1.00  0.00     0.268 A 
HETATM   12  O3  UNL     1      11.387  37.847  75.088  1.00  0.00    -0.267 OA
ENDROOT
BRANCH   1  13
HETATM   13  C7  UNL     1      13.606  37.389  76.542  1.00  0.00     0.257 C 
HETATM   14  N1  UNL     1      12.949  38.352  77.334  1.00  0.00    -0.356 N 
ATOM     15  H1  UNL     1      12.464  39.131  76.888  1.00  0.00     0.162 HD
HETATM   16  O2  UNL     1      14.198  36.440  77.108  1.00  0.00    -0.267 OA
BRANCH  14  17
HETATM   17  C6  UNL     1      12.960  38.242  78.772  1.00  0.00     0.127 C 
BRANCH  17  18
HETATM   18  C5  UNL     1      12.327  39.450  79.423  1.00  0.00     0.058 C 
BRANCH  18  19
HETATM   19  C4  UNL     1      13.378  40.262  80.070  1.00  0.00    -0.051 A 
HETATM   20  C3  UNL     1      13.113  41.065  81.169  1.00  0.00     0.047 A 
HETATM   21  C2  UNL     1      14.083  41.823  81.776  1.00  0.00     0.104 A 
HETATM   22  C30 UNL     1      15.362  41.777  81.266  1.00  0.00     0.138 A 
HETATM   23  C29 UNL     1      15.650  40.985  80.175  1.00  0.00     0.152 A 
HETATM   24  C28 UNL     1      14.670  40.217  79.559  1.00  0.00     0.052 A 
HETATM   25  F1  UNL     1      16.916  40.954  79.689  1.00  0.00    -0.203 F 
BRANCH  21  26
HETATM   26  O1  UNL     1      13.761  42.602  82.862  1.00  0.00    -0.353 OA
HETATM   27  C1  UNL     1      12.625  42.430  83.652  1.00  0.00     0.210 C 
ENDBRANCH  21  26
BRANCH  22  28
HETATM   28  O4  UNL     1      16.385  42.521  81.836  1.00  0.00    -0.355 OA
ATOM     29  H4  UNL     1      17.108  42.097  82.283  1.00  0.00     0.218 HD
ENDBRANCH  22  28
ENDBRANCH  18  19
ENDBRANCH  17  18
ENDBRANCH  14  17
ENDBRANCH   1  13
BRANCH  10  30
HETATM   30  C19 UNL     1      11.052  38.089  72.442  1.00  0.00    -0.002 C 
HETATM   31  C20 UNL     1       9.971  37.074  72.683  1.00  0.00     0.053 C 
HETATM   32  C21 UNL     1       9.003  37.085  71.506  1.00  0.00     0.006 C 
HETATM   33  C22 UNL     1       7.701  37.724  71.911  1.00  0.00     0.000 C 
HETATM   34  C23 UNL     1       7.765  39.223  72.044  1.00  0.00     0.000 C 
HETATM   35  C24 UNL     1       8.208  39.596  73.416  1.00  0.00     0.000 C 
HETATM   36  C25 UNL     1       9.649  39.869  73.609  1.00  0.00     0.006 C 
HETATM   37  C26 UNL     1      10.597  39.510  72.548  1.00  0.00     0.053 C 
ENDBRANCH  10  30
BRANCH   7  38
HETATM   38  N3  UNL     1      14.497  37.857  68.964  1.00  0.00    -0.370 N 
ATOM     39  H3  UNL     1      14.155  38.748  68.607  1.00  0.00     0.161 HD
BRANCH  38  40
HETATM   40  C13 UNL     1      14.827  36.857  67.999  1.00  0.00     0.110 C 
HETATM   41  C14 UNL     1      15.991  37.231  67.118  1.00  0.00     0.054 C 
HETATM   42  C15 UNL     1      15.642  36.603  65.795  1.00  0.00     0.234 C 
HETATM   43  N4  UNL     1      14.286  36.160  65.870  1.00  0.00    -0.073 N 
HETATM   44  C16 UNL     1      13.678  36.812  66.988  1.00  0.00     0.257 C 
ATOM     45  H42 UNL     1      13.773  36.302  65.000  1.00  0.00     0.277 HD
ATOM     46  H41 UNL     1      14.203  35.144  65.910  1.00  0.00     0.277 HD
ENDBRANCH  38  40
ENDBRANCH   7  38
TORSDOF 9
ENDMDL
MODEL 4
REMARK VINA RESULT: -8.681595628      6.192      9.568
REMARK  9 active torsions:
REMARK  status: ('A' for Active; 'I' for Inactive)
REMARK    1  A    between atoms: O1_2  and  C2_3 
REMARK    2  A    between atoms: C4_5  and  C5_6 
REMARK    3  A    between atoms: C5_6  and  C6_7 
REMARK    4  A    between atoms: C6_7  and  N1_8 
REMARK       I    between atoms: N1_8  and  C7_10 
REMARK    5  A    between atoms: C7_10  and  C8_12 
REMARK    6  A    between atoms: C12_18  and  N3_19 
REMARK    7  A    between atoms: N3_19  and  C13_21 
REMARK    8  A    between atoms: N5_30  and  C19_31 
REMARK    9  A    between atoms: C30_44  and  O4_45 
ROOT
HETATM    1  C8  UNL     1       7.391  35.550  78.450  1.00  0.00     0.101 A 
HETATM    2  C9  UNL     1       8.087  35.971  79.557  1.00  0.00     0.037 A 
HETATM    3  C10 UNL     1       9.124  36.867  79.447  1.00  0.00     0.008 A 
HETATM    4  C11 UNL     1       9.831  37.308  80.537  1.00  0.00     0.103 A 
HETATM    5  N2  UNL     1      10.843  38.185  80.445  1.00  0.00    -0.352 N 
ATOM      6  H2  UNL     1      11.346  38.490  81.278  1.00  0.00     0.166 HD
HETATM    7  C12 UNL     1      11.177  38.653  79.232  1.00  0.00     0.103 A 
HETATM    8  C17 UNL     1      10.514  38.260  78.066  1.00  0.00     0.079 A 
HETATM    9  C18 UNL     1       9.483  37.362  78.177  1.00  0.00     0.057 A 
HETATM   10  N5  UNL     1       8.795  36.947  77.069  1.00  0.00    -0.285 N 
HETATM   11  C27 UNL     1       7.785  36.067  77.234  1.00  0.00     0.268 A 
HETATM   12  O3  UNL     1       7.164  35.694  76.236  1.00  0.00    -0.267 OA
ENDROOT
BRANCH   1  13
HETATM   13  C7  UNL     1       6.283  34.600  78.533  1.00  0.00     0.257 C 
HETATM   14  N1  UNL     1       4.996  34.974  78.097  1.00  0.00    -0.356 N 
ATOM     15  H1  UNL     1       4.839  35.911  77.724  1.00  0.00     0.162 HD
HETATM   16  O2  UNL     1       6.456  33.445  78.988  1.00  0.00    -0.267 OA
BRANCH  14  17
HETATM   17  C6  UNL     1       3.900  34.040  78.174  1.00  0.00     0.127 C 
BRANCH  17  18
HETATM   18  C5  UNL     1       2.610  34.732  78.546  1.00  0.00     0.058 C 
BRANCH  18  19
HETATM   19  C4  UNL     1       2.906  35.871  79.439  1.00  0.00    -0.051 A 
HETATM   20  C3  UNL     1       3.819  35.772  80.478  1.00  0.00     0.047 A 
HETATM   21  C2  UNL     1       4.100  36.824  81.313  1.00  0.00     0.104 A 
HETATM   22  C30 UNL     1       3.445  38.018  81.100  1.00  0.00     0.138 A 
HETATM   23  C29 UNL     1       2.534  38.141  80.073  1.00  0.00     0.152 A 
HETATM   24  C28 UNL     1       2.248  37.078  79.228  1.00  0.00     0.052 A 
HETATM   25  F1  UNL     1       1.901  39.326  79.882  1.00  0.00    -0.203 F 
BRANCH  21  26
HETATM   26  O1  UNL     1       5.013  36.667  82.327  1.00  0.00    -0.353 OA
HETATM   27  C1  UNL     1       5.808  35.536  82.511  1.00  0.00     0.210 C 
ENDBRANCH  21  26
BRANCH  22  28
HETATM   28  O4  UNL     1       3.686  39.118  81.911  1.00  0.00    -0.355 OA
ATOM     29  H4  UNL     1       3.096  39.340  82.622  1.00  0.00     0.218 HD
ENDBRANCH  22  28
ENDBRANCH  18  19
ENDBRANCH  17  18
ENDBRANCH  14  17
ENDBRANCH   1  13
BRANCH  10  30
HETATM   30  C19 UNL     1       9.153  37.428  75.779  1.00  0.00    -0.002 C 
HETATM   31  C20 UNL     1       9.312  38.914  75.623  1.00  0.00     0.053 C 
HETATM   32  C21 UNL     1       9.039  39.298  74.174  1.00  0.00     0.006 C 
HETATM   33  C22 UNL     1      10.324  39.664  73.482  1.00  0.00     0.000 C 
HETATM   34  C23 UNL     1      11.200  38.487  73.144  1.00  0.00     0.000 C 
HETATM   35  C24 UNL     1      12.084  38.158  74.298  1.00  0.00     0.000 C 
HETATM   36  C25 UNL     1      11.620  37.100  75.223  1.00  0.00     0.006 C 
HETATM   37  C26 UNL     1      10.234  36.623  75.132  1.00  0.00     0.053 C 
ENDBRANCH  10  30
BRANCH   7  38
HETATM   38  N3  UNL     1      12.132  39.492  79.078  1.00  0.00    -0.370 N 
ATOM     39  H3  UNL     1      12.121  40.054  78.228  1.00  0.00     0.161 HD
BRANCH  38  40
HETATM   40  C13 UNL     1      13.211  39.714  79.987  1.00  0.00     0.110 C 
HETATM   41  C14 UNL     1      13.417  41.166  80.333  1.00  0.00     0.054 C 
HETATM   42  C15 UNL     1      14.909  41.275  80.505  1.00  0.00     0.234 C 
HETATM   43  N4  UNL     1      15.489  40.058  80.030  1.00  0.00    -0.073 N 
HETATM   44  C16 UNL     1      14.505  39.390  79.237  1.00  0.00     0.257 C 
ATOM     45  H42 UNL     1      16.367  40.205  79.533  1.00  0.00     0.277 HD
ATOM     46  H41 UNL     1      15.855  39.475  80.782  1.00  0.00     0.277 HD
ENDBRANCH  38  40
ENDBRANCH   7  38
TORSDOF 9
ENDMDL
MODEL 5
REMARK VINA RESULT: -8.617264979      2.299      5.004
REMARK  9 active torsions:
REMARK  status: ('A' for Active; 'I' for Inactive)
REMARK    1  A    between atoms: O1_2  and  C2_3 
REMARK    2  A    between atoms: C4_5  and  C5_6 
REMARK    3  A    between atoms: C5_6  and  C6_7 
REMARK    4  A    between atoms: C6_7  and  N1_8 
REMARK       I    between atoms: N1_8  and  C7_10 
REMARK    5  A    between atoms: C7_10  and  C8_12 
REMARK    6  A    between atoms: C12_18  and  N3_19 
REMARK    7  A    between atoms: N3_19  and  C13_21 
REMARK    8  A    between atoms: N5_30  and  C19_31 
REMARK    9  A    between atoms: C30_44  and  O4_45 
ROOT
HETATM    1  C8  UNL     1      13.994  37.182  74.674  1.00  0.00     0.101 A 
HETATM    2  C9  UNL     1      13.226  37.812  73.726  1.00  0.00     0.037 A 
HETATM    3  C10 UNL     1      13.640  37.902  72.419  1.00  0.00     0.008 A 
HETATM    4  C11 UNL     1      12.889  38.521  71.451  1.00  0.00     0.103 A 
HETATM    5  N2  UNL     1      13.279  38.612  70.170  1.00  0.00    -0.352 N 
ATOM      6  H2  UNL     1      12.693  39.081  69.479  1.00  0.00     0.166 HD
HETATM    7  C12 UNL     1      14.456  38.072  69.819  1.00  0.00     0.103 A 
HETATM    8  C17 UNL     1      15.289  37.423  70.735  1.00  0.00     0.079 A 
HETATM    9  C18 UNL     1      14.876  37.339  72.041  1.00  0.00     0.057 A 
HETATM   10  N5  UNL     1      15.648  36.710  72.980  1.00  0.00    -0.285 N 
HETATM   11  C27 UNL     1      15.192  36.650  74.249  1.00  0.00     0.268 A 
HETATM   12  O3  UNL     1      15.888  36.081  75.094  1.00  0.00    -0.267 OA
ENDROOT
BRANCH   1  13
HETATM   13  C7  UNL     1      13.582  37.069  76.072  1.00  0.00     0.257 C 
HETATM   14  N1  UNL     1      13.994  38.035  77.011  1.00  0.00    -0.356 N 
ATOM     15  H1  UNL     1      14.582  38.814  76.713  1.00  0.00     0.162 HD
HETATM   16  O2  UNL     1      12.860  36.119  76.457  1.00  0.00    -0.267 OA
BRANCH  14  17
HETATM   17  C6  UNL     1      13.589  37.930  78.391  1.00  0.00     0.127 C 
BRANCH  17  18
HETATM   18  C5  UNL     1      12.874  39.177  78.854  1.00  0.00     0.058 C 
BRANCH  18  19
HETATM   19  C4  UNL     1      13.801  40.005  79.651  1.00  0.00    -0.051 A 
HETATM   20  C3  UNL     1      13.363  40.787  80.710  1.00  0.00     0.047 A 
HETATM   21  C2  UNL     1      14.218  41.559  81.456  1.00  0.00     0.104 A 
HETATM   22  C30 UNL     1      15.557  41.551  81.131  1.00  0.00     0.138 A 
HETATM   23  C29 UNL     1      16.016  40.782  80.082  1.00  0.00     0.152 A 
HETATM   24  C28 UNL     1      15.153  40.000  79.327  1.00  0.00     0.052 A 
HETATM   25  F1  UNL     1      17.338  40.789  79.780  1.00  0.00    -0.203 F 
BRANCH  21  26
HETATM   26  O1  UNL     1      13.727  42.314  82.493  1.00  0.00    -0.353 OA
HETATM   27  C1  UNL     1      12.704  41.912  83.352  1.00  0.00     0.210 C 
ENDBRANCH  21  26
BRANCH  22  28
HETATM   28  O4  UNL     1      16.470  42.312  81.847  1.00  0.00    -0.355 OA
ATOM     29  H4  UNL     1      17.330  41.970  82.060  1.00  0.00     0.218 HD
ENDBRANCH  22  28
ENDBRANCH  18  19
ENDBRANCH  17  18
ENDBRANCH  14  17
ENDBRANCH   1  13
BRANCH  10  30
HETATM   30  C19 UNL     1      16.904  36.147  72.617  1.00  0.00    -0.002 C 
HETATM   31  C20 UNL     1      18.113  36.633  73.365  1.00  0.00     0.053 C 
HETATM   32  C21 UNL     1      19.345  36.474  72.483  1.00  0.00     0.006 C 
HETATM   33  C22 UNL     1      20.199  35.341  72.985  1.00  0.00     0.000 C 
HETATM   34  C23 UNL     1      19.645  33.972  72.688  1.00  0.00     0.000 C 
HETATM   35  C24 UNL     1      18.709  33.553  73.769  1.00  0.00     0.000 C 
HETATM   36  C25 UNL     1      17.268  33.800  73.546  1.00  0.00     0.006 C 
HETATM   37  C26 UNL     1      16.849  34.664  72.434  1.00  0.00     0.053 C 
ENDBRANCH  10  30
BRANCH   7  38
HETATM   38  N3  UNL     1      14.884  38.125  68.614  1.00  0.00    -0.370 N 
ATOM     39  H3  UNL     1      15.033  39.052  68.216  1.00  0.00     0.161 HD
BRANCH  38  40
HETATM   40  C13 UNL     1      15.171  37.006  67.774  1.00  0.00     0.110 C 
HETATM   41  C14 UNL     1      16.612  36.933  67.340  1.00  0.00     0.054 C 
HETATM   42  C15 UNL     1      16.530  36.353  65.954  1.00  0.00     0.234 C 
HETATM   43  N4  UNL     1      15.156  36.362  65.562  1.00  0.00    -0.073 N 
HETATM   44  C16 UNL     1      14.460  37.250  66.440  1.00  0.00     0.257 C 
ATOM     45  H42 UNL     1      15.026  36.596  64.577  1.00  0.00     0.277 HD
ATOM     46  H41 UNL     1      14.745  35.430  65.534  1.00  0.00     0.277 HD
ENDBRANCH  38  40
ENDBRANCH   7  38
TORSDOF 9
ENDMDL
