MODEL 1
REMARK VINA RESULT: -7.165232889      0.000      0.000
REMARK  8 active torsions:
REMARK  status: ('A' for Active; 'I' for Inactive)
REMARK    1  A    between atoms: C2_2  and  C3_3 
REMARK    2  A    between atoms: C3_3  and  C4_4 
REMARK    3  A    between atoms: C4_4  and  C5_5 
REMARK    4  A    between atoms: C5_5  and  C6_6 
REMARK    5  A    between atoms: C6_6  and  C7_7 
REMARK       I    between atoms: C7_7  and  N1_9 
REMARK    6  A    between atoms: N1_9  and  N2_11 
REMARK       I    between atoms: N2_11  and  C8_13 
REMARK    7  A    between atoms: C8_13  and  C9_15 
REMARK    8  A    between atoms: C19_30  and  C20_31 
ROOT
HETATM    1  C9  UNL     1      -1.640 -11.075  -7.303  1.00  0.00     0.137 C 
HETATM    2  C10 UNL     1      -2.964 -11.664  -7.675  1.00  0.00     0.191 C 
HETATM    3  O3  UNL     1      -3.006 -13.042  -7.504  1.00  0.00    -0.330 OA
HETATM    4  C11 UNL     1      -2.055 -13.686  -8.309  1.00  0.00     0.309 C 
HETATM    5  O4  UNL     1      -2.576 -13.641  -9.613  1.00  0.00    -0.326 OA
HETATM    6  C12 UNL     1      -1.596 -13.517 -10.567  1.00  0.00     0.215 C 
HETATM    7  C13 UNL     1      -0.773 -14.727 -10.759  1.00  0.00    -0.007 A 
HETATM    8  C14 UNL     1      -0.151 -14.750 -11.985  1.00  0.00     0.012 A 
HETATM    9  C15 UNL     1       0.668 -15.785 -12.380  1.00  0.00     0.002 A 
HETATM   10  C16 UNL     1       0.865 -16.837 -11.505  1.00  0.00     0.021 A 
HETATM   11  C17 UNL     1       0.253 -16.841 -10.270  1.00  0.00     0.037 A 
HETATM   12 BR1  UNL     1       0.525 -18.288  -9.066  1.00  0.00    -0.049 Br
HETATM   13  C18 UNL     1      -0.570 -15.772  -9.904  1.00  0.00     0.054 A 
HETATM   14  N3  UNL     1      -1.119 -15.932  -8.605  1.00  0.00    -0.372 N 
ATOM     15  H3  UNL     1      -0.805 -16.773  -8.121  1.00  0.00     0.160 HD
HETATM   16  C19 UNL     1      -2.033 -15.128  -7.851  1.00  0.00     0.214 C 
HETATM   17  O5  UNL     1      -0.841 -13.061  -8.302  1.00  0.00    -0.319 OA
HETATM   18  C21 UNL     1      -0.605 -12.156  -7.304  1.00  0.00     0.074 C 
HETATM   19  C22 UNL     1      -0.531 -12.862  -5.972  1.00  0.00     0.047 C 
HETATM   20  C23 UNL     1       0.786 -11.562  -7.578  1.00  0.00     0.047 C 
ENDROOT
BRANCH  16  21
HETATM   21  C20 UNL     1      -3.443 -15.624  -7.964  1.00  0.00     0.086 C 
HETATM   22  N4  UNL     1      -4.107 -15.891  -6.924  1.00  0.00    -0.409 N 
ATOM     23  H42 UNL     1      -3.667 -15.765  -6.012  1.00  0.00     0.155 HD
ATOM     24  H41 UNL     1      -5.067 -16.228  -7.000  1.00  0.00     0.155 HD
ENDBRANCH  16  21
BRANCH   1  25
HETATM   25  C8  UNL     1      -1.719 -10.332  -6.033  1.00  0.00     0.245 C 
HETATM   26  N2  UNL     1      -2.797 -10.319  -5.145  1.00  0.00    -0.267 N 
ATOM     27  H2  UNL     1      -3.624 -10.869  -5.375  1.00  0.00     0.190 HD
HETATM   28  O2  UNL     1      -0.703  -9.633  -5.713  1.00  0.00    -0.271 OA
BRANCH  26  29
HETATM   29  N1  UNL     1      -2.794  -9.582  -3.947  1.00  0.00    -0.268 N 
HETATM   30  C7  UNL     1      -3.939  -8.911  -3.479  1.00  0.00     0.236 C 
HETATM   31  O1  UNL     1      -5.046  -8.921  -4.097  1.00  0.00    -0.272 OA
ATOM     32  H1  UNL     1      -1.934  -9.531  -3.400  1.00  0.00     0.190 HD
BRANCH  30  33
HETATM   33  C6  UNL     1      -3.891  -8.148  -2.214  1.00  0.00     0.104 C 
BRANCH  33  34
HETATM   34  C5  UNL     1      -3.768  -6.674  -2.429  1.00  0.00     0.010 C 
BRANCH  34  35
HETATM   35  C4  UNL     1      -2.340  -6.214  -2.543  1.00  0.00     0.004 C 
BRANCH  35  36
HETATM   36  C3  UNL     1      -2.276  -4.910  -3.299  1.00  0.00     0.026 C 
BRANCH  36  37
HETATM   37  C2  UNL     1      -3.620  -4.475  -3.744  1.00  0.00    -0.037 C 
HETATM   38  C1  UNL     1      -3.723  -3.374  -4.509  1.00  0.00     0.007 C 
ENDBRANCH  36  37
ENDBRANCH  35  36
ENDBRANCH  34  35
ENDBRANCH  33  34
ENDBRANCH  30  33
ENDBRANCH  26  29
ENDBRANCH   1  25
TORSDOF 8
ENDMDL
MODEL 2
REMARK VINA RESULT: -7.084737900      1.552      1.899
REMARK  8 active torsions:
REMARK  status: ('A' for Active; 'I' for Inactive)
REMARK    1  A    between atoms: C2_2  and  C3_3 
REMARK    2  A    between atoms: C3_3  and  C4_4 
REMARK    3  A    between atoms: C4_4  and  C5_5 
REMARK    4  A    between atoms: C5_5  and  C6_6 
REMARK    5  A    between atoms: C6_6  and  C7_7 
REMARK       I    between atoms: C7_7  and  N1_9 
REMARK    6  A    between atoms: N1_9  and  N2_11 
REMARK       I    between atoms: N2_11  and  C8_13 
REMARK    7  A    between atoms: C8_13  and  C9_15 
REMARK    8  A    between atoms: C19_30  and  C20_31 
ROOT
HETATM    1  C9  UNL     1      -1.642 -12.480  -8.035  1.00  0.00     0.137 C 
HETATM    2  C10 UNL     1      -3.032 -12.992  -8.245  1.00  0.00     0.191 C 
HETATM    3  O3  UNL     1      -3.202 -14.289  -7.778  1.00  0.00    -0.330 OA
HETATM    4  C11 UNL     1      -2.353 -15.187  -8.443  1.00  0.00     0.309 C 
HETATM    5  O4  UNL     1      -2.920 -15.368  -9.715  1.00  0.00    -0.326 OA
HETATM    6  C12 UNL     1      -1.972 -15.555 -10.691  1.00  0.00     0.215 C 
HETATM    7  C13 UNL     1      -1.282 -16.857 -10.632  1.00  0.00    -0.007 A 
HETATM    8  C14 UNL     1      -0.716 -17.208 -11.834  1.00  0.00     0.012 A 
HETATM    9  C15 UNL     1      -0.020 -18.384 -12.010  1.00  0.00     0.002 A 
HETATM   10  C16 UNL     1       0.108 -19.238 -10.932  1.00  0.00     0.021 A 
HETATM   11  C17 UNL     1      -0.450 -18.914  -9.714  1.00  0.00     0.037 A 
HETATM   12 BR1  UNL     1      -0.273 -20.090  -8.230  1.00  0.00    -0.049 Br
HETATM   13  C18 UNL     1      -1.148 -17.710  -9.573  1.00  0.00     0.054 A 
HETATM   14  N3  UNL     1      -1.656 -17.530  -8.261  1.00  0.00    -0.372 N 
ATOM     15  H3  UNL     1      -1.407 -18.276  -7.612  1.00  0.00     0.160 HD
HETATM   16  C19 UNL     1      -2.455 -16.492  -7.683  1.00  0.00     0.214 C 
HETATM   17  O5  UNL     1      -1.085 -14.706  -8.594  1.00  0.00    -0.319 OA
HETATM   18  C21 UNL     1      -0.719 -13.639  -7.821  1.00  0.00     0.074 C 
HETATM   19  C22 UNL     1      -0.661 -14.047  -6.368  1.00  0.00     0.047 C 
HETATM   20  C23 UNL     1       0.711 -13.267  -8.243  1.00  0.00     0.047 C 
ENDROOT
BRANCH  16  21
HETATM   21  C20 UNL     1      -3.911 -16.849  -7.659  1.00  0.00     0.086 C 
HETATM   22  N4  UNL     1      -4.630 -16.511  -6.679  1.00  0.00    -0.409 N 
ATOM     23  H42 UNL     1      -4.205 -15.995  -5.909  1.00  0.00     0.155 HD
ATOM     24  H41 UNL     1      -5.621 -16.754  -6.662  1.00  0.00     0.155 HD
ENDBRANCH  16  21
BRANCH   1  25
HETATM   25  C8  UNL     1      -1.595 -11.479  -6.955  1.00  0.00     0.245 C 
HETATM   26  N2  UNL     1      -2.572 -11.261  -5.981  1.00  0.00    -0.267 N 
ATOM     27  H2  UNL     1      -3.412 -11.840  -5.998  1.00  0.00     0.190 HD
HETATM   28  O2  UNL     1      -0.560 -10.737  -6.905  1.00  0.00    -0.271 OA
BRANCH  26  29
HETATM   29  N1  UNL     1      -2.452 -10.282  -4.980  1.00  0.00    -0.268 N 
HETATM   30  C7  UNL     1      -3.493 -10.007  -4.073  1.00  0.00     0.236 C 
HETATM   31  O1  UNL     1      -4.605 -10.616  -4.093  1.00  0.00    -0.272 OA
ATOM     32  H1  UNL     1      -1.582  -9.754  -4.908  1.00  0.00     0.190 HD
BRANCH  30  33
HETATM   33  C6  UNL     1      -3.322  -8.969  -3.035  1.00  0.00     0.104 C 
BRANCH  33  34
HETATM   34  C5  UNL     1      -4.604  -8.292  -2.674  1.00  0.00     0.010 C 
BRANCH  34  35
HETATM   35  C4  UNL     1      -4.399  -7.010  -1.913  1.00  0.00     0.004 C 
BRANCH  35  36
HETATM   36  C3  UNL     1      -3.586  -6.044  -2.739  1.00  0.00     0.026 C 
BRANCH  36  37
HETATM   37  C2  UNL     1      -2.315  -5.690  -2.067  1.00  0.00    -0.037 C 
HETATM   38  C1  UNL     1      -1.225  -5.468  -2.821  1.00  0.00     0.007 C 
ENDBRANCH  36  37
ENDBRANCH  35  36
ENDBRANCH  34  35
ENDBRANCH  33  34
ENDBRANCH  30  33
ENDBRANCH  26  29
ENDBRANCH   1  25
TORSDOF 8
ENDMDL
MODEL 3
REMARK VINA RESULT: -7.084549228      6.720      9.238
REMARK  8 active torsions:
REMARK  status: ('A' for Active; 'I' for Inactive)
REMARK    1  A    between atoms: C2_2  and  C3_3 
REMARK    2  A    between atoms: C3_3  and  C4_4 
REMARK    3  A    between atoms: C4_4  and  C5_5 
REMARK    4  A    between atoms: C5_5  and  C6_6 
REMARK    5  A    between atoms: C6_6  and  C7_7 
REMARK       I    between atoms: C7_7  and  N1_9 
REMARK    6  A    between atoms: N1_9  and  N2_11 
REMARK       I    between atoms: N2_11  and  C8_13 
REMARK    7  A    between atoms: C8_13  and  C9_15 
REMARK    8  A    between atoms: C19_30  and  C20_31 
ROOT
HETATM    1  C9  UNL     1       3.060  -8.838  -7.325  1.00  0.00     0.137 C 
HETATM    2  C10 UNL     1       3.077  -7.558  -6.552  1.00  0.00     0.191 C 
HETATM    3  O3  UNL     1       3.126  -6.436  -7.370  1.00  0.00    -0.330 OA
HETATM    4  C11 UNL     1       4.287  -6.429  -8.158  1.00  0.00     0.309 C 
HETATM    5  O4  UNL     1       5.329  -6.073  -7.287  1.00  0.00    -0.326 OA
HETATM    6  C12 UNL     1       6.514  -6.691  -7.605  1.00  0.00     0.215 C 
HETATM    7  C13 UNL     1       7.152  -6.192  -8.838  1.00  0.00    -0.007 A 
HETATM    8  C14 UNL     1       8.499  -6.462  -8.880  1.00  0.00     0.012 A 
HETATM    9  C15 UNL     1       9.297  -6.089  -9.939  1.00  0.00     0.002 A 
HETATM   10  C16 UNL     1       8.713  -5.416 -10.995  1.00  0.00     0.021 A 
HETATM   11  C17 UNL     1       7.364  -5.131 -10.981  1.00  0.00     0.037 A 
HETATM   12 BR1  UNL     1       6.561  -4.205 -12.434  1.00  0.00    -0.049 Br
HETATM   13  C18 UNL     1       6.587  -5.527  -9.888  1.00  0.00     0.054 A 
HETATM   14  N3  UNL     1       5.224  -5.157 -10.032  1.00  0.00    -0.372 N 
ATOM     15  H3  UNL     1       5.008  -4.698 -10.916  1.00  0.00     0.160 HD
HETATM   16  C19 UNL     1       4.098  -5.312  -9.162  1.00  0.00     0.214 C 
HETATM   17  O5  UNL     1       4.568  -7.649  -8.701  1.00  0.00    -0.319 OA
HETATM   18  C21 UNL     1       3.567  -8.581  -8.711  1.00  0.00     0.074 C 
HETATM   19  C22 UNL     1       2.460  -8.142  -9.639  1.00  0.00     0.047 C 
HETATM   20  C23 UNL     1       4.172  -9.863  -9.303  1.00  0.00     0.047 C 
ENDROOT
BRANCH  16  21
HETATM   21  C20 UNL     1       3.831  -4.072  -8.361  1.00  0.00     0.086 C 
HETATM   22  N4  UNL     1       3.535  -2.993  -8.944  1.00  0.00    -0.409 N 
ATOM     23  H42 UNL     1       3.482  -2.980  -9.962  1.00  0.00     0.155 HD
ATOM     24  H41 UNL     1       3.353  -2.149  -8.399  1.00  0.00     0.155 HD
ENDBRANCH  16  21
BRANCH   1  25
HETATM   25  C8  UNL     1       1.729  -9.470  -7.290  1.00  0.00     0.245 C 
HETATM   26  N2  UNL     1       0.529  -8.858  -6.921  1.00  0.00    -0.267 N 
ATOM     27  H2  UNL     1       0.549  -7.877  -6.644  1.00  0.00     0.190 HD
HETATM   28  O2  UNL     1       1.667 -10.696  -7.630  1.00  0.00    -0.271 OA
BRANCH  26  29
HETATM   29  N1  UNL     1      -0.705  -9.533  -6.915  1.00  0.00    -0.268 N 
HETATM   30  C7  UNL     1      -1.334  -9.931  -5.720  1.00  0.00     0.236 C 
HETATM   31  O1  UNL     1      -0.838  -9.712  -4.573  1.00  0.00    -0.272 OA
ATOM     32  H1  UNL     1      -1.158  -9.741  -7.804  1.00  0.00     0.190 HD
BRANCH  30  33
HETATM   33  C6  UNL     1      -2.631 -10.637  -5.760  1.00  0.00     0.104 C 
BRANCH  33  34
HETATM   34  C5  UNL     1      -3.775  -9.778  -5.329  1.00  0.00     0.010 C 
BRANCH  34  35
HETATM   35  C4  UNL     1      -4.277 -10.115  -3.952  1.00  0.00     0.004 C 
BRANCH  35  36
HETATM   36  C3  UNL     1      -3.693  -9.161  -2.940  1.00  0.00     0.026 C 
BRANCH  36  37
HETATM   37  C2  UNL     1      -4.662  -8.106  -2.566  1.00  0.00    -0.037 C 
HETATM   38  C1  UNL     1      -4.236  -7.072  -1.819  1.00  0.00     0.007 C 
ENDBRANCH  36  37
ENDBRANCH  35  36
ENDBRANCH  34  35
ENDBRANCH  33  34
ENDBRANCH  30  33
ENDBRANCH  26  29
ENDBRANCH   1  25
TORSDOF 8
ENDMDL
MODEL 4
REMARK VINA RESULT: -7.078687772      2.665      3.188
REMARK  8 active torsions:
REMARK  status: ('A' for Active; 'I' for Inactive)
REMARK    1  A    between atoms: C2_2  and  C3_3 
REMARK    2  A    between atoms: C3_3  and  C4_4 
REMARK    3  A    between atoms: C4_4  and  C5_5 
REMARK    4  A    between atoms: C5_5  and  C6_6 
REMARK    5  A    between atoms: C6_6  and  C7_7 
REMARK       I    between atoms: C7_7  and  N1_9 
REMARK    6  A    between atoms: N1_9  and  N2_11 
REMARK       I    between atoms: N2_11  and  C8_13 
REMARK    7  A    between atoms: C8_13  and  C9_15 
REMARK    8  A    between atoms: C19_30  and  C20_31 
ROOT
HETATM    1  C9  UNL     1      -0.465 -11.816  -7.672  1.00  0.00     0.137 C 
HETATM    2  C10 UNL     1      -1.171 -13.121  -7.866  1.00  0.00     0.191 C 
HETATM    3  O3  UNL     1      -0.520 -14.181  -7.249  1.00  0.00    -0.330 OA
HETATM    4  C11 UNL     1       0.772 -14.359  -7.767  1.00  0.00     0.309 C 
HETATM    5  O4  UNL     1       0.591 -14.955  -9.027  1.00  0.00    -0.326 OA
HETATM    6  C12 UNL     1       1.536 -14.552  -9.938  1.00  0.00     0.215 C 
HETATM    7  C13 UNL     1       2.889 -15.088  -9.695  1.00  0.00    -0.007 A 
HETATM    8  C14 UNL     1       3.672 -15.072 -10.824  1.00  0.00     0.012 A 
HETATM    9  C15 UNL     1       4.973 -15.525 -10.829  1.00  0.00     0.002 A 
HETATM   10  C16 UNL     1       5.503 -16.013  -9.650  1.00  0.00     0.021 A 
HETATM   11  C17 UNL     1       4.741 -16.041  -8.502  1.00  0.00     0.037 A 
HETATM   12 BR1  UNL     1       5.470 -16.712  -6.879  1.00  0.00    -0.049 Br
HETATM   13  C18 UNL     1       3.424 -15.572  -8.535  1.00  0.00     0.054 A 
HETATM   14  N3  UNL     1       2.783 -15.671  -7.274  1.00  0.00    -0.372 N 
ATOM     15  H3  UNL     1       3.380 -16.029  -6.529  1.00  0.00     0.160 HD
HETATM   16  C19 UNL     1       1.449 -15.360  -6.856  1.00  0.00     0.214 C 
HETATM   17  O5  UNL     1       1.445 -13.183  -7.933  1.00  0.00    -0.319 OA
HETATM   18  C21 UNL     1       0.957 -12.082  -7.284  1.00  0.00     0.074 C 
HETATM   19  C22 UNL     1       1.107 -12.250  -5.792  1.00  0.00     0.047 C 
HETATM   20  C23 UNL     1       1.851 -10.903  -7.699  1.00  0.00     0.047 C 
ENDROOT
BRANCH  16  21
HETATM   21  C20 UNL     1       0.567 -16.573  -6.840  1.00  0.00     0.086 C 
HETATM   22  N4  UNL     1      -0.279 -16.729  -5.916  1.00  0.00    -0.409 N 
ATOM     23  H42 UNL     1      -0.350 -16.020  -5.187  1.00  0.00     0.155 HD
ATOM     24  H41 UNL     1      -0.879 -17.554  -5.904  1.00  0.00     0.155 HD
ENDBRANCH  16  21
BRANCH   1  25
HETATM   25  C8  UNL     1      -1.185 -10.950  -6.724  1.00  0.00     0.245 C 
HETATM   26  N2  UNL     1      -2.164 -11.351  -5.811  1.00  0.00    -0.267 N 
ATOM     27  H2  UNL     1      -2.425 -12.337  -5.780  1.00  0.00     0.190 HD
HETATM   28  O2  UNL     1      -0.886  -9.711  -6.736  1.00  0.00    -0.271 OA
BRANCH  26  29
HETATM   29  N1  UNL     1      -2.807 -10.459  -4.935  1.00  0.00    -0.268 N 
HETATM   30  C7  UNL     1      -4.202 -10.273  -4.947  1.00  0.00     0.236 C 
HETATM   31  O1  UNL     1      -4.974 -10.890  -5.741  1.00  0.00    -0.272 OA
ATOM     32  H1  UNL     1      -2.244  -9.928  -4.270  1.00  0.00     0.190 HD
BRANCH  30  33
HETATM   33  C6  UNL     1      -4.835  -9.324  -4.007  1.00  0.00     0.104 C 
BRANCH  33  34
HETATM   34  C5  UNL     1      -3.865  -8.735  -3.035  1.00  0.00     0.010 C 
BRANCH  34  35
HETATM   35  C4  UNL     1      -4.505  -7.761  -2.083  1.00  0.00     0.004 C 
BRANCH  35  36
HETATM   36  C3  UNL     1      -3.771  -6.444  -2.121  1.00  0.00     0.026 C 
BRANCH  36  37
HETATM   37  C2  UNL     1      -2.392  -6.605  -2.636  1.00  0.00    -0.037 C 
HETATM   38  C1  UNL     1      -1.566  -5.544  -2.616  1.00  0.00     0.007 C 
ENDBRANCH  36  37
ENDBRANCH  35  36
ENDBRANCH  34  35
ENDBRANCH  33  34
ENDBRANCH  30  33
ENDBRANCH  26  29
ENDBRANCH   1  25
TORSDOF 8
ENDMDL
MODEL 5
REMARK VINA RESULT: -7.075490354      5.394      9.560
REMARK  8 active torsions:
REMARK  status: ('A' for Active; 'I' for Inactive)
REMARK    1  A    between atoms: C2_2  and  C3_3 
REMARK    2  A    between atoms: C3_3  and  C4_4 
REMARK    3  A    between atoms: C4_4  and  C5_5 
REMARK    4  A    between atoms: C5_5  and  C6_6 
REMARK    5  A    between atoms: C6_6  and  C7_7 
REMARK       I    between atoms: C7_7  and  N1_9 
REMARK    6  A    between atoms: N1_9  and  N2_11 
REMARK       I    between atoms: N2_11  and  C8_13 
REMARK    7  A    between atoms: C8_13  and  C9_15 
REMARK    8  A    between atoms: C19_30  and  C20_31 
ROOT
HETATM    1  C9  UNL     1       1.265 -15.849  -7.280  1.00  0.00     0.137 C 
HETATM    2  C10 UNL     1       1.824 -14.796  -8.183  1.00  0.00     0.191 C 
HETATM    3  O3  UNL     1       1.899 -13.550  -7.574  1.00  0.00    -0.330 OA
HETATM    4  C11 UNL     1       0.631 -13.094  -7.185  1.00  0.00     0.309 C 
HETATM    5  O4  UNL     1      -0.001 -12.686  -8.371  1.00  0.00    -0.326 OA
HETATM    6  C12 UNL     1      -1.354 -12.915  -8.351  1.00  0.00     0.215 C 
HETATM    7  C13 UNL     1      -2.111 -12.027  -7.447  1.00  0.00    -0.007 A 
HETATM    8  C14 UNL     1      -3.441 -11.945  -7.783  1.00  0.00     0.012 A 
HETATM    9  C15 UNL     1      -4.338 -11.173  -7.076  1.00  0.00     0.002 A 
HETATM   10  C16 UNL     1      -3.872 -10.456  -5.990  1.00  0.00     0.021 A 
HETATM   11  C17 UNL     1      -2.543 -10.518  -5.630  1.00  0.00     0.037 A 
HETATM   12 BR1  UNL     1      -1.903  -9.532  -4.136  1.00  0.00    -0.049 Br
HETATM   13  C18 UNL     1      -1.664 -11.314  -6.372  1.00  0.00     0.054 A 
HETATM   14  N3  UNL     1      -0.338 -11.266  -5.870  1.00  0.00    -0.372 N 
ATOM     15  H3  UNL     1      -0.230 -10.697  -5.030  1.00  0.00     0.160 HD
HETATM   16  C19 UNL     1       0.877 -11.870  -6.328  1.00  0.00     0.214 C 
HETATM   17  O5  UNL     1      -0.126 -14.066  -6.598  1.00  0.00    -0.319 OA
HETATM   18  C21 UNL     1       0.519 -15.189  -6.161  1.00  0.00     0.074 C 
HETATM   19  C22 UNL     1       1.429 -14.849  -5.006  1.00  0.00     0.047 C 
HETATM   20  C23 UNL     1      -0.568 -16.131  -5.618  1.00  0.00     0.047 C 
ENDROOT
BRANCH  16  21
HETATM   21  C20 UNL     1       1.693 -10.931  -7.164  1.00  0.00     0.086 C 
HETATM   22  N4  UNL     1       1.792  -9.716  -6.840  1.00  0.00    -0.409 N 
ATOM     23  H42 UNL     1       1.310  -9.387  -6.003  1.00  0.00     0.155 HD
ATOM     24  H41 UNL     1       2.347  -9.076  -7.409  1.00  0.00     0.155 HD
ENDBRANCH  16  21
BRANCH   1  25
HETATM   25  C8  UNL     1       2.313 -16.779  -6.825  1.00  0.00     0.245 C 
HETATM   26  N2  UNL     1       2.114 -18.015  -6.205  1.00  0.00    -0.267 N 
ATOM     27  H2  UNL     1       1.157 -18.328  -6.040  1.00  0.00     0.190 HD
HETATM   28  O2  UNL     1       3.521 -16.421  -7.014  1.00  0.00    -0.271 OA
BRANCH  26  29
HETATM   29  N1  UNL     1       3.171 -18.849  -5.800  1.00  0.00    -0.268 N 
HETATM   30  C7  UNL     1       3.789 -18.714  -4.542  1.00  0.00     0.236 C 
HETATM   31  O1  UNL     1       3.440 -17.841  -3.691  1.00  0.00    -0.272 OA
ATOM     32  H1  UNL     1       3.502 -19.573  -6.437  1.00  0.00     0.190 HD
BRANCH  30  33
HETATM   33  C6  UNL     1       4.898 -19.613  -4.157  1.00  0.00     0.104 C 
BRANCH  33  34
HETATM   34  C5  UNL     1       4.564 -20.477  -2.984  1.00  0.00     0.010 C 
BRANCH  34  35
HETATM   35  C4  UNL     1       5.198 -20.002  -1.705  1.00  0.00     0.004 C 
BRANCH  35  36
HETATM   36  C3  UNL     1       4.255 -20.224  -0.548  1.00  0.00     0.026 C 
BRANCH  36  37
HETATM   37  C2  UNL     1       3.021 -19.419  -0.691  1.00  0.00    -0.037 C 
HETATM   38  C1  UNL     1       1.935 -19.768   0.022  1.00  0.00     0.007 C 
ENDBRANCH  36  37
ENDBRANCH  35  36
ENDBRANCH  34  35
ENDBRANCH  33  34
ENDBRANCH  30  33
ENDBRANCH  26  29
ENDBRANCH   1  25
TORSDOF 8
ENDMDL
