MODEL 1
REMARK VINA RESULT: -7.384852425      0.000      0.000
REMARK  10 active torsions:
REMARK  status: ('A' for Active; 'I' for Inactive)
REMARK    1  A    between atoms: C15_16  and  O2_17 
REMARK    2  A    between atoms: C15_16  and  C16_19 
REMARK    3  A    between atoms: C16_19  and  C17_20 
REMARK    4  A    between atoms: C16_19  and  C18_26 
REMARK    5  A    between atoms: C17_20  and  O3_21 
REMARK    6  A    between atoms: O3_21  and  S1_22 
REMARK    7  A    between atoms: C18_26  and  O7_27 
REMARK    8  A    between atoms: C18_26  and  C19_29 
REMARK    9  A    between atoms: C19_29  and  C20_30 
REMARK   10  A    between atoms: C24_35  and  O8_36 
ROOT
HETATM    1  C1  UNL     1      -3.731  -9.807  -7.356  1.00  0.00     0.018 C 
HETATM    2  C2  UNL     1      -2.875 -10.569  -6.339  1.00  0.00    -0.014 C 
HETATM    3  C3  UNL     1      -3.494 -11.854  -5.925  1.00  0.00     0.012 C 
HETATM    4  C4  UNL     1      -3.223 -13.021  -6.803  1.00  0.00     0.007 C 
HETATM    5  C5  UNL     1      -2.197 -12.710  -7.859  1.00  0.00    -0.001 C 
HETATM    6  C6  UNL     1      -1.045 -12.041  -7.130  1.00  0.00    -0.005 C 
HETATM    7  C7  UNL     1       0.222 -12.116  -7.935  1.00  0.00     0.006 C 
HETATM    8  C8  UNL     1       0.646 -13.548  -7.999  1.00  0.00     0.009 C 
HETATM    9  C9  UNL     1      -0.519 -14.519  -7.950  1.00  0.00     0.037 C 
HETATM   10  C10 UNL     1      -1.732 -13.926  -8.620  1.00  0.00    -0.033 C 
HETATM   11  C11 UNL     1      -1.489 -13.511 -10.037  1.00  0.00     0.016 C 
HETATM   12  C12 UNL     1      -2.820 -14.961  -8.666  1.00  0.00     0.017 C 
HETATM   13  C13 UNL     1      -2.438 -16.093  -9.612  1.00  0.00     0.082 C 
HETATM   14  C14 UNL     1      -0.953 -16.186  -9.689  1.00  0.00     0.162 C 
HETATM   15  O1  UNL     1      -0.446 -16.496 -10.702  1.00  0.00    -0.295 OA
HETATM   16  C15 UNL     1      -0.116 -15.878  -8.459  1.00  0.00     0.130 C 
HETATM   17  C21 UNL     1      -1.457 -10.655  -6.771  1.00  0.00     0.001 C 
HETATM   18  C22 UNL     1      -0.597 -10.058  -5.684  1.00  0.00     0.008 C 
HETATM   19  C23 UNL     1      -1.481  -9.924  -4.471  1.00  0.00     0.033 C 
HETATM   20  C24 UNL     1      -2.832  -9.666  -5.096  1.00  0.00     0.126 C 
ENDROOT
BRANCH  16  21
HETATM   21  O2  UNL     1       1.206 -15.915  -8.880  1.00  0.00    -0.381 OA
ATOM     22  H2  UNL     1       1.712 -16.582  -8.431  1.00  0.00     0.211 HD
ENDBRANCH  16  21
BRANCH  16  23
HETATM   23  C16 UNL     1      -0.334 -16.991  -7.482  1.00  0.00     0.082 C 
BRANCH  23  24
HETATM   24  C17 UNL     1      -0.707 -18.320  -8.105  1.00  0.00     0.203 C 
BRANCH  24  25
HETATM   25  O3  UNL     1      -0.814 -19.354  -7.215  1.00  0.00    -0.256 OA
BRANCH  25  26
HETATM   26  S1  UNL     1      -2.370 -19.371  -6.609  1.00  0.00     0.251 S 
HETATM   27  O4  UNL     1      -3.401 -19.210  -7.677  1.00  0.00    -0.572 OA
HETATM   28  O5  UNL     1      -2.679 -20.669  -5.892  1.00  0.00    -0.572 OA
HETATM   29  O6  UNL     1      -2.607 -18.133  -5.483  1.00  0.00    -0.572 OA
ENDBRANCH  25  26
ENDBRANCH  24  25
ENDBRANCH  23  24
BRANCH  23  30
HETATM   30  C18 UNL     1       0.515 -17.144  -6.309  1.00  0.00     0.128 C 
BRANCH  30  31
HETATM   31  O7  UNL     1       1.849 -17.471  -6.769  1.00  0.00    -0.395 OA
ATOM     32  H7  UNL     1       2.378 -17.670  -6.006  1.00  0.00     0.210 HD
ENDBRANCH  30  31
BRANCH  30  33
HETATM   33  C19 UNL     1       0.724 -16.093  -5.308  1.00  0.00     0.047 C 
BRANCH  33  34
HETATM   34  C20 UNL     1       2.096 -15.453  -5.267  1.00  0.00     0.117 C 
HETATM   35 CL1  UNL     1       1.934 -13.692  -4.895  1.00  0.00    -0.130 Cl
ENDBRANCH  33  34
ENDBRANCH  30  33
ENDBRANCH  23  30
ENDBRANCH  16  23
BRANCH  20  36
HETATM   36  O8  UNL     1      -3.810 -10.007  -4.189  1.00  0.00    -0.395 OA
ATOM     37  H8  UNL     1      -3.736  -9.501  -3.390  1.00  0.00     0.210 HD
ENDBRANCH  20  36
TORSDOF 10
ENDMDL
MODEL 2
REMARK VINA RESULT: -7.329858811      3.238      5.015
REMARK  10 active torsions:
REMARK  status: ('A' for Active; 'I' for Inactive)
REMARK    1  A    between atoms: C15_16  and  O2_17 
REMARK    2  A    between atoms: C15_16  and  C16_19 
REMARK    3  A    between atoms: C16_19  and  C17_20 
REMARK    4  A    between atoms: C16_19  and  C18_26 
REMARK    5  A    between atoms: C17_20  and  O3_21 
REMARK    6  A    between atoms: O3_21  and  S1_22 
REMARK    7  A    between atoms: C18_26  and  O7_27 
REMARK    8  A    between atoms: C18_26  and  C19_29 
REMARK    9  A    between atoms: C19_29  and  C20_30 
REMARK   10  A    between atoms: C24_35  and  O8_36 
ROOT
HETATM    1  C1  UNL     1       3.990  -8.832  -6.766  1.00  0.00     0.018 C 
HETATM    2  C2  UNL     1       2.782  -8.952  -7.700  1.00  0.00    -0.014 C 
HETATM    3  C3  UNL     1       2.982  -9.975  -8.759  1.00  0.00     0.012 C 
HETATM    4  C4  UNL     1       2.645 -11.373  -8.387  1.00  0.00     0.007 C 
HETATM    5  C5  UNL     1       1.973 -11.456  -7.043  1.00  0.00    -0.001 C 
HETATM    6  C6  UNL     1       0.877 -10.405  -7.065  1.00  0.00    -0.005 C 
HETATM    7  C7  UNL     1      -0.167 -10.690  -6.023  1.00  0.00     0.006 C 
HETATM    8  C8  UNL     1      -0.887 -11.940  -6.418  1.00  0.00     0.009 C 
HETATM    9  C9  UNL     1      -0.017 -12.910  -7.195  1.00  0.00     0.037 C 
HETATM   10  C10 UNL     1       1.416 -12.823  -6.735  1.00  0.00    -0.033 C 
HETATM   11  C11 UNL     1       1.588 -13.065  -5.269  1.00  0.00     0.016 C 
HETATM   12  C12 UNL     1       2.218 -13.884  -7.434  1.00  0.00     0.017 C 
HETATM   13  C13 UNL     1       1.799 -15.268  -6.957  1.00  0.00     0.082 C 
HETATM   14  C14 UNL     1       0.386 -15.218  -6.488  1.00  0.00     0.162 C 
HETATM   15  O1  UNL     1       0.053 -15.890  -5.585  1.00  0.00    -0.295 OA
HETATM   16  C15 UNL     1      -0.603 -14.297  -7.181  1.00  0.00     0.130 C 
HETATM   17  C21 UNL     1       1.510  -9.062  -6.941  1.00  0.00     0.001 C 
HETATM   18  C22 UNL     1       0.597  -7.947  -7.388  1.00  0.00     0.008 C 
HETATM   19  C23 UNL     1       1.204  -7.383  -8.647  1.00  0.00     0.033 C 
HETATM   20  C24 UNL     1       2.680  -7.589  -8.401  1.00  0.00     0.126 C 
ENDROOT
BRANCH  16  21
HETATM   21  O2  UNL     1      -1.775 -14.369  -6.440  1.00  0.00    -0.381 OA
ATOM     22  H2  UNL     1      -2.074 -15.263  -6.320  1.00  0.00     0.211 HD
ENDBRANCH  16  21
BRANCH  16  23
HETATM   23  C16 UNL     1      -0.866 -14.868  -8.540  1.00  0.00     0.082 C 
BRANCH  23  24
HETATM   24  C17 UNL     1      -2.107 -15.731  -8.639  1.00  0.00     0.203 C 
BRANCH  24  25
HETATM   25  O3  UNL     1      -1.939 -17.018  -8.207  1.00  0.00    -0.256 OA
BRANCH  25  26
HETATM   26  S1  UNL     1      -3.147 -17.368  -7.109  1.00  0.00     0.251 S 
HETATM   27  O4  UNL     1      -4.067 -16.214  -6.885  1.00  0.00    -0.572 OA
HETATM   28  O5  UNL     1      -4.005 -18.529  -7.569  1.00  0.00    -0.572 OA
HETATM   29  O6  UNL     1      -2.509 -17.808  -5.607  1.00  0.00    -0.572 OA
ENDBRANCH  25  26
ENDBRANCH  24  25
ENDBRANCH  23  24
BRANCH  23  30
HETATM   30  C18 UNL     1      -0.632 -14.086  -9.746  1.00  0.00     0.128 C 
BRANCH  30  31
HETATM   31  O7  UNL     1       0.191 -14.880 -10.635  1.00  0.00    -0.395 OA
ATOM     32  H7  UNL     1      -0.381 -15.470 -11.109  1.00  0.00     0.210 HD
ENDBRANCH  30  31
BRANCH  30  33
HETATM   33  C19 UNL     1      -1.702 -13.570 -10.607  1.00  0.00     0.047 C 
BRANCH  33  34
HETATM   34  C20 UNL     1      -1.726 -14.067 -12.036  1.00  0.00     0.117 C 
HETATM   35 CL1  UNL     1      -2.969 -15.368 -12.208  1.00  0.00    -0.130 Cl
ENDBRANCH  33  34
ENDBRANCH  30  33
ENDBRANCH  23  30
ENDBRANCH  16  23
BRANCH  20  36
HETATM   36  O8  UNL     1       3.332  -7.594  -9.613  1.00  0.00    -0.395 OA
ATOM     37  H8  UNL     1       2.723  -7.675 -10.337  1.00  0.00     0.210 HD
ENDBRANCH  20  36
TORSDOF 10
ENDMDL
MODEL 3
REMARK VINA RESULT: -7.329784057      0.903      1.208
REMARK  10 active torsions:
REMARK  status: ('A' for Active; 'I' for Inactive)
REMARK    1  A    between atoms: C15_16  and  O2_17 
REMARK    2  A    between atoms: C15_16  and  C16_19 
REMARK    3  A    between atoms: C16_19  and  C17_20 
REMARK    4  A    between atoms: C16_19  and  C18_26 
REMARK    5  A    between atoms: C17_20  and  O3_21 
REMARK    6  A    between atoms: O3_21  and  S1_22 
REMARK    7  A    between atoms: C18_26  and  O7_27 
REMARK    8  A    between atoms: C18_26  and  C19_29 
REMARK    9  A    between atoms: C19_29  and  C20_30 
REMARK   10  A    between atoms: C24_35  and  O8_36 
ROOT
HETATM    1  C1  UNL     1      -3.877  -9.853  -7.342  1.00  0.00     0.018 C 
HETATM    2  C2  UNL     1      -2.967 -10.549  -6.325  1.00  0.00    -0.014 C 
HETATM    3  C3  UNL     1      -3.490 -11.875  -5.908  1.00  0.00     0.012 C 
HETATM    4  C4  UNL     1      -3.136 -13.021  -6.784  1.00  0.00     0.007 C 
HETATM    5  C5  UNL     1      -2.135 -12.637  -7.842  1.00  0.00    -0.001 C 
HETATM    6  C6  UNL     1      -1.035 -11.885  -7.114  1.00  0.00    -0.005 C 
HETATM    7  C7  UNL     1       0.233 -11.870  -7.920  1.00  0.00     0.006 C 
HETATM    8  C8  UNL     1       0.761 -13.268  -7.982  1.00  0.00     0.009 C 
HETATM    9  C9  UNL     1      -0.331 -14.320  -7.931  1.00  0.00     0.037 C 
HETATM   10  C10 UNL     1      -1.585 -13.818  -8.601  1.00  0.00    -0.033 C 
HETATM   11  C11 UNL     1      -1.373 -13.389 -10.018  1.00  0.00     0.016 C 
HETATM   12  C12 UNL     1      -2.594 -14.930  -8.644  1.00  0.00     0.017 C 
HETATM   13  C13 UNL     1      -2.132 -16.032  -9.588  1.00  0.00     0.082 C 
HETATM   14  C14 UNL     1      -0.644 -16.018  -9.666  1.00  0.00     0.162 C 
HETATM   15  O1  UNL     1      -0.117 -16.291 -10.679  1.00  0.00    -0.295 OA
HETATM   16  C15 UNL     1       0.170 -15.647  -8.438  1.00  0.00     0.130 C 
HETATM   17  C21 UNL     1      -1.546 -10.532  -6.757  1.00  0.00     0.001 C 
HETATM   18  C22 UNL     1      -0.731  -9.872  -5.672  1.00  0.00     0.008 C 
HETATM   19  C23 UNL     1      -1.622  -9.801  -4.459  1.00  0.00     0.033 C 
HETATM   20  C24 UNL     1      -2.988  -9.644  -5.083  1.00  0.00     0.126 C 
ENDROOT
BRANCH  16  21
HETATM   21  O2  UNL     1       1.491 -15.588  -8.860  1.00  0.00    -0.381 OA
ATOM     22  H2  UNL     1       2.014 -16.304  -8.516  1.00  0.00     0.211 HD
ENDBRANCH  16  21
BRANCH  16  23
HETATM   23  C16 UNL     1       0.034 -16.772  -7.458  1.00  0.00     0.082 C 
BRANCH  23  24
HETATM   24  C17 UNL     1       0.878 -17.990  -7.768  1.00  0.00     0.203 C 
BRANCH  24  25
HETATM   25  O3  UNL     1       0.422 -19.154  -7.211  1.00  0.00    -0.256 OA
BRANCH  25  26
HETATM   26  S1  UNL     1      -0.782 -19.771  -8.190  1.00  0.00     0.251 S 
HETATM   27  O4  UNL     1      -0.545 -19.484  -9.636  1.00  0.00    -0.572 OA
HETATM   28  O5  UNL     1      -0.898 -21.275  -8.054  1.00  0.00    -0.572 OA
HETATM   29  O6  UNL     1      -2.294 -19.134  -7.786  1.00  0.00    -0.572 OA
ENDBRANCH  25  26
ENDBRANCH  24  25
ENDBRANCH  23  24
BRANCH  23  30
HETATM   30  C18 UNL     1      -0.078 -16.519  -6.029  1.00  0.00     0.128 C 
BRANCH  30  31
HETATM   31  O7  UNL     1      -1.118 -17.380  -5.508  1.00  0.00    -0.395 OA
ATOM     32  H7  UNL     1      -0.815 -18.277  -5.580  1.00  0.00     0.210 HD
ENDBRANCH  30  31
BRANCH  30  33
HETATM   33  C19 UNL     1       1.030 -16.674  -5.081  1.00  0.00     0.047 C 
BRANCH  33  34
HETATM   34  C20 UNL     1       2.232 -15.776  -5.285  1.00  0.00     0.117 C 
HETATM   35 CL1  UNL     1       1.784 -14.066  -4.906  1.00  0.00    -0.130 Cl
ENDBRANCH  33  34
ENDBRANCH  30  33
ENDBRANCH  23  30
ENDBRANCH  16  23
BRANCH  20  36
HETATM   36  O8  UNL     1      -3.938 -10.053  -4.175  1.00  0.00    -0.395 OA
ATOM     37  H8  UNL     1      -4.787  -9.672  -4.362  1.00  0.00     0.210 HD
ENDBRANCH  20  36
TORSDOF 10
ENDMDL
MODEL 4
REMARK VINA RESULT: -7.312947169      2.185      3.358
REMARK  10 active torsions:
REMARK  status: ('A' for Active; 'I' for Inactive)
REMARK    1  A    between atoms: C15_16  and  O2_17 
REMARK    2  A    between atoms: C15_16  and  C16_19 
REMARK    3  A    between atoms: C16_19  and  C17_20 
REMARK    4  A    between atoms: C16_19  and  C18_26 
REMARK    5  A    between atoms: C17_20  and  O3_21 
REMARK    6  A    between atoms: O3_21  and  S1_22 
REMARK    7  A    between atoms: C18_26  and  O7_27 
REMARK    8  A    between atoms: C18_26  and  C19_29 
REMARK    9  A    between atoms: C19_29  and  C20_30 
REMARK   10  A    between atoms: C24_35  and  O8_36 
ROOT
HETATM    1  C1  UNL     1      -3.877 -10.106  -7.450  1.00  0.00     0.018 C 
HETATM    2  C2  UNL     1      -3.075 -10.665  -6.270  1.00  0.00    -0.014 C 
HETATM    3  C3  UNL     1      -3.471 -12.054  -5.922  1.00  0.00     0.012 C 
HETATM    4  C4  UNL     1      -2.805 -13.135  -6.693  1.00  0.00     0.007 C 
HETATM    5  C5  UNL     1      -1.695 -12.608  -7.564  1.00  0.00    -0.001 C 
HETATM    6  C6  UNL     1      -0.862 -11.706  -6.671  1.00  0.00    -0.005 C 
HETATM    7  C7  UNL     1       0.515 -11.506  -7.238  1.00  0.00     0.006 C 
HETATM    8  C8  UNL     1       1.239 -12.813  -7.171  1.00  0.00     0.009 C 
HETATM    9  C9  UNL     1       0.317 -14.013  -7.290  1.00  0.00     0.037 C 
HETATM   10  C10 UNL     1      -0.854 -13.695  -8.185  1.00  0.00    -0.033 C 
HETATM   11  C11 UNL     1      -0.455 -13.237  -9.551  1.00  0.00     0.016 C 
HETATM   12  C12 UNL     1      -1.671 -14.941  -8.381  1.00  0.00     0.017 C 
HETATM   13  C13 UNL     1      -0.893 -15.963  -9.200  1.00  0.00     0.082 C 
HETATM   14  C14 UNL     1       0.566 -15.734  -9.013  1.00  0.00     0.162 C 
HETATM   15  O1  UNL     1       1.301 -15.926  -9.908  1.00  0.00    -0.295 OA
HETATM   16  C15 UNL     1       1.085 -15.251  -7.668  1.00  0.00     0.130 C 
HETATM   17  C21 UNL     1      -1.617 -10.442  -6.443  1.00  0.00     0.001 C 
HETATM   18  C22 UNL     1      -1.113  -9.674  -5.246  1.00  0.00     0.008 C 
HETATM   19  C23 UNL     1      -2.208  -9.735  -4.213  1.00  0.00     0.033 C 
HETATM   20  C24 UNL     1      -3.448  -9.775  -5.074  1.00  0.00     0.126 C 
ENDROOT
BRANCH  16  21
HETATM   21  O2  UNL     1       2.438 -15.002  -7.849  1.00  0.00    -0.381 OA
ATOM     22  H2  UNL     1       2.932 -15.792  -8.032  1.00  0.00     0.211 HD
ENDBRANCH  16  21
BRANCH  16  23
HETATM   23  C16 UNL     1       0.937 -16.386  -6.702  1.00  0.00     0.082 C 
BRANCH  23  24
HETATM   24  C17 UNL     1       1.283 -16.049  -5.267  1.00  0.00     0.203 C 
BRANCH  24  25
HETATM   25  O3  UNL     1       2.548 -15.561  -5.087  1.00  0.00    -0.256 OA
BRANCH  25  26
HETATM   26  S1  UNL     1       3.620 -16.840  -5.157  1.00  0.00     0.251 S 
HETATM   27  O4  UNL     1       4.714 -16.725  -4.147  1.00  0.00    -0.572 OA
HETATM   28  O5  UNL     1       2.930 -18.165  -4.907  1.00  0.00    -0.572 OA
HETATM   29  O6  UNL     1       4.345 -16.956  -6.679  1.00  0.00    -0.572 OA
ENDBRANCH  25  26
ENDBRANCH  24  25
ENDBRANCH  23  24
BRANCH  23  30
HETATM   30  C18 UNL     1      -0.172 -17.324  -6.803  1.00  0.00     0.128 C 
BRANCH  30  31
HETATM   31  O7  UNL     1       0.367 -18.661  -6.673  1.00  0.00    -0.395 OA
ATOM     32  H7  UNL     1      -0.330 -19.226  -6.362  1.00  0.00     0.210 HD
ENDBRANCH  30  31
BRANCH  30  33
HETATM   33  C19 UNL     1      -1.336 -17.314  -5.912  1.00  0.00     0.047 C 
BRANCH  33  34
HETATM   34  C20 UNL     1      -2.558 -18.077  -6.378  1.00  0.00     0.117 C 
HETATM   35 CL1  UNL     1      -3.937 -16.931  -6.613  1.00  0.00    -0.130 Cl
ENDBRANCH  33  34
ENDBRANCH  30  33
ENDBRANCH  23  30
ENDBRANCH  16  23
BRANCH  20  36
HETATM   36  O8  UNL     1      -4.478 -10.320  -4.340  1.00  0.00    -0.395 OA
ATOM     37  H8  UNL     1      -4.213 -11.126  -3.914  1.00  0.00     0.210 HD
ENDBRANCH  20  36
TORSDOF 10
ENDMDL
MODEL 5
REMARK VINA RESULT: -7.128837049      1.667      2.185
REMARK  10 active torsions:
REMARK  status: ('A' for Active; 'I' for Inactive)
REMARK    1  A    between atoms: C15_16  and  O2_17 
REMARK    2  A    between atoms: C15_16  and  C16_19 
REMARK    3  A    between atoms: C16_19  and  C17_20 
REMARK    4  A    between atoms: C16_19  and  C18_26 
REMARK    5  A    between atoms: C17_20  and  O3_21 
REMARK    6  A    between atoms: O3_21  and  S1_22 
REMARK    7  A    between atoms: C18_26  and  O7_27 
REMARK    8  A    between atoms: C18_26  and  C19_29 
REMARK    9  A    between atoms: C19_29  and  C20_30 
REMARK   10  A    between atoms: C24_35  and  O8_36 
ROOT
HETATM    1  C1  UNL     1      -3.613 -10.067  -7.614  1.00  0.00     0.018 C 
HETATM    2  C2  UNL     1      -3.099 -10.639  -6.290  1.00  0.00    -0.014 C 
HETATM    3  C3  UNL     1      -3.539 -12.041  -6.067  1.00  0.00     0.012 C 
HETATM    4  C4  UNL     1      -2.692 -13.096  -6.680  1.00  0.00     0.007 C 
HETATM    5  C5  UNL     1      -1.420 -12.536  -7.260  1.00  0.00    -0.001 C 
HETATM    6  C6  UNL     1      -0.835 -11.642  -6.181  1.00  0.00    -0.005 C 
HETATM    7  C7  UNL     1       0.633 -11.411  -6.408  1.00  0.00     0.006 C 
HETATM    8  C8  UNL     1       1.345 -12.709  -6.197  1.00  0.00     0.009 C 
HETATM    9  C9  UNL     1       0.498 -13.918  -6.548  1.00  0.00     0.037 C 
HETATM   10  C10 UNL     1      -0.438 -13.598  -7.685  1.00  0.00    -0.033 C 
HETATM   11  C11 UNL     1       0.260 -13.107  -8.913  1.00  0.00     0.016 C 
HETATM   12  C12 UNL     1      -1.164 -14.851  -8.087  1.00  0.00     0.017 C 
HETATM   13  C13 UNL     1      -0.199 -15.845  -8.720  1.00  0.00     0.082 C 
HETATM   14  C14 UNL     1       1.173 -15.600  -8.193  1.00  0.00     0.162 C 
HETATM   15  O1  UNL     1       2.099 -15.763  -8.896  1.00  0.00    -0.295 OA
HETATM   16  C15 UNL     1       1.355 -15.139  -6.757  1.00  0.00     0.130 C 
HETATM   17  C21 UNL     1      -1.644 -10.393  -6.114  1.00  0.00     0.001 C 
HETATM   18  C22 UNL     1      -1.447  -9.643  -4.820  1.00  0.00     0.008 C 
HETATM   19  C23 UNL     1      -2.751  -9.740  -4.072  1.00  0.00     0.033 C 
HETATM   20  C24 UNL     1      -3.756  -9.779  -5.199  1.00  0.00     0.126 C 
ENDROOT
BRANCH  16  21
HETATM   21  O2  UNL     1       2.708 -14.867  -6.613  1.00  0.00    -0.381 OA
ATOM     22  H2  UNL     1       3.056 -15.181  -5.786  1.00  0.00     0.211 HD
ENDBRANCH  16  21
BRANCH  16  23
HETATM   23  C16 UNL     1       1.007 -16.295  -5.871  1.00  0.00     0.082 C 
BRANCH  23  24
HETATM   24  C17 UNL     1      -0.425 -16.776  -5.986  1.00  0.00     0.203 C 
BRANCH  24  25
HETATM   25  O3  UNL     1      -0.556 -18.083  -6.370  1.00  0.00    -0.256 OA
BRANCH  25  26
HETATM   26  S1  UNL     1      -2.181 -18.465  -6.394  1.00  0.00     0.251 S 
HETATM   27  O4  UNL     1      -2.978 -17.634  -5.443  1.00  0.00    -0.572 OA
HETATM   28  O5  UNL     1      -2.785 -18.260  -7.768  1.00  0.00    -0.572 OA
HETATM   29  O6  UNL     1      -2.440 -20.086  -5.993  1.00  0.00    -0.572 OA
ENDBRANCH  25  26
ENDBRANCH  24  25
ENDBRANCH  23  24
BRANCH  23  30
HETATM   30  C18 UNL     1       1.945 -17.386  -5.649  1.00  0.00     0.128 C 
BRANCH  30  31
HETATM   31  O7  UNL     1       2.421 -17.829  -6.942  1.00  0.00    -0.395 OA
ATOM     32  H7  UNL     1       1.667 -17.926  -7.511  1.00  0.00     0.210 HD
ENDBRANCH  30  31
BRANCH  30  33
HETATM   33  C19 UNL     1       3.161 -17.266  -4.837  1.00  0.00     0.047 C 
BRANCH  33  34
HETATM   34  C20 UNL     1       3.867 -18.555  -4.475  1.00  0.00     0.117 C 
HETATM   35 CL1  UNL     1       3.708 -18.857  -2.699  1.00  0.00    -0.130 Cl
ENDBRANCH  33  34
ENDBRANCH  30  33
ENDBRANCH  23  30
ENDBRANCH  16  23
BRANCH  20  36
HETATM   36  O8  UNL     1      -4.918 -10.353  -4.735  1.00  0.00    -0.395 OA
ATOM     37  H8  UNL     1      -5.554  -9.696  -4.483  1.00  0.00     0.210 HD
ENDBRANCH  20  36
TORSDOF 10
ENDMDL
