MODEL 1
REMARK VINA RESULT: -7.943662790      0.000      0.000
REMARK  9 active torsions:
REMARK  status: ('A' for Active; 'I' for Inactive)
REMARK    1  A    between atoms: N1_1  and  C1_4 
REMARK    2  A    between atoms: C2_5  and  C3_6 
REMARK       I    between atoms: C3_6  and  N2_8 
REMARK    3  A    between atoms: N2_8  and  C4_10 
REMARK    4  A    between atoms: C4_10  and  C5_11 
REMARK    5  A    between atoms: N4_20  and  C11_21 
REMARK    6  A    between atoms: C11_21  and  C12_22 
REMARK    7  A    between atoms: C12_22  and  O2_23 
REMARK    8  A    between atoms: C14_26  and  N5_27 
REMARK    9  A    between atoms: C20_34  and  N6_35 
ROOT
HETATM    1  C1  UNL     1       9.325  -7.276  -1.284  1.00  0.00     0.055 A 
HETATM    2  C2  UNL     1       9.955  -6.700  -0.214  1.00  0.00     0.074 A 
HETATM    3  C10 UNL     1       9.356  -6.825   0.980  1.00  0.00     0.116 A 
HETATM    4  N4  UNL     1       8.160  -7.479   1.258  1.00  0.00    -0.331 N 
HETATM    5  C13 UNL     1       7.532  -8.051   0.230  1.00  0.00     0.080 A 
HETATM    6  C14 UNL     1       6.317  -8.680   0.367  1.00  0.00     0.085 A 
HETATM    7  C20 UNL     1       5.704  -9.179  -0.809  1.00  0.00     0.060 A 
HETATM    8  C26 UNL     1       6.315  -9.049  -2.033  1.00  0.00     0.033 A 
HETATM    9  C27 UNL     1       7.503  -8.450  -2.183  1.00  0.00     0.018 A 
HETATM   10  C28 UNL     1       8.140  -7.936  -1.074  1.00  0.00     0.021 A 
ENDROOT
BRANCH   2  11
HETATM   11  C3  UNL     1      11.205  -5.995  -0.387  1.00  0.00     0.255 C 
HETATM   12  O1  UNL     1      11.589  -5.735  -1.545  1.00  0.00    -0.268 OA
HETATM   13  N2  UNL     1      11.951  -5.624   0.753  1.00  0.00    -0.356 N 
ATOM     14  H2  UNL     1      11.608  -5.860   1.685  1.00  0.00     0.162 HD
BRANCH  13  15
HETATM   15  C4  UNL     1      13.195  -4.915   0.603  1.00  0.00     0.127 C 
BRANCH  15  16
HETATM   16  C5  UNL     1      13.041  -3.442   0.867  1.00  0.00     0.006 C 
HETATM   17  C6  UNL     1      12.729  -3.222   2.336  1.00  0.00     0.034 C 
HETATM   18  C7  UNL     1      13.871  -2.528   3.001  1.00  0.00     0.232 C 
HETATM   19  N3  UNL     1      15.067  -3.326   2.799  1.00  0.00    -0.075 N 
HETATM   20  C8  UNL     1      15.480  -3.268   1.407  1.00  0.00     0.232 C 
ATOM     21  H32 UNL     1      15.820  -3.052   3.432  1.00  0.00     0.277 HD
ATOM     22  H31 UNL     1      14.943  -4.287   3.120  1.00  0.00     0.277 HD
HETATM   23  C9  UNL     1      14.374  -2.751   0.521  1.00  0.00     0.034 C 
ENDBRANCH  15  16
ENDBRANCH  13  15
ENDBRANCH   2  11
BRANCH   1  24
HETATM   24  N1  UNL     1       9.838  -7.197  -2.441  1.00  0.00    -0.397 N 
ATOM     25  H12 UNL     1       9.950  -6.298  -2.910  1.00  0.00     0.156 HD
ATOM     26  H11 UNL     1      10.147  -8.042  -2.923  1.00  0.00     0.156 HD
ENDBRANCH   1  24
BRANCH   4  27
HETATM   27  C11 UNL     1       7.738  -7.472   2.589  1.00  0.00     0.095 C 
BRANCH  27  28
HETATM   28  C12 UNL     1       8.654  -7.581   3.739  1.00  0.00     0.209 C 
BRANCH  28  29
HETATM   29  O2  UNL     1       9.024  -6.323   4.281  1.00  0.00    -0.396 OA
ATOM     30  H2  UNL     1       9.904  -6.313   4.638  1.00  0.00     0.209 HD
ENDBRANCH  28  29
ENDBRANCH  27  28
ENDBRANCH   4  27
BRANCH   6  31
HETATM   31  N5  UNL     1       5.685  -9.054   1.560  1.00  0.00    -0.376 N 
HETATM   32  C15 UNL     1       4.588  -8.531   2.296  1.00  0.00     0.123 C 
HETATM   33  C16 UNL     1       3.562  -9.549   2.751  1.00  0.00     0.021 C 
HETATM   34  C17 UNL     1       4.298 -10.484   3.683  1.00  0.00     0.023 C 
HETATM   35  C18 UNL     1       5.260 -11.201   2.806  1.00  0.00     0.100 C 
HETATM   36 CL1  UNL     1       6.204 -12.273   3.921  1.00  0.00    -0.123 Cl
HETATM   37  C19 UNL     1       6.213 -10.393   2.034  1.00  0.00     0.143 C 
ENDBRANCH   6  31
BRANCH   7  38
HETATM   38  N6  UNL     1       4.367  -9.711  -0.904  1.00  0.00    -0.361 N 
HETATM   39  C21 UNL     1       3.334  -8.790  -1.274  1.00  0.00     0.125 C 
HETATM   40  C22 UNL     1       1.983  -9.507  -1.138  1.00  0.00     0.020 C 
HETATM   41  C23 UNL     1       1.958 -10.559  -2.198  1.00  0.00     0.005 C 
HETATM   42  C24 UNL     1       3.066 -11.510  -1.940  1.00  0.00     0.041 C 
HETATM   43  C25 UNL     1       3.992 -11.075  -0.776  1.00  0.00     0.181 C 
HETATM   44 CL2  UNL     1       5.385 -12.192  -0.988  1.00  0.00    -0.102 Cl
ENDBRANCH   7  38
TORSDOF 9
ENDMDL
MODEL 2
REMARK VINA RESULT: -7.901777910      4.861      7.171
REMARK  9 active torsions:
REMARK  status: ('A' for Active; 'I' for Inactive)
REMARK    1  A    between atoms: N1_1  and  C1_4 
REMARK    2  A    between atoms: C2_5  and  C3_6 
REMARK       I    between atoms: C3_6  and  N2_8 
REMARK    3  A    between atoms: N2_8  and  C4_10 
REMARK    4  A    between atoms: C4_10  and  C5_11 
REMARK    5  A    between atoms: N4_20  and  C11_21 
REMARK    6  A    between atoms: C11_21  and  C12_22 
REMARK    7  A    between atoms: C12_22  and  O2_23 
REMARK    8  A    between atoms: C14_26  and  N5_27 
REMARK    9  A    between atoms: C20_34  and  N6_35 
ROOT
HETATM    1  C1  UNL     1      11.992  -5.574  -0.311  1.00  0.00     0.055 A 
HETATM    2  C2  UNL     1      13.358  -5.518  -0.378  1.00  0.00     0.074 A 
HETATM    3  C10 UNL     1      13.930  -6.032  -1.477  1.00  0.00     0.116 A 
HETATM    4  N4  UNL     1      13.292  -6.617  -2.565  1.00  0.00    -0.331 N 
HETATM    5  C13 UNL     1      11.960  -6.678  -2.521  1.00  0.00     0.080 A 
HETATM    6  C14 UNL     1      11.218  -7.280  -3.510  1.00  0.00     0.085 A 
HETATM    7  C20 UNL     1       9.816  -7.359  -3.318  1.00  0.00     0.060 A 
HETATM    8  C26 UNL     1       9.228  -6.835  -2.192  1.00  0.00     0.033 A 
HETATM    9  C27 UNL     1       9.935  -6.236  -1.225  1.00  0.00     0.018 A 
HETATM   10  C28 UNL     1      11.303  -6.140  -1.354  1.00  0.00     0.021 A 
ENDROOT
BRANCH   2  11
HETATM   11  C3  UNL     1      14.125  -4.931   0.697  1.00  0.00     0.255 C 
HETATM   12  O1  UNL     1      14.593  -5.681   1.577  1.00  0.00    -0.268 OA
HETATM   13  N2  UNL     1      14.320  -3.532   0.720  1.00  0.00    -0.356 N 
ATOM     14  H2  UNL     1      13.916  -2.950  -0.014  1.00  0.00     0.162 HD
BRANCH  13  15
HETATM   15  C4  UNL     1      15.086  -2.927   1.779  1.00  0.00     0.127 C 
BRANCH  15  16
HETATM   16  C5  UNL     1      14.271  -1.941   2.572  1.00  0.00     0.006 C 
HETATM   17  C6  UNL     1      13.166  -2.676   3.308  1.00  0.00     0.034 C 
HETATM   18  C7  UNL     1      13.411  -2.622   4.780  1.00  0.00     0.232 C 
HETATM   19  N3  UNL     1      14.725  -3.183   5.043  1.00  0.00    -0.075 N 
HETATM   20  C8  UNL     1      15.760  -2.286   4.557  1.00  0.00     0.232 C 
ATOM     21  H32 UNL     1      14.851  -3.411   6.030  1.00  0.00     0.277 HD
ATOM     22  H31 UNL     1      14.822  -4.122   4.658  1.00  0.00     0.277 HD
HETATM   23  C9  UNL     1      15.203  -1.265   3.596  1.00  0.00     0.034 C 
ENDBRANCH  15  16
ENDBRANCH  13  15
ENDBRANCH   2  11
BRANCH   1  24
HETATM   24  N1  UNL     1      11.386  -5.104   0.700  1.00  0.00    -0.397 N 
ATOM     25  H12 UNL     1      11.838  -5.058   1.613  1.00  0.00     0.156 HD
ATOM     26  H11 UNL     1      10.428  -4.766   0.610  1.00  0.00     0.156 HD
ENDBRANCH   1  24
BRANCH   4  27
HETATM   27  C11 UNL     1      14.111  -7.083  -3.596  1.00  0.00     0.095 C 
BRANCH  27  28
HETATM   28  C12 UNL     1      15.027  -8.230  -3.459  1.00  0.00     0.209 C 
BRANCH  28  29
HETATM   29  O2  UNL     1      16.194  -8.113  -4.257  1.00  0.00    -0.396 OA
ATOM     30  H2  UNL     1      16.468  -8.937  -4.643  1.00  0.00     0.209 HD
ENDBRANCH  28  29
ENDBRANCH  27  28
ENDBRANCH   4  27
BRANCH   6  31
HETATM   31  N5  UNL     1      11.657  -7.671  -4.781  1.00  0.00    -0.376 N 
HETATM   32  C15 UNL     1      11.901  -8.930  -5.392  1.00  0.00     0.123 C 
HETATM   33  C16 UNL     1      11.311  -9.111  -6.776  1.00  0.00     0.021 C 
HETATM   34  C17 UNL     1      11.984  -8.074  -7.646  1.00  0.00     0.023 C 
HETATM   35  C18 UNL     1      11.485  -6.773  -7.128  1.00  0.00     0.100 C 
HETATM   36 CL1  UNL     1      12.341  -5.515  -8.112  1.00  0.00    -0.123 Cl
HETATM   37  C19 UNL     1      11.708  -6.473  -5.708  1.00  0.00     0.143 C 
ENDBRANCH   6  31
BRANCH   7  38
HETATM   38  N6  UNL     1       8.891  -8.095  -4.143  1.00  0.00    -0.361 N 
HETATM   39  C21 UNL     1       8.564  -9.422  -3.715  1.00  0.00     0.125 C 
HETATM   40  C22 UNL     1       7.722 -10.085  -4.816  1.00  0.00     0.020 C 
HETATM   41  C23 UNL     1       6.418  -9.358  -4.840  1.00  0.00     0.005 C 
HETATM   42  C24 UNL     1       6.679  -7.941  -5.186  1.00  0.00     0.041 C 
HETATM   43  C25 UNL     1       8.187  -7.595  -5.271  1.00  0.00     0.181 C 
HETATM   44 CL2  UNL     1       8.143  -5.798  -5.312  1.00  0.00    -0.102 Cl
ENDBRANCH   7  38
TORSDOF 9
ENDMDL
MODEL 3
REMARK VINA RESULT: -7.873621008      4.233      6.660
REMARK  9 active torsions:
REMARK  status: ('A' for Active; 'I' for Inactive)
REMARK    1  A    between atoms: N1_1  and  C1_4 
REMARK    2  A    between atoms: C2_5  and  C3_6 
REMARK       I    between atoms: C3_6  and  N2_8 
REMARK    3  A    between atoms: N2_8  and  C4_10 
REMARK    4  A    between atoms: C4_10  and  C5_11 
REMARK    5  A    between atoms: N4_20  and  C11_21 
REMARK    6  A    between atoms: C11_21  and  C12_22 
REMARK    7  A    between atoms: C12_22  and  O2_23 
REMARK    8  A    between atoms: C14_26  and  N5_27 
REMARK    9  A    between atoms: C20_34  and  N6_35 
ROOT
HETATM    1  C1  UNL     1      13.541  -6.117  -2.011  1.00  0.00     0.055 A 
HETATM    2  C2  UNL     1      12.886  -5.776  -0.858  1.00  0.00     0.074 A 
HETATM    3  C10 UNL     1      11.546  -5.845  -0.881  1.00  0.00     0.116 A 
HETATM    4  N4  UNL     1      10.740  -6.228  -1.947  1.00  0.00    -0.331 N 
HETATM    5  C13 UNL     1      11.359  -6.569  -3.079  1.00  0.00     0.080 A 
HETATM    6  C14 UNL     1      10.671  -6.914  -4.219  1.00  0.00     0.085 A 
HETATM    7  C20 UNL     1      11.431  -7.177  -5.385  1.00  0.00     0.060 A 
HETATM    8  C26 UNL     1      12.803  -7.104  -5.365  1.00  0.00     0.033 A 
HETATM    9  C27 UNL     1      13.489  -6.781  -4.261  1.00  0.00     0.018 A 
HETATM   10  C28 UNL     1      12.800  -6.504  -3.100  1.00  0.00     0.021 A 
ENDROOT
BRANCH   2  11
HETATM   11  C3  UNL     1      13.624  -5.362   0.313  1.00  0.00     0.255 C 
HETATM   12  O1  UNL     1      14.283  -6.218   0.937  1.00  0.00    -0.268 OA
HETATM   13  N2  UNL     1      13.576  -4.010   0.716  1.00  0.00    -0.356 N 
ATOM     14  H2  UNL     1      13.020  -3.340   0.184  1.00  0.00     0.162 HD
BRANCH  13  15
HETATM   15  C4  UNL     1      14.309  -3.575   1.877  1.00  0.00     0.127 C 
BRANCH  15  16
HETATM   16  C5  UNL     1      13.644  -2.410   2.560  1.00  0.00     0.006 C 
HETATM   17  C6  UNL     1      12.677  -2.925   3.609  1.00  0.00     0.034 C 
HETATM   18  C7  UNL     1      13.168  -2.568   4.974  1.00  0.00     0.232 C 
HETATM   19  N3  UNL     1      14.504  -3.113   5.133  1.00  0.00    -0.075 N 
HETATM   20  C8  UNL     1      15.446  -2.384   4.300  1.00  0.00     0.232 C 
ATOM     21  H32 UNL     1      14.795  -3.130   6.111  1.00  0.00     0.277 HD
ATOM     22  H31 UNL     1      14.531  -4.116   4.950  1.00  0.00     0.277 HD
HETATM   23  C9  UNL     1      14.739  -1.569   3.245  1.00  0.00     0.034 C 
ENDBRANCH  15  16
ENDBRANCH  13  15
ENDBRANCH   2  11
BRANCH   1  24
HETATM   24  N1  UNL     1      14.808  -6.076  -2.058  1.00  0.00    -0.397 N 
ATOM     25  H12 UNL     1      15.301  -5.208  -2.265  1.00  0.00     0.156 HD
ATOM     26  H11 UNL     1      15.353  -6.921  -1.888  1.00  0.00     0.156 HD
ENDBRANCH   1  24
BRANCH   4  27
HETATM   27  C11 UNL     1       9.362  -6.219  -1.726  1.00  0.00     0.095 C 
BRANCH  27  28
HETATM   28  C12 UNL     1       8.724  -6.764  -0.513  1.00  0.00     0.209 C 
BRANCH  28  29
HETATM   29  O2  UNL     1       8.134  -8.038  -0.714  1.00  0.00    -0.396 OA
ATOM     30  H2  UNL     1       7.530  -8.285  -0.023  1.00  0.00     0.209 HD
ENDBRANCH  28  29
ENDBRANCH  27  28
ENDBRANCH   4  27
BRANCH   6  31
HETATM   31  N5  UNL     1       9.308  -7.217  -4.328  1.00  0.00    -0.376 N 
HETATM   32  C15 UNL     1       8.181  -6.509  -4.823  1.00  0.00     0.123 C 
HETATM   33  C16 UNL     1       7.276  -7.288  -5.756  1.00  0.00     0.021 C 
HETATM   34  C17 UNL     1       6.735  -8.437  -4.935  1.00  0.00     0.023 C 
HETATM   35  C18 UNL     1       7.920  -9.292  -4.666  1.00  0.00     0.100 C 
HETATM   36 CL1  UNL     1       7.302 -10.635  -3.619  1.00  0.00    -0.123 Cl
HETATM   37  C19 UNL     1       9.068  -8.674  -3.988  1.00  0.00     0.143 C 
ENDBRANCH   6  31
BRANCH   7  38
HETATM   38  N6  UNL     1      10.901  -7.383  -6.710  1.00  0.00    -0.361 N 
HETATM   39  C21 UNL     1      10.797  -6.226  -7.548  1.00  0.00     0.125 C 
HETATM   40  C22 UNL     1      10.048  -6.628  -8.827  1.00  0.00     0.020 C 
HETATM   41  C23 UNL     1      10.952  -7.558  -9.568  1.00  0.00     0.005 C 
HETATM   42  C24 UNL     1      11.189  -8.752  -8.722  1.00  0.00     0.041 C 
HETATM   43  C25 UNL     1      10.577  -8.633  -7.303  1.00  0.00     0.181 C 
HETATM   44 CL2  UNL     1      11.357 -10.016  -6.458  1.00  0.00    -0.102 Cl
ENDBRANCH   7  38
TORSDOF 9
ENDMDL
MODEL 4
REMARK VINA RESULT: -7.460877154      6.412     10.828
REMARK  9 active torsions:
REMARK  status: ('A' for Active; 'I' for Inactive)
REMARK    1  A    between atoms: N1_1  and  C1_4 
REMARK    2  A    between atoms: C2_5  and  C3_6 
REMARK       I    between atoms: C3_6  and  N2_8 
REMARK    3  A    between atoms: N2_8  and  C4_10 
REMARK    4  A    between atoms: C4_10  and  C5_11 
REMARK    5  A    between atoms: N4_20  and  C11_21 
REMARK    6  A    between atoms: C11_21  and  C12_22 
REMARK    7  A    between atoms: C12_22  and  O2_23 
REMARK    8  A    between atoms: C14_26  and  N5_27 
REMARK    9  A    between atoms: C20_34  and  N6_35 
ROOT
HETATM    1  C1  UNL     1      13.283  -7.314  -2.021  1.00  0.00     0.055 A 
HETATM    2  C2  UNL     1      12.148  -6.557  -2.129  1.00  0.00     0.074 A 
HETATM    3  C10 UNL     1      11.797  -6.166  -3.364  1.00  0.00     0.116 A 
HETATM    4  N4  UNL     1      12.457  -6.445  -4.555  1.00  0.00    -0.331 N 
HETATM    5  C13 UNL     1      13.564  -7.185  -4.473  1.00  0.00     0.080 A 
HETATM    6  C14 UNL     1      14.334  -7.483  -5.572  1.00  0.00     0.085 A 
HETATM    7  C20 UNL     1      15.532  -8.208  -5.353  1.00  0.00     0.060 A 
HETATM    8  C26 UNL     1      15.895  -8.607  -4.089  1.00  0.00     0.033 A 
HETATM    9  C27 UNL     1      15.151  -8.334  -3.009  1.00  0.00     0.018 A 
HETATM   10  C28 UNL     1      13.980  -7.624  -3.162  1.00  0.00     0.021 A 
ENDROOT
BRANCH   2  11
HETATM   11  C3  UNL     1      11.381  -6.207  -0.955  1.00  0.00     0.255 C 
HETATM   12  O1  UNL     1      11.833  -5.336  -0.184  1.00  0.00    -0.268 OA
HETATM   13  N2  UNL     1      10.152  -6.858  -0.715  1.00  0.00    -0.356 N 
ATOM     14  H2  UNL     1       9.817  -7.570  -1.365  1.00  0.00     0.162 HD
BRANCH  13  15
HETATM   15  C4  UNL     1       9.369  -6.520   0.446  1.00  0.00     0.127 C 
BRANCH  15  16
HETATM   16  C5  UNL     1       7.896  -6.716   0.210  1.00  0.00     0.006 C 
HETATM   17  C6  UNL     1       7.666  -8.057  -0.461  1.00  0.00     0.034 C 
HETATM   18  C7  UNL     1       6.946  -8.976   0.471  1.00  0.00     0.232 C 
HETATM   19  N3  UNL     1       7.725  -9.089   1.691  1.00  0.00    -0.075 N 
HETATM   20  C8  UNL     1       7.675  -7.842   2.436  1.00  0.00     0.232 C 
ATOM     21  H32 UNL     1       7.432  -9.885   2.258  1.00  0.00     0.277 HD
ATOM     22  H31 UNL     1       8.684  -9.383   1.504  1.00  0.00     0.277 HD
HETATM   23  C9  UNL     1       7.186  -6.702   1.578  1.00  0.00     0.034 C 
ENDBRANCH  15  16
ENDBRANCH  13  15
ENDBRANCH   2  11
BRANCH   1  24
HETATM   24  N1  UNL     1      13.671  -7.719  -0.883  1.00  0.00    -0.397 N 
ATOM     25  H12 UNL     1      14.610  -7.517  -0.541  1.00  0.00     0.156 HD
ATOM     26  H11 UNL     1      13.040  -8.259  -0.290  1.00  0.00     0.156 HD
ENDBRANCH   1  24
BRANCH   4  27
HETATM   27  C11 UNL     1      11.894  -5.922  -5.721  1.00  0.00     0.095 C 
BRANCH  27  28
HETATM   28  C12 UNL     1      10.467  -5.574  -5.855  1.00  0.00     0.209 C 
BRANCH  28  29
HETATM   29  O2  UNL     1      10.228  -4.176  -5.841  1.00  0.00    -0.396 OA
ATOM     30  H2  UNL     1      10.900  -3.676  -6.288  1.00  0.00     0.209 HD
ENDBRANCH  28  29
ENDBRANCH  27  28
ENDBRANCH   4  27
BRANCH   6  31
HETATM   31  N5  UNL     1      13.990  -7.317  -6.919  1.00  0.00    -0.376 N 
HETATM   32  C15 UNL     1      14.366  -6.382  -7.921  1.00  0.00     0.123 C 
HETATM   33  C16 UNL     1      14.752  -6.978  -9.260  1.00  0.00     0.021 C 
HETATM   34  C17 UNL     1      13.512  -7.677  -9.769  1.00  0.00     0.023 C 
HETATM   35  C18 UNL     1      13.313  -8.811  -8.830  1.00  0.00     0.100 C 
HETATM   36 CL1  UNL     1      11.787  -9.617  -9.382  1.00  0.00    -0.123 Cl
HETATM   37  C19 UNL     1      13.175  -8.500  -7.401  1.00  0.00     0.143 C 
ENDBRANCH   6  31
BRANCH   7  38
HETATM   38  N6  UNL     1      16.554  -8.467  -6.337  1.00  0.00    -0.361 N 
HETATM   39  C21 UNL     1      17.643  -7.538  -6.393  1.00  0.00     0.125 C 
HETATM   40  C22 UNL     1      18.509  -7.890  -7.612  1.00  0.00     0.020 C 
HETATM   41  C23 UNL     1      19.143  -9.207  -7.309  1.00  0.00     0.005 C 
HETATM   42  C24 UNL     1      18.070 -10.216  -7.141  1.00  0.00     0.041 C 
HETATM   43  C25 UNL     1      16.645  -9.610  -7.176  1.00  0.00     0.181 C 
HETATM   44 CL2  UNL     1      15.654 -10.985  -6.572  1.00  0.00    -0.102 Cl
ENDBRANCH   7  38
TORSDOF 9
ENDMDL
MODEL 5
REMARK VINA RESULT: -7.328112481      6.513      9.277
REMARK  9 active torsions:
REMARK  status: ('A' for Active; 'I' for Inactive)
REMARK    1  A    between atoms: N1_1  and  C1_4 
REMARK    2  A    between atoms: C2_5  and  C3_6 
REMARK       I    between atoms: C3_6  and  N2_8 
REMARK    3  A    between atoms: N2_8  and  C4_10 
REMARK    4  A    between atoms: C4_10  and  C5_11 
REMARK    5  A    between atoms: N4_20  and  C11_21 
REMARK    6  A    between atoms: C11_21  and  C12_22 
REMARK    7  A    between atoms: C12_22  and  O2_23 
REMARK    8  A    between atoms: C14_26  and  N5_27 
REMARK    9  A    between atoms: C20_34  and  N6_35 
ROOT
HETATM    1  C1  UNL     1      13.899  -6.896  -3.005  1.00  0.00     0.055 A 
HETATM    2  C2  UNL     1      12.811  -6.506  -2.271  1.00  0.00     0.074 A 
HETATM    3  C10 UNL     1      11.663  -6.328  -2.941  1.00  0.00     0.116 A 
HETATM    4  N4  UNL     1      11.447  -6.497  -4.304  1.00  0.00    -0.331 N 
HETATM    5  C13 UNL     1      12.494  -6.880  -5.037  1.00  0.00     0.080 A 
HETATM    6  C14 UNL     1      12.421  -7.028  -6.402  1.00  0.00     0.085 A 
HETATM    7  C20 UNL     1      13.617  -7.359  -7.087  1.00  0.00     0.060 A 
HETATM    8  C26 UNL     1      14.795  -7.539  -6.403  1.00  0.00     0.033 A 
HETATM    9  C27 UNL     1      14.881  -7.409  -5.074  1.00  0.00     0.018 A 
HETATM   10  C28 UNL     1      13.751  -7.078  -4.357  1.00  0.00     0.021 A 
ENDROOT
BRANCH   2  11
HETATM   11  C3  UNL     1      12.920  -6.302  -0.844  1.00  0.00     0.255 C 
HETATM   12  O1  UNL     1      13.172  -7.283  -0.117  1.00  0.00    -0.268 OA
HETATM   13  N2  UNL     1      12.737  -5.004  -0.318  1.00  0.00    -0.356 N 
ATOM     14  H2  UNL     1      12.525  -4.226  -0.944  1.00  0.00     0.162 HD
BRANCH  13  15
HETATM   15  C4  UNL     1      12.847  -4.777   1.099  1.00  0.00     0.127 C 
BRANCH  15  16
HETATM   16  C5  UNL     1      12.691  -3.322   1.452  1.00  0.00     0.006 C 
HETATM   17  C6  UNL     1      12.687  -3.165   2.960  1.00  0.00     0.034 C 
HETATM   18  C7  UNL     1      13.915  -2.437   3.400  1.00  0.00     0.232 C 
HETATM   19  N3  UNL     1      15.074  -3.168   2.918  1.00  0.00    -0.075 N 
HETATM   20  C8  UNL     1      15.180  -3.045   1.474  1.00  0.00     0.232 C 
ATOM     21  H32 UNL     1      15.931  -2.878   3.390  1.00  0.00     0.277 HD
ATOM     22  H31 UNL     1      15.060  -4.143   3.218  1.00  0.00     0.277 HD
HETATM   23  C9  UNL     1      13.891  -2.555   0.862  1.00  0.00     0.034 C 
ENDBRANCH  15  16
ENDBRANCH  13  15
ENDBRANCH   2  11
BRANCH   1  24
HETATM   24  N1  UNL     1      15.017  -7.083  -2.434  1.00  0.00    -0.397 N 
ATOM     25  H12 UNL     1      15.114  -7.003  -1.421  1.00  0.00     0.156 HD
ATOM     26  H11 UNL     1      15.840  -7.317  -2.988  1.00  0.00     0.156 HD
ENDBRANCH   1  24
BRANCH   4  27
HETATM   27  C11 UNL     1      10.155  -6.249  -4.769  1.00  0.00     0.095 C 
BRANCH  27  28
HETATM   28  C12 UNL     1       9.505  -4.926  -4.715  1.00  0.00     0.209 C 
BRANCH  28  29
HETATM   29  O2  UNL     1      10.140  -3.956  -5.532  1.00  0.00    -0.396 OA
ATOM     30  H2  UNL     1       9.545  -3.523  -6.133  1.00  0.00     0.209 HD
ENDBRANCH  28  29
ENDBRANCH  27  28
ENDBRANCH   4  27
BRANCH   6  31
HETATM   31  N5  UNL     1      11.265  -7.071  -7.191  1.00  0.00    -0.376 N 
HETATM   32  C15 UNL     1      10.661  -6.161  -8.100  1.00  0.00     0.123 C 
HETATM   33  C16 UNL     1      10.229  -6.751  -9.427  1.00  0.00     0.021 C 
HETATM   34  C17 UNL     1       9.177  -7.784  -9.091  1.00  0.00     0.023 C 
HETATM   35  C18 UNL     1       9.919  -8.847  -8.365  1.00  0.00     0.100 C 
HETATM   36 CL1  UNL     1       8.659 -10.059  -7.889  1.00  0.00    -0.123 Cl
HETATM   37  C19 UNL     1      10.659  -8.459  -7.156  1.00  0.00     0.143 C 
ENDBRANCH   6  31
BRANCH   7  38
HETATM   38  N6  UNL     1      13.790  -7.389  -8.518  1.00  0.00    -0.361 N 
HETATM   39  C21 UNL     1      14.272  -6.189  -9.133  1.00  0.00     0.125 C 
HETATM   40  C22 UNL     1      14.208  -6.373 -10.657  1.00  0.00     0.020 C 
HETATM   41  C23 UNL     1      15.225  -7.413 -10.996  1.00  0.00     0.005 C 
HETATM   42  C24 UNL     1      14.848  -8.675 -10.316  1.00  0.00     0.041 C 
HETATM   43  C25 UNL     1      13.637  -8.522  -9.362  1.00  0.00     0.181 C 
HETATM   44 CL2  UNL     1      13.701 -10.070  -8.448  1.00  0.00    -0.102 Cl
ENDBRANCH   7  38
TORSDOF 9
ENDMDL
