MODEL 1
REMARK VINA RESULT: -9.304768744      0.000      0.000
REMARK  10 active torsions:
REMARK  status: ('A' for Active; 'I' for Inactive)
REMARK    1  A    between atoms: O1_1  and  C1_3 
REMARK    2  A    between atoms: C1_3  and  C2_4 
REMARK    3  A    between atoms: C2_4  and  C3_5 
REMARK    4  A    between atoms: C2_4  and  N1_12 
REMARK    5  A    between atoms: C3_5  and  C4_6 
REMARK    6  A    between atoms: C11_14  and  C12_15 
REMARK    7  A    between atoms: N2_19  and  C16_21 
REMARK    8  A    between atoms: C16_21  and  N3_23 
REMARK    9  A    between atoms: N8_38  and  C22_39 
REMARK   10  A    between atoms: C22_39  and  C23_40 
ROOT
HETATM    1  C12 UNL     1      13.093  -6.432  -3.072  1.00  0.00     0.050 A 
HETATM    2  C13 UNL     1      13.628  -6.928  -4.290  1.00  0.00     0.050 A 
HETATM    3  C14 UNL     1      12.639  -6.942  -5.234  1.00  0.00     0.055 A 
HETATM    4  C15 UNL     1      12.620  -7.336  -6.578  1.00  0.00     0.122 A 
HETATM    5  N2  UNL     1      13.586  -7.744  -7.193  1.00  0.00    -0.318 N 
ATOM      6  H2  UNL     1      13.180  -7.925  -8.111  1.00  0.00     0.170 HD
HETATM    7  N6  UNL     1      11.412  -7.208  -7.195  1.00  0.00    -0.338 N 
ATOM      8  H6  UNL     1      11.328  -7.477  -8.175  1.00  0.00     0.168 HD
HETATM    9  C20 UNL     1      10.327  -6.739  -6.555  1.00  0.00     0.183 A 
HETATM   10  N7  UNL     1      10.385  -6.365  -5.251  1.00  0.00    -0.338 N 
ATOM     11  H7  UNL     1       9.555  -6.008  -4.778  1.00  0.00     0.168 HD
HETATM   12  C21 UNL     1      11.534  -6.468  -4.600  1.00  0.00     0.123 A 
HETATM   13  N8  UNL     1      11.822  -6.160  -3.277  1.00  0.00    -0.331 N 
ENDROOT
BRANCH   1  14
HETATM   14  C11 UNL     1      13.969  -6.287  -1.913  1.00  0.00     0.025 A 
HETATM   15  C10 UNL     1      14.153  -5.108  -1.177  1.00  0.00     0.125 A 
HETATM   16  N1  UNL     1      15.006  -5.361  -0.171  1.00  0.00    -0.296 N 
HETATM   17  N9  UNL     1      15.395  -6.609  -0.190  1.00  0.00    -0.309 N 
HETATM   18  C27 UNL     1      14.760  -7.186  -1.260  1.00  0.00     0.122 A 
ATOM     19  H9  UNL     1      16.040  -7.061   0.459  1.00  0.00     0.186 HD
BRANCH  16  20
HETATM   20  C2  UNL     1      15.417  -4.355   0.786  1.00  0.00     0.135 C 
BRANCH  20  21
HETATM   21  C1  UNL     1      16.850  -3.927   0.538  1.00  0.00     0.191 C 
BRANCH  21  22
HETATM   22  O1  UNL     1      17.415  -3.543   1.772  1.00  0.00    -0.399 OA
ATOM     23  H1  UNL     1      18.313  -3.852   1.796  1.00  0.00     0.209 HD
ENDBRANCH  21  22
ENDBRANCH  20  21
BRANCH  20  24
HETATM   24  C3  UNL     1      14.464  -3.186   0.758  1.00  0.00     0.068 C 
BRANCH  24  25
HETATM   25  C4  UNL     1      13.981  -2.789   2.076  1.00  0.00    -0.056 A 
HETATM   26  C5  UNL     1      12.755  -3.232   2.517  1.00  0.00     0.007 A 
HETATM   27  C6  UNL     1      12.247  -2.882   3.762  1.00  0.00     0.001 A 
HETATM   28  C7  UNL     1      12.999  -2.067   4.572  1.00  0.00     0.000 A 
HETATM   29  C8  UNL     1      14.219  -1.622   4.139  1.00  0.00     0.001 A 
HETATM   30  C9  UNL     1      14.718  -1.973   2.903  1.00  0.00     0.007 A 
ENDBRANCH  24  25
ENDBRANCH  20  24
ENDBRANCH  16  20
ENDBRANCH   1  14
BRANCH  13  31
HETATM   31  C22 UNL     1      10.814  -5.691  -2.365  1.00  0.00     0.136 C 
BRANCH  31  32
HETATM   32  C23 UNL     1      10.183  -6.741  -1.527  1.00  0.00     0.015 C 
HETATM   33  C24 UNL     1       8.647  -6.650  -1.716  1.00  0.00     0.085 C 
HETATM   34  C25 UNL     1       8.472  -7.016  -0.231  1.00  0.00     0.244 C 
HETATM   35  F1  UNL     1       7.577  -6.218   0.433  1.00  0.00    -0.206 F 
HETATM   36  F2  UNL     1       8.331  -8.360  -0.038  1.00  0.00    -0.206 F 
HETATM   37  C26 UNL     1       9.917  -6.530  -0.075  1.00  0.00     0.085 C 
ENDBRANCH  31  32
ENDBRANCH  13  31
BRANCH   5  38
HETATM   38  C16 UNL     1      14.836  -8.091  -7.388  1.00  0.00     0.192 C 
HETATM   39  S1  UNL     1      15.282  -9.626  -7.830  1.00  0.00    -0.040 SA
BRANCH  38  40
HETATM   40  N3  UNL     1      15.909  -7.132  -7.200  1.00  0.00    -0.166 N 
HETATM   41  C17 UNL     1      16.874  -7.525  -6.432  1.00  0.00     0.684 A 
HETATM   42  N4  UNL     1      16.985  -8.706  -5.800  1.00  0.00    -0.200 N 
HETATM   43  N5  UNL     1      17.979  -6.784  -6.125  1.00  0.00    -0.200 N 
HETATM   44  C18 UNL     1      18.116  -8.744  -5.105  1.00  0.00     0.123 A 
ATOM     45  H4  UNL     1      16.302  -9.462  -5.847  1.00  0.00     0.183 HD
HETATM   46  C19 UNL     1      18.744  -7.542  -5.305  1.00  0.00     0.123 A 
ATOM     47  H5  UNL     1      18.189  -5.840  -6.451  1.00  0.00     0.183 HD
ATOM     48  H3  UNL     1      15.904  -6.213  -7.642  1.00  0.00     0.186 HD
ENDBRANCH  38  40
ENDBRANCH   5  38
TORSDOF 10
ENDMDL
MODEL 2
REMARK VINA RESULT: -9.240872625      1.831      2.297
REMARK  10 active torsions:
REMARK  status: ('A' for Active; 'I' for Inactive)
REMARK    1  A    between atoms: O1_1  and  C1_3 
REMARK    2  A    between atoms: C1_3  and  C2_4 
REMARK    3  A    between atoms: C2_4  and  C3_5 
REMARK    4  A    between atoms: C2_4  and  N1_12 
REMARK    5  A    between atoms: C3_5  and  C4_6 
REMARK    6  A    between atoms: C11_14  and  C12_15 
REMARK    7  A    between atoms: N2_19  and  C16_21 
REMARK    8  A    between atoms: C16_21  and  N3_23 
REMARK    9  A    between atoms: N8_38  and  C22_39 
REMARK   10  A    between atoms: C22_39  and  C23_40 
ROOT
HETATM    1  C12 UNL     1      11.783  -6.294  -1.984  1.00  0.00     0.050 A 
HETATM    2  C13 UNL     1      12.039  -6.526  -3.361  1.00  0.00     0.050 A 
HETATM    3  C14 UNL     1      10.852  -6.511  -4.039  1.00  0.00     0.055 A 
HETATM    4  C15 UNL     1      10.534  -6.690  -5.391  1.00  0.00     0.122 A 
HETATM    5  N2  UNL     1      11.347  -6.879  -6.275  1.00  0.00    -0.318 N 
ATOM      6  H2  UNL     1      10.743  -6.962  -7.092  1.00  0.00     0.170 HD
HETATM    7  N6  UNL     1       9.205  -6.612  -5.682  1.00  0.00    -0.338 N 
ATOM      8  H6  UNL     1       8.903  -6.734  -6.649  1.00  0.00     0.168 HD
HETATM    9  C20 UNL     1       8.277  -6.381  -4.737  1.00  0.00     0.183 A 
HETATM   10  N7  UNL     1       8.625  -6.210  -3.435  1.00  0.00    -0.338 N 
ATOM     11  H7  UNL     1       7.911  -6.033  -2.728  1.00  0.00     0.168 HD
HETATM   12  C21 UNL     1       9.903  -6.276  -3.094  1.00  0.00     0.123 A 
HETATM   13  N8  UNL     1      10.484  -6.146  -1.839  1.00  0.00    -0.331 N 
ENDROOT
BRANCH   1  14
HETATM   14  C11 UNL     1      12.903  -6.227  -1.049  1.00  0.00     0.025 A 
HETATM   15  C10 UNL     1      13.418  -5.054  -0.481  1.00  0.00     0.125 A 
HETATM   16  N1  UNL     1      14.423  -5.386   0.346  1.00  0.00    -0.296 N 
HETATM   17  N9  UNL     1      14.607  -6.680   0.364  1.00  0.00    -0.309 N 
HETATM   18  C27 UNL     1      13.674  -7.205  -0.492  1.00  0.00     0.122 A 
ATOM     19  H9  UNL     1      15.303  -7.194   0.905  1.00  0.00     0.186 HD
BRANCH  16  20
HETATM   20  C2  UNL     1      15.179  -4.407   1.099  1.00  0.00     0.135 C 
BRANCH  20  21
HETATM   21  C1  UNL     1      16.593  -4.287   0.561  1.00  0.00     0.191 C 
BRANCH  21  22
HETATM   22  O1  UNL     1      17.356  -3.549   1.490  1.00  0.00    -0.399 OA
ATOM     23  H1  UNL     1      17.168  -3.881   2.359  1.00  0.00     0.209 HD
ENDBRANCH  21  22
ENDBRANCH  20  21
BRANCH  20  24
HETATM   24  C3  UNL     1      14.461  -3.080   1.103  1.00  0.00     0.068 C 
BRANCH  24  25
HETATM   25  C4  UNL     1      13.919  -2.710   2.406  1.00  0.00    -0.056 A 
HETATM   26  C5  UNL     1      12.661  -3.134   2.770  1.00  0.00     0.007 A 
HETATM   27  C6  UNL     1      12.098  -2.806   3.997  1.00  0.00     0.001 A 
HETATM   28  C7  UNL     1      12.825  -2.035   4.868  1.00  0.00     0.000 A 
HETATM   29  C8  UNL     1      14.077  -1.610   4.513  1.00  0.00     0.001 A 
HETATM   30  C9  UNL     1      14.632  -1.937   3.295  1.00  0.00     0.007 A 
ENDBRANCH  24  25
ENDBRANCH  20  24
ENDBRANCH  16  20
ENDBRANCH   1  14
BRANCH  13  31
HETATM   31  C22 UNL     1       9.697  -5.948  -0.651  1.00  0.00     0.136 C 
BRANCH  31  32
HETATM   32  C23 UNL     1       9.948  -6.921   0.441  1.00  0.00     0.015 C 
HETATM   33  C24 UNL     1       8.703  -6.939   1.365  1.00  0.00     0.085 C 
HETATM   34  C25 UNL     1       9.640  -7.130   2.573  1.00  0.00     0.244 C 
HETATM   35  F1  UNL     1       9.350  -6.307   3.630  1.00  0.00    -0.206 F 
HETATM   36  F2  UNL     1       9.837  -8.445   2.877  1.00  0.00    -0.206 F 
HETATM   37  C26 UNL     1      10.723  -6.550   1.659  1.00  0.00     0.085 C 
ENDBRANCH  31  32
ENDBRANCH  13  31
BRANCH   5  38
HETATM   38  C16 UNL     1      12.534  -7.041  -6.810  1.00  0.00     0.192 C 
HETATM   39  S1  UNL     1      13.422  -5.780  -7.419  1.00  0.00    -0.040 SA
BRANCH  38  40
HETATM   40  N3  UNL     1      13.126  -8.362  -6.914  1.00  0.00    -0.166 N 
HETATM   41  C17 UNL     1      14.035  -8.631  -6.033  1.00  0.00     0.684 A 
HETATM   42  N4  UNL     1      14.481  -7.831  -5.049  1.00  0.00    -0.200 N 
HETATM   43  N5  UNL     1      14.715  -9.812  -5.948  1.00  0.00    -0.200 N 
HETATM   44  C18 UNL     1      15.417  -8.457  -4.344  1.00  0.00     0.123 A 
ATOM     45  H4  UNL     1      14.150  -6.883  -4.871  1.00  0.00     0.183 HD
HETATM   46  C19 UNL     1      15.567  -9.700  -4.902  1.00  0.00     0.123 A 
ATOM     47  H5  UNL     1      14.602 -10.624  -6.555  1.00  0.00     0.183 HD
ATOM     48  H3  UNL     1      12.846  -9.031  -7.631  1.00  0.00     0.186 HD
ENDBRANCH  38  40
ENDBRANCH   5  38
TORSDOF 10
ENDMDL
MODEL 3
REMARK VINA RESULT: -9.173889754      1.612      2.201
REMARK  10 active torsions:
REMARK  status: ('A' for Active; 'I' for Inactive)
REMARK    1  A    between atoms: O1_1  and  C1_3 
REMARK    2  A    between atoms: C1_3  and  C2_4 
REMARK    3  A    between atoms: C2_4  and  C3_5 
REMARK    4  A    between atoms: C2_4  and  N1_12 
REMARK    5  A    between atoms: C3_5  and  C4_6 
REMARK    6  A    between atoms: C11_14  and  C12_15 
REMARK    7  A    between atoms: N2_19  and  C16_21 
REMARK    8  A    between atoms: C16_21  and  N3_23 
REMARK    9  A    between atoms: N8_38  and  C22_39 
REMARK   10  A    between atoms: C22_39  and  C23_40 
ROOT
HETATM    1  C12 UNL     1      12.378  -6.432  -2.532  1.00  0.00     0.050 A 
HETATM    2  C13 UNL     1      12.908  -6.841  -3.784  1.00  0.00     0.050 A 
HETATM    3  C14 UNL     1      11.905  -6.831  -4.713  1.00  0.00     0.055 A 
HETATM    4  C15 UNL     1      11.876  -7.148  -6.077  1.00  0.00     0.122 A 
HETATM    5  N2  UNL     1      12.844  -7.491  -6.728  1.00  0.00    -0.318 N 
ATOM      6  H2  UNL     1      12.429  -7.632  -7.649  1.00  0.00     0.170 HD
HETATM    7  N6  UNL     1      10.656  -7.022  -6.669  1.00  0.00    -0.338 N 
ATOM      8  H6  UNL     1      10.564  -7.237  -7.662  1.00  0.00     0.168 HD
HETATM    9  C20 UNL     1       9.568  -6.622  -5.988  1.00  0.00     0.183 A 
HETATM   10  N7  UNL     1       9.635  -6.321  -4.665  1.00  0.00    -0.338 N 
ATOM     11  H7  UNL     1       8.802  -6.018  -4.162  1.00  0.00     0.168 HD
HETATM   12  C21 UNL     1      10.796  -6.427  -4.038  1.00  0.00     0.123 A 
HETATM   13  N8  UNL     1      11.096  -6.186  -2.704  1.00  0.00    -0.331 N 
ENDROOT
BRANCH   1  14
HETATM   14  C11 UNL     1      13.267  -6.326  -1.379  1.00  0.00     0.025 A 
HETATM   15  C10 UNL     1      13.765  -5.129  -0.844  1.00  0.00     0.125 A 
HETATM   16  N1  UNL     1      14.524  -5.422   0.224  1.00  0.00    -0.296 N 
HETATM   17  N9  UNL     1      14.564  -6.713   0.431  1.00  0.00    -0.309 N 
HETATM   18  C27 UNL     1      13.791  -7.276  -0.552  1.00  0.00     0.122 A 
ATOM     19  H9  UNL     1      15.067  -7.201   1.172  1.00  0.00     0.186 HD
BRANCH  16  20
HETATM   20  C2  UNL     1      15.195  -4.412   1.015  1.00  0.00     0.135 C 
BRANCH  20  21
HETATM   21  C1  UNL     1      16.618  -4.206   0.533  1.00  0.00     0.191 C 
BRANCH  21  22
HETATM   22  O1  UNL     1      17.336  -3.542   1.549  1.00  0.00    -0.399 OA
ATOM     23  H1  UNL     1      18.264  -3.640   1.369  1.00  0.00     0.209 HD
ENDBRANCH  21  22
ENDBRANCH  20  21
BRANCH  20  24
HETATM   24  C3  UNL     1      14.403  -3.128   1.005  1.00  0.00     0.068 C 
BRANCH  24  25
HETATM   25  C4  UNL     1      13.902  -2.737   2.318  1.00  0.00    -0.056 A 
HETATM   26  C5  UNL     1      12.648  -3.139   2.720  1.00  0.00     0.007 A 
HETATM   27  C6  UNL     1      12.122  -2.791   3.958  1.00  0.00     0.001 A 
HETATM   28  C7  UNL     1      12.885  -2.023   4.802  1.00  0.00     0.000 A 
HETATM   29  C8  UNL     1      14.132  -1.619   4.409  1.00  0.00     0.001 A 
HETATM   30  C9  UNL     1      14.649  -1.967   3.180  1.00  0.00     0.007 A 
ENDBRANCH  24  25
ENDBRANCH  20  24
ENDBRANCH  16  20
ENDBRANCH   1  14
BRANCH  13  31
HETATM   31  C22 UNL     1      10.089  -5.800  -1.752  1.00  0.00     0.136 C 
BRANCH  31  32
HETATM   32  C23 UNL     1       9.787  -6.810  -0.707  1.00  0.00     0.015 C 
HETATM   33  C24 UNL     1       8.263  -6.771  -0.425  1.00  0.00     0.085 C 
HETATM   34  C25 UNL     1       8.562  -7.046   1.061  1.00  0.00     0.244 C 
HETATM   35  F1  UNL     1       7.874  -6.230   1.921  1.00  0.00    -0.206 F 
HETATM   36  F2  UNL     1       8.544  -8.377   1.359  1.00  0.00    -0.206 F 
HETATM   37  C26 UNL     1       9.963  -6.514   0.743  1.00  0.00     0.085 C 
ENDBRANCH  31  32
ENDBRANCH  13  31
BRANCH   5  38
HETATM   38  C16 UNL     1      14.100  -7.789  -6.960  1.00  0.00     0.192 C 
HETATM   39  S1  UNL     1      14.882  -9.037  -6.197  1.00  0.00    -0.040 SA
BRANCH  38  40
HETATM   40  N3  UNL     1      14.885  -7.009  -7.900  1.00  0.00    -0.166 N 
HETATM   41  C17 UNL     1      14.689  -7.289  -9.148  1.00  0.00     0.684 A 
HETATM   42  N4  UNL     1      13.851  -8.207  -9.658  1.00  0.00    -0.200 N 
HETATM   43  N5  UNL     1      15.318  -6.675 -10.194  1.00  0.00    -0.200 N 
HETATM   44  C18 UNL     1      13.923  -8.202 -10.984  1.00  0.00     0.123 A 
ATOM     45  H4  UNL     1      13.248  -8.819  -9.108  1.00  0.00     0.183 HD
HETATM   46  C19 UNL     1      14.841  -7.242 -11.326  1.00  0.00     0.123 A 
ATOM     47  H5  UNL     1      16.014  -5.932 -10.134  1.00  0.00     0.183 HD
ATOM     48  H3  UNL     1      15.545  -6.293  -7.598  1.00  0.00     0.186 HD
ENDBRANCH  38  40
ENDBRANCH   5  38
TORSDOF 10
ENDMDL
MODEL 4
REMARK VINA RESULT: -9.131471569      1.379      1.780
REMARK  10 active torsions:
REMARK  status: ('A' for Active; 'I' for Inactive)
REMARK    1  A    between atoms: O1_1  and  C1_3 
REMARK    2  A    between atoms: C1_3  and  C2_4 
REMARK    3  A    between atoms: C2_4  and  C3_5 
REMARK    4  A    between atoms: C2_4  and  N1_12 
REMARK    5  A    between atoms: C3_5  and  C4_6 
REMARK    6  A    between atoms: C11_14  and  C12_15 
REMARK    7  A    between atoms: N2_19  and  C16_21 
REMARK    8  A    between atoms: C16_21  and  N3_23 
REMARK    9  A    between atoms: N8_38  and  C22_39 
REMARK   10  A    between atoms: C22_39  and  C23_40 
ROOT
HETATM    1  C12 UNL     1      12.729  -6.720  -3.359  1.00  0.00     0.050 A 
HETATM    2  C13 UNL     1      13.722  -7.513  -3.993  1.00  0.00     0.050 A 
HETATM    3  C14 UNL     1      13.356  -7.724  -5.293  1.00  0.00     0.055 A 
HETATM    4  C15 UNL     1      13.957  -8.430  -6.342  1.00  0.00     0.122 A 
HETATM    5  N2  UNL     1      15.025  -9.006  -6.266  1.00  0.00    -0.318 N 
ATOM      6  H2  UNL     1      15.116  -9.391  -7.206  1.00  0.00     0.170 HD
HETATM    7  N6  UNL     1      13.262  -8.416  -7.514  1.00  0.00    -0.338 N 
ATOM      8  H6  UNL     1      13.644  -8.912  -8.320  1.00  0.00     0.168 HD
HETATM    9  C20 UNL     1      12.091  -7.771  -7.645  1.00  0.00     0.183 A 
HETATM   10  N7  UNL     1      11.539  -7.094  -6.604  1.00  0.00    -0.338 N 
ATOM     11  H7  UNL     1      10.650  -6.607  -6.718  1.00  0.00     0.168 HD
HETATM   12  C21 UNL     1      12.171  -7.074  -5.440  1.00  0.00     0.123 A 
HETATM   13  N8  UNL     1      11.795  -6.464  -4.250  1.00  0.00    -0.331 N 
ENDROOT
BRANCH   1  14
HETATM   14  C11 UNL     1      12.910  -6.327  -1.965  1.00  0.00     0.025 A 
HETATM   15  C10 UNL     1      14.011  -5.622  -1.456  1.00  0.00     0.125 A 
HETATM   16  N1  UNL     1      13.816  -5.418  -0.143  1.00  0.00    -0.296 N 
HETATM   17  N9  UNL     1      12.679  -5.931   0.248  1.00  0.00    -0.309 N 
HETATM   18  C27 UNL     1      12.115  -6.492  -0.869  1.00  0.00     0.122 A 
ATOM     19  H9  UNL     1      12.291  -5.917   1.192  1.00  0.00     0.186 HD
BRANCH  16  20
HETATM   20  C2  UNL     1      14.767  -4.716   0.694  1.00  0.00     0.135 C 
BRANCH  20  21
HETATM   21  C1  UNL     1      16.186  -4.947   0.210  1.00  0.00     0.191 C 
BRANCH  21  22
HETATM   22  O1  UNL     1      17.003  -3.925   0.735  1.00  0.00    -0.399 OA
ATOM     23  H1  UNL     1      17.672  -4.328   1.275  1.00  0.00     0.209 HD
ENDBRANCH  21  22
ENDBRANCH  20  21
BRANCH  20  24
HETATM   24  C3  UNL     1      14.424  -3.249   0.760  1.00  0.00     0.068 C 
BRANCH  24  25
HETATM   25  C4  UNL     1      14.029  -2.796   2.089  1.00  0.00    -0.056 A 
HETATM   26  C5  UNL     1      12.800  -3.152   2.596  1.00  0.00     0.007 A 
HETATM   27  C6  UNL     1      12.374  -2.745   3.855  1.00  0.00     0.001 A 
HETATM   28  C7  UNL     1      13.212  -1.964   4.611  1.00  0.00     0.000 A 
HETATM   29  C8  UNL     1      14.437  -1.607   4.113  1.00  0.00     0.001 A 
HETATM   30  C9  UNL     1      14.854  -2.013   2.864  1.00  0.00     0.007 A 
ENDBRANCH  24  25
ENDBRANCH  20  24
ENDBRANCH  16  20
ENDBRANCH   1  14
BRANCH  13  31
HETATM   31  C22 UNL     1      10.551  -5.756  -4.114  1.00  0.00     0.136 C 
BRANCH  31  32
HETATM   32  C23 UNL     1       9.377  -6.600  -3.779  1.00  0.00     0.015 C 
HETATM   33  C24 UNL     1       8.817  -6.125  -2.413  1.00  0.00     0.085 C 
HETATM   34  C25 UNL     1       8.485  -7.591  -2.075  1.00  0.00     0.244 C 
HETATM   35  F1  UNL     1       8.876  -7.968  -0.816  1.00  0.00    -0.206 F 
HETATM   36  F2  UNL     1       7.214  -7.934  -2.433  1.00  0.00    -0.206 F 
HETATM   37  C26 UNL     1       9.530  -7.937  -3.140  1.00  0.00     0.085 C 
ENDBRANCH  31  32
ENDBRANCH  13  31
BRANCH   5  38
HETATM   38  C16 UNL     1      16.131  -9.431  -5.703  1.00  0.00     0.192 C 
HETATM   39  S1  UNL     1      16.604 -11.020  -5.740  1.00  0.00    -0.040 SA
BRANCH  38  40
HETATM   40  N3  UNL     1      16.999  -8.512  -4.989  1.00  0.00    -0.166 N 
HETATM   41  C17 UNL     1      18.105  -8.216  -5.591  1.00  0.00     0.684 A 
HETATM   42  N4  UNL     1      18.530  -8.662  -6.786  1.00  0.00    -0.200 N 
HETATM   43  N5  UNL     1      19.060  -7.371  -5.100  1.00  0.00    -0.200 N 
HETATM   44  C18 UNL     1      19.715  -8.134  -7.073  1.00  0.00     0.123 A 
ATOM     45  H4  UNL     1      18.018  -9.310  -7.384  1.00  0.00     0.183 HD
HETATM   46  C19 UNL     1      20.052  -7.324  -6.020  1.00  0.00     0.123 A 
ATOM     47  H5  UNL     1      19.031  -6.872  -4.211  1.00  0.00     0.183 HD
ATOM     48  H3  UNL     1      16.754  -8.127  -4.077  1.00  0.00     0.186 HD
ENDBRANCH  38  40
ENDBRANCH   5  38
TORSDOF 10
ENDMDL
MODEL 5
REMARK VINA RESULT: -9.103612186      5.054      8.263
REMARK  10 active torsions:
REMARK  status: ('A' for Active; 'I' for Inactive)
REMARK    1  A    between atoms: O1_1  and  C1_3 
REMARK    2  A    between atoms: C1_3  and  C2_4 
REMARK    3  A    between atoms: C2_4  and  C3_5 
REMARK    4  A    between atoms: C2_4  and  N1_12 
REMARK    5  A    between atoms: C3_5  and  C4_6 
REMARK    6  A    between atoms: C11_14  and  C12_15 
REMARK    7  A    between atoms: N2_19  and  C16_21 
REMARK    8  A    between atoms: C16_21  and  N3_23 
REMARK    9  A    between atoms: N8_38  and  C22_39 
REMARK   10  A    between atoms: C22_39  and  C23_40 
ROOT
HETATM    1  C12 UNL     1       9.413  -7.378  -1.421  1.00  0.00     0.050 A 
HETATM    2  C13 UNL     1       8.724  -7.675  -0.215  1.00  0.00     0.050 A 
HETATM    3  C14 UNL     1       7.530  -8.267  -0.523  1.00  0.00     0.055 A 
HETATM    4  C15 UNL     1       6.481  -8.746   0.271  1.00  0.00     0.122 A 
HETATM    5  N2  UNL     1       6.472  -8.737   1.487  1.00  0.00    -0.318 N 
ATOM      6  H2  UNL     1       5.563  -9.153   1.686  1.00  0.00     0.170 HD
HETATM    7  N6  UNL     1       5.431  -9.269  -0.423  1.00  0.00    -0.338 N 
ATOM      8  H6  UNL     1       4.632  -9.636   0.094  1.00  0.00     0.168 HD
HETATM    9  C20 UNL     1       5.413  -9.319  -1.766  1.00  0.00     0.183 A 
HETATM   10  N7  UNL     1       6.452  -8.845  -2.502  1.00  0.00    -0.338 N 
ATOM     11  H7  UNL     1       6.426  -8.891  -3.521  1.00  0.00     0.168 HD
HETATM   12  C21 UNL     1       7.499  -8.325  -1.881  1.00  0.00     0.123 A 
HETATM   13  N8  UNL     1       8.656  -7.777  -2.421  1.00  0.00    -0.331 N 
ENDROOT
BRANCH   1  14
HETATM   14  C11 UNL     1      10.738  -6.769  -1.357  1.00  0.00     0.025 A 
HETATM   15  C10 UNL     1      11.382  -6.347  -0.185  1.00  0.00     0.125 A 
HETATM   16  N1  UNL     1      12.592  -5.865  -0.513  1.00  0.00    -0.296 N 
HETATM   17  N9  UNL     1      12.791  -5.937  -1.803  1.00  0.00    -0.309 N 
HETATM   18  C27 UNL     1      11.654  -6.494  -2.330  1.00  0.00     0.122 A 
ATOM     19  H9  UNL     1      13.623  -5.640  -2.314  1.00  0.00     0.186 HD
BRANCH  16  20
HETATM   20  C2  UNL     1      13.523  -5.343   0.465  1.00  0.00     0.135 C 
BRANCH  20  21
HETATM   21  C1  UNL     1      14.886  -5.992   0.314  1.00  0.00     0.191 C 
BRANCH  21  22
HETATM   22  O1  UNL     1      15.446  -5.560  -0.907  1.00  0.00    -0.399 OA
ATOM     23  H1  UNL     1      14.762  -5.139  -1.414  1.00  0.00     0.209 HD
ENDBRANCH  21  22
ENDBRANCH  20  21
BRANCH  20  24
HETATM   24  C3  UNL     1      13.599  -3.839   0.365  1.00  0.00     0.068 C 
BRANCH  24  25
HETATM   25  C4  UNL     1      13.869  -3.179   1.637  1.00  0.00    -0.056 A 
HETATM   26  C5  UNL     1      12.908  -3.172   2.623  1.00  0.00     0.007 A 
HETATM   27  C6  UNL     1      13.113  -2.554   3.850  1.00  0.00     0.001 A 
HETATM   28  C7  UNL     1      14.315  -1.933   4.080  1.00  0.00     0.000 A 
HETATM   29  C8  UNL     1      15.275  -1.936   3.104  1.00  0.00     0.001 A 
HETATM   30  C9  UNL     1      15.067  -2.550   1.888  1.00  0.00     0.007 A 
ENDBRANCH  24  25
ENDBRANCH  20  24
ENDBRANCH  16  20
ENDBRANCH   1  14
BRANCH  13  31
HETATM   31  C22 UNL     1       8.854  -7.661  -3.841  1.00  0.00     0.136 C 
BRANCH  31  32
HETATM   32  C23 UNL     1       8.281  -6.441  -4.461  1.00  0.00     0.015 C 
HETATM   33  C24 UNL     1       9.073  -6.143  -5.761  1.00  0.00     0.085 C 
HETATM   34  C25 UNL     1       8.927  -4.638  -5.469  1.00  0.00     0.244 C 
HETATM   35  F1  UNL     1      10.093  -3.933  -5.614  1.00  0.00    -0.206 F 
HETATM   36  F2  UNL     1       7.824  -4.096  -6.063  1.00  0.00    -0.206 F 
HETATM   37  C26 UNL     1       8.683  -5.075  -4.021  1.00  0.00     0.085 C 
ENDBRANCH  31  32
ENDBRANCH  13  31
BRANCH   5  38
HETATM   38  C16 UNL     1       6.929  -8.516   2.696  1.00  0.00     0.192 C 
HETATM   39  S1  UNL     1       8.547  -8.382   3.034  1.00  0.00    -0.040 SA
BRANCH  38  40
HETATM   40  N3  UNL     1       6.019  -8.396   3.821  1.00  0.00    -0.166 N 
HETATM   41  C17 UNL     1       5.751  -9.503   4.435  1.00  0.00     0.684 A 
HETATM   42  N4  UNL     1       6.216 -10.731   4.146  1.00  0.00    -0.200 N 
HETATM   43  N5  UNL     1       4.925  -9.616   5.517  1.00  0.00    -0.200 N 
HETATM   44  C18 UNL     1       5.719 -11.618   5.001  1.00  0.00     0.123 A 
ATOM     45  H4  UNL     1       6.857 -10.950   3.383  1.00  0.00     0.183 HD
HETATM   46  C19 UNL     1       4.909 -10.924   5.863  1.00  0.00     0.123 A 
ATOM     47  H5  UNL     1       4.417  -8.860   5.976  1.00  0.00     0.183 HD
ATOM     48  H3  UNL     1       5.619  -7.503   4.107  1.00  0.00     0.186 HD
ENDBRANCH  38  40
ENDBRANCH   5  38
TORSDOF 10
ENDMDL
