MODEL 1
REMARK VINA RESULT: -7.528208967      0.000      0.000
REMARK  11 active torsions:
REMARK  status: ('A' for Active; 'I' for Inactive)
REMARK    1  A    between atoms: C4_4  and  O1_5 
REMARK    2  A    between atoms: O1_5  and  C5_6 
REMARK    3  A    between atoms: C10_13  and  O2_14 
REMARK    4  A    between atoms: O2_14  and  C11_15 
REMARK    5  A    between atoms: C11_15  and  C12_16 
REMARK    6  A    between atoms: C12_16  and  O3_17 
REMARK    7  A    between atoms: C13_19  and  C14_20 
REMARK    8  A    between atoms: C15_21  and  C16_22 
REMARK    9  A    between atoms: C18_24  and  O4_25 
REMARK   10  A    between atoms: C20_28  and  O5_29 
REMARK   11  A    between atoms: C21_31  and  O6_32 
ROOT
HETATM    1  C1  UNL     1      13.991  -8.754  -3.229  1.00  0.00     0.056 C 
HETATM    2  C2  UNL     1      13.336  -7.737  -2.343  1.00  0.00    -0.018 A 
HETATM    3  C3  UNL     1      12.019  -7.357  -2.321  1.00  0.00     0.052 A 
HETATM    4  C4  UNL     1      11.658  -6.423  -1.438  1.00  0.00     0.094 A 
HETATM    5  C13 UNL     1      12.632  -5.914  -0.623  1.00  0.00     0.039 A 
HETATM    6  S1  UNL     1      14.029  -6.769  -1.124  1.00  0.00    -0.092 SA
ENDROOT
BRANCH   4   7
HETATM    7  O1  UNL     1      10.334  -5.940  -1.308  1.00  0.00    -0.305 OA
BRANCH   7   8
HETATM    8  C5  UNL     1       9.242  -6.795  -1.214  1.00  0.00     0.126 A 
HETATM    9  C6  UNL     1       8.552  -7.205  -2.329  1.00  0.00     0.049 A 
HETATM   10 BR1  UNL     1       9.083  -6.602  -4.074  1.00  0.00    -0.048 Br
HETATM   11  C7  UNL     1       7.478  -8.053  -2.180  1.00  0.00     0.041 A 
HETATM   12  C8  UNL     1       7.086  -8.490  -0.950  1.00  0.00     0.015 A 
HETATM   13 BR2  UNL     1       5.595  -9.664  -0.773  1.00  0.00    -0.051 Br
HETATM   14  C9  UNL     1       7.807  -8.055   0.157  1.00  0.00     0.058 A 
HETATM   15  C10 UNL     1       8.891  -7.209   0.087  1.00  0.00     0.105 A 
BRANCH  15  16
HETATM   16  O2  UNL     1       9.623  -6.758   1.087  1.00  0.00    -0.346 OA
BRANCH  16  17
HETATM   17  C11 UNL     1      10.163  -6.972   2.281  1.00  0.00     0.201 C 
BRANCH  17  18
HETATM   18  C12 UNL     1       9.186  -7.017   3.413  1.00  0.00     0.190 C 
BRANCH  18  19
HETATM   19  O3  UNL     1       9.096  -5.925   4.207  1.00  0.00    -0.399 OA
ATOM     20  H3  UNL     1       9.802  -5.770   4.824  1.00  0.00     0.209 HD
ENDBRANCH  18  19
ENDBRANCH  17  18
ENDBRANCH  16  17
ENDBRANCH  15  16
ENDBRANCH   7   8
ENDBRANCH   4   7
BRANCH   5  21
HETATM   21  C14 UNL     1      12.542  -4.901   0.421  1.00  0.00     0.018 C 
HETATM   22  C15 UNL     1      13.595  -4.171   0.698  1.00  0.00    -0.018 C 
BRANCH  22  23
HETATM   23  C16 UNL     1      13.569  -3.111   1.760  1.00  0.00     0.042 C 
HETATM   24  C17 UNL     1      13.080  -3.769   3.017  1.00  0.00     0.043 C 
HETATM   25  C18 UNL     1      13.164  -2.807   4.158  1.00  0.00     0.121 C 
HETATM   26  C19 UNL     1      14.587  -2.374   4.347  1.00  0.00     0.066 C 
HETATM   27  C20 UNL     1      15.229  -1.810   3.129  1.00  0.00     0.150 C 
HETATM   28  C21 UNL     1      14.933  -2.532   1.860  1.00  0.00     0.154 C 
BRANCH  25  29
HETATM   29  O4  UNL     1      12.266  -1.763   4.070  1.00  0.00    -0.395 OA
ATOM     30  H4  UNL     1      12.628  -0.981   3.672  1.00  0.00     0.210 HD
ENDBRANCH  25  29
BRANCH  27  31
HETATM   31  O5  UNL     1      14.942  -0.449   3.043  1.00  0.00    -0.393 OA
ATOM     32  H5  UNL     1      14.822  -0.209   2.132  1.00  0.00     0.210 HD
ENDBRANCH  27  31
BRANCH  28  33
HETATM   33  O6  UNL     1      15.906  -3.505   1.558  1.00  0.00    -0.392 OA
ATOM     34  H6  UNL     1      16.689  -3.364   2.076  1.00  0.00     0.210 HD
ENDBRANCH  28  33
ENDBRANCH  22  23
ENDBRANCH   5  21
TORSDOF 11
ENDMDL
MODEL 2
REMARK VINA RESULT: -7.491965336      3.025      5.806
REMARK  11 active torsions:
REMARK  status: ('A' for Active; 'I' for Inactive)
REMARK    1  A    between atoms: C4_4  and  O1_5 
REMARK    2  A    between atoms: O1_5  and  C5_6 
REMARK    3  A    between atoms: C10_13  and  O2_14 
REMARK    4  A    between atoms: O2_14  and  C11_15 
REMARK    5  A    between atoms: C11_15  and  C12_16 
REMARK    6  A    between atoms: C12_16  and  O3_17 
REMARK    7  A    between atoms: C13_19  and  C14_20 
REMARK    8  A    between atoms: C15_21  and  C16_22 
REMARK    9  A    between atoms: C18_24  and  O4_25 
REMARK   10  A    between atoms: C20_28  and  O5_29 
REMARK   11  A    between atoms: C21_31  and  O6_32 
ROOT
HETATM    1  C1  UNL     1       8.130  -7.390  -1.551  1.00  0.00     0.056 C 
HETATM    2  C2  UNL     1       9.494  -6.864  -1.219  1.00  0.00    -0.018 A 
HETATM    3  C3  UNL     1      10.528  -6.591  -2.076  1.00  0.00     0.052 A 
HETATM    4  C4  UNL     1      11.664  -6.126  -1.551  1.00  0.00     0.094 A 
HETATM    5  C13 UNL     1      11.709  -5.958  -0.194  1.00  0.00     0.039 A 
HETATM    6  S1  UNL     1      10.149  -6.460   0.301  1.00  0.00    -0.092 SA
ENDROOT
BRANCH   4   7
HETATM    7  O1  UNL     1      12.807  -5.803  -2.320  1.00  0.00    -0.305 OA
BRANCH   7   8
HETATM    8  C5  UNL     1      13.504  -6.763  -3.046  1.00  0.00     0.126 A 
HETATM    9  C6  UNL     1      14.567  -7.444  -2.502  1.00  0.00     0.049 A 
HETATM   10 BR1  UNL     1      15.128  -7.085  -0.700  1.00  0.00    -0.048 Br
HETATM   11  C7  UNL     1      15.222  -8.384  -3.264  1.00  0.00     0.041 A 
HETATM   12  C8  UNL     1      14.840  -8.651  -4.544  1.00  0.00     0.015 A 
HETATM   13 BR2  UNL     1      15.765  -9.958  -5.576  1.00  0.00    -0.051 Br
HETATM   14  C9  UNL     1      13.760  -7.944  -5.062  1.00  0.00     0.058 A 
HETATM   15  C10 UNL     1      13.055  -6.990  -4.362  1.00  0.00     0.105 A 
BRANCH  15  16
HETATM   16  O2  UNL     1      12.024  -6.284  -4.783  1.00  0.00    -0.346 OA
BRANCH  16  17
HETATM   17  C11 UNL     1      11.467  -5.558  -5.745  1.00  0.00     0.201 C 
BRANCH  17  18
HETATM   18  C12 UNL     1      12.174  -5.614  -7.063  1.00  0.00     0.190 C 
BRANCH  18  19
HETATM   19  O3  UNL     1      13.080  -4.644  -7.331  1.00  0.00    -0.399 OA
ATOM     20  H3  UNL     1      13.053  -4.243  -8.192  1.00  0.00     0.209 HD
ENDBRANCH  18  19
ENDBRANCH  17  18
ENDBRANCH  16  17
ENDBRANCH  15  16
ENDBRANCH   7   8
ENDBRANCH   4   7
BRANCH   5  21
HETATM   21  C14 UNL     1      12.793  -5.475   0.652  1.00  0.00     0.018 C 
HETATM   22  C15 UNL     1      12.692  -4.294   1.213  1.00  0.00    -0.018 C 
BRANCH  22  23
HETATM   23  C16 UNL     1      13.771  -3.739   2.095  1.00  0.00     0.042 C 
HETATM   24  C17 UNL     1      14.441  -2.641   1.321  1.00  0.00     0.043 C 
HETATM   25  C18 UNL     1      15.435  -1.943   2.191  1.00  0.00     0.121 C 
HETATM   26  C19 UNL     1      14.738  -1.356   3.381  1.00  0.00     0.066 C 
HETATM   27  C20 UNL     1      13.934  -2.328   4.169  1.00  0.00     0.150 C 
HETATM   28  C21 UNL     1      13.141  -3.299   3.365  1.00  0.00     0.154 C 
BRANCH  25  29
HETATM   29  O4  UNL     1      16.534  -2.715   2.509  1.00  0.00    -0.395 OA
ATOM     30  H4  UNL     1      16.404  -3.270   3.268  1.00  0.00     0.210 HD
ENDBRANCH  25  29
BRANCH  27  31
HETATM   31  O5  UNL     1      14.756  -2.959   5.102  1.00  0.00    -0.393 OA
ATOM     32  H5  UNL     1      14.300  -3.021   5.933  1.00  0.00     0.210 HD
ENDBRANCH  27  31
BRANCH  28  33
HETATM   33  O6  UNL     1      11.824  -2.854   3.135  1.00  0.00    -0.392 OA
ATOM     34  H6  UNL     1      11.492  -3.207   2.318  1.00  0.00     0.210 HD
ENDBRANCH  28  33
ENDBRANCH  22  23
ENDBRANCH   5  21
TORSDOF 11
ENDMDL
MODEL 3
REMARK VINA RESULT: -7.417720111      3.229      6.540
REMARK  11 active torsions:
REMARK  status: ('A' for Active; 'I' for Inactive)
REMARK    1  A    between atoms: C4_4  and  O1_5 
REMARK    2  A    between atoms: O1_5  and  C5_6 
REMARK    3  A    between atoms: C10_13  and  O2_14 
REMARK    4  A    between atoms: O2_14  and  C11_15 
REMARK    5  A    between atoms: C11_15  and  C12_16 
REMARK    6  A    between atoms: C12_16  and  O3_17 
REMARK    7  A    between atoms: C13_19  and  C14_20 
REMARK    8  A    between atoms: C15_21  and  C16_22 
REMARK    9  A    between atoms: C18_24  and  O4_25 
REMARK   10  A    between atoms: C20_28  and  O5_29 
REMARK   11  A    between atoms: C21_31  and  O6_32 
ROOT
HETATM    1  C1  UNL     1      10.147  -4.651  -5.919  1.00  0.00     0.056 C 
HETATM    2  C2  UNL     1      10.120  -5.415  -4.628  1.00  0.00    -0.018 A 
HETATM    3  C3  UNL     1      11.134  -6.131  -4.048  1.00  0.00     0.052 A 
HETATM    4  C4  UNL     1      10.879  -6.736  -2.885  1.00  0.00     0.094 A 
HETATM    5  C13 UNL     1       9.624  -6.595  -2.362  1.00  0.00     0.039 A 
HETATM    6  S1  UNL     1       8.838  -5.613  -3.524  1.00  0.00    -0.092 SA
ENDROOT
BRANCH   4   7
HETATM    7  O1  UNL     1      11.834  -7.506  -2.178  1.00  0.00    -0.305 OA
BRANCH   7   8
HETATM    8  C5  UNL     1      12.963  -8.033  -2.797  1.00  0.00     0.126 A 
HETATM    9  C6  UNL     1      12.907  -9.198  -3.522  1.00  0.00     0.049 A 
HETATM   10 BR1  UNL     1      11.247 -10.146  -3.707  1.00  0.00    -0.048 Br
HETATM   11  C7  UNL     1      14.054  -9.676  -4.114  1.00  0.00     0.041 A 
HETATM   12  C8  UNL     1      15.241  -9.017  -3.993  1.00  0.00     0.015 A 
HETATM   13 BR2  UNL     1      16.813  -9.700  -4.823  1.00  0.00    -0.051 Br
HETATM   14  C9  UNL     1      15.261  -7.841  -3.252  1.00  0.00     0.058 A 
HETATM   15  C10 UNL     1      14.156  -7.301  -2.632  1.00  0.00     0.105 A 
BRANCH  15  16
HETATM   16  O2  UNL     1      14.096  -6.194  -1.918  1.00  0.00    -0.346 OA
BRANCH  16  17
HETATM   17  C11 UNL     1      14.591  -5.456  -0.930  1.00  0.00     0.201 C 
BRANCH  17  18
HETATM   18  C12 UNL     1      13.623  -5.148   0.168  1.00  0.00     0.190 C 
BRANCH  18  19
HETATM   19  O3  UNL     1      12.307  -5.342  -0.082  1.00  0.00    -0.399 OA
ATOM     20  H3  UNL     1      11.883  -4.748  -0.690  1.00  0.00     0.209 HD
ENDBRANCH  18  19
ENDBRANCH  17  18
ENDBRANCH  16  17
ENDBRANCH  15  16
ENDBRANCH   7   8
ENDBRANCH   4   7
BRANCH   5  21
HETATM   21  C14 UNL     1       9.059  -7.130  -1.129  1.00  0.00     0.018 C 
HETATM   22  C15 UNL     1       8.988  -6.361  -0.070  1.00  0.00    -0.018 C 
BRANCH  22  23
HETATM   23  C16 UNL     1       8.417  -6.849   1.229  1.00  0.00     0.042 C 
HETATM   24  C17 UNL     1       7.902  -8.237   0.982  1.00  0.00     0.043 C 
HETATM   25  C18 UNL     1       7.448  -8.845   2.268  1.00  0.00     0.121 C 
HETATM   26  C19 UNL     1       8.597  -8.908   3.228  1.00  0.00     0.066 C 
HETATM   27  C20 UNL     1       9.276  -7.606   3.468  1.00  0.00     0.150 C 
HETATM   28  C21 UNL     1       9.486  -6.765   2.257  1.00  0.00     0.154 C 
BRANCH  25  29
HETATM   29  O4  UNL     1       6.312  -8.258   2.789  1.00  0.00    -0.395 OA
ATOM     30  H4  UNL     1       5.539  -8.380   2.252  1.00  0.00     0.210 HD
ENDBRANCH  25  29
BRANCH  27  31
HETATM   31  O5  UNL     1       8.611  -6.918   4.481  1.00  0.00    -0.393 OA
ATOM     32  H5  UNL     1       9.223  -6.341   4.924  1.00  0.00     0.210 HD
ENDBRANCH  27  31
BRANCH  28  33
HETATM   33  O6  UNL     1      10.751  -6.976   1.672  1.00  0.00    -0.392 OA
ATOM     34  H6  UNL     1      11.265  -6.178   1.696  1.00  0.00     0.210 HD
ENDBRANCH  28  33
ENDBRANCH  22  23
ENDBRANCH   5  21
TORSDOF 11
ENDMDL
MODEL 4
REMARK VINA RESULT: -7.316629949      2.343      4.678
REMARK  11 active torsions:
REMARK  status: ('A' for Active; 'I' for Inactive)
REMARK    1  A    between atoms: C4_4  and  O1_5 
REMARK    2  A    between atoms: O1_5  and  C5_6 
REMARK    3  A    between atoms: C10_13  and  O2_14 
REMARK    4  A    between atoms: O2_14  and  C11_15 
REMARK    5  A    between atoms: C11_15  and  C12_16 
REMARK    6  A    between atoms: C12_16  and  O3_17 
REMARK    7  A    between atoms: C13_19  and  C14_20 
REMARK    8  A    between atoms: C15_21  and  C16_22 
REMARK    9  A    between atoms: C18_24  and  O4_25 
REMARK   10  A    between atoms: C20_28  and  O5_29 
REMARK   11  A    between atoms: C21_31  and  O6_32 
ROOT
HETATM    1  C1  UNL     1       7.442  -7.528  -0.416  1.00  0.00     0.056 C 
HETATM    2  C2  UNL     1       8.832  -6.981  -0.284  1.00  0.00    -0.018 A 
HETATM    3  C3  UNL     1       9.724  -6.688  -1.282  1.00  0.00     0.052 A 
HETATM    4  C4  UNL     1      10.917  -6.206  -0.926  1.00  0.00     0.094 A 
HETATM    5  C13 UNL     1      11.159  -6.043   0.410  1.00  0.00     0.039 A 
HETATM    6  S1  UNL     1       9.696  -6.572   1.126  1.00  0.00    -0.092 SA
ENDROOT
BRANCH   4   7
HETATM    7  O1  UNL     1      11.930  -5.861  -1.853  1.00  0.00    -0.305 OA
BRANCH   7   8
HETATM    8  C5  UNL     1      12.338  -6.731  -2.859  1.00  0.00     0.126 A 
HETATM    9  C6  UNL     1      11.735  -6.735  -4.094  1.00  0.00     0.049 A 
HETATM   10 BR1  UNL     1      10.294  -5.523  -4.473  1.00  0.00    -0.048 Br
HETATM   11  C7  UNL     1      12.178  -7.617  -5.054  1.00  0.00     0.041 A 
HETATM   12  C8  UNL     1      13.198  -8.485  -4.802  1.00  0.00     0.015 A 
HETATM   13 BR2  UNL     1      13.790  -9.695  -6.149  1.00  0.00    -0.051 Br
HETATM   14  C9  UNL     1      13.784  -8.453  -3.541  1.00  0.00     0.058 A 
HETATM   15  C10 UNL     1      13.398  -7.600  -2.532  1.00  0.00     0.105 A 
BRANCH  15  16
HETATM   16  O2  UNL     1      13.905  -7.510  -1.318  1.00  0.00    -0.346 OA
BRANCH  16  17
HETATM   17  C11 UNL     1      14.968  -7.305  -0.548  1.00  0.00     0.201 C 
BRANCH  17  18
HETATM   18  C12 UNL     1      15.370  -5.870  -0.404  1.00  0.00     0.190 C 
BRANCH  18  19
HETATM   19  O3  UNL     1      14.895  -4.991  -1.317  1.00  0.00    -0.399 OA
ATOM     20  H3  UNL     1      15.234  -5.049  -2.202  1.00  0.00     0.209 HD
ENDBRANCH  18  19
ENDBRANCH  17  18
ENDBRANCH  16  17
ENDBRANCH  15  16
ENDBRANCH   7   8
ENDBRANCH   4   7
BRANCH   5  21
HETATM   21  C14 UNL     1      12.348  -5.545   1.091  1.00  0.00     0.018 C 
HETATM   22  C15 UNL     1      12.374  -4.303   1.511  1.00  0.00    -0.018 C 
BRANCH  22  23
HETATM   23  C16 UNL     1      13.566  -3.730   2.218  1.00  0.00     0.042 C 
HETATM   24  C17 UNL     1      14.137  -2.673   1.320  1.00  0.00     0.043 C 
HETATM   25  C18 UNL     1      15.245  -1.955   2.021  1.00  0.00     0.121 C 
HETATM   26  C19 UNL     1      14.717  -1.313   3.268  1.00  0.00     0.066 C 
HETATM   27  C20 UNL     1      14.017  -2.243   4.195  1.00  0.00     0.150 C 
HETATM   28  C21 UNL     1      13.115  -3.232   3.543  1.00  0.00     0.154 C 
BRANCH  25  29
HETATM   29  O4  UNL     1      16.369  -2.731   2.221  1.00  0.00    -0.395 OA
ATOM     30  H4  UNL     1      17.072  -2.276   2.669  1.00  0.00     0.210 HD
ENDBRANCH  25  29
BRANCH  27  31
HETATM   31  O5  UNL     1      14.950  -2.849   5.034  1.00  0.00    -0.393 OA
ATOM     32  H5  UNL     1      14.704  -2.698   5.940  1.00  0.00     0.210 HD
ENDBRANCH  27  31
BRANCH  28  33
HETATM   33  O6  UNL     1      11.783  -2.778   3.471  1.00  0.00    -0.392 OA
ATOM     34  H6  UNL     1      11.387  -2.775   4.334  1.00  0.00     0.210 HD
ENDBRANCH  28  33
ENDBRANCH  22  23
ENDBRANCH   5  21
TORSDOF 11
ENDMDL
MODEL 5
REMARK VINA RESULT: -7.152377146      3.691      6.912
REMARK  11 active torsions:
REMARK  status: ('A' for Active; 'I' for Inactive)
REMARK    1  A    between atoms: C4_4  and  O1_5 
REMARK    2  A    between atoms: O1_5  and  C5_6 
REMARK    3  A    between atoms: C10_13  and  O2_14 
REMARK    4  A    between atoms: O2_14  and  C11_15 
REMARK    5  A    between atoms: C11_15  and  C12_16 
REMARK    6  A    between atoms: C12_16  and  O3_17 
REMARK    7  A    between atoms: C13_19  and  C14_20 
REMARK    8  A    between atoms: C15_21  and  C16_22 
REMARK    9  A    between atoms: C18_24  and  O4_25 
REMARK   10  A    between atoms: C20_28  and  O5_29 
REMARK   11  A    between atoms: C21_31  and  O6_32 
ROOT
HETATM    1  C1  UNL     1      14.948  -3.746   0.468  1.00  0.00     0.056 C 
HETATM    2  C2  UNL     1      13.760  -4.604   0.148  1.00  0.00    -0.018 A 
HETATM    3  C3  UNL     1      13.594  -5.456  -0.912  1.00  0.00     0.052 A 
HETATM    4  C4  UNL     1      12.440  -6.124  -0.996  1.00  0.00     0.094 A 
HETATM    5  C13 UNL     1      11.512  -5.906  -0.016  1.00  0.00     0.039 A 
HETATM    6  S1  UNL     1      12.292  -4.765   0.996  1.00  0.00    -0.092 SA
ENDROOT
BRANCH   4   7
HETATM    7  O1  UNL     1      12.137  -7.035  -2.036  1.00  0.00    -0.305 OA
BRANCH   7   8
HETATM    8  C5  UNL     1      12.352  -6.725  -3.375  1.00  0.00     0.126 A 
HETATM    9  C6  UNL     1      13.510  -7.089  -4.020  1.00  0.00     0.049 A 
HETATM   10 BR1  UNL     1      14.882  -8.050  -3.080  1.00  0.00    -0.048 Br
HETATM   11  C7  UNL     1      13.672  -6.757  -5.346  1.00  0.00     0.041 A 
HETATM   12  C8  UNL     1      12.710  -6.075  -6.028  1.00  0.00     0.015 A 
HETATM   13 BR2  UNL     1      12.961  -5.628  -7.863  1.00  0.00    -0.051 Br
HETATM   14  C9  UNL     1      11.551  -5.722  -5.344  1.00  0.00     0.058 A 
HETATM   15  C10 UNL     1      11.317  -6.020  -4.020  1.00  0.00     0.105 A 
BRANCH  15  16
HETATM   16  O2  UNL     1      10.248  -5.723  -3.307  1.00  0.00    -0.346 OA
BRANCH  16  17
HETATM   17  C11 UNL     1       8.953  -5.912  -3.077  1.00  0.00     0.201 C 
BRANCH  17  18
HETATM   18  C12 UNL     1       8.489  -7.327  -3.226  1.00  0.00     0.190 C 
BRANCH  18  19
HETATM   19  O3  UNL     1       9.282  -8.303  -2.724  1.00  0.00    -0.399 OA
ATOM     20  H3  UNL     1       8.933  -9.186  -2.703  1.00  0.00     0.209 HD
ENDBRANCH  18  19
ENDBRANCH  17  18
ENDBRANCH  16  17
ENDBRANCH  15  16
ENDBRANCH   7   8
ENDBRANCH   4   7
BRANCH   5  21
HETATM   21  C14 UNL     1      10.184  -6.480   0.159  1.00  0.00     0.018 C 
HETATM   22  C15 UNL     1       9.667  -6.548   1.362  1.00  0.00    -0.018 C 
BRANCH  22  23
HETATM   23  C16 UNL     1       8.305  -7.127   1.609  1.00  0.00     0.042 C 
HETATM   24  C17 UNL     1       8.020  -8.064   0.473  1.00  0.00     0.043 C 
HETATM   25  C18 UNL     1       6.738  -8.790   0.724  1.00  0.00     0.121 C 
HETATM   26  C19 UNL     1       6.846  -9.574   1.997  1.00  0.00     0.066 C 
HETATM   27  C20 UNL     1       7.244  -8.774   3.186  1.00  0.00     0.150 C 
HETATM   28  C21 UNL     1       8.319  -7.771   2.947  1.00  0.00     0.154 C 
BRANCH  25  29
HETATM   29  O4  UNL     1       5.621  -7.983   0.655  1.00  0.00    -0.395 OA
ATOM     30  H4  UNL     1       5.754  -7.115   1.017  1.00  0.00     0.210 HD
ENDBRANCH  25  29
BRANCH  27  31
HETATM   31  O5  UNL     1       6.109  -8.205   3.762  1.00  0.00    -0.393 OA
ATOM     32  H5  UNL     1       5.783  -8.779   4.446  1.00  0.00     0.210 HD
ENDBRANCH  27  31
BRANCH  28  33
HETATM   33  O6  UNL     1       9.601  -8.282   3.236  1.00  0.00    -0.392 OA
ATOM     34  H6  UNL     1       9.541  -9.002   3.852  1.00  0.00     0.210 HD
ENDBRANCH  28  33
ENDBRANCH  22  23
ENDBRANCH   5  21
TORSDOF 11
ENDMDL
