MODEL 1
REMARK VINA RESULT: -7.919844933      0.000      0.000
REMARK  7 active torsions:
REMARK  status: ('A' for Active; 'I' for Inactive)
REMARK       I    between atoms: N1_2  and  C2_4 
REMARK    1  A    between atoms: C2_4  and  C3_6 
REMARK    2  A    between atoms: C5_9  and  N2_10 
REMARK    3  A    between atoms: C6_13  and  N3_14 
REMARK    4  A    between atoms: N3_14  and  C7_16 
REMARK    5  A    between atoms: C7_16  and  C8_17 
REMARK    6  A    between atoms: C12_21  and  C13_22 
REMARK    7  A    between atoms: C18_31  and  C19_32 
ROOT
HETATM    1  C3  UNL     1      15.175  -8.277  -4.119  1.00  0.00     0.161 A 
HETATM    2  O2  UNL     1      15.233  -7.759  -2.894  1.00  0.00    -0.300 OA
HETATM    3  C4  UNL     1      14.091  -7.366  -2.466  1.00  0.00     0.124 A 
HETATM    4  C5  UNL     1      13.736  -6.776  -1.250  1.00  0.00     0.165 A 
HETATM    5  C6  UNL     1      12.411  -6.455  -1.067  1.00  0.00     0.083 A 
HETATM    6  C15 UNL     1      11.483  -6.721  -2.071  1.00  0.00     0.058 A 
HETATM    7 BR1  UNL     1       9.670  -6.274  -1.796  1.00  0.00    -0.047 Br
HETATM    8  C16 UNL     1      11.862  -7.302  -3.254  1.00  0.00     0.044 A 
HETATM    9 BR2  UNL     1      10.596  -7.669  -4.642  1.00  0.00    -0.049 Br
HETATM   10  C17 UNL     1      13.173  -7.627  -3.453  1.00  0.00     0.039 A 
HETATM   11  C18 UNL     1      13.860  -8.210  -4.514  1.00  0.00     0.094 A 
ENDROOT
BRANCH   5  12
HETATM   12  N3  UNL     1      11.967  -5.853   0.156  1.00  0.00    -0.382 N 
ATOM     13  H3  UNL     1      11.869  -6.449   0.978  1.00  0.00     0.160 HD
BRANCH  12  14
HETATM   14  C7  UNL     1      11.654  -4.468   0.289  1.00  0.00     0.158 C 
BRANCH  14  15
HETATM   15  C8  UNL     1      12.582  -3.756   1.202  1.00  0.00    -0.040 A 
HETATM   16  C9  UNL     1      13.826  -3.344   0.744  1.00  0.00     0.009 A 
HETATM   17  C10 UNL     1      14.697  -2.682   1.569  1.00  0.00     0.002 A 
HETATM   18  C11 UNL     1      14.369  -2.402   2.876  1.00  0.00     0.018 A 
HETATM   19  C12 UNL     1      13.144  -2.796   3.366  1.00  0.00     0.041 A 
HETATM   20  C14 UNL     1      12.270  -3.469   2.511  1.00  0.00     0.027 A 
BRANCH  19  21
HETATM   21  C13 UNL     1      12.776  -2.512   4.732  1.00  0.00     0.209 C 
HETATM   22  O5  UNL     1      12.198  -1.449   5.006  1.00  0.00    -0.644 OA
HETATM   23  O6  UNL     1      13.044  -3.394   5.782  1.00  0.00    -0.644 OA
ENDBRANCH  19  21
ENDBRANCH  14  15
ENDBRANCH  12  14
ENDBRANCH   5  12
BRANCH   4  24
HETATM   24  N2  UNL     1      14.740  -6.531  -0.283  1.00  0.00    -0.110 N 
HETATM   25  O3  UNL     1      14.681  -7.093   0.841  1.00  0.00    -0.532 OA
HETATM   26  O4  UNL     1      15.798  -5.695  -0.500  1.00  0.00    -0.532 OA
ENDBRANCH   4  24
BRANCH   1  27
HETATM   27  C2  UNL     1      16.279  -8.805  -4.879  1.00  0.00     0.276 C 
HETATM   28  N1  UNL     1      17.343  -8.083  -5.426  1.00  0.00    -0.360 N 
HETATM   29  C1  UNL     1      18.378  -8.828  -6.178  1.00  0.00     0.149 C 
ATOM     30  H1  UNL     1      17.405  -7.072  -5.311  1.00  0.00     0.162 HD
HETATM   31  O1  UNL     1      16.264 -10.072  -5.064  1.00  0.00    -0.265 OA
ENDBRANCH   1  27
BRANCH  11  32
HETATM   32  C19 UNL     1      13.188  -8.613  -5.719  1.00  0.00     0.213 C 
HETATM   33  O7  UNL     1      12.742  -9.810  -5.804  1.00  0.00    -0.644 OA
HETATM   34  O8  UNL     1      12.978  -7.796  -6.820  1.00  0.00    -0.644 OA
ENDBRANCH  11  32
TORSDOF 7
ENDMDL
MODEL 2
REMARK VINA RESULT: -7.811695249      1.843      2.310
REMARK  7 active torsions:
REMARK  status: ('A' for Active; 'I' for Inactive)
REMARK       I    between atoms: N1_2  and  C2_4 
REMARK    1  A    between atoms: C2_4  and  C3_6 
REMARK    2  A    between atoms: C5_9  and  N2_10 
REMARK    3  A    between atoms: C6_13  and  N3_14 
REMARK    4  A    between atoms: N3_14  and  C7_16 
REMARK    5  A    between atoms: C7_16  and  C8_17 
REMARK    6  A    between atoms: C12_21  and  C13_22 
REMARK    7  A    between atoms: C18_31  and  C19_32 
ROOT
HETATM    1  C3  UNL     1      13.847  -7.247  -4.362  1.00  0.00     0.161 A 
HETATM    2  O2  UNL     1      14.295  -6.583  -3.298  1.00  0.00    -0.300 OA
HETATM    3  C4  UNL     1      13.399  -6.429  -2.396  1.00  0.00     0.124 A 
HETATM    4  C5  UNL     1      13.470  -5.797  -1.151  1.00  0.00     0.165 A 
HETATM    5  C6  UNL     1      12.330  -5.787  -0.382  1.00  0.00     0.083 A 
HETATM    6  C15 UNL     1      11.166  -6.391  -0.852  1.00  0.00     0.058 A 
HETATM    7 BR1  UNL     1       9.614  -6.366   0.223  1.00  0.00    -0.047 Br
HETATM    8  C16 UNL     1      11.128  -7.004  -2.077  1.00  0.00     0.044 A 
HETATM    9 BR2  UNL     1       9.533  -7.835  -2.733  1.00  0.00    -0.049 Br
HETATM   10  C17 UNL     1      12.250  -7.023  -2.854  1.00  0.00     0.039 A 
HETATM   11  C18 UNL     1      12.529  -7.550  -4.113  1.00  0.00     0.094 A 
ENDROOT
BRANCH   5  12
HETATM   12  N3  UNL     1      12.324  -5.164   0.909  1.00  0.00    -0.382 N 
ATOM     13  H3  UNL     1      12.545  -5.740   1.721  1.00  0.00     0.160 HD
BRANCH  12  14
HETATM   14  C7  UNL     1      12.028  -3.785   1.122  1.00  0.00     0.158 C 
BRANCH  14  15
HETATM   15  C8  UNL     1      12.546  -3.282   2.418  1.00  0.00    -0.040 A 
HETATM   16  C9  UNL     1      11.704  -3.204   3.520  1.00  0.00     0.009 A 
HETATM   17  C10 UNL     1      12.163  -2.747   4.727  1.00  0.00     0.002 A 
HETATM   18  C11 UNL     1      13.470  -2.349   4.889  1.00  0.00     0.018 A 
HETATM   19  C12 UNL     1      14.335  -2.411   3.820  1.00  0.00     0.041 A 
HETATM   20  C14 UNL     1      13.850  -2.880   2.598  1.00  0.00     0.027 A 
BRANCH  19  21
HETATM   21  C13 UNL     1      15.711  -2.003   3.966  1.00  0.00     0.209 C 
HETATM   22  O5  UNL     1      16.474  -2.048   2.990  1.00  0.00    -0.644 OA
HETATM   23  O6  UNL     1      16.236  -1.550   5.180  1.00  0.00    -0.644 OA
ENDBRANCH  19  21
ENDBRANCH  14  15
ENDBRANCH  12  14
ENDBRANCH   5  12
BRANCH   4  24
HETATM   24  N2  UNL     1      14.688  -5.199  -0.750  1.00  0.00    -0.110 N 
HETATM   25  O3  UNL     1      14.778  -3.946  -0.671  1.00  0.00    -0.532 OA
HETATM   26  O4  UNL     1      15.805  -5.918  -0.435  1.00  0.00    -0.532 OA
ENDBRANCH   4  24
BRANCH   1  27
HETATM   27  C2  UNL     1      14.600  -7.582  -5.544  1.00  0.00     0.276 C 
HETATM   28  N1  UNL     1      14.826  -6.764  -6.655  1.00  0.00    -0.360 N 
HETATM   29  C1  UNL     1      15.634  -7.310  -7.769  1.00  0.00     0.149 C 
ATOM     30  H1  UNL     1      14.445  -5.819  -6.697  1.00  0.00     0.162 HD
HETATM   31  O1  UNL     1      15.108  -8.757  -5.559  1.00  0.00    -0.265 OA
ENDBRANCH   1  27
BRANCH  11  32
HETATM   32  C19 UNL     1      11.533  -8.249  -4.877  1.00  0.00     0.213 C 
HETATM   33  O7  UNL     1      11.406  -9.512  -4.713  1.00  0.00    -0.644 OA
HETATM   34  O8  UNL     1      10.681  -7.657  -5.797  1.00  0.00    -0.644 OA
ENDBRANCH  11  32
TORSDOF 7
ENDMDL
MODEL 3
REMARK VINA RESULT: -7.739145616      5.138      6.944
REMARK  7 active torsions:
REMARK  status: ('A' for Active; 'I' for Inactive)
REMARK       I    between atoms: N1_2  and  C2_4 
REMARK    1  A    between atoms: C2_4  and  C3_6 
REMARK    2  A    between atoms: C5_9  and  N2_10 
REMARK    3  A    between atoms: C6_13  and  N3_14 
REMARK    4  A    between atoms: N3_14  and  C7_16 
REMARK    5  A    between atoms: C7_16  and  C8_17 
REMARK    6  A    between atoms: C12_21  and  C13_22 
REMARK    7  A    between atoms: C18_31  and  C19_32 
ROOT
HETATM    1  C3  UNL     1       6.640  -8.792  -1.894  1.00  0.00     0.161 A 
HETATM    2  O2  UNL     1       7.814  -8.183  -2.051  1.00  0.00    -0.300 OA
HETATM    3  C4  UNL     1       8.328  -7.803  -0.941  1.00  0.00     0.124 A 
HETATM    4  C5  UNL     1       9.531  -7.139  -0.683  1.00  0.00     0.165 A 
HETATM    5  C6  UNL     1       9.827  -6.857   0.630  1.00  0.00     0.083 A 
HETATM    6  C15 UNL     1       8.944  -7.230   1.640  1.00  0.00     0.058 A 
HETATM    7 BR1  UNL     1       9.373  -6.832   3.435  1.00  0.00    -0.047 Br
HETATM    8  C16 UNL     1       7.772  -7.881   1.356  1.00  0.00     0.044 A 
HETATM    9 BR2  UNL     1       6.550  -8.396   2.737  1.00  0.00    -0.049 Br
HETATM   10  C17 UNL     1       7.462  -8.170   0.058  1.00  0.00     0.039 A 
HETATM   11  C18 UNL     1       6.378  -8.804  -0.545  1.00  0.00     0.094 A 
ENDROOT
BRANCH   5  12
HETATM   12  N3  UNL     1      11.044  -6.183   0.976  1.00  0.00    -0.382 N 
ATOM     13  H3  UNL     1      11.747  -6.702   1.502  1.00  0.00     0.160 HD
BRANCH  12  14
HETATM   14  C7  UNL     1      11.328  -4.830   0.626  1.00  0.00     0.158 C 
BRANCH  14  15
HETATM   15  C8  UNL     1      12.766  -4.492   0.766  1.00  0.00    -0.040 A 
HETATM   16  C9  UNL     1      13.707  -5.107  -0.048  1.00  0.00     0.009 A 
HETATM   17  C10 UNL     1      15.039  -4.806   0.062  1.00  0.00     0.002 A 
HETATM   18  C11 UNL     1      15.490  -3.887   0.980  1.00  0.00     0.018 A 
HETATM   19  C12 UNL     1      14.586  -3.256   1.806  1.00  0.00     0.041 A 
HETATM   20  C14 UNL     1      13.234  -3.575   1.680  1.00  0.00     0.027 A 
BRANCH  19  21
HETATM   21  C13 UNL     1      15.034  -2.286   2.776  1.00  0.00     0.209 C 
HETATM   22  O5  UNL     1      16.246  -2.056   2.902  1.00  0.00    -0.644 OA
HETATM   23  O6  UNL     1      14.151  -1.579   3.595  1.00  0.00    -0.644 OA
ENDBRANCH  19  21
ENDBRANCH  14  15
ENDBRANCH  12  14
ENDBRANCH   5  12
BRANCH   4  24
HETATM   24  N2  UNL     1      10.370  -6.787  -1.767  1.00  0.00    -0.110 N 
HETATM   25  O3  UNL     1      11.494  -7.338  -1.897  1.00  0.00    -0.532 OA
HETATM   26  O4  UNL     1      10.027  -5.856  -2.706  1.00  0.00    -0.532 OA
ENDBRANCH   4  24
BRANCH   1  27
HETATM   27  C2  UNL     1       5.808  -9.333  -2.939  1.00  0.00     0.276 C 
HETATM   28  N1  UNL     1       4.560  -8.856  -3.350  1.00  0.00    -0.360 N 
HETATM   29  C1  UNL     1       3.870  -9.566  -4.450  1.00  0.00     0.149 C 
ATOM     30  H1  UNL     1       4.136  -8.043  -2.904  1.00  0.00     0.162 HD
HETATM   31  O1  UNL     1       6.279 -10.359  -3.542  1.00  0.00    -0.265 OA
ENDBRANCH   1  27
BRANCH  11  32
HETATM   32  C19 UNL     1       5.280  -9.319   0.226  1.00  0.00     0.213 C 
HETATM   33  O7  UNL     1       5.338 -10.525   0.650  1.00  0.00    -0.644 OA
HETATM   34  O8  UNL     1       4.139  -8.603   0.555  1.00  0.00    -0.644 OA
ENDBRANCH  11  32
TORSDOF 7
ENDMDL
MODEL 4
REMARK VINA RESULT: -7.680822561      2.630      3.708
REMARK  7 active torsions:
REMARK  status: ('A' for Active; 'I' for Inactive)
REMARK       I    between atoms: N1_2  and  C2_4 
REMARK    1  A    between atoms: C2_4  and  C3_6 
REMARK    2  A    between atoms: C5_9  and  N2_10 
REMARK    3  A    between atoms: C6_13  and  N3_14 
REMARK    4  A    between atoms: N3_14  and  C7_16 
REMARK    5  A    between atoms: C7_16  and  C8_17 
REMARK    6  A    between atoms: C12_21  and  C13_22 
REMARK    7  A    between atoms: C18_31  and  C19_32 
ROOT
HETATM    1  C3  UNL     1      12.709  -6.050  -6.230  1.00  0.00     0.161 A 
HETATM    2  O2  UNL     1      13.431  -6.570  -5.240  1.00  0.00    -0.300 OA
HETATM    3  C4  UNL     1      12.783  -6.645  -4.138  1.00  0.00     0.124 A 
HETATM    4  C5  UNL     1      13.181  -7.123  -2.887  1.00  0.00     0.165 A 
HETATM    5  C6  UNL     1      12.254  -7.080  -1.871  1.00  0.00     0.083 A 
HETATM    6  C15 UNL     1      10.979  -6.575  -2.110  1.00  0.00     0.058 A 
HETATM    7 BR1  UNL     1       9.724  -6.527  -0.700  1.00  0.00    -0.047 Br
HETATM    8  C16 UNL     1      10.618  -6.113  -3.349  1.00  0.00     0.044 A 
HETATM    9 BR2  UNL     1       8.868  -5.414  -3.689  1.00  0.00    -0.049 Br
HETATM   10  C17 UNL     1      11.524  -6.149  -4.370  1.00  0.00     0.039 A 
HETATM   11  C18 UNL     1      11.469  -5.766  -5.707  1.00  0.00     0.094 A 
ENDROOT
BRANCH   5  12
HETATM   12  N3  UNL     1      12.584  -7.558  -0.560  1.00  0.00    -0.382 N 
ATOM     13  H3  UNL     1      11.964  -8.243  -0.128  1.00  0.00     0.160 HD
BRANCH  12  14
HETATM   14  C7  UNL     1      13.730  -7.130   0.174  1.00  0.00     0.158 C 
BRANCH  14  15
HETATM   15  C8  UNL     1      13.612  -5.732   0.657  1.00  0.00    -0.040 A 
HETATM   16  C9  UNL     1      12.366  -5.126   0.729  1.00  0.00     0.009 A 
HETATM   17  C10 UNL     1      12.234  -3.837   1.176  1.00  0.00     0.002 A 
HETATM   18  C11 UNL     1      13.328  -3.102   1.568  1.00  0.00     0.018 A 
HETATM   19  C12 UNL     1      14.582  -3.670   1.510  1.00  0.00     0.041 A 
HETATM   20  C14 UNL     1      14.697  -4.983   1.052  1.00  0.00     0.027 A 
BRANCH  19  21
HETATM   21  C13 UNL     1      15.745  -2.920   1.918  1.00  0.00     0.209 C 
HETATM   22  O5  UNL     1      16.877  -3.329   1.621  1.00  0.00    -0.644 OA
HETATM   23  O6  UNL     1      15.655  -1.731   2.647  1.00  0.00    -0.644 OA
ENDBRANCH  19  21
ENDBRANCH  14  15
ENDBRANCH  12  14
ENDBRANCH   5  12
BRANCH   4  24
HETATM   24  N2  UNL     1      14.498  -7.614  -2.722  1.00  0.00    -0.110 N 
HETATM   25  O3  UNL     1      15.337  -6.952  -2.059  1.00  0.00    -0.532 OA
HETATM   26  O4  UNL     1      14.927  -8.795  -3.257  1.00  0.00    -0.532 OA
ENDBRANCH   4  24
BRANCH   1  27
HETATM   27  C2  UNL     1      13.144  -5.830  -7.586  1.00  0.00     0.276 C 
HETATM   28  N1  UNL     1      13.429  -6.806  -8.544  1.00  0.00    -0.360 N 
HETATM   29  C1  UNL     1      13.865  -6.359  -9.887  1.00  0.00     0.149 C 
ATOM     30  H1  UNL     1      13.339  -7.798  -8.326  1.00  0.00     0.162 HD
HETATM   31  O1  UNL     1      13.280  -4.604  -7.929  1.00  0.00    -0.265 OA
ENDBRANCH   1  27
BRANCH  11  32
HETATM   32  C19 UNL     1      10.279  -5.202  -6.283  1.00  0.00     0.213 C 
HETATM   33  O7  UNL     1       9.524  -5.954  -6.993  1.00  0.00    -0.644 OA
HETATM   34  O8  UNL     1       9.874  -3.885  -6.132  1.00  0.00    -0.644 OA
ENDBRANCH  11  32
TORSDOF 7
ENDMDL
MODEL 5
REMARK VINA RESULT: -7.646125739      1.286      1.310
REMARK  7 active torsions:
REMARK  status: ('A' for Active; 'I' for Inactive)
REMARK       I    between atoms: N1_2  and  C2_4 
REMARK    1  A    between atoms: C2_4  and  C3_6 
REMARK    2  A    between atoms: C5_9  and  N2_10 
REMARK    3  A    between atoms: C6_13  and  N3_14 
REMARK    4  A    between atoms: N3_14  and  C7_16 
REMARK    5  A    between atoms: C7_16  and  C8_17 
REMARK    6  A    between atoms: C12_21  and  C13_22 
REMARK    7  A    between atoms: C18_31  and  C19_32 
ROOT
HETATM    1  C3  UNL     1      14.169  -9.084  -3.956  1.00  0.00     0.161 A 
HETATM    2  O2  UNL     1      14.456  -8.347  -2.885  1.00  0.00    -0.300 OA
HETATM    3  C4  UNL     1      13.413  -7.865  -2.319  1.00  0.00     0.124 A 
HETATM    4  C5  UNL     1      13.291  -7.053  -1.188  1.00  0.00     0.165 A 
HETATM    5  C6  UNL     1      12.022  -6.686  -0.808  1.00  0.00     0.083 A 
HETATM    6  C15 UNL     1      10.920  -7.121  -1.541  1.00  0.00     0.058 A 
HETATM    7 BR1  UNL     1       9.187  -6.604  -0.998  1.00  0.00    -0.047 Br
HETATM    8  C16 UNL     1      11.071  -7.917  -2.646  1.00  0.00     0.044 A 
HETATM    9 BR2  UNL     1       9.564  -8.519  -3.662  1.00  0.00    -0.049 Br
HETATM   10  C17 UNL     1      12.324  -8.292  -3.038  1.00  0.00     0.039 A 
HETATM   11  C18 UNL     1      12.801  -9.073  -4.088  1.00  0.00     0.094 A 
ENDROOT
BRANCH   5  12
HETATM   12  N3  UNL     1      11.814  -5.860   0.345  1.00  0.00    -0.382 N 
ATOM     13  H3  UNL     1      11.745  -6.314   1.256  1.00  0.00     0.160 HD
BRANCH  12  14
HETATM   14  C7  UNL     1      11.699  -4.439   0.292  1.00  0.00     0.158 C 
BRANCH  14  15
HETATM   15  C8  UNL     1      12.625  -3.754   1.228  1.00  0.00    -0.040 A 
HETATM   16  C9  UNL     1      13.889  -3.371   0.799  1.00  0.00     0.009 A 
HETATM   17  C10 UNL     1      14.757  -2.734   1.645  1.00  0.00     0.002 A 
HETATM   18  C11 UNL     1      14.408  -2.451   2.945  1.00  0.00     0.018 A 
HETATM   19  C12 UNL     1      13.163  -2.816   3.407  1.00  0.00     0.041 A 
HETATM   20  C14 UNL     1      12.292  -3.464   2.531  1.00  0.00     0.027 A 
BRANCH  19  21
HETATM   21  C13 UNL     1      12.774  -2.528   4.766  1.00  0.00     0.209 C 
HETATM   22  O5  UNL     1      12.199  -1.461   5.029  1.00  0.00    -0.644 OA
HETATM   23  O6  UNL     1      13.016  -3.411   5.822  1.00  0.00    -0.644 OA
ENDBRANCH  19  21
ENDBRANCH  14  15
ENDBRANCH  12  14
ENDBRANCH   5  12
BRANCH   4  24
HETATM   24  N2  UNL     1      14.461  -6.646  -0.502  1.00  0.00    -0.110 N 
HETATM   25  O3  UNL     1      14.666  -7.035   0.677  1.00  0.00    -0.532 OA
HETATM   26  O4  UNL     1      15.407  -5.833  -1.057  1.00  0.00    -0.532 OA
ENDBRANCH   4  24
BRANCH   1  27
HETATM   27  C2  UNL     1      15.113  -9.760  -4.809  1.00  0.00     0.276 C 
HETATM   28  N1  UNL     1      14.897 -10.937  -5.532  1.00  0.00    -0.360 N 
HETATM   29  C1  UNL     1      16.011 -11.466  -6.352  1.00  0.00     0.149 C 
ATOM     30  H1  UNL     1      13.998 -11.418  -5.495  1.00  0.00     0.162 HD
HETATM   31  O1  UNL     1      16.265  -9.211  -4.901  1.00  0.00    -0.265 OA
ENDBRANCH   1  27
BRANCH  11  32
HETATM   32  C19 UNL     1      11.913  -9.684  -5.038  1.00  0.00     0.213 C 
HETATM   33  O7  UNL     1      11.592 -10.913  -4.879  1.00  0.00    -0.644 OA
HETATM   34  O8  UNL     1      11.364  -9.040  -6.137  1.00  0.00    -0.644 OA
ENDBRANCH  11  32
TORSDOF 7
ENDMDL
