MODEL 1
REMARK VINA RESULT: -8.226382681      0.000      0.000
REMARK  12 active torsions:
REMARK  status: ('A' for Active; 'I' for Inactive)
REMARK    1  A    between atoms: C2_2  and  C4_4 
REMARK    2  A    between atoms: C4_4  and  C5_5 
REMARK    3  A    between atoms: C5_5  and  O1_6 
REMARK    4  A    between atoms: C5_5  and  C6_8 
REMARK    5  A    between atoms: N1_10  and  C8_11 
REMARK    6  A    between atoms: C10_13  and  O2_14 
REMARK    7  A    between atoms: C16_22  and  O3_23 
REMARK    8  A    between atoms: C21_29  and  C22_30 
REMARK    9  A    between atoms: C25_33  and  C26_34 
REMARK       I    between atoms: C26_34  and  N2_36 
REMARK   10  A    between atoms: N2_36  and  C27_38 
REMARK   11  A    between atoms: C27_38  and  C28_39 
REMARK   12  A    between atoms: C28_39  and  N3_40 
ROOT
HETATM    1  C8  UNL     1      12.298  -7.429  -1.540  1.00  0.00     0.128 C 
HETATM    2  C9  UNL     1      10.959  -7.151  -0.907  1.00  0.00     0.063 C 
HETATM    3  C10 UNL     1       9.924  -7.107  -2.010  1.00  0.00     0.162 C 
HETATM    4  C11 UNL     1      10.758  -6.962  -3.200  1.00  0.00     0.150 C 
HETATM    5  F1  UNL     1      10.992  -5.528  -3.104  1.00  0.00    -0.238 F 
HETATM    6  C12 UNL     1      10.159  -7.011  -4.561  1.00  0.00    -0.000 C 
HETATM    7  C13 UNL     1       9.744  -8.319  -5.103  1.00  0.00     0.019 C 
HETATM    8  C14 UNL     1       8.845  -6.214  -4.419  1.00  0.00     0.015 C 
HETATM    9  C15 UNL     1       8.230  -5.842  -5.720  1.00  0.00     0.032 C 
HETATM   10  C16 UNL     1       9.199  -5.133  -6.640  1.00  0.00     0.118 C 
HETATM   11  C17 UNL     1      10.502  -4.938  -5.951  1.00  0.00     0.037 C 
HETATM   12  C18 UNL     1      11.083  -6.298  -5.497  1.00  0.00    -0.001 C 
HETATM   13  C19 UNL     1      12.503  -6.157  -5.139  1.00  0.00     0.007 C 
HETATM   14  C20 UNL     1      12.997  -6.510  -3.799  1.00  0.00     0.020 C 
HETATM   15  C21 UNL     1      12.126  -7.522  -3.030  1.00  0.00     0.049 C 
ENDROOT
BRANCH  15  16
HETATM   16  C22 UNL     1      12.421  -8.880  -3.519  1.00  0.00    -0.044 A 
HETATM   17  C23 UNL     1      11.762  -9.966  -3.002  1.00  0.00     0.009 A 
HETATM   18  C24 UNL     1      12.038 -11.233  -3.445  1.00  0.00     0.017 A 
HETATM   19  C25 UNL     1      12.998 -11.466  -4.440  1.00  0.00     0.032 A 
HETATM   20  C29 UNL     1      13.666 -10.391  -4.967  1.00  0.00     0.017 A 
HETATM   21  C30 UNL     1      13.361  -9.115  -4.493  1.00  0.00     0.009 A 
BRANCH  19  22
HETATM   22  C26 UNL     1      13.279 -12.803  -4.911  1.00  0.00     0.251 C 
HETATM   23  O4  UNL     1      14.432 -13.074  -5.321  1.00  0.00    -0.268 OA
HETATM   24  N2  UNL     1      12.293 -13.807  -4.921  1.00  0.00    -0.355 N 
ATOM     25  H2  UNL     1      11.355 -13.583  -4.590  1.00  0.00     0.162 HD
BRANCH  24  26
HETATM   26  C27 UNL     1      12.576 -15.163  -5.392  1.00  0.00     0.150 C 
BRANCH  26  27
HETATM   27  C28 UNL     1      11.493 -16.112  -4.911  1.00  0.00     0.249 C 
BRANCH  27  28
HETATM   28  N3  UNL     1      10.709 -15.522  -3.846  1.00  0.00    -0.078 N 
ATOM     29  H33 UNL     1      11.288 -15.293  -3.038  1.00  0.00     0.274 HD
ATOM     30  H32 UNL     1      10.398 -14.581  -4.089  1.00  0.00     0.274 HD
ATOM     31  H31 UNL     1       9.925 -16.120  -3.587  1.00  0.00     0.274 HD
ENDBRANCH  27  28
ENDBRANCH  26  27
ENDBRANCH  24  26
ENDBRANCH  19  22
ENDBRANCH  15  16
BRANCH   1  32
HETATM   32  N1  UNL     1      13.358  -6.629  -1.044  1.00  0.00    -0.281 N 
HETATM   33  C7  UNL     1      13.368  -5.468  -0.390  1.00  0.00     0.145 A 
HETATM   34  C6  UNL     1      14.684  -5.090  -0.094  1.00  0.00     0.095 A 
HETATM   35  N5  UNL     1      15.418  -6.082  -0.602  1.00  0.00    -0.282 N 
HETATM   36  N4  UNL     1      14.655  -6.963  -1.147  1.00  0.00    -0.240 N 
ATOM     37  H5  UNL     1      16.436  -6.135  -0.564  1.00  0.00     0.188 HD
ATOM     38  H4  UNL     1      14.993  -7.811  -1.602  1.00  0.00     0.208 HD
BRANCH  34  39
HETATM   39  C5  UNL     1      15.088  -3.898   0.607  1.00  0.00     0.073 C 
BRANCH  39  40
HETATM   40  C4  UNL     1      14.222  -2.927   1.243  1.00  0.00     0.070 C 
BRANCH  40  41
HETATM   41  C2  UNL     1      14.211  -2.850   2.723  1.00  0.00    -0.017 C 
HETATM   42  C1  UNL     1      14.827  -1.640   3.330  1.00  0.00     0.010 C 
HETATM   43  C3  UNL     1      12.732  -2.859   3.159  1.00  0.00     0.010 C 
ENDBRANCH  40  41
ENDBRANCH  39  40
BRANCH  39  44
HETATM   44  O1  UNL     1      16.366  -3.666   0.675  1.00  0.00    -0.363 OA
ATOM     45  H1  UNL     1      16.906  -4.369   1.015  1.00  0.00     0.217 HD
ENDBRANCH  39  44
ENDBRANCH  34  39
ENDBRANCH   1  32
BRANCH   3  46
HETATM   46  O2  UNL     1       8.955  -8.070  -1.948  1.00  0.00    -0.392 OA
ATOM     47  H2  UNL     1       8.203  -7.860  -1.406  1.00  0.00     0.210 HD
ENDBRANCH   3  46
BRANCH  10  48
HETATM   48  O3  UNL     1       9.394  -5.931  -7.764  1.00  0.00    -0.396 OA
ATOM     49  H3  UNL     1      10.179  -5.631  -8.208  1.00  0.00     0.210 HD
ENDBRANCH  10  48
TORSDOF 12
ENDMDL
MODEL 2
REMARK VINA RESULT: -8.142565432      1.050      1.479
REMARK  12 active torsions:
REMARK  status: ('A' for Active; 'I' for Inactive)
REMARK    1  A    between atoms: C2_2  and  C4_4 
REMARK    2  A    between atoms: C4_4  and  C5_5 
REMARK    3  A    between atoms: C5_5  and  O1_6 
REMARK    4  A    between atoms: C5_5  and  C6_8 
REMARK    5  A    between atoms: N1_10  and  C8_11 
REMARK    6  A    between atoms: C10_13  and  O2_14 
REMARK    7  A    between atoms: C16_22  and  O3_23 
REMARK    8  A    between atoms: C21_29  and  C22_30 
REMARK    9  A    between atoms: C25_33  and  C26_34 
REMARK       I    between atoms: C26_34  and  N2_36 
REMARK   10  A    between atoms: N2_36  and  C27_38 
REMARK   11  A    between atoms: C27_38  and  C28_39 
REMARK   12  A    between atoms: C28_39  and  N3_40 
ROOT
HETATM    1  C8  UNL     1      12.253  -7.462  -1.663  1.00  0.00     0.128 C 
HETATM    2  C9  UNL     1      10.940  -7.163  -0.986  1.00  0.00     0.063 C 
HETATM    3  C10 UNL     1       9.872  -7.088  -2.056  1.00  0.00     0.162 C 
HETATM    4  C11 UNL     1      10.672  -6.949  -3.270  1.00  0.00     0.150 C 
HETATM    5  F1  UNL     1      10.937  -5.522  -3.169  1.00  0.00    -0.238 F 
HETATM    6  C12 UNL     1      10.030  -6.975  -4.611  1.00  0.00    -0.000 C 
HETATM    7  C13 UNL     1       9.572  -8.269  -5.151  1.00  0.00     0.019 C 
HETATM    8  C14 UNL     1       8.736  -6.153  -4.423  1.00  0.00     0.015 C 
HETATM    9  C15 UNL     1       8.090  -5.757  -5.701  1.00  0.00     0.032 C 
HETATM   10  C16 UNL     1       9.043  -5.060  -6.644  1.00  0.00     0.118 C 
HETATM   11  C17 UNL     1      10.371  -4.897  -5.995  1.00  0.00     0.037 C 
HETATM   12  C18 UNL     1      10.938  -6.272  -5.570  1.00  0.00    -0.001 C 
HETATM   13  C19 UNL     1      12.371  -6.162  -5.256  1.00  0.00     0.007 C 
HETATM   14  C20 UNL     1      12.899  -6.537  -3.934  1.00  0.00     0.020 C 
HETATM   15  C21 UNL     1      12.032  -7.538  -3.147  1.00  0.00     0.049 C 
ENDROOT
BRANCH  15  16
HETATM   16  C22 UNL     1      12.284  -8.897  -3.656  1.00  0.00    -0.044 A 
HETATM   17  C23 UNL     1      13.154  -9.103  -4.697  1.00  0.00     0.009 A 
HETATM   18  C24 UNL     1      13.386 -10.363  -5.183  1.00  0.00     0.017 A 
HETATM   19  C25 UNL     1      12.747 -11.485  -4.637  1.00  0.00     0.032 A 
HETATM   20  C29 UNL     1      11.874 -11.297  -3.595  1.00  0.00     0.017 A 
HETATM   21  C30 UNL     1      11.661 -10.001  -3.126  1.00  0.00     0.009 A 
BRANCH  19  22
HETATM   22  C26 UNL     1      13.002 -12.814  -5.145  1.00  0.00     0.251 C 
HETATM   23  O4  UNL     1      12.344 -13.225  -6.129  1.00  0.00    -0.268 OA
HETATM   24  N2  UNL     1      13.969 -13.655  -4.565  1.00  0.00    -0.355 N 
ATOM     25  H2  UNL     1      14.501 -13.319  -3.762  1.00  0.00     0.162 HD
BRANCH  24  26
HETATM   26  C27 UNL     1      14.234 -14.998  -5.081  1.00  0.00     0.150 C 
BRANCH  26  27
HETATM   27  C28 UNL     1      15.668 -15.088  -5.572  1.00  0.00     0.249 C 
BRANCH  27  28
HETATM   28  N3  UNL     1      16.435 -16.034  -4.790  1.00  0.00    -0.078 N 
ATOM     29  H33 UNL     1      16.794 -15.608  -3.935  1.00  0.00     0.274 HD
ATOM     30  H32 UNL     1      15.836 -16.746  -4.371  1.00  0.00     0.274 HD
ATOM     31  H31 UNL     1      17.184 -16.452  -5.342  1.00  0.00     0.274 HD
ENDBRANCH  27  28
ENDBRANCH  26  27
ENDBRANCH  24  26
ENDBRANCH  19  22
ENDBRANCH  15  16
BRANCH   1  32
HETATM   32  N1  UNL     1      13.343  -6.687  -1.193  1.00  0.00    -0.281 N 
HETATM   33  C7  UNL     1      13.396  -5.555  -0.492  1.00  0.00     0.145 A 
HETATM   34  C6  UNL     1      14.729  -5.195  -0.255  1.00  0.00     0.095 A 
HETATM   35  N5  UNL     1      15.428  -6.167  -0.845  1.00  0.00    -0.282 N 
HETATM   36  N4  UNL     1      14.630  -7.021  -1.383  1.00  0.00    -0.240 N 
ATOM     37  H5  UNL     1      16.446  -6.224  -0.867  1.00  0.00     0.188 HD
ATOM     38  H4  UNL     1      14.937  -7.850  -1.892  1.00  0.00     0.208 HD
BRANCH  34  39
HETATM   39  C5  UNL     1      15.178  -4.035   0.473  1.00  0.00     0.073 C 
BRANCH  39  40
HETATM   40  C4  UNL     1      14.351  -3.003   1.061  1.00  0.00     0.070 C 
BRANCH  40  41
HETATM   41  C2  UNL     1      14.339  -2.861   2.536  1.00  0.00    -0.017 C 
HETATM   42  C1  UNL     1      14.862  -1.581   3.085  1.00  0.00     0.010 C 
HETATM   43  C3  UNL     1      12.867  -2.963   2.982  1.00  0.00     0.010 C 
ENDBRANCH  40  41
ENDBRANCH  39  40
BRANCH  39  44
HETATM   44  O1  UNL     1      16.464  -3.899   0.616  1.00  0.00    -0.363 OA
ATOM     45  H1  UNL     1      16.982  -3.915  -0.180  1.00  0.00     0.217 HD
ENDBRANCH  39  44
ENDBRANCH  34  39
ENDBRANCH   1  32
BRANCH   3  46
HETATM   46  O2  UNL     1       8.886  -8.033  -1.971  1.00  0.00    -0.392 OA
ATOM     47  H2  UNL     1       9.139  -8.854  -1.564  1.00  0.00     0.210 HD
ENDBRANCH   3  46
BRANCH  10  48
HETATM   48  O3  UNL     1       9.187  -5.852  -7.780  1.00  0.00    -0.396 OA
ATOM     49  H3  UNL     1       9.897  -5.496  -8.302  1.00  0.00     0.210 HD
ENDBRANCH  10  48
TORSDOF 12
ENDMDL
MODEL 3
REMARK VINA RESULT: -7.741546468      1.452      1.823
REMARK  12 active torsions:
REMARK  status: ('A' for Active; 'I' for Inactive)
REMARK    1  A    between atoms: C2_2  and  C4_4 
REMARK    2  A    between atoms: C4_4  and  C5_5 
REMARK    3  A    between atoms: C5_5  and  O1_6 
REMARK    4  A    between atoms: C5_5  and  C6_8 
REMARK    5  A    between atoms: N1_10  and  C8_11 
REMARK    6  A    between atoms: C10_13  and  O2_14 
REMARK    7  A    between atoms: C16_22  and  O3_23 
REMARK    8  A    between atoms: C21_29  and  C22_30 
REMARK    9  A    between atoms: C25_33  and  C26_34 
REMARK       I    between atoms: C26_34  and  N2_36 
REMARK   10  A    between atoms: N2_36  and  C27_38 
REMARK   11  A    between atoms: C27_38  and  C28_39 
REMARK   12  A    between atoms: C28_39  and  N3_40 
ROOT
HETATM    1  C8  UNL     1      10.431  -7.411  -1.554  1.00  0.00     0.128 C 
HETATM    2  C9  UNL     1       8.944  -7.518  -1.333  1.00  0.00     0.063 C 
HETATM    3  C10 UNL     1       8.272  -7.538  -2.689  1.00  0.00     0.162 C 
HETATM    4  C11 UNL     1       9.339  -7.051  -3.560  1.00  0.00     0.150 C 
HETATM    5  F1  UNL     1       9.179  -5.630  -3.292  1.00  0.00    -0.238 F 
HETATM    6  C12 UNL     1       9.167  -7.032  -5.037  1.00  0.00    -0.000 C 
HETATM    7  C13 UNL     1       9.251  -8.308  -5.774  1.00  0.00     0.019 C 
HETATM    8  C14 UNL     1       7.711  -6.562  -5.238  1.00  0.00     0.015 C 
HETATM    9  C15 UNL     1       7.405  -6.148  -6.632  1.00  0.00     0.032 C 
HETATM   10  C16 UNL     1       8.384  -5.126  -7.164  1.00  0.00     0.118 C 
HETATM   11  C17 UNL     1       9.359  -4.758  -6.104  1.00  0.00     0.037 C 
HETATM   12  C18 UNL     1      10.108  -6.013  -5.598  1.00  0.00    -0.001 C 
HETATM   13  C19 UNL     1      11.296  -5.625  -4.821  1.00  0.00     0.007 C 
HETATM   14  C20 UNL     1      11.474  -6.052  -3.424  1.00  0.00     0.020 C 
HETATM   15  C21 UNL     1      10.702  -7.325  -3.030  1.00  0.00     0.049 C 
ENDROOT
BRANCH  15  16
HETATM   16  C22 UNL     1      11.443  -8.506  -3.507  1.00  0.00    -0.044 A 
HETATM   17  C23 UNL     1      12.615  -8.359  -4.205  1.00  0.00     0.009 A 
HETATM   18  C24 UNL     1      13.304  -9.452  -4.661  1.00  0.00     0.017 A 
HETATM   19  C25 UNL     1      12.842 -10.755  -4.432  1.00  0.00     0.032 A 
HETATM   20  C29 UNL     1      11.671 -10.919  -3.736  1.00  0.00     0.017 A 
HETATM   21  C30 UNL     1      10.994  -9.785  -3.287  1.00  0.00     0.009 A 
BRANCH  19  22
HETATM   22  C26 UNL     1      13.577 -11.905  -4.906  1.00  0.00     0.251 C 
HETATM   23  O4  UNL     1      14.676 -11.729  -5.483  1.00  0.00    -0.268 OA
HETATM   24  N2  UNL     1      13.093 -13.215  -4.735  1.00  0.00    -0.355 N 
ATOM     25  H2  UNL     1      12.197 -13.355  -4.268  1.00  0.00     0.162 HD
BRANCH  24  26
HETATM   26  C27 UNL     1      13.839 -14.382  -5.208  1.00  0.00     0.150 C 
BRANCH  26  27
HETATM   27  C28 UNL     1      12.951 -15.613  -5.164  1.00  0.00     0.249 C 
BRANCH  27  28
HETATM   28  N3  UNL     1      11.713 -15.346  -4.463  1.00  0.00    -0.078 N 
ATOM     29  H33 UNL     1      11.882 -15.093  -3.489  1.00  0.00     0.274 HD
ATOM     30  H32 UNL     1      11.284 -14.476  -4.779  1.00  0.00     0.274 HD
ATOM     31  H31 UNL     1      11.066 -16.131  -4.538  1.00  0.00     0.274 HD
ENDBRANCH  27  28
ENDBRANCH  26  27
ENDBRANCH  24  26
ENDBRANCH  19  22
ENDBRANCH  15  16
BRANCH   1  32
HETATM   32  N1  UNL     1      11.084  -6.483  -0.705  1.00  0.00    -0.281 N 
HETATM   33  C7  UNL     1      12.363  -6.124  -0.593  1.00  0.00     0.145 A 
HETATM   34  C6  UNL     1      12.503  -5.138   0.392  1.00  0.00     0.095 A 
HETATM   35  N5  UNL     1      11.257  -4.951   0.831  1.00  0.00    -0.282 N 
HETATM   36  N4  UNL     1      10.446  -5.725   0.201  1.00  0.00    -0.240 N 
ATOM     37  H5  UNL     1      10.987  -4.291   1.561  1.00  0.00     0.188 HD
ATOM     38  H4  UNL     1       9.440  -5.759   0.368  1.00  0.00     0.208 HD
BRANCH  34  39
HETATM   39  C5  UNL     1      13.736  -4.504   0.788  1.00  0.00     0.073 C 
BRANCH  39  40
HETATM   40  C4  UNL     1      13.907  -3.136   1.229  1.00  0.00     0.070 C 
BRANCH  40  41
HETATM   41  C2  UNL     1      14.278  -2.890   2.643  1.00  0.00    -0.017 C 
HETATM   42  C1  UNL     1      15.053  -1.651   2.921  1.00  0.00     0.010 C 
HETATM   43  C3  UNL     1      12.960  -2.773   3.436  1.00  0.00     0.010 C 
ENDBRANCH  40  41
ENDBRANCH  39  40
BRANCH  39  44
HETATM   44  O1  UNL     1      14.810  -5.237   0.742  1.00  0.00    -0.363 OA
ATOM     45  H1  UNL     1      15.091  -5.522  -0.119  1.00  0.00     0.217 HD
ENDBRANCH  39  44
ENDBRANCH  34  39
ENDBRANCH   1  32
BRANCH   3  46
HETATM   46  O2  UNL     1       7.590  -8.685  -2.992  1.00  0.00    -0.392 OA
ATOM     47  H2  UNL     1       7.951  -9.200  -3.705  1.00  0.00     0.210 HD
ENDBRANCH   3  46
BRANCH  10  48
HETATM   48  O3  UNL     1       9.069  -5.695  -8.233  1.00  0.00    -0.396 OA
ATOM     49  H3  UNL     1       9.736  -6.276  -7.884  1.00  0.00     0.210 HD
ENDBRANCH  10  48
TORSDOF 12
ENDMDL
MODEL 4
REMARK VINA RESULT: -7.692987912      1.442      1.695
REMARK  12 active torsions:
REMARK  status: ('A' for Active; 'I' for Inactive)
REMARK    1  A    between atoms: C2_2  and  C4_4 
REMARK    2  A    between atoms: C4_4  and  C5_5 
REMARK    3  A    between atoms: C5_5  and  O1_6 
REMARK    4  A    between atoms: C5_5  and  C6_8 
REMARK    5  A    between atoms: N1_10  and  C8_11 
REMARK    6  A    between atoms: C10_13  and  O2_14 
REMARK    7  A    between atoms: C16_22  and  O3_23 
REMARK    8  A    between atoms: C21_29  and  C22_30 
REMARK    9  A    between atoms: C25_33  and  C26_34 
REMARK       I    between atoms: C26_34  and  N2_36 
REMARK   10  A    between atoms: N2_36  and  C27_38 
REMARK   11  A    between atoms: C27_38  and  C28_39 
REMARK   12  A    between atoms: C28_39  and  N3_40 
ROOT
HETATM    1  C8  UNL     1      10.872  -7.538  -1.721  1.00  0.00     0.128 C 
HETATM    2  C9  UNL     1       9.408  -7.526  -1.365  1.00  0.00     0.063 C 
HETATM    3  C10 UNL     1       8.617  -7.461  -2.653  1.00  0.00     0.162 C 
HETATM    4  C11 UNL     1       9.637  -7.044  -3.611  1.00  0.00     0.150 C 
HETATM    5  F1  UNL     1       9.622  -5.621  -3.309  1.00  0.00    -0.238 F 
HETATM    6  C12 UNL     1       9.334  -6.978  -5.066  1.00  0.00    -0.000 C 
HETATM    7  C13 UNL     1       9.243  -8.239  -5.827  1.00  0.00     0.019 C 
HETATM    8  C14 UNL     1       7.910  -6.385  -5.125  1.00  0.00     0.015 C 
HETATM    9  C15 UNL     1       7.515  -5.916  -6.478  1.00  0.00     0.032 C 
HETATM   10  C16 UNL     1       8.524  -4.967  -7.083  1.00  0.00     0.118 C 
HETATM   11  C17 UNL     1       9.619  -4.704  -6.112  1.00  0.00     0.037 C 
HETATM   12  C18 UNL     1      10.302  -6.027  -5.697  1.00  0.00    -0.001 C 
HETATM   13  C19 UNL     1      11.584  -5.756  -5.027  1.00  0.00     0.007 C 
HETATM   14  C20 UNL     1      11.852  -6.228  -3.659  1.00  0.00     0.020 C 
HETATM   15  C21 UNL     1      11.015  -7.442  -3.213  1.00  0.00     0.049 C 
ENDROOT
BRANCH  15  16
HETATM   16  C22 UNL     1      11.607  -8.668  -3.775  1.00  0.00    -0.044 A 
HETATM   17  C23 UNL     1      11.157  -9.903  -3.383  1.00  0.00     0.009 A 
HETATM   18  C24 UNL     1      11.711 -11.048  -3.894  1.00  0.00     0.017 A 
HETATM   19  C25 UNL     1      12.752 -11.001  -4.831  1.00  0.00     0.032 A 
HETATM   20  C29 UNL     1      13.214  -9.774  -5.233  1.00  0.00     0.017 A 
HETATM   21  C30 UNL     1      12.629  -8.628  -4.693  1.00  0.00     0.009 A 
BRANCH  19  22
HETATM   22  C26 UNL     1      13.326 -12.211  -5.374  1.00  0.00     0.251 C 
HETATM   23  O4  UNL     1      14.571 -12.299  -5.479  1.00  0.00    -0.268 OA
HETATM   24  N2  UNL     1      12.523 -13.291  -5.787  1.00  0.00    -0.355 N 
ATOM     25  H2  UNL     1      11.510 -13.214  -5.704  1.00  0.00     0.162 HD
BRANCH  24  26
HETATM   26  C27 UNL     1      13.102 -14.519  -6.332  1.00  0.00     0.150 C 
BRANCH  26  27
HETATM   27  C28 UNL     1      13.257 -15.550  -5.227  1.00  0.00     0.249 C 
BRANCH  27  28
HETATM   28  N3  UNL     1      14.426 -15.282  -4.417  1.00  0.00    -0.078 N 
ATOM     29  H33 UNL     1      14.740 -16.119  -3.924  1.00  0.00     0.274 HD
ATOM     30  H32 UNL     1      15.252 -15.121  -4.994  1.00  0.00     0.274 HD
ATOM     31  H31 UNL     1      14.262 -14.508  -3.772  1.00  0.00     0.274 HD
ENDBRANCH  27  28
ENDBRANCH  26  27
ENDBRANCH  24  26
ENDBRANCH  19  22
ENDBRANCH  15  16
BRANCH   1  32
HETATM   32  N1  UNL     1      11.676  -6.686  -0.922  1.00  0.00    -0.281 N 
HETATM   33  C7  UNL     1      11.394  -5.576  -0.240  1.00  0.00     0.145 A 
HETATM   34  C6  UNL     1      12.539  -5.108   0.417  1.00  0.00     0.095 A 
HETATM   35  N5  UNL     1      13.478  -5.995   0.084  1.00  0.00    -0.282 N 
HETATM   36  N4  UNL     1      12.980  -6.898  -0.685  1.00  0.00    -0.240 N 
ATOM     37  H5  UNL     1      14.450  -5.962   0.393  1.00  0.00     0.188 HD
ATOM     38  H4  UNL     1      13.511  -7.681  -1.068  1.00  0.00     0.208 HD
BRANCH  34  39
HETATM   39  C5  UNL     1      12.619  -3.937   1.253  1.00  0.00     0.073 C 
BRANCH  39  40
HETATM   40  C4  UNL     1      13.684  -3.595   2.171  1.00  0.00     0.070 C 
BRANCH  40  41
HETATM   41  C2  UNL     1      14.712  -2.622   1.731  1.00  0.00    -0.017 C 
HETATM   42  C1  UNL     1      15.334  -1.786   2.794  1.00  0.00     0.010 C 
HETATM   43  C3  UNL     1      15.851  -3.437   1.087  1.00  0.00     0.010 C 
ENDBRANCH  40  41
ENDBRANCH  39  40
BRANCH  39  44
HETATM   44  O1  UNL     1      11.627  -3.098   1.178  1.00  0.00    -0.363 OA
ATOM     45  H1  UNL     1      10.775  -3.466   0.977  1.00  0.00     0.217 HD
ENDBRANCH  39  44
ENDBRANCH  34  39
ENDBRANCH   1  32
BRANCH   3  46
HETATM   46  O2  UNL     1       7.816  -8.541  -2.908  1.00  0.00    -0.392 OA
ATOM     47  H2  UNL     1       7.345  -8.515  -3.733  1.00  0.00     0.210 HD
ENDBRANCH   3  46
BRANCH  10  48
HETATM   48  O3  UNL     1       9.059  -5.566  -8.219  1.00  0.00    -0.396 OA
ATOM     49  H3  UNL     1       9.946  -5.247  -8.334  1.00  0.00     0.210 HD
ENDBRANCH  10  48
TORSDOF 12
ENDMDL
MODEL 5
REMARK VINA RESULT: -7.674323973      1.859      2.370
REMARK  12 active torsions:
REMARK  status: ('A' for Active; 'I' for Inactive)
REMARK    1  A    between atoms: C2_2  and  C4_4 
REMARK    2  A    between atoms: C4_4  and  C5_5 
REMARK    3  A    between atoms: C5_5  and  O1_6 
REMARK    4  A    between atoms: C5_5  and  C6_8 
REMARK    5  A    between atoms: N1_10  and  C8_11 
REMARK    6  A    between atoms: C10_13  and  O2_14 
REMARK    7  A    between atoms: C16_22  and  O3_23 
REMARK    8  A    between atoms: C21_29  and  C22_30 
REMARK    9  A    between atoms: C25_33  and  C26_34 
REMARK       I    between atoms: C26_34  and  N2_36 
REMARK   10  A    between atoms: N2_36  and  C27_38 
REMARK   11  A    between atoms: C27_38  and  C28_39 
REMARK   12  A    between atoms: C28_39  and  N3_40 
ROOT
HETATM    1  C8  UNL     1      11.676  -7.032  -2.256  1.00  0.00     0.128 C 
HETATM    2  C9  UNL     1      10.649  -6.002  -2.651  1.00  0.00     0.063 C 
HETATM    3  C10 UNL     1      10.602  -5.947  -4.163  1.00  0.00     0.162 C 
HETATM    4  C11 UNL     1      11.843  -6.627  -4.526  1.00  0.00     0.150 C 
HETATM    5  F1  UNL     1      12.748  -5.506  -4.326  1.00  0.00    -0.238 F 
HETATM    6  C12 UNL     1      12.156  -6.930  -5.949  1.00  0.00    -0.000 C 
HETATM    7  C13 UNL     1      11.442  -8.041  -6.608  1.00  0.00     0.019 C 
HETATM    8  C14 UNL     1      11.698  -5.668  -6.710  1.00  0.00     0.015 C 
HETATM    9  C15 UNL     1      12.207  -5.595  -8.104  1.00  0.00     0.032 C 
HETATM   10  C16 UNL     1      13.708  -5.763  -8.185  1.00  0.00     0.118 C 
HETATM   11  C17 UNL     1      14.278  -5.889  -6.818  1.00  0.00     0.037 C 
HETATM   12  C18 UNL     1      13.639  -7.083  -6.072  1.00  0.00    -0.001 C 
HETATM   13  C19 UNL     1      14.429  -7.427  -4.879  1.00  0.00     0.007 C 
HETATM   14  C20 UNL     1      13.833  -7.419  -3.533  1.00  0.00     0.020 C 
HETATM   15  C21 UNL     1      12.303  -7.599  -3.498  1.00  0.00     0.049 C 
ENDROOT
BRANCH  15  16
HETATM   16  C22 UNL     1      11.983  -9.028  -3.655  1.00  0.00    -0.044 A 
HETATM   17  C23 UNL     1      10.679  -9.446  -3.740  1.00  0.00     0.009 A 
HETATM   18  C24 UNL     1      10.374 -10.776  -3.876  1.00  0.00     0.017 A 
HETATM   19  C25 UNL     1      11.376 -11.753  -3.934  1.00  0.00     0.032 A 
HETATM   20  C29 UNL     1      12.685 -11.352  -3.849  1.00  0.00     0.017 A 
HETATM   21  C30 UNL     1      12.961  -9.992  -3.711  1.00  0.00     0.009 A 
BRANCH  19  22
HETATM   22  C26 UNL     1      11.049 -13.153  -4.087  1.00  0.00     0.251 C 
HETATM   23  O4  UNL     1       9.988 -13.588  -3.583  1.00  0.00    -0.268 OA
HETATM   24  N2  UNL     1      11.891 -14.036  -4.788  1.00  0.00    -0.355 N 
ATOM     25  H2  UNL     1      12.755 -13.680  -5.194  1.00  0.00     0.162 HD
BRANCH  24  26
HETATM   26  C27 UNL     1      11.560 -15.452  -4.950  1.00  0.00     0.150 C 
BRANCH  26  27
HETATM   27  C28 UNL     1      12.832 -16.262  -5.126  1.00  0.00     0.249 C 
BRANCH  27  28
HETATM   28  N3  UNL     1      13.993 -15.524  -4.675  1.00  0.00    -0.078 N 
ATOM     29  H33 UNL     1      14.613 -15.291  -5.452  1.00  0.00     0.274 HD
ATOM     30  H32 UNL     1      13.745 -14.578  -4.383  1.00  0.00     0.274 HD
ATOM     31  H31 UNL     1      14.490 -16.025  -3.939  1.00  0.00     0.274 HD
ENDBRANCH  27  28
ENDBRANCH  26  27
ENDBRANCH  24  26
ENDBRANCH  19  22
ENDBRANCH  15  16
BRANCH   1  32
HETATM   32  N1  UNL     1      12.535  -6.628  -1.204  1.00  0.00    -0.281 N 
HETATM   33  C7  UNL     1      12.879  -5.425  -0.746  1.00  0.00     0.145 A 
HETATM   34  C6  UNL     1      13.754  -5.554   0.341  1.00  0.00     0.095 A 
HETATM   35  N5  UNL     1      13.890  -6.874   0.482  1.00  0.00    -0.282 N 
HETATM   36  N4  UNL     1      13.191  -7.487  -0.407  1.00  0.00    -0.240 N 
ATOM     37  H5  UNL     1      14.465  -7.330   1.190  1.00  0.00     0.188 HD
ATOM     38  H4  UNL     1      13.140  -8.502  -0.495  1.00  0.00     0.208 HD
BRANCH  34  39
HETATM   39  C5  UNL     1      14.333  -4.472   1.097  1.00  0.00     0.073 C 
BRANCH  39  40
HETATM   40  C4  UNL     1      13.624  -3.405   1.771  1.00  0.00     0.070 C 
BRANCH  40  41
HETATM   41  C2  UNL     1      14.184  -2.873   3.036  1.00  0.00    -0.017 C 
HETATM   42  C1  UNL     1      14.936  -1.593   2.944  1.00  0.00     0.010 C 
HETATM   43  C3  UNL     1      12.991  -2.616   3.979  1.00  0.00     0.010 C 
ENDBRANCH  40  41
ENDBRANCH  39  40
BRANCH  39  44
HETATM   44  O1  UNL     1      15.631  -4.449   1.181  1.00  0.00    -0.363 OA
ATOM     45  H1  UNL     1      15.997  -4.261   2.037  1.00  0.00     0.217 HD
ENDBRANCH  39  44
ENDBRANCH  34  39
ENDBRANCH   1  32
BRANCH   3  46
HETATM   46  O2  UNL     1       9.411  -6.313  -4.729  1.00  0.00    -0.392 OA
ATOM     47  H2  UNL     1       9.064  -5.711  -5.377  1.00  0.00     0.210 HD
ENDBRANCH   3  46
BRANCH  10  48
HETATM   48  O3  UNL     1      13.976  -6.928  -8.898  1.00  0.00    -0.396 OA
ATOM     49  H3  UNL     1      13.149  -7.301  -9.181  1.00  0.00     0.210 HD
ENDBRANCH  10  48
TORSDOF 12
ENDMDL
