MODEL 1
REMARK VINA RESULT: -7.776174005      0.000      0.000
REMARK  14 active torsions:
REMARK  status: ('A' for Active; 'I' for Inactive)
REMARK    1  A    between atoms: C2_2  and  C3_3 
REMARK    2  A    between atoms: C3_3  and  O2_5 
REMARK    3  A    between atoms: O2_5  and  C4_6 
REMARK    4  A    between atoms: C6_8  and  O3_9 
REMARK    5  A    between atoms: C11_15  and  O4_16 
REMARK    6  A    between atoms: C18_24  and  O5_25 
REMARK    7  A    between atoms: C19_27  and  O6_28 
REMARK    8  A    between atoms: C23_33  and  C24_34 
REMARK    9  A    between atoms: C24_34  and  C25_35 
REMARK   10  A    between atoms: C25_35  and  C26_36 
REMARK   11  A    between atoms: C26_36  and  O7_38 
REMARK   12  A    between atoms: C26_36  and  C28_40 
REMARK   13  A    between atoms: C28_40  and  C29_41 
REMARK   14  A    between atoms: C29_41  and  C30_42 
ROOT
HETATM    1  C4  UNL     1       7.126  -6.751  -6.581  1.00  0.00     0.139 C 
HETATM    2  C5  UNL     1       8.169  -7.588  -7.254  1.00  0.00     0.065 C 
HETATM    3  C6  UNL     1       9.404  -6.687  -7.071  1.00  0.00     0.130 C 
HETATM    4  C7  UNL     1       9.206  -6.050  -5.754  1.00  0.00    -0.004 C 
HETATM    5  C8  UNL     1       9.151  -4.523  -5.950  1.00  0.00     0.019 C 
HETATM    6  C9  UNL     1       7.847  -6.433  -5.258  1.00  0.00     0.029 C 
HETATM    7  C10 UNL     1       7.734  -7.614  -4.398  1.00  0.00     0.040 C 
HETATM    8  C11 UNL     1       8.902  -7.977  -3.557  1.00  0.00     0.123 C 
HETATM    9  C12 UNL     1      10.158  -7.741  -4.331  1.00  0.00     0.028 C 
HETATM   10  C13 UNL     1      11.427  -7.976  -3.581  1.00  0.00     0.006 C 
HETATM   11  C14 UNL     1      11.736  -9.420  -3.635  1.00  0.00     0.033 C 
HETATM   12  C15 UNL     1      13.157  -9.765  -3.714  1.00  0.00    -0.023 C 
HETATM   13  C16 UNL     1      14.048  -8.981  -4.311  1.00  0.00    -0.072 C 
HETATM   14  C17 UNL     1      15.439  -9.410  -4.337  1.00  0.00     0.069 C 
HETATM   15  C18 UNL     1      16.438  -8.513  -4.951  1.00  0.00     0.151 C 
HETATM   16  C19 UNL     1      15.832  -7.524  -5.920  1.00  0.00     0.148 C 
HETATM   17  C20 UNL     1      14.747  -6.808  -5.102  1.00  0.00     0.049 C 
HETATM   18  C21 UNL     1      13.560  -7.724  -4.920  1.00  0.00    -0.010 C 
HETATM   19  C22 UNL     1      13.158  -8.123  -6.333  1.00  0.00     0.021 C 
HETATM   20  C23 UNL     1      12.477  -7.054  -4.140  1.00  0.00    -0.024 C 
HETATM   21  C32 UNL     1      11.656  -6.151  -5.079  1.00  0.00     0.021 C 
HETATM   22  C33 UNL     1      10.220  -6.288  -4.696  1.00  0.00    -0.027 C 
HETATM   23  C34 UNL     1       9.824  -5.385  -3.546  1.00  0.00     0.016 C 
ENDROOT
BRANCH  20  24
HETATM   24  C24 UNL     1      13.024  -6.141  -3.075  1.00  0.00     0.014 C 
BRANCH  24  25
HETATM   25  C25 UNL     1      12.912  -6.642  -1.666  1.00  0.00     0.038 C 
BRANCH  25  26
HETATM   26  C26 UNL     1      14.185  -6.234  -0.950  1.00  0.00     0.054 C 
HETATM   27  C27 UNL     1      15.207  -7.371  -0.907  1.00  0.00     0.045 C 
BRANCH  26  28
HETATM   28  O7  UNL     1      14.810  -5.177  -1.636  1.00  0.00    -0.390 OA
ATOM     29  H7  UNL     1      15.750  -5.312  -1.660  1.00  0.00     0.210 HD
ENDBRANCH  26  28
BRANCH  26  30
HETATM   30  C28 UNL     1      13.948  -5.761   0.458  1.00  0.00     0.043 C 
BRANCH  30  31
HETATM   31  C29 UNL     1      14.907  -4.675   0.833  1.00  0.00     0.081 C 
BRANCH  31  32
HETATM   32  C30 UNL     1      14.130  -3.460   1.367  1.00  0.00     0.240 C 
HETATM   33  C31 UNL     1      12.657  -3.751   1.301  1.00  0.00     0.090 C 
HETATM   34  F1  UNL     1      14.415  -2.403   0.527  1.00  0.00    -0.207 F 
HETATM   35  F2  UNL     1      14.528  -3.233   2.657  1.00  0.00    -0.207 F 
ENDBRANCH  31  32
ENDBRANCH  30  31
ENDBRANCH  26  30
ENDBRANCH  25  26
ENDBRANCH  24  25
ENDBRANCH  20  24
BRANCH   8  36
HETATM   36  O4  UNL     1       8.851  -9.370  -3.304  1.00  0.00    -0.395 OA
ATOM     37  H4  UNL     1       9.153  -9.522  -2.417  1.00  0.00     0.210 HD
ENDBRANCH   8  36
BRANCH  16  38
HETATM   38  O6  UNL     1      16.757  -6.519  -6.228  1.00  0.00    -0.393 OA
ATOM     39  H6  UNL     1      16.313  -5.687  -6.342  1.00  0.00     0.210 HD
ENDBRANCH  16  38
BRANCH  15  40
HETATM   40  O5  UNL     1      17.445  -9.268  -5.554  1.00  0.00    -0.393 OA
ATOM     41  H5  UNL     1      18.284  -9.057  -5.162  1.00  0.00     0.210 HD
ENDBRANCH  15  40
BRANCH   3  42
HETATM   42  O3  UNL     1       9.303  -5.787  -8.164  1.00  0.00    -0.395 OA
ATOM     43  H3  UNL     1       8.702  -5.126  -7.840  1.00  0.00     0.210 HD
ENDBRANCH   3  42
BRANCH   1  44
HETATM   44  O2  UNL     1       5.971  -7.481  -6.209  1.00  0.00    -0.312 OA
BRANCH  44  45
HETATM   45  C3  UNL     1       4.699  -6.899  -6.301  1.00  0.00     0.282 C 
HETATM   46  O1  UNL     1       4.606  -5.909  -7.070  1.00  0.00    -0.260 OA
BRANCH  45  47
HETATM   47  C2  UNL     1       3.563  -7.412  -5.550  1.00  0.00     0.072 C 
HETATM   48  C1  UNL     1       3.797  -8.342  -4.643  1.00  0.00     0.017 C 
ENDBRANCH  45  47
ENDBRANCH  44  45
ENDBRANCH   1  44
TORSDOF 14
ENDMDL
MODEL 2
REMARK VINA RESULT: -7.576891036      3.001      7.926
REMARK  14 active torsions:
REMARK  status: ('A' for Active; 'I' for Inactive)
REMARK    1  A    between atoms: C2_2  and  C3_3 
REMARK    2  A    between atoms: C3_3  and  O2_5 
REMARK    3  A    between atoms: O2_5  and  C4_6 
REMARK    4  A    between atoms: C6_8  and  O3_9 
REMARK    5  A    between atoms: C11_15  and  O4_16 
REMARK    6  A    between atoms: C18_24  and  O5_25 
REMARK    7  A    between atoms: C19_27  and  O6_28 
REMARK    8  A    between atoms: C23_33  and  C24_34 
REMARK    9  A    between atoms: C24_34  and  C25_35 
REMARK   10  A    between atoms: C25_35  and  C26_36 
REMARK   11  A    between atoms: C26_36  and  O7_38 
REMARK   12  A    between atoms: C26_36  and  C28_40 
REMARK   13  A    between atoms: C28_40  and  C29_41 
REMARK   14  A    between atoms: C29_41  and  C30_42 
ROOT
HETATM    1  C4  UNL     1      14.688  -6.910  -1.271  1.00  0.00     0.139 C 
HETATM    2  C5  UNL     1      14.434  -5.794  -2.237  1.00  0.00     0.065 C 
HETATM    3  C6  UNL     1      13.881  -6.589  -3.435  1.00  0.00     0.130 C 
HETATM    4  C7  UNL     1      13.113  -7.692  -2.825  1.00  0.00    -0.004 C 
HETATM    5  C8  UNL     1      13.726  -9.029  -3.283  1.00  0.00     0.019 C 
HETATM    6  C9  UNL     1      13.335  -7.643  -1.345  1.00  0.00     0.029 C 
HETATM    7  C10 UNL     1      12.379  -6.892  -0.529  1.00  0.00     0.040 C 
HETATM    8  C11 UNL     1      10.983  -6.777  -1.020  1.00  0.00     0.123 C 
HETATM    9  C12 UNL     1      10.997  -6.593  -2.503  1.00  0.00     0.028 C 
HETATM   10  C13 UNL     1       9.655  -6.554  -3.156  1.00  0.00     0.006 C 
HETATM   11  C14 UNL     1       9.131  -5.176  -3.050  1.00  0.00     0.033 C 
HETATM   12  C15 UNL     1       8.338  -4.708  -4.190  1.00  0.00    -0.023 C 
HETATM   13  C16 UNL     1       8.559  -5.128  -5.430  1.00  0.00    -0.072 C 
HETATM   14  C17 UNL     1       7.718  -4.603  -6.498  1.00  0.00     0.069 C 
HETATM   15  C18 UNL     1       7.925  -5.112  -7.868  1.00  0.00     0.151 C 
HETATM   16  C19 UNL     1       9.299  -5.707  -8.078  1.00  0.00     0.148 C 
HETATM   17  C20 UNL     1       9.425  -6.769  -6.977  1.00  0.00     0.049 C 
HETATM   18  C21 UNL     1       9.657  -6.095  -5.646  1.00  0.00    -0.010 C 
HETATM   19  C22 UNL     1      10.888  -5.226  -5.859  1.00  0.00     0.021 C 
HETATM   20  C23 UNL     1       9.799  -7.101  -4.551  1.00  0.00    -0.024 C 
HETATM   21  C32 UNL     1      11.239  -7.647  -4.543  1.00  0.00     0.021 C 
HETATM   22  C33 UNL     1      11.662  -7.788  -3.118  1.00  0.00    -0.027 C 
HETATM   23  C34 UNL     1      11.207  -9.090  -2.492  1.00  0.00     0.016 C 
ENDROOT
BRANCH  20  24
HETATM   24  C24 UNL     1       8.913  -8.300  -4.759  1.00  0.00     0.014 C 
BRANCH  24  25
HETATM   25  C25 UNL     1       7.483  -8.135  -4.339  1.00  0.00     0.038 C 
BRANCH  25  26
HETATM   26  C26 UNL     1       7.198  -9.214  -3.311  1.00  0.00     0.054 C 
HETATM   27  C27 UNL     1       5.763  -9.735  -3.411  1.00  0.00     0.045 C 
BRANCH  26  28
HETATM   28  O7  UNL     1       8.030 -10.327  -3.532  1.00  0.00    -0.390 OA
ATOM     29  H7  UNL     1       7.762 -11.051  -2.979  1.00  0.00     0.210 HD
ENDBRANCH  26  28
BRANCH  26  30
HETATM   30  C28 UNL     1       7.438  -8.764  -1.897  1.00  0.00     0.043 C 
BRANCH  30  31
HETATM   31  C29 UNL     1       6.355  -9.245  -0.983  1.00  0.00     0.081 C 
BRANCH  31  32
HETATM   32  C30 UNL     1       6.649  -8.785   0.455  1.00  0.00     0.240 C 
HETATM   33  C31 UNL     1       7.864  -7.899   0.450  1.00  0.00     0.090 C 
HETATM   34  F1  UNL     1       6.926  -9.919   1.190  1.00  0.00    -0.207 F 
HETATM   35  F2  UNL     1       5.552  -8.109   0.919  1.00  0.00    -0.207 F 
ENDBRANCH  31  32
ENDBRANCH  30  31
ENDBRANCH  26  30
ENDBRANCH  25  26
ENDBRANCH  24  25
ENDBRANCH  20  24
BRANCH   8  36
HETATM   36  O4  UNL     1      10.420  -5.595  -0.482  1.00  0.00    -0.395 OA
ATOM     37  H4  UNL     1      10.219  -5.007  -1.201  1.00  0.00     0.210 HD
ENDBRANCH   8  36
BRANCH  16  38
HETATM   38  O6  UNL     1       9.332  -6.437  -9.273  1.00  0.00    -0.393 OA
ATOM     39  H6  UNL     1       9.738  -5.923  -9.961  1.00  0.00     0.210 HD
ENDBRANCH  16  38
BRANCH  15  40
HETATM   40  O5  UNL     1       7.658  -4.101  -8.793  1.00  0.00    -0.393 OA
ATOM     41  H5  UNL     1       8.434  -3.567  -8.917  1.00  0.00     0.210 HD
ENDBRANCH  15  40
BRANCH   3  42
HETATM   42  O3  UNL     1      15.060  -7.012  -4.104  1.00  0.00    -0.395 OA
ATOM     43  H3  UNL     1      14.890  -7.931  -4.271  1.00  0.00     0.210 HD
ENDBRANCH   3  42
BRANCH   1  44
HETATM   44  O2  UNL     1      14.803  -6.477   0.072  1.00  0.00    -0.312 OA
BRANCH  44  45
HETATM   45  C3  UNL     1      15.162  -5.154   0.367  1.00  0.00     0.282 C 
HETATM   46  O1  UNL     1      16.357  -4.847   0.123  1.00  0.00    -0.260 OA
BRANCH  45  47
HETATM   47  C2  UNL     1      14.210  -4.204   0.922  1.00  0.00     0.072 C 
HETATM   48  C1  UNL     1      14.529  -2.924   0.883  1.00  0.00     0.017 C 
ENDBRANCH  45  47
ENDBRANCH  44  45
ENDBRANCH   1  44
TORSDOF 14
ENDMDL
MODEL 3
REMARK VINA RESULT: -7.564227104      0.704      1.155
REMARK  14 active torsions:
REMARK  status: ('A' for Active; 'I' for Inactive)
REMARK    1  A    between atoms: C2_2  and  C3_3 
REMARK    2  A    between atoms: C3_3  and  O2_5 
REMARK    3  A    between atoms: O2_5  and  C4_6 
REMARK    4  A    between atoms: C6_8  and  O3_9 
REMARK    5  A    between atoms: C11_15  and  O4_16 
REMARK    6  A    between atoms: C18_24  and  O5_25 
REMARK    7  A    between atoms: C19_27  and  O6_28 
REMARK    8  A    between atoms: C23_33  and  C24_34 
REMARK    9  A    between atoms: C24_34  and  C25_35 
REMARK   10  A    between atoms: C25_35  and  C26_36 
REMARK   11  A    between atoms: C26_36  and  O7_38 
REMARK   12  A    between atoms: C26_36  and  C28_40 
REMARK   13  A    between atoms: C28_40  and  C29_41 
REMARK   14  A    between atoms: C29_41  and  C30_42 
ROOT
HETATM    1  C4  UNL     1       7.190  -6.644  -6.551  1.00  0.00     0.139 C 
HETATM    2  C5  UNL     1       8.225  -7.489  -7.227  1.00  0.00     0.065 C 
HETATM    3  C6  UNL     1       9.472  -6.608  -7.025  1.00  0.00     0.130 C 
HETATM    4  C7  UNL     1       9.275  -5.986  -5.701  1.00  0.00    -0.004 C 
HETATM    5  C8  UNL     1       9.244  -4.456  -5.877  1.00  0.00     0.019 C 
HETATM    6  C9  UNL     1       7.907  -6.355  -5.219  1.00  0.00     0.029 C 
HETATM    7  C10 UNL     1       7.770  -7.545  -4.375  1.00  0.00     0.040 C 
HETATM    8  C11 UNL     1       8.927  -7.936  -3.531  1.00  0.00     0.123 C 
HETATM    9  C12 UNL     1      10.192  -7.710  -4.294  1.00  0.00     0.028 C 
HETATM   10  C13 UNL     1      11.452  -7.974  -3.538  1.00  0.00     0.006 C 
HETATM   11  C14 UNL     1      11.739  -9.422  -3.610  1.00  0.00     0.033 C 
HETATM   12  C15 UNL     1      13.155  -9.787  -3.683  1.00  0.00    -0.023 C 
HETATM   13  C16 UNL     1      14.062  -9.009  -4.264  1.00  0.00    -0.072 C 
HETATM   14  C17 UNL     1      15.446  -9.459  -4.287  1.00  0.00     0.069 C 
HETATM   15  C18 UNL     1      16.463  -8.569  -4.882  1.00  0.00     0.151 C 
HETATM   16  C19 UNL     1      15.878  -7.559  -5.842  1.00  0.00     0.148 C 
HETATM   17  C20 UNL     1      14.799  -6.837  -5.022  1.00  0.00     0.049 C 
HETATM   18  C21 UNL     1      13.598  -7.737  -4.860  1.00  0.00    -0.010 C 
HETATM   19  C22 UNL     1      13.199  -8.112  -6.281  1.00  0.00     0.021 C 
HETATM   20  C23 UNL     1      12.519  -7.061  -4.079  1.00  0.00    -0.024 C 
HETATM   21  C32 UNL     1      11.718  -6.134  -5.011  1.00  0.00     0.021 C 
HETATM   22  C33 UNL     1      10.278  -6.253  -4.640  1.00  0.00    -0.027 C 
HETATM   23  C34 UNL     1       9.888  -5.360  -3.481  1.00  0.00     0.016 C 
ENDROOT
BRANCH  20  24
HETATM   24  C24 UNL     1      13.072  -6.170  -2.998  1.00  0.00     0.014 C 
BRANCH  24  25
HETATM   25  C25 UNL     1      12.934  -6.683  -1.596  1.00  0.00     0.038 C 
BRANCH  25  26
HETATM   26  C26 UNL     1      14.031  -6.030  -0.776  1.00  0.00     0.054 C 
HETATM   27  C27 UNL     1      14.872  -7.060  -0.021  1.00  0.00     0.045 C 
BRANCH  26  28
HETATM   28  O7  UNL     1      14.924  -5.344  -1.620  1.00  0.00    -0.390 OA
ATOM     29  H7  UNL     1      15.609  -4.931  -1.107  1.00  0.00     0.210 HD
ENDBRANCH  26  28
BRANCH  26  30
HETATM   30  C28 UNL     1      13.512  -5.027   0.216  1.00  0.00     0.043 C 
BRANCH  30  31
HETATM   31  C29 UNL     1      14.625  -4.436   1.023  1.00  0.00     0.081 C 
BRANCH  31  32
HETATM   32  C30 UNL     1      14.222  -3.035   1.514  1.00  0.00     0.240 C 
HETATM   33  C31 UNL     1      15.370  -2.432   2.276  1.00  0.00     0.090 C 
HETATM   34  F1  UNL     1      13.156  -3.204   2.373  1.00  0.00    -0.207 F 
HETATM   35  F2  UNL     1      13.906  -2.275   0.420  1.00  0.00    -0.207 F 
ENDBRANCH  31  32
ENDBRANCH  30  31
ENDBRANCH  26  30
ENDBRANCH  25  26
ENDBRANCH  24  25
ENDBRANCH  20  24
BRANCH   8  36
HETATM   36  O4  UNL     1       8.852  -9.331  -3.297  1.00  0.00    -0.395 OA
ATOM     37  H4  UNL     1       9.593  -9.582  -2.758  1.00  0.00     0.210 HD
ENDBRANCH   8  36
BRANCH  16  38
HETATM   38  O6  UNL     1      16.821  -6.564  -6.131  1.00  0.00    -0.393 OA
ATOM     39  H6  UNL     1      16.453  -5.705  -5.964  1.00  0.00     0.210 HD
ENDBRANCH  16  38
BRANCH  15  40
HETATM   40  O5  UNL     1      17.462  -9.332  -5.488  1.00  0.00    -0.393 OA
ATOM     41  H5  UNL     1      17.097  -9.818  -6.219  1.00  0.00     0.210 HD
ENDBRANCH  15  40
BRANCH   3  42
HETATM   42  O3  UNL     1       9.392  -5.693  -8.107  1.00  0.00    -0.395 OA
ATOM     43  H3  UNL     1       8.663  -5.137  -7.860  1.00  0.00     0.210 HD
ENDBRANCH   3  42
BRANCH   1  44
HETATM   44  O2  UNL     1       6.022  -7.361  -6.196  1.00  0.00    -0.312 OA
BRANCH  44  45
HETATM   45  C3  UNL     1       4.753  -6.789  -6.368  1.00  0.00     0.282 C 
HETATM   46  O1  UNL     1       3.828  -7.301  -5.688  1.00  0.00    -0.260 OA
BRANCH  45  47
HETATM   47  C2  UNL     1       4.529  -5.676  -7.278  1.00  0.00     0.072 C 
HETATM   48  C1  UNL     1       4.375  -5.954  -8.560  1.00  0.00     0.017 C 
ENDBRANCH  45  47
ENDBRANCH  44  45
ENDBRANCH   1  44
TORSDOF 14
ENDMDL
MODEL 4
REMARK VINA RESULT: -7.353102944      1.566      1.903
REMARK  14 active torsions:
REMARK  status: ('A' for Active; 'I' for Inactive)
REMARK    1  A    between atoms: C2_2  and  C3_3 
REMARK    2  A    between atoms: C3_3  and  O2_5 
REMARK    3  A    between atoms: O2_5  and  C4_6 
REMARK    4  A    between atoms: C6_8  and  O3_9 
REMARK    5  A    between atoms: C11_15  and  O4_16 
REMARK    6  A    between atoms: C18_24  and  O5_25 
REMARK    7  A    between atoms: C19_27  and  O6_28 
REMARK    8  A    between atoms: C23_33  and  C24_34 
REMARK    9  A    between atoms: C24_34  and  C25_35 
REMARK   10  A    between atoms: C25_35  and  C26_36 
REMARK   11  A    between atoms: C26_36  and  O7_38 
REMARK   12  A    between atoms: C26_36  and  C28_40 
REMARK   13  A    between atoms: C28_40  and  C29_41 
REMARK   14  A    between atoms: C29_41  and  C30_42 
ROOT
HETATM    1  C4  UNL     1       7.621  -6.521  -6.304  1.00  0.00     0.139 C 
HETATM    2  C5  UNL     1       8.495  -7.417  -7.125  1.00  0.00     0.065 C 
HETATM    3  C6  UNL     1       9.825  -6.644  -7.054  1.00  0.00     0.130 C 
HETATM    4  C7  UNL     1       9.840  -6.059  -5.699  1.00  0.00    -0.004 C 
HETATM    5  C8  UNL     1       9.913  -4.525  -5.828  1.00  0.00     0.019 C 
HETATM    6  C9  UNL     1       8.514  -6.338  -5.062  1.00  0.00     0.029 C 
HETATM    7  C10 UNL     1       8.384  -7.544  -4.241  1.00  0.00     0.040 C 
HETATM    8  C11 UNL     1       9.599  -8.055  -3.557  1.00  0.00     0.123 C 
HETATM    9  C12 UNL     1      10.776  -7.900  -4.464  1.00  0.00     0.028 C 
HETATM   10  C13 UNL     1      12.092  -8.288  -3.876  1.00  0.00     0.006 C 
HETATM   11  C14 UNL     1      12.249  -9.750  -4.023  1.00  0.00     0.033 C 
HETATM   12  C15 UNL     1      13.612 -10.222  -4.280  1.00  0.00    -0.023 C 
HETATM   13  C16 UNL     1      14.503  -9.495  -4.946  1.00  0.00    -0.072 C 
HETATM   14  C17 UNL     1      15.833 -10.050  -5.152  1.00  0.00     0.069 C 
HETATM   15  C18 UNL     1      16.840  -9.220  -5.843  1.00  0.00     0.151 C 
HETATM   16  C19 UNL     1      16.228  -8.133  -6.696  1.00  0.00     0.148 C 
HETATM   17  C20 UNL     1      15.318  -7.360  -5.729  1.00  0.00     0.049 C 
HETATM   18  C21 UNL     1      14.075  -8.170  -5.446  1.00  0.00    -0.010 C 
HETATM   19  C22 UNL     1      13.479  -8.459  -6.816  1.00  0.00     0.021 C 
HETATM   20  C23 UNL     1      13.158  -7.441  -4.519  1.00  0.00    -0.024 C 
HETATM   21  C32 UNL     1      12.329  -6.421  -5.319  1.00  0.00     0.021 C 
HETATM   22  C33 UNL     1      10.938  -6.442  -4.777  1.00  0.00    -0.027 C 
HETATM   23  C34 UNL     1      10.765  -5.564  -3.555  1.00  0.00     0.016 C 
ENDROOT
BRANCH  20  24
HETATM   24  C24 UNL     1      13.908  -6.637  -3.491  1.00  0.00     0.014 C 
BRANCH  24  25
HETATM   25  C25 UNL     1      14.263  -7.362  -2.227  1.00  0.00     0.038 C 
BRANCH  25  26
HETATM   26  C26 UNL     1      14.268  -6.332  -1.114  1.00  0.00     0.054 C 
HETATM   27  C27 UNL     1      14.875  -6.886   0.176  1.00  0.00     0.045 C 
BRANCH  26  28
HETATM   28  O7  UNL     1      15.065  -5.231  -1.475  1.00  0.00    -0.390 OA
ATOM     29  H7  UNL     1      15.000  -4.548  -0.818  1.00  0.00     0.210 HD
ENDBRANCH  26  28
BRANCH  26  30
HETATM   30  C28 UNL     1      12.900  -5.795  -0.797  1.00  0.00     0.043 C 
BRANCH  30  31
HETATM   31  C29 UNL     1      11.998  -6.874  -0.285  1.00  0.00     0.081 C 
BRANCH  31  32
HETATM   32  C30 UNL     1      10.864  -6.250   0.546  1.00  0.00     0.240 C 
HETATM   33  C31 UNL     1       9.545  -6.577  -0.098  1.00  0.00     0.090 C 
HETATM   34  F1  UNL     1      11.049  -4.883   0.514  1.00  0.00    -0.207 F 
HETATM   35  F2  UNL     1      10.932  -6.764   1.813  1.00  0.00    -0.207 F 
ENDBRANCH  31  32
ENDBRANCH  30  31
ENDBRANCH  26  30
ENDBRANCH  25  26
ENDBRANCH  24  25
ENDBRANCH  20  24
BRANCH   8  36
HETATM   36  O4  UNL     1       9.439  -9.448  -3.355  1.00  0.00    -0.395 OA
ATOM     37  H4  UNL     1       8.733  -9.578  -2.733  1.00  0.00     0.210 HD
ENDBRANCH   8  36
BRANCH  16  38
HETATM   38  O6  UNL     1      17.207  -7.204  -7.071  1.00  0.00    -0.393 OA
ATOM     39  H6  UNL     1      17.811  -7.056  -6.353  1.00  0.00     0.210 HD
ENDBRANCH  16  38
BRANCH  15  40
HETATM   40  O5  UNL     1      17.693 -10.035  -6.588  1.00  0.00    -0.393 OA
ATOM     41  H5  UNL     1      17.741  -9.718  -7.483  1.00  0.00     0.210 HD
ENDBRANCH  15  40
BRANCH   3  42
HETATM   42  O3  UNL     1       9.690  -5.686  -8.092  1.00  0.00    -0.395 OA
ATOM     43  H3  UNL     1      10.297  -6.001  -8.751  1.00  0.00     0.210 HD
ENDBRANCH   3  42
BRANCH   1  44
HETATM   44  O2  UNL     1       6.450  -7.158  -5.828  1.00  0.00    -0.312 OA
BRANCH  44  45
HETATM   45  C3  UNL     1       5.193  -6.825  -6.352  1.00  0.00     0.282 C 
HETATM   46  O1  UNL     1       4.214  -7.433  -5.849  1.00  0.00    -0.260 OA
BRANCH  45  47
HETATM   47  C2  UNL     1       5.038  -5.839  -7.412  1.00  0.00     0.072 C 
HETATM   48  C1  UNL     1       4.209  -4.835  -7.197  1.00  0.00     0.017 C 
ENDBRANCH  45  47
ENDBRANCH  44  45
ENDBRANCH   1  44
TORSDOF 14
ENDMDL
MODEL 5
REMARK VINA RESULT: -7.258387275      3.300      8.473
REMARK  14 active torsions:
REMARK  status: ('A' for Active; 'I' for Inactive)
REMARK    1  A    between atoms: C2_2  and  C3_3 
REMARK    2  A    between atoms: C3_3  and  O2_5 
REMARK    3  A    between atoms: O2_5  and  C4_6 
REMARK    4  A    between atoms: C6_8  and  O3_9 
REMARK    5  A    between atoms: C11_15  and  O4_16 
REMARK    6  A    between atoms: C18_24  and  O5_25 
REMARK    7  A    between atoms: C19_27  and  O6_28 
REMARK    8  A    between atoms: C23_33  and  C24_34 
REMARK    9  A    between atoms: C24_34  and  C25_35 
REMARK   10  A    between atoms: C25_35  and  C26_36 
REMARK   11  A    between atoms: C26_36  and  O7_38 
REMARK   12  A    between atoms: C26_36  and  C28_40 
REMARK   13  A    between atoms: C28_40  and  C29_41 
REMARK   14  A    between atoms: C29_41  and  C30_42 
ROOT
HETATM    1  C4  UNL     1      14.771  -6.881  -1.219  1.00  0.00     0.139 C 
HETATM    2  C5  UNL     1      14.478  -5.762  -2.170  1.00  0.00     0.065 C 
HETATM    3  C6  UNL     1      13.959  -6.559  -3.381  1.00  0.00     0.130 C 
HETATM    4  C7  UNL     1      13.231  -7.698  -2.789  1.00  0.00    -0.004 C 
HETATM    5  C8  UNL     1      13.895  -9.006  -3.264  1.00  0.00     0.019 C 
HETATM    6  C9  UNL     1      13.447  -7.663  -1.308  1.00  0.00     0.029 C 
HETATM    7  C10 UNL     1      12.461  -6.959  -0.484  1.00  0.00     0.040 C 
HETATM    8  C11 UNL     1      11.063  -6.890  -0.978  1.00  0.00     0.123 C 
HETATM    9  C12 UNL     1      11.074  -6.684  -2.458  1.00  0.00     0.028 C 
HETATM   10  C13 UNL     1       9.734  -6.685  -3.115  1.00  0.00     0.006 C 
HETATM   11  C14 UNL     1       9.158  -5.330  -2.992  1.00  0.00     0.033 C 
HETATM   12  C15 UNL     1       8.351  -4.875  -4.127  1.00  0.00    -0.023 C 
HETATM   13  C16 UNL     1       8.591  -5.268  -5.373  1.00  0.00    -0.072 C 
HETATM   14  C17 UNL     1       7.734  -4.761  -6.435  1.00  0.00     0.069 C 
HETATM   15  C18 UNL     1       7.964  -5.242  -7.812  1.00  0.00     0.151 C 
HETATM   16  C19 UNL     1       9.360  -5.782  -8.026  1.00  0.00     0.148 C 
HETATM   17  C20 UNL     1       9.522  -6.854  -6.939  1.00  0.00     0.049 C 
HETATM   18  C21 UNL     1       9.725  -6.192  -5.598  1.00  0.00    -0.010 C 
HETATM   19  C22 UNL     1      10.923  -5.274  -5.796  1.00  0.00     0.021 C 
HETATM   20  C23 UNL     1       9.902  -7.207  -4.517  1.00  0.00    -0.024 C 
HETATM   21  C32 UNL     1      11.361  -7.698  -4.512  1.00  0.00     0.021 C 
HETATM   22  C33 UNL     1      11.785  -7.844  -3.088  1.00  0.00    -0.027 C 
HETATM   23  C34 UNL     1      11.378  -9.171  -2.482  1.00  0.00     0.016 C 
ENDROOT
BRANCH  20  24
HETATM   24  C24 UNL     1       9.062  -8.435  -4.746  1.00  0.00     0.014 C 
BRANCH  24  25
HETATM   25  C25 UNL     1       7.944  -8.652  -3.769  1.00  0.00     0.038 C 
BRANCH  25  26
HETATM   26  C26 UNL     1       7.327  -9.998  -4.096  1.00  0.00     0.054 C 
HETATM   27  C27 UNL     1       8.346 -10.962  -4.706  1.00  0.00     0.045 C 
BRANCH  26  28
HETATM   28  O7  UNL     1       6.864 -10.618  -2.921  1.00  0.00    -0.390 OA
ATOM     29  H7  UNL     1       5.914 -10.605  -2.896  1.00  0.00     0.210 HD
ENDBRANCH  26  28
BRANCH  26  30
HETATM   30  C28 UNL     1       6.153  -9.901  -5.030  1.00  0.00     0.043 C 
BRANCH  30  31
HETATM   31  C29 UNL     1       5.430  -8.602  -4.859  1.00  0.00     0.081 C 
BRANCH  31  32
HETATM   32  C30 UNL     1       5.317  -7.889  -6.218  1.00  0.00     0.240 C 
HETATM   33  C31 UNL     1       4.187  -8.498  -7.000  1.00  0.00     0.090 C 
HETATM   34  F1  UNL     1       6.500  -8.119  -6.890  1.00  0.00    -0.207 F 
HETATM   35  F2  UNL     1       5.091  -6.559  -5.983  1.00  0.00    -0.207 F 
ENDBRANCH  31  32
ENDBRANCH  30  31
ENDBRANCH  26  30
ENDBRANCH  25  26
ENDBRANCH  24  25
ENDBRANCH  20  24
BRANCH   8  36
HETATM   36  O4  UNL     1      10.455  -5.736  -0.425  1.00  0.00    -0.395 OA
ATOM     37  H4  UNL     1       9.607  -5.621  -0.837  1.00  0.00     0.210 HD
ENDBRANCH   8  36
BRANCH  16  38
HETATM   38  O6  UNL     1       9.423  -6.493  -9.231  1.00  0.00    -0.393 OA
ATOM     39  H6  UNL     1      10.247  -6.960  -9.294  1.00  0.00     0.210 HD
ENDBRANCH  16  38
BRANCH  15  40
HETATM   40  O5  UNL     1       7.662  -4.229  -8.723  1.00  0.00    -0.393 OA
ATOM     41  H5  UNL     1       8.464  -3.813  -9.019  1.00  0.00     0.210 HD
ENDBRANCH  15  40
BRANCH   3  42
HETATM   42  O3  UNL     1      15.154  -6.928  -4.052  1.00  0.00    -0.395 OA
ATOM     43  H3  UNL     1      15.094  -7.876  -4.085  1.00  0.00     0.210 HD
ENDBRANCH   3  42
BRANCH   1  44
HETATM   44  O2  UNL     1      14.866  -6.463   0.130  1.00  0.00    -0.312 OA
BRANCH  44  45
HETATM   45  C3  UNL     1      15.241  -5.149   0.446  1.00  0.00     0.282 C 
HETATM   46  O1  UNL     1      16.426  -4.838   0.162  1.00  0.00    -0.260 OA
BRANCH  45  47
HETATM   47  C2  UNL     1      14.315  -4.213   1.063  1.00  0.00     0.072 C 
HETATM   48  C1  UNL     1      14.484  -2.928   0.811  1.00  0.00     0.017 C 
ENDBRANCH  45  47
ENDBRANCH  44  45
ENDBRANCH   1  44
TORSDOF 14
ENDMDL
