MODEL 1
REMARK VINA RESULT: -7.323986181      0.000      0.000
REMARK  13 active torsions:
REMARK  status: ('A' for Active; 'I' for Inactive)
REMARK    1  A    between atoms: C2_2  and  C3_3 
REMARK    2  A    between atoms: C3_3  and  C4_4 
REMARK    3  A    between atoms: C4_4  and  N1_5 
REMARK       I    between atoms: N1_5  and  C5_7 
REMARK    4  A    between atoms: C5_7  and  C6_9 
REMARK    5  A    between atoms: C6_9  and  N2_10 
REMARK    6  A    between atoms: C6_9  and  C27_46 
REMARK       I    between atoms: N2_10  and  C7_12 
REMARK    7  A    between atoms: C7_12  and  C8_14 
REMARK    8  A    between atoms: C9_15  and  N3_16 
REMARK    9  A    between atoms: C10_17  and  O3_18 
REMARK   10  A    between atoms: C13_22  and  O4_23 
REMARK   11  A    between atoms: C14_25  and  C21_33 
REMARK   12  A    between atoms: C17_28  and  C18_29 
REMARK       I    between atoms: N5_40  and  C25_42 
REMARK   13  A    between atoms: C25_42  and  O6_44 
ROOT
HETATM    1  C8  UNL     1      10.349  -7.209  -0.982  1.00  0.00     0.103 A 
HETATM    2  C9  UNL     1      10.278  -7.488  -2.285  1.00  0.00     0.064 A 
HETATM    3  C22 UNL     1       8.978  -7.866  -2.740  1.00  0.00     0.048 A 
HETATM    4  C23 UNL     1       7.904  -7.938  -1.917  1.00  0.00     0.092 A 
HETATM    5  N4  UNL     1       8.023  -7.652  -0.629  1.00  0.00    -0.351 N 
ATOM      6  H4  UNL     1       7.212  -7.708  -0.013  1.00  0.00     0.166 HD
HETATM    7  C24 UNL     1       9.207  -7.293  -0.146  1.00  0.00     0.127 A 
HETATM    8  N5  UNL     1       9.329  -7.012   1.090  1.00  0.00    -0.287 N 
ATOM      9  H5  UNL     1      10.235  -6.732   1.465  1.00  0.00     0.172 HD
HETATM   10  C25 UNL     1       8.202  -7.090   1.943  1.00  0.00     0.365 C 
HETATM   11  O5  UNL     1       7.320  -6.164   1.900  1.00  0.00    -0.238 OA
ENDROOT
BRANCH   2  12
HETATM   12  N3  UNL     1      11.263  -7.520  -3.261  1.00  0.00    -0.270 N 
HETATM   13  C10 UNL     1      11.409  -6.473  -4.154  1.00  0.00     0.157 A 
HETATM   14  C11 UNL     1      12.415  -6.729  -5.046  1.00  0.00     0.013 A 
HETATM   15  C12 UNL     1      12.916  -7.977  -4.703  1.00  0.00     0.014 A 
HETATM   16  C17 UNL     1      13.097  -6.105  -6.210  1.00  0.00     0.057 C 
HETATM   17  C13 UNL     1      12.190  -8.407  -3.628  1.00  0.00     0.157 A 
HETATM   18  C14 UNL     1      14.035  -8.442  -5.570  1.00  0.00     0.072 C 
HETATM   19  C15 UNL     1      15.041  -7.313  -5.469  1.00  0.00    -0.019 C 
HETATM   20  C16 UNL     1      14.556  -6.116  -5.798  1.00  0.00    -0.020 C 
BRANCH  13  21
HETATM   21  O3  UNL     1      10.665  -5.292  -4.191  1.00  0.00    -0.345 OA
ATOM     22  H3  UNL     1      10.962  -4.439  -4.487  1.00  0.00     0.219 HD
ENDBRANCH  13  21
BRANCH  17  23
HETATM   23  O4  UNL     1      12.330  -9.593  -2.944  1.00  0.00    -0.345 OA
ATOM     24  H4  UNL     1      12.821 -10.312  -3.323  1.00  0.00     0.219 HD
ENDBRANCH  17  23
BRANCH  18  25
HETATM   25  C21 UNL     1      13.490  -8.416  -6.979  1.00  0.00     0.075 A 
HETATM   26  C18 UNL     1      13.424  -9.769  -7.579  1.00  0.00     0.009 A 
HETATM   27  C19 UNL     1      13.964  -9.984  -8.996  1.00  0.00     0.020 C 
HETATM   28  C20 UNL     1      12.220  -8.976  -7.399  1.00  0.00     0.118 A 
HETATM   29 CL1  UNL     1      10.905  -9.403  -6.297  1.00  0.00    -0.122 Cl
HETATM   30 CL2  UNL     1      14.273  -7.164  -8.004  1.00  0.00    -0.116 Cl
ENDBRANCH  18  25
ENDBRANCH   2  12
BRANCH   1  31
HETATM   31  C7  UNL     1      11.533  -6.757  -0.361  1.00  0.00     0.262 C 
HETATM   32  N2  UNL     1      12.159  -5.506  -0.421  1.00  0.00    -0.321 N 
ATOM     33  H2  UNL     1      11.700  -4.785  -0.978  1.00  0.00     0.169 HD
HETATM   34  O2  UNL     1      12.160  -7.599   0.390  1.00  0.00    -0.267 OA
BRANCH  32  35
HETATM   35  C6  UNL     1      13.388  -5.140   0.228  1.00  0.00     0.084 C 
BRANCH  35  36
HETATM   36  C5  UNL     1      13.361  -3.879   1.001  1.00  0.00     0.264 C 
HETATM   37  N1  UNL     1      14.526  -3.465   1.692  1.00  0.00    -0.356 N 
ATOM     38  H1  UNL     1      15.357  -4.054   1.638  1.00  0.00     0.162 HD
HETATM   39  O1  UNL     1      12.365  -3.129   1.094  1.00  0.00    -0.266 OA
BRANCH  37  40
HETATM   40  C4  UNL     1      14.592  -2.248   2.472  1.00  0.00     0.123 C 
BRANCH  40  41
HETATM   41  C3  UNL     1      14.428  -2.518   3.931  1.00  0.00     0.019 C 
BRANCH  41  42
HETATM   42  C2  UNL     1      13.199  -1.803   4.431  1.00  0.00    -0.003 C 
HETATM   43  C1  UNL     1      12.157  -2.849   4.760  1.00  0.00     0.005 C 
ENDBRANCH  41  42
ENDBRANCH  40  41
ENDBRANCH  37  40
ENDBRANCH  35  36
BRANCH  35  44
HETATM   44  C27 UNL     1      14.610  -5.358  -0.589  1.00  0.00     0.033 C 
HETATM   45  C28 UNL     1      15.520  -6.375   0.113  1.00  0.00     0.016 C 
HETATM   46  C29 UNL     1      14.399  -5.707  -2.021  1.00  0.00     0.016 C 
ENDBRANCH  35  44
ENDBRANCH  32  35
ENDBRANCH   1  31
BRANCH  10  47
HETATM   47  O6  UNL     1       7.962  -8.099   2.842  1.00  0.00    -0.309 OA
HETATM   48  C26 UNL     1       7.601  -9.426   2.432  1.00  0.00     0.215 C 
ENDBRANCH  10  47
TORSDOF 13
ENDMDL
MODEL 2
REMARK VINA RESULT: -7.024554656      0.949      1.006
REMARK  13 active torsions:
REMARK  status: ('A' for Active; 'I' for Inactive)
REMARK    1  A    between atoms: C2_2  and  C3_3 
REMARK    2  A    between atoms: C3_3  and  C4_4 
REMARK    3  A    between atoms: C4_4  and  N1_5 
REMARK       I    between atoms: N1_5  and  C5_7 
REMARK    4  A    between atoms: C5_7  and  C6_9 
REMARK    5  A    between atoms: C6_9  and  N2_10 
REMARK    6  A    between atoms: C6_9  and  C27_46 
REMARK       I    between atoms: N2_10  and  C7_12 
REMARK    7  A    between atoms: C7_12  and  C8_14 
REMARK    8  A    between atoms: C9_15  and  N3_16 
REMARK    9  A    between atoms: C10_17  and  O3_18 
REMARK   10  A    between atoms: C13_22  and  O4_23 
REMARK   11  A    between atoms: C14_25  and  C21_33 
REMARK   12  A    between atoms: C17_28  and  C18_29 
REMARK       I    between atoms: N5_40  and  C25_42 
REMARK   13  A    between atoms: C25_42  and  O6_44 
ROOT
HETATM    1  C8  UNL     1      10.490  -7.165  -0.352  1.00  0.00     0.103 A 
HETATM    2  C9  UNL     1      10.117  -7.397  -1.612  1.00  0.00     0.064 A 
HETATM    3  C22 UNL     1       8.752  -7.786  -1.764  1.00  0.00     0.048 A 
HETATM    4  C23 UNL     1       7.903  -7.912  -0.715  1.00  0.00     0.092 A 
HETATM    5  N4  UNL     1       8.319  -7.672   0.519  1.00  0.00    -0.351 N 
ATOM      6  H4  UNL     1       7.677  -7.768   1.305  1.00  0.00     0.166 HD
HETATM    7  C24 UNL     1       9.578  -7.305   0.725  1.00  0.00     0.127 A 
HETATM    8  N5  UNL     1       9.985  -7.068   1.908  1.00  0.00    -0.287 N 
ATOM      9  H5  UNL     1      10.951  -6.783   2.070  1.00  0.00     0.172 HD
HETATM   10  C25 UNL     1       9.092  -7.202   2.998  1.00  0.00     0.365 C 
HETATM   11  O5  UNL     1       8.213  -6.294   3.202  1.00  0.00    -0.238 OA
ENDROOT
BRANCH   2  12
HETATM   12  N3  UNL     1      10.845  -7.371  -2.793  1.00  0.00    -0.270 N 
HETATM   13  C10 UNL     1      10.704  -6.325  -3.689  1.00  0.00     0.157 A 
HETATM   14  C11 UNL     1      11.486  -6.521  -4.794  1.00  0.00     0.013 A 
HETATM   15  C12 UNL     1      12.139  -7.728  -4.587  1.00  0.00     0.014 A 
HETATM   16  C17 UNL     1      11.831  -5.863  -6.082  1.00  0.00     0.057 C 
HETATM   17  C13 UNL     1      11.719  -8.196  -3.373  1.00  0.00     0.157 A 
HETATM   18  C14 UNL     1      13.053  -8.123  -5.695  1.00  0.00     0.072 C 
HETATM   19  C15 UNL     1      13.973  -6.927  -5.827  1.00  0.00    -0.019 C 
HETATM   20  C16 UNL     1      13.343  -5.770  -6.025  1.00  0.00    -0.020 C 
BRANCH  13  21
HETATM   21  O3  UNL     1       9.892  -5.198  -3.542  1.00  0.00    -0.345 OA
ATOM     22  H3  UNL     1      10.154  -4.346  -3.215  1.00  0.00     0.219 HD
ENDBRANCH  13  21
BRANCH  17  23
HETATM   23  O4  UNL     1      12.097  -9.362  -2.750  1.00  0.00    -0.345 OA
ATOM     24  H4  UNL     1      11.567 -10.145  -2.829  1.00  0.00     0.219 HD
ENDBRANCH  17  23
BRANCH  18  25
HETATM   25  C21 UNL     1      12.190  -8.149  -6.936  1.00  0.00     0.075 A 
HETATM   26  C18 UNL     1      12.074  -9.510  -7.510  1.00  0.00     0.009 A 
HETATM   27  C19 UNL     1      12.279  -9.705  -9.016  1.00  0.00     0.020 C 
HETATM   28  C20 UNL     1      10.897  -8.796  -7.047  1.00  0.00     0.118 A 
HETATM   29 CL1  UNL     1       9.910  -9.295  -5.669  1.00  0.00    -0.122 Cl
HETATM   30 CL2  UNL     1      12.626  -6.861  -8.112  1.00  0.00    -0.116 Cl
ENDBRANCH  18  25
ENDBRANCH   2  12
BRANCH   1  31
HETATM   31  C7  UNL     1      11.781  -6.711  -0.009  1.00  0.00     0.262 C 
HETATM   32  N2  UNL     1      12.334  -5.426  -0.086  1.00  0.00    -0.321 N 
ATOM     33  H2  UNL     1      11.724  -4.681  -0.422  1.00  0.00     0.169 HD
HETATM   34  O2  UNL     1      12.607  -7.587   0.457  1.00  0.00    -0.267 OA
BRANCH  32  35
HETATM   35  C6  UNL     1      13.678  -5.058   0.263  1.00  0.00     0.084 C 
BRANCH  35  36
HETATM   36  C5  UNL     1      13.830  -3.784   0.998  1.00  0.00     0.264 C 
HETATM   37  N1  UNL     1      14.925  -3.618   1.880  1.00  0.00    -0.356 N 
ATOM     38  H1  UNL     1      15.585  -4.390   1.984  1.00  0.00     0.162 HD
HETATM   39  O1  UNL     1      13.045  -2.815   0.902  1.00  0.00    -0.266 OA
BRANCH  37  40
HETATM   40  C4  UNL     1      15.154  -2.408   2.640  1.00  0.00     0.123 C 
BRANCH  40  41
HETATM   41  C3  UNL     1      14.684  -2.545   4.049  1.00  0.00     0.019 C 
BRANCH  41  42
HETATM   42  C2  UNL     1      13.418  -1.747   4.229  1.00  0.00    -0.003 C 
HETATM   43  C1  UNL     1      12.322  -2.706   4.638  1.00  0.00     0.005 C 
ENDBRANCH  41  42
ENDBRANCH  40  41
ENDBRANCH  37  40
ENDBRANCH  35  36
BRANCH  35  44
HETATM   44  C27 UNL     1      14.684  -5.298  -0.805  1.00  0.00     0.033 C 
HETATM   45  C28 UNL     1      15.783  -6.227  -0.271  1.00  0.00     0.016 C 
HETATM   46  C29 UNL     1      14.161  -5.764  -2.118  1.00  0.00     0.016 C 
ENDBRANCH  35  44
ENDBRANCH  32  35
ENDBRANCH   1  31
BRANCH  10  47
HETATM   47  O6  UNL     1       9.083  -8.249   3.885  1.00  0.00    -0.309 OA
HETATM   48  C26 UNL     1       7.886  -8.966   4.218  1.00  0.00     0.215 C 
ENDBRANCH  10  47
TORSDOF 13
ENDMDL
MODEL 3
REMARK VINA RESULT: -6.720094802      3.411      6.583
REMARK  13 active torsions:
REMARK  status: ('A' for Active; 'I' for Inactive)
REMARK    1  A    between atoms: C2_2  and  C3_3 
REMARK    2  A    between atoms: C3_3  and  C4_4 
REMARK    3  A    between atoms: C4_4  and  N1_5 
REMARK       I    between atoms: N1_5  and  C5_7 
REMARK    4  A    between atoms: C5_7  and  C6_9 
REMARK    5  A    between atoms: C6_9  and  N2_10 
REMARK    6  A    between atoms: C6_9  and  C27_46 
REMARK       I    between atoms: N2_10  and  C7_12 
REMARK    7  A    between atoms: C7_12  and  C8_14 
REMARK    8  A    between atoms: C9_15  and  N3_16 
REMARK    9  A    between atoms: C10_17  and  O3_18 
REMARK   10  A    between atoms: C13_22  and  O4_23 
REMARK   11  A    between atoms: C14_25  and  C21_33 
REMARK   12  A    between atoms: C17_28  and  C18_29 
REMARK       I    between atoms: N5_40  and  C25_42 
REMARK   13  A    between atoms: C25_42  and  O6_44 
ROOT
HETATM    1  C8  UNL     1      14.610  -7.495  -5.014  1.00  0.00     0.103 A 
HETATM    2  C9  UNL     1      13.696  -7.335  -5.973  1.00  0.00     0.064 A 
HETATM    3  C22 UNL     1      14.146  -7.678  -7.284  1.00  0.00     0.048 A 
HETATM    4  C23 UNL     1      15.399  -8.127  -7.536  1.00  0.00     0.092 A 
HETATM    5  N4  UNL     1      16.274  -8.269  -6.551  1.00  0.00    -0.351 N 
ATOM      6  H4  UNL     1      17.215  -8.608  -6.746  1.00  0.00     0.166 HD
HETATM    7  C24 UNL     1      15.914  -7.967  -5.309  1.00  0.00     0.127 A 
HETATM    8  N5  UNL     1      16.747  -8.105  -4.356  1.00  0.00    -0.287 N 
ATOM      9  H5  UNL     1      16.474  -7.878  -3.400  1.00  0.00     0.172 HD
HETATM   10  C25 UNL     1      18.054  -8.575  -4.628  1.00  0.00     0.365 C 
HETATM   11  O5  UNL     1      18.236  -9.820  -4.862  1.00  0.00    -0.238 OA
ENDROOT
BRANCH   2  12
HETATM   12  N3  UNL     1      12.399  -6.846  -5.917  1.00  0.00    -0.270 N 
HETATM   13  C10 UNL     1      11.380  -7.602  -5.365  1.00  0.00     0.157 A 
HETATM   14  C11 UNL     1      10.183  -6.942  -5.446  1.00  0.00     0.013 A 
HETATM   15  C12 UNL     1      10.459  -5.733  -6.069  1.00  0.00     0.014 A 
HETATM   16  C17 UNL     1       8.753  -7.120  -5.084  1.00  0.00     0.057 C 
HETATM   17  C13 UNL     1      11.801  -5.726  -6.331  1.00  0.00     0.157 A 
HETATM   18  C14 UNL     1       9.268  -4.858  -6.251  1.00  0.00     0.072 C 
HETATM   19  C15 UNL     1       8.717  -4.727  -4.846  1.00  0.00    -0.019 C 
HETATM   20  C16 UNL     1       8.454  -5.890  -4.250  1.00  0.00    -0.020 C 
BRANCH  13  21
HETATM   21  O3  UNL     1      11.493  -8.869  -4.789  1.00  0.00    -0.345 OA
ATOM     22  H3  UNL     1      10.896  -9.270  -4.169  1.00  0.00     0.219 HD
ENDBRANCH  13  21
BRANCH  17  23
HETATM   23  O4  UNL     1      12.528  -4.731  -6.941  1.00  0.00    -0.345 OA
ATOM     24  H4  UNL     1      12.121  -3.902  -7.162  1.00  0.00     0.219 HD
ENDBRANCH  17  23
BRANCH  18  25
HETATM   25  C21 UNL     1       8.276  -5.687  -7.034  1.00  0.00     0.075 A 
HETATM   26  C18 UNL     1       7.950  -5.081  -8.345  1.00  0.00     0.009 A 
HETATM   27  C19 UNL     1       6.482  -4.970  -8.771  1.00  0.00     0.020 C 
HETATM   28  C20 UNL     1       8.561  -6.396  -8.266  1.00  0.00     0.118 A 
HETATM   29 CL1  UNL     1      10.187  -6.771  -8.848  1.00  0.00    -0.122 Cl
HETATM   30 CL2  UNL     1       6.857  -6.185  -6.049  1.00  0.00    -0.116 Cl
ENDBRANCH  18  25
ENDBRANCH   2  12
BRANCH   1  31
HETATM   31  C7  UNL     1      14.333  -7.267  -3.649  1.00  0.00     0.262 C 
HETATM   32  N2  UNL     1      13.859  -6.116  -3.007  1.00  0.00    -0.321 N 
ATOM     33  H2  UNL     1      13.657  -5.308  -3.596  1.00  0.00     0.169 HD
HETATM   34  O2  UNL     1      14.532  -8.251  -2.838  1.00  0.00    -0.267 OA
BRANCH  32  35
HETATM   35  C6  UNL     1      13.630  -5.964  -1.597  1.00  0.00     0.084 C 
BRANCH  35  36
HETATM   36  C5  UNL     1      14.795  -5.535  -0.794  1.00  0.00     0.264 C 
HETATM   37  N1  UNL     1      14.696  -4.369   0.003  1.00  0.00    -0.356 N 
ATOM     38  H1  UNL     1      13.815  -3.853   0.002  1.00  0.00     0.162 HD
HETATM   39  O1  UNL     1      15.892  -6.135  -0.764  1.00  0.00    -0.266 OA
BRANCH  37  40
HETATM   40  C4  UNL     1      15.783  -3.874   0.821  1.00  0.00     0.123 C 
BRANCH  40  41
HETATM   41  C3  UNL     1      15.342  -2.759   1.709  1.00  0.00     0.019 C 
BRANCH  41  42
HETATM   42  C2  UNL     1      13.944  -3.041   2.199  1.00  0.00    -0.003 C 
HETATM   43  C1  UNL     1      13.803  -2.425   3.573  1.00  0.00     0.005 C 
ENDBRANCH  41  42
ENDBRANCH  40  41
ENDBRANCH  37  40
ENDBRANCH  35  36
BRANCH  35  44
HETATM   44  C27 UNL     1      12.797  -7.033  -0.985  1.00  0.00     0.033 C 
HETATM   45  C28 UNL     1      12.766  -6.847   0.538  1.00  0.00     0.016 C 
HETATM   46  C29 UNL     1      11.429  -7.211  -1.544  1.00  0.00     0.016 C 
ENDBRANCH  35  44
ENDBRANCH  32  35
ENDBRANCH   1  31
BRANCH  10  47
HETATM   47  O6  UNL     1      19.182  -7.793  -4.663  1.00  0.00    -0.309 OA
HETATM   48  C26 UNL     1      19.701  -7.245  -5.882  1.00  0.00     0.215 C 
ENDBRANCH  10  47
TORSDOF 13
ENDMDL
MODEL 4
REMARK VINA RESULT: -6.717252245      2.325      4.511
REMARK  13 active torsions:
REMARK  status: ('A' for Active; 'I' for Inactive)
REMARK    1  A    between atoms: C2_2  and  C3_3 
REMARK    2  A    between atoms: C3_3  and  C4_4 
REMARK    3  A    between atoms: C4_4  and  N1_5 
REMARK       I    between atoms: N1_5  and  C5_7 
REMARK    4  A    between atoms: C5_7  and  C6_9 
REMARK    5  A    between atoms: C6_9  and  N2_10 
REMARK    6  A    between atoms: C6_9  and  C27_46 
REMARK       I    between atoms: N2_10  and  C7_12 
REMARK    7  A    between atoms: C7_12  and  C8_14 
REMARK    8  A    between atoms: C9_15  and  N3_16 
REMARK    9  A    between atoms: C10_17  and  O3_18 
REMARK   10  A    between atoms: C13_22  and  O4_23 
REMARK   11  A    between atoms: C14_25  and  C21_33 
REMARK   12  A    between atoms: C17_28  and  C18_29 
REMARK       I    between atoms: N5_40  and  C25_42 
REMARK   13  A    between atoms: C25_42  and  O6_44 
ROOT
HETATM    1  C8  UNL     1       9.077  -7.514  -1.447  1.00  0.00     0.103 A 
HETATM    2  C9  UNL     1       8.614  -7.981  -2.608  1.00  0.00     0.064 A 
HETATM    3  C22 UNL     1       7.406  -8.736  -2.504  1.00  0.00     0.048 A 
HETATM    4  C23 UNL     1       6.780  -8.961  -1.324  1.00  0.00     0.092 A 
HETATM    5  N4  UNL     1       7.278  -8.477  -0.196  1.00  0.00    -0.351 N 
ATOM      6  H4  UNL     1       6.803  -8.649   0.690  1.00  0.00     0.166 HD
HETATM    7  C24 UNL     1       8.399  -7.766  -0.228  1.00  0.00     0.127 A 
HETATM    8  N5  UNL     1       8.881  -7.293   0.852  1.00  0.00    -0.287 N 
ATOM      9  H5  UNL     1       9.740  -6.744   0.832  1.00  0.00     0.172 HD
HETATM   10  C25 UNL     1       8.221  -7.533   2.080  1.00  0.00     0.365 C 
HETATM   11  O5  UNL     1       7.159  -6.875   2.360  1.00  0.00    -0.238 OA
ENDROOT
BRANCH   2  12
HETATM   12  N3  UNL     1       9.135  -7.899  -3.892  1.00  0.00    -0.270 N 
HETATM   13  C10 UNL     1       9.782  -8.981  -4.463  1.00  0.00     0.157 A 
HETATM   14  C11 UNL     1      10.244  -8.669  -5.713  1.00  0.00     0.013 A 
HETATM   15  C12 UNL     1       9.875  -7.349  -5.934  1.00  0.00     0.014 A 
HETATM   16  C17 UNL     1      10.980  -9.286  -6.847  1.00  0.00     0.057 C 
HETATM   17  C13 UNL     1       9.214  -6.935  -4.811  1.00  0.00     0.157 A 
HETATM   18  C14 UNL     1      10.292  -6.816  -7.261  1.00  0.00     0.072 C 
HETATM   19  C15 UNL     1       9.689  -7.807  -8.236  1.00  0.00    -0.019 C 
HETATM   20  C16 UNL     1      10.045  -9.073  -8.020  1.00  0.00    -0.020 C 
BRANCH  13  21
HETATM   21  O3  UNL     1       9.971 -10.242  -3.894  1.00  0.00    -0.345 OA
ATOM     22  H3  UNL     1       9.711 -11.079  -4.261  1.00  0.00     0.219 HD
ENDBRANCH  13  21
BRANCH  17  23
HETATM   23  O4  UNL     1       8.665  -5.697  -4.573  1.00  0.00    -0.345 OA
ATOM     24  H4  UNL     1       7.822  -5.618  -4.143  1.00  0.00     0.219 HD
ENDBRANCH  17  23
BRANCH  18  25
HETATM   25  C21 UNL     1      11.790  -7.004  -7.317  1.00  0.00     0.075 A 
HETATM   26  C18 UNL     1      12.515  -5.715  -7.405  1.00  0.00     0.009 A 
HETATM   27  C19 UNL     1      13.629  -5.555  -8.446  1.00  0.00     0.020 C 
HETATM   28  C20 UNL     1      12.726  -6.610  -6.281  1.00  0.00     0.118 A 
HETATM   29 CL1  UNL     1      12.271  -6.237  -4.615  1.00  0.00    -0.122 Cl
HETATM   30 CL2  UNL     1      12.290  -8.244  -8.519  1.00  0.00    -0.116 Cl
ENDBRANCH  18  25
ENDBRANCH   2  12
BRANCH   1  31
HETATM   31  C7  UNL     1      10.223  -6.695  -1.355  1.00  0.00     0.262 C 
HETATM   32  N2  UNL     1      11.531  -7.019  -0.972  1.00  0.00    -0.321 N 
ATOM     33  H2  UNL     1      11.715  -7.993  -0.734  1.00  0.00     0.169 HD
HETATM   34  O2  UNL     1      10.083  -5.452  -1.670  1.00  0.00    -0.267 OA
BRANCH  32  35
HETATM   35  C6  UNL     1      12.638  -6.108  -0.881  1.00  0.00     0.084 C 
BRANCH  35  36
HETATM   36  C5  UNL     1      13.812  -6.430  -1.720  1.00  0.00     0.264 C 
HETATM   37  N1  UNL     1      14.047  -7.775  -2.097  1.00  0.00    -0.356 N 
ATOM     38  H1  UNL     1      13.395  -8.490  -1.774  1.00  0.00     0.162 HD
HETATM   39  O1  UNL     1      14.636  -5.586  -2.136  1.00  0.00    -0.266 OA
BRANCH  37  40
HETATM   40  C4  UNL     1      15.169  -8.183  -2.916  1.00  0.00     0.123 C 
BRANCH  40  41
HETATM   41  C3  UNL     1      14.737  -9.062  -4.042  1.00  0.00     0.019 C 
BRANCH  41  42
HETATM   42  C2  UNL     1      13.397  -9.666  -3.713  1.00  0.00    -0.003 C 
HETATM   43  C1  UNL     1      13.323 -11.021  -4.382  1.00  0.00     0.005 C 
ENDBRANCH  41  42
ENDBRANCH  40  41
ENDBRANCH  37  40
ENDBRANCH  35  36
BRANCH  35  44
HETATM   44  C27 UNL     1      12.951  -5.647   0.497  1.00  0.00     0.033 C 
HETATM   45  C28 UNL     1      14.434  -5.905   0.798  1.00  0.00     0.016 C 
HETATM   46  C29 UNL     1      12.556  -4.253   0.838  1.00  0.00     0.016 C 
ENDBRANCH  35  44
ENDBRANCH  32  35
ENDBRANCH   1  31
BRANCH  10  47
HETATM   47  O6  UNL     1       8.630  -8.434   3.032  1.00  0.00    -0.309 OA
HETATM   48  C26 UNL     1       8.083  -9.757   3.125  1.00  0.00     0.215 C 
ENDBRANCH  10  47
TORSDOF 13
ENDMDL
MODEL 5
REMARK VINA RESULT: -6.661946515      1.839      2.356
REMARK  13 active torsions:
REMARK  status: ('A' for Active; 'I' for Inactive)
REMARK    1  A    between atoms: C2_2  and  C3_3 
REMARK    2  A    between atoms: C3_3  and  C4_4 
REMARK    3  A    between atoms: C4_4  and  N1_5 
REMARK       I    between atoms: N1_5  and  C5_7 
REMARK    4  A    between atoms: C5_7  and  C6_9 
REMARK    5  A    between atoms: C6_9  and  N2_10 
REMARK    6  A    between atoms: C6_9  and  C27_46 
REMARK       I    between atoms: N2_10  and  C7_12 
REMARK    7  A    between atoms: C7_12  and  C8_14 
REMARK    8  A    between atoms: C9_15  and  N3_16 
REMARK    9  A    between atoms: C10_17  and  O3_18 
REMARK   10  A    between atoms: C13_22  and  O4_23 
REMARK   11  A    between atoms: C14_25  and  C21_33 
REMARK   12  A    between atoms: C17_28  and  C18_29 
REMARK       I    between atoms: N5_40  and  C25_42 
REMARK   13  A    between atoms: C25_42  and  O6_44 
ROOT
HETATM    1  C8  UNL     1       9.368  -7.673  -2.239  1.00  0.00     0.103 A 
HETATM    2  C9  UNL     1       9.240  -7.846  -3.556  1.00  0.00     0.064 A 
HETATM    3  C22 UNL     1       8.005  -8.440  -3.958  1.00  0.00     0.048 A 
HETATM    4  C23 UNL     1       7.042  -8.802  -3.076  1.00  0.00     0.092 A 
HETATM    5  N4  UNL     1       7.215  -8.611  -1.777  1.00  0.00    -0.351 N 
ATOM      6  H4  UNL     1       6.487  -8.885  -1.116  1.00  0.00     0.166 HD
HETATM    7  C24 UNL     1       8.342  -8.062  -1.341  1.00  0.00     0.127 A 
HETATM    8  N5  UNL     1       8.514  -7.871  -0.093  1.00  0.00    -0.287 N 
ATOM      9  H5  UNL     1       9.377  -7.446   0.246  1.00  0.00     0.172 HD
HETATM   10  C25 UNL     1       7.503  -8.252   0.821  1.00  0.00     0.365 C 
HETATM   11  O5  UNL     1       6.456  -7.525   0.935  1.00  0.00    -0.238 OA
ENDROOT
BRANCH   2  12
HETATM   12  N3  UNL     1      10.123  -7.591  -4.595  1.00  0.00    -0.270 N 
HETATM   13  C10 UNL     1      10.374  -6.294  -5.008  1.00  0.00     0.157 A 
HETATM   14  C11 UNL     1      11.245  -6.278  -6.063  1.00  0.00     0.013 A 
HETATM   15  C12 UNL     1      11.551  -7.607  -6.322  1.00  0.00     0.014 A 
HETATM   16  C17 UNL     1      11.929  -5.317  -6.968  1.00  0.00     0.057 C 
HETATM   17  C13 UNL     1      10.852  -8.352  -5.413  1.00  0.00     0.157 A 
HETATM   18  C14 UNL     1      12.501  -7.804  -7.452  1.00  0.00     0.072 C 
HETATM   19  C15 UNL     1      13.690  -6.952  -7.056  1.00  0.00    -0.019 C 
HETATM   20  C16 UNL     1      13.392  -5.677  -6.808  1.00  0.00    -0.020 C 
BRANCH  13  21
HETATM   21  O3  UNL     1       9.843  -5.123  -4.464  1.00  0.00    -0.345 OA
ATOM     22  H3  UNL     1      10.313  -4.321  -4.266  1.00  0.00     0.219 HD
ENDBRANCH  13  21
BRANCH  17  23
HETATM   23  O4  UNL     1      10.841  -9.722  -5.286  1.00  0.00    -0.345 OA
ATOM     24  H4  UNL     1      11.612 -10.232  -5.504  1.00  0.00     0.219 HD
ENDBRANCH  17  23
BRANCH  18  25
HETATM   25  C21 UNL     1      11.856  -7.128  -8.640  1.00  0.00     0.075 A 
HETATM   26  C18 UNL     1      11.488  -8.093  -9.702  1.00  0.00     0.009 A 
HETATM   27  C19 UNL     1      11.860  -7.782 -11.155  1.00  0.00     0.020 C 
HETATM   28  C20 UNL     1      10.473  -7.285  -9.048  1.00  0.00     0.118 A 
HETATM   29 CL1  UNL     1       9.197  -7.938  -8.014  1.00  0.00    -0.122 Cl
HETATM   30 CL2  UNL     1      12.774  -5.689  -9.203  1.00  0.00    -0.116 Cl
ENDBRANCH  18  25
ENDBRANCH   2  12
BRANCH   1  31
HETATM   31  C7  UNL     1      10.490  -7.046  -1.656  1.00  0.00     0.262 C 
HETATM   32  N2  UNL     1      11.749  -7.571  -1.336  1.00  0.00    -0.321 N 
ATOM     33  H2  UNL     1      11.912  -8.551  -1.565  1.00  0.00     0.169 HD
HETATM   34  O2  UNL     1      10.377  -5.794  -1.365  1.00  0.00    -0.267 OA
BRANCH  32  35
HETATM   35  C6  UNL     1      12.831  -6.860  -0.715  1.00  0.00     0.084 C 
BRANCH  35  36
HETATM   36  C5  UNL     1      12.468  -6.006   0.437  1.00  0.00     0.264 C 
HETATM   37  N1  UNL     1      12.834  -4.638   0.428  1.00  0.00    -0.356 N 
ATOM     38  H1  UNL     1      13.343  -4.276  -0.379  1.00  0.00     0.162 HD
HETATM   39  O1  UNL     1      11.848  -6.407   1.446  1.00  0.00    -0.266 OA
BRANCH  37  40
HETATM   40  C4  UNL     1      12.522  -3.728   1.510  1.00  0.00     0.123 C 
BRANCH  40  41
HETATM   41  C3  UNL     1      13.744  -3.047   2.028  1.00  0.00     0.019 C 
BRANCH  41  42
HETATM   42  C2  UNL     1      14.693  -2.795   0.884  1.00  0.00    -0.003 C 
HETATM   43  C1  UNL     1      15.999  -3.488   1.204  1.00  0.00     0.005 C 
ENDBRANCH  41  42
ENDBRANCH  40  41
ENDBRANCH  37  40
ENDBRANCH  35  36
BRANCH  35  44
HETATM   44  C27 UNL     1      13.808  -6.264  -1.664  1.00  0.00     0.033 C 
HETATM   45  C28 UNL     1      15.234  -6.590  -1.202  1.00  0.00     0.016 C 
HETATM   46  C29 UNL     1      13.611  -6.580  -3.105  1.00  0.00     0.016 C 
ENDBRANCH  35  44
ENDBRANCH  32  35
ENDBRANCH   1  31
BRANCH  10  47
HETATM   47  O6  UNL     1       7.545  -9.364   1.625  1.00  0.00    -0.309 OA
HETATM   48  C26 UNL     1       8.210  -9.370   2.896  1.00  0.00     0.215 C 
ENDBRANCH  10  47
TORSDOF 13
ENDMDL
