MODEL 1
REMARK VINA RESULT: -7.961518415      0.000      0.000
REMARK  8 active torsions:
REMARK  status: ('A' for Active; 'I' for Inactive)
REMARK    1  A    between atoms: O1_2  and  C2_3 
REMARK       I    between atoms: C2_3  and  N1_5 
REMARK    2  A    between atoms: N1_5  and  N2_6 
REMARK    3  A    between atoms: N1_5  and  O5_30 
REMARK    4  A    between atoms: C3_8  and  C4_9 
REMARK    5  A    between atoms: C3_8  and  C5_12 
REMARK    6  A    between atoms: N4_16  and  N5_18 
REMARK    7  A    between atoms: N7_24  and  N8_25 
REMARK    8  A    between atoms: O5_30  and  N10_31 
ROOT
HETATM    1  N5  UNL     1      17.534  44.613   4.090  1.00  0.00    -0.281 N 
ATOM      2  H5  UNL     1      16.613  45.051   4.101  1.00  0.00     0.188 HD
HETATM    3  C7  UNL     1      18.576  45.301   3.813  1.00  0.00     0.102 C 
HETATM    4  C8  UNL     1      19.911  44.689   3.792  1.00  0.00     0.082 C 
HETATM    5  C9  UNL     1      18.427  46.693   3.521  1.00  0.00     0.114 C 
HETATM    6  N6  UNL     1      18.318  47.826   3.304  1.00  0.00    -0.190 NA
ENDROOT
BRANCH   1   7
HETATM    7  N4  UNL     1      17.675  43.260   4.374  1.00  0.00    -0.129 N 
HETATM    8  C6  UNL     1      17.240  42.776   5.484  1.00  0.00     0.719 A 
HETATM    9  N3  UNL     1      16.622  43.501   6.455  1.00  0.00    -0.183 N 
HETATM   10  N7  UNL     1      17.283  41.511   5.917  1.00  0.00    -0.075 N 
HETATM   11  C5  UNL     1      16.292  42.696   7.462  1.00  0.00     0.128 A 
ATOM     12  H3  UNL     1      16.440  44.503   6.417  1.00  0.00     0.184 HD
HETATM   13  C10 UNL     1      16.715  41.398   7.128  1.00  0.00     0.185 A 
HETATM   14  N9  UNL     1      16.592  40.202   7.882  1.00  0.00    -0.077 NA
ATOM     15  H4  UNL     1      18.127  42.646   3.697  1.00  0.00     0.205 HD
BRANCH  11  16
HETATM   16  C3  UNL     1      15.590  43.001   8.725  1.00  0.00     0.158 C 
HETATM   17  N2  UNL     1      15.393  42.028   9.493  1.00  0.00    -0.259 N 
ATOM     18  H2  UNL     1      15.760  41.166   9.088  1.00  0.00     0.190 HD
BRANCH  17  19
HETATM   19  N1  UNL     1      14.841  41.795  10.687  1.00  0.00    -0.073 N 
HETATM   20  C2  UNL     1      13.472  41.312  10.780  1.00  0.00     0.408 C 
HETATM   21  O2  UNL     1      12.954  41.085  11.926  1.00  0.00    -0.234 OA
BRANCH  20  22
HETATM   22  O1  UNL     1      12.681  41.085   9.687  1.00  0.00    -0.306 OA
HETATM   23  C1  UNL     1      12.019  42.055   8.922  1.00  0.00     0.215 C 
ENDBRANCH  20  22
BRANCH  19  24
HETATM   24  O5  UNL     1      15.503  42.010  11.858  1.00  0.00    -0.136 OA
BRANCH  24  25
HETATM   25  N10 UNL     1      16.644  42.680  11.723  1.00  0.00    -0.284 N 
ATOM     26 2H10 UNL     1      17.543  42.275  11.983  1.00  0.00     0.186 HD
ATOM     27 1H10 UNL     1      16.533  43.619  11.341  1.00  0.00     0.186 HD
ENDBRANCH  24  25
ENDBRANCH  19  24
ENDBRANCH  17  19
BRANCH  16  28
HETATM   28  C4  UNL     1      15.187  44.356   9.009  1.00  0.00     0.230 C 
HETATM   29  O3  UNL     1      15.631  44.921  10.061  1.00  0.00    -0.643 OA
HETATM   30  O4  UNL     1      14.340  45.028   8.165  1.00  0.00    -0.643 OA
ENDBRANCH  16  28
ENDBRANCH  11  16
BRANCH  10  31
HETATM   31  N8  UNL     1      17.866  40.486   5.151  1.00  0.00    -0.323 N 
ATOM     32  H82 UNL     1      17.483  40.047   4.313  1.00  0.00     0.178 HD
ATOM     33  H81 UNL     1      18.770  40.081   5.395  1.00  0.00     0.178 HD
ENDBRANCH  10  31
ENDBRANCH   1   7
TORSDOF 8
ENDMDL
MODEL 2
REMARK VINA RESULT: -7.621643173      4.390      7.564
REMARK  8 active torsions:
REMARK  status: ('A' for Active; 'I' for Inactive)
REMARK    1  A    between atoms: O1_2  and  C2_3 
REMARK       I    between atoms: C2_3  and  N1_5 
REMARK    2  A    between atoms: N1_5  and  N2_6 
REMARK    3  A    between atoms: N1_5  and  O5_30 
REMARK    4  A    between atoms: C3_8  and  C4_9 
REMARK    5  A    between atoms: C3_8  and  C5_12 
REMARK    6  A    between atoms: N4_16  and  N5_18 
REMARK    7  A    between atoms: N7_24  and  N8_25 
REMARK    8  A    between atoms: O5_30  and  N10_31 
ROOT
HETATM    1  N5  UNL     1      15.209  42.335   9.118  1.00  0.00    -0.281 N 
ATOM      2  H5  UNL     1      14.460  42.021   8.500  1.00  0.00     0.188 HD
HETATM    3  C7  UNL     1      15.129  42.143  10.380  1.00  0.00     0.102 C 
HETATM    4  C8  UNL     1      16.196  42.586  11.287  1.00  0.00     0.082 C 
HETATM    5  C9  UNL     1      13.975  41.483  10.908  1.00  0.00     0.114 C 
HETATM    6  N6  UNL     1      13.054  40.932  11.341  1.00  0.00    -0.190 NA
ENDROOT
BRANCH   1   7
HETATM    7  N4  UNL     1      16.328  42.975   8.602  1.00  0.00    -0.129 N 
HETATM    8  C6  UNL     1      16.955  42.485   7.590  1.00  0.00     0.719 A 
HETATM    9  N3  UNL     1      16.604  41.341   6.944  1.00  0.00    -0.183 N 
HETATM   10  N7  UNL     1      18.034  42.965   6.964  1.00  0.00    -0.075 N 
HETATM   11  C5  UNL     1      17.452  41.125   5.941  1.00  0.00     0.128 A 
ATOM     12  H3  UNL     1      15.817  40.742   7.189  1.00  0.00     0.184 HD
HETATM   13  C10 UNL     1      18.388  42.172   5.940  1.00  0.00     0.185 A 
HETATM   14  N9  UNL     1      19.488  42.380   5.067  1.00  0.00    -0.077 NA
ATOM     15  H4  UNL     1      16.657  43.841   9.028  1.00  0.00     0.205 HD
BRANCH  11  16
HETATM   16  C3  UNL     1      17.478  40.036   4.943  1.00  0.00     0.158 C 
HETATM   17  N2  UNL     1      17.802  40.369   3.777  1.00  0.00    -0.259 N 
ATOM     18  H2  UNL     1      17.989  41.370   3.723  1.00  0.00     0.190 HD
BRANCH  17  19
HETATM   19  N1  UNL     1      17.972  39.789   2.585  1.00  0.00    -0.073 N 
HETATM   20  C2  UNL     1      16.835  39.583   1.701  1.00  0.00     0.408 C 
HETATM   21  O2  UNL     1      17.008  39.034   0.560  1.00  0.00    -0.234 OA
BRANCH  20  22
HETATM   22  O1  UNL     1      15.557  39.946   2.026  1.00  0.00    -0.306 OA
HETATM   23  C1  UNL     1      14.614  40.531   1.169  1.00  0.00     0.215 C 
ENDBRANCH  20  22
BRANCH  19  24
HETATM   24  O5  UNL     1      19.185  39.348   2.148  1.00  0.00    -0.136 OA
BRANCH  24  25
HETATM   25  N10 UNL     1      19.866  38.646   3.049  1.00  0.00    -0.284 N 
ATOM     26 2H10 UNL     1      20.579  39.072   3.640  1.00  0.00     0.186 HD
ATOM     27 1H10 UNL     1      19.610  37.660   3.090  1.00  0.00     0.186 HD
ENDBRANCH  24  25
ENDBRANCH  19  24
ENDBRANCH  17  19
BRANCH  16  28
HETATM   28  C4  UNL     1      17.151  38.691   5.345  1.00  0.00     0.230 C 
HETATM   29  O3  UNL     1      16.696  38.494   6.519  1.00  0.00    -0.643 OA
HETATM   30  O4  UNL     1      17.325  37.638   4.484  1.00  0.00    -0.643 OA
ENDBRANCH  16  28
ENDBRANCH  11  16
BRANCH  10  31
HETATM   31  N8  UNL     1      18.666  44.151   7.380  1.00  0.00    -0.323 N 
ATOM     32  H82 UNL     1      18.264  45.088   7.406  1.00  0.00     0.178 HD
ATOM     33  H81 UNL     1      19.632  44.158   7.706  1.00  0.00     0.178 HD
ENDBRANCH  10  31
ENDBRANCH   1   7
TORSDOF 8
ENDMDL
MODEL 3
REMARK VINA RESULT: -7.516171550      1.870      4.039
REMARK  8 active torsions:
REMARK  status: ('A' for Active; 'I' for Inactive)
REMARK    1  A    between atoms: O1_2  and  C2_3 
REMARK       I    between atoms: C2_3  and  N1_5 
REMARK    2  A    between atoms: N1_5  and  N2_6 
REMARK    3  A    between atoms: N1_5  and  O5_30 
REMARK    4  A    between atoms: C3_8  and  C4_9 
REMARK    5  A    between atoms: C3_8  and  C5_12 
REMARK    6  A    between atoms: N4_16  and  N5_18 
REMARK    7  A    between atoms: N7_24  and  N8_25 
REMARK    8  A    between atoms: O5_30  and  N10_31 
ROOT
HETATM    1  N5  UNL     1      17.576  39.465   5.276  1.00  0.00    -0.281 N 
ATOM      2  H5  UNL     1      17.743  39.057   6.196  1.00  0.00     0.188 HD
HETATM    3  C7  UNL     1      17.053  38.765   4.342  1.00  0.00     0.102 C 
HETATM    4  C8  UNL     1      16.802  39.334   3.012  1.00  0.00     0.082 C 
HETATM    5  C9  UNL     1      16.706  37.404   4.610  1.00  0.00     0.114 C 
HETATM    6  N6  UNL     1      16.404  36.306   4.824  1.00  0.00    -0.190 NA
ENDROOT
BRANCH   1   7
HETATM    7  N4  UNL     1      17.913  40.788   5.020  1.00  0.00    -0.129 N 
HETATM    8  C6  UNL     1      17.506  41.730   5.797  1.00  0.00     0.719 A 
HETATM    9  N3  UNL     1      16.739  41.542   6.904  1.00  0.00    -0.183 N 
HETATM   10  N7  UNL     1      17.737  43.044   5.708  1.00  0.00    -0.075 N 
HETATM   11  C5  UNL     1      16.506  42.717   7.482  1.00  0.00     0.128 A 
ATOM     12  H3  UNL     1      16.395  40.642   7.238  1.00  0.00     0.184 HD
HETATM   13  C10 UNL     1      17.149  43.705   6.717  1.00  0.00     0.185 A 
HETATM   14  N9  UNL     1      17.186  45.109   6.928  1.00  0.00    -0.077 NA
ATOM     15  H4  UNL     1      18.488  41.015   4.209  1.00  0.00     0.205 HD
BRANCH  11  16
HETATM   16  C3  UNL     1      15.749  43.033   8.712  1.00  0.00     0.158 C 
HETATM   17  N2  UNL     1      15.547  42.071   9.492  1.00  0.00    -0.259 N 
ATOM     18  H2  UNL     1      15.949  41.210   9.121  1.00  0.00     0.190 HD
BRANCH  17  19
HETATM   19  N1  UNL     1      14.956  41.850  10.670  1.00  0.00    -0.073 N 
HETATM   20  C2  UNL     1      13.570  41.411  10.724  1.00  0.00     0.408 C 
HETATM   21  O2  UNL     1      13.015  41.194  11.855  1.00  0.00    -0.234 OA
BRANCH  20  22
HETATM   22  O1  UNL     1      12.802  41.214   9.610  1.00  0.00    -0.306 OA
HETATM   23  C1  UNL     1      12.095  42.196   8.902  1.00  0.00     0.215 C 
ENDBRANCH  20  22
BRANCH  19  24
HETATM   24  O5  UNL     1      15.594  42.038  11.860  1.00  0.00    -0.136 OA
BRANCH  24  25
HETATM   25  N10 UNL     1      16.729  42.724  11.766  1.00  0.00    -0.284 N 
ATOM     26 2H10 UNL     1      17.442  42.497  11.073  1.00  0.00     0.186 HD
ATOM     27 1H10 UNL     1      16.815  43.483  12.441  1.00  0.00     0.186 HD
ENDBRANCH  24  25
ENDBRANCH  19  24
ENDBRANCH  17  19
BRANCH  16  28
HETATM   28  C4  UNL     1      15.305  44.383   8.950  1.00  0.00     0.230 C 
HETATM   29  O3  UNL     1      14.329  44.837   8.269  1.00  0.00    -0.643 OA
HETATM   30  O4  UNL     1      15.919  45.168   9.891  1.00  0.00    -0.643 OA
ENDBRANCH  16  28
ENDBRANCH  11  16
BRANCH  10  31
HETATM   31  N8  UNL     1      18.505  43.592   4.665  1.00  0.00    -0.323 N 
ATOM     32  H82 UNL     1      19.356  43.205   4.255  1.00  0.00     0.178 HD
ATOM     33  H81 UNL     1      18.251  44.472   4.216  1.00  0.00     0.178 HD
ENDBRANCH  10  31
ENDBRANCH   1   7
TORSDOF 8
ENDMDL
MODEL 4
REMARK VINA RESULT: -7.425963819      4.499      7.967
REMARK  8 active torsions:
REMARK  status: ('A' for Active; 'I' for Inactive)
REMARK    1  A    between atoms: O1_2  and  C2_3 
REMARK       I    between atoms: C2_3  and  N1_5 
REMARK    2  A    between atoms: N1_5  and  N2_6 
REMARK    3  A    between atoms: N1_5  and  O5_30 
REMARK    4  A    between atoms: C3_8  and  C4_9 
REMARK    5  A    between atoms: C3_8  and  C5_12 
REMARK    6  A    between atoms: N4_16  and  N5_18 
REMARK    7  A    between atoms: N7_24  and  N8_25 
REMARK    8  A    between atoms: O5_30  and  N10_31 
ROOT
HETATM    1  N5  UNL     1      15.305  42.334   9.101  1.00  0.00    -0.281 N 
ATOM      2  H5  UNL     1      14.597  41.983   8.456  1.00  0.00     0.188 HD
HETATM    3  C7  UNL     1      15.169  42.174  10.363  1.00  0.00     0.102 C 
HETATM    4  C8  UNL     1      16.177  42.670  11.309  1.00  0.00     0.082 C 
HETATM    5  C9  UNL     1      14.009  41.493  10.852  1.00  0.00     0.114 C 
HETATM    6  N6  UNL     1      13.083  40.926  11.255  1.00  0.00    -0.190 NA
ENDROOT
BRANCH   1   7
HETATM    7  N4  UNL     1      16.430  42.994   8.623  1.00  0.00    -0.129 N 
HETATM    8  C6  UNL     1      17.056  42.554   7.588  1.00  0.00     0.719 A 
HETATM    9  N3  UNL     1      16.700  41.449   6.881  1.00  0.00    -0.183 N 
HETATM   10  N7  UNL     1      18.141  43.060   6.991  1.00  0.00    -0.075 N 
HETATM   11  C5  UNL     1      17.549  41.281   5.870  1.00  0.00     0.128 A 
ATOM     12  H3  UNL     1      15.908  40.843   7.092  1.00  0.00     0.184 HD
HETATM   13  C10 UNL     1      18.492  42.321   5.928  1.00  0.00     0.185 A 
HETATM   14  N9  UNL     1      19.596  42.568   5.070  1.00  0.00    -0.077 NA
ATOM     15  H4  UNL     1      16.763  43.833   9.096  1.00  0.00     0.205 HD
BRANCH  11  16
HETATM   16  C3  UNL     1      17.571  40.247   4.815  1.00  0.00     0.158 C 
HETATM   17  N2  UNL     1      17.796  40.657   3.650  1.00  0.00    -0.259 N 
ATOM     18  H2  UNL     1      17.921  41.670   3.639  1.00  0.00     0.190 HD
BRANCH  17  19
HETATM   19  N1  UNL     1      17.919  40.149   2.421  1.00  0.00    -0.073 N 
HETATM   20  C2  UNL     1      19.236  39.854   1.877  1.00  0.00     0.408 C 
HETATM   21  O2  UNL     1      19.344  39.361   0.703  1.00  0.00    -0.234 OA
BRANCH  20  22
HETATM   22  O1  UNL     1      20.398  40.081   2.563  1.00  0.00    -0.306 OA
HETATM   23  C1  UNL     1      21.360  41.057   2.269  1.00  0.00     0.215 C 
ENDBRANCH  20  22
BRANCH  19  24
HETATM   24  O5  UNL     1      16.847  39.904   1.616  1.00  0.00    -0.136 OA
BRANCH  24  25
HETATM   25  N10 UNL     1      16.334  38.684   1.749  1.00  0.00    -0.284 N 
ATOM     26 2H10 UNL     1      16.914  37.875   1.970  1.00  0.00     0.186 HD
ATOM     27 1H10 UNL     1      15.325  38.639   1.612  1.00  0.00     0.186 HD
ENDBRANCH  24  25
ENDBRANCH  19  24
ENDBRANCH  17  19
BRANCH  16  28
HETATM   28  C4  UNL     1      17.349  38.866   5.164  1.00  0.00     0.230 C 
HETATM   29  O3  UNL     1      16.736  38.598   6.248  1.00  0.00    -0.643 OA
HETATM   30  O4  UNL     1      17.789  37.856   4.348  1.00  0.00    -0.643 OA
ENDBRANCH  16  28
ENDBRANCH  11  16
BRANCH  10  31
HETATM   31  N8  UNL     1      18.779  44.218   7.472  1.00  0.00    -0.323 N 
ATOM     32  H82 UNL     1      18.419  44.882   8.159  1.00  0.00     0.178 HD
ATOM     33  H81 UNL     1      19.706  44.494   7.148  1.00  0.00     0.178 HD
ENDBRANCH  10  31
ENDBRANCH   1   7
TORSDOF 8
ENDMDL
MODEL 5
REMARK VINA RESULT: -7.308785927      4.584      7.478
REMARK  8 active torsions:
REMARK  status: ('A' for Active; 'I' for Inactive)
REMARK    1  A    between atoms: O1_2  and  C2_3 
REMARK       I    between atoms: C2_3  and  N1_5 
REMARK    2  A    between atoms: N1_5  and  N2_6 
REMARK    3  A    between atoms: N1_5  and  O5_30 
REMARK    4  A    between atoms: C3_8  and  C4_9 
REMARK    5  A    between atoms: C3_8  and  C5_12 
REMARK    6  A    between atoms: N4_16  and  N5_18 
REMARK    7  A    between atoms: N7_24  and  N8_25 
REMARK    8  A    between atoms: O5_30  and  N10_31 
ROOT
HETATM    1  N5  UNL     1      15.189  42.380   9.192  1.00  0.00    -0.281 N 
ATOM      2  H5  UNL     1      14.403  42.061   8.626  1.00  0.00     0.188 HD
HETATM    3  C7  UNL     1      15.164  42.256  10.465  1.00  0.00     0.102 C 
HETATM    4  C8  UNL     1      16.286  42.708  11.297  1.00  0.00     0.082 C 
HETATM    5  C9  UNL     1      14.017  41.662  11.078  1.00  0.00     0.114 C 
HETATM    6  N6  UNL     1      13.100  41.165  11.582  1.00  0.00    -0.190 NA
ENDROOT
BRANCH   1   7
HETATM    7  N4  UNL     1      16.302  42.955   8.591  1.00  0.00    -0.129 N 
HETATM    8  C6  UNL     1      16.874  42.385   7.590  1.00  0.00     0.719 A 
HETATM    9  N3  UNL     1      16.469  41.213   7.033  1.00  0.00    -0.183 N 
HETATM   10  N7  UNL     1      17.939  42.795   6.892  1.00  0.00    -0.075 N 
HETATM   11  C5  UNL     1      17.270  40.911   6.013  1.00  0.00     0.128 A 
ATOM     12  H3  UNL     1      15.678  40.653   7.347  1.00  0.00     0.184 HD
HETATM   13  C10 UNL     1      18.230  41.930   5.908  1.00  0.00     0.185 A 
HETATM   14  N9  UNL     1      19.299  42.052   4.981  1.00  0.00    -0.077 NA
ATOM     15  H4  UNL     1      16.669  43.837   8.948  1.00  0.00     0.205 HD
BRANCH  11  16
HETATM   16  C3  UNL     1      17.227  39.760   5.087  1.00  0.00     0.158 C 
HETATM   17  N2  UNL     1      17.447  38.636   5.599  1.00  0.00    -0.259 N 
ATOM     18  H2  UNL     1      17.629  38.721   6.599  1.00  0.00     0.190 HD
BRANCH  17  19
HETATM   19  N1  UNL     1      17.510  37.359   5.212  1.00  0.00    -0.073 N 
HETATM   20  C2  UNL     1      18.789  36.763   4.856  1.00  0.00     0.408 C 
HETATM   21  O2  UNL     1      18.842  35.539   4.494  1.00  0.00    -0.234 OA
BRANCH  20  22
HETATM   22  O1  UNL     1      19.970  37.453   4.882  1.00  0.00    -0.306 OA
HETATM   23  C1  UNL     1      21.214  36.990   4.430  1.00  0.00     0.215 C 
ENDBRANCH  20  22
BRANCH  19  24
HETATM   24  O5  UNL     1      16.407  36.565   5.110  1.00  0.00    -0.136 OA
BRANCH  24  25
HETATM   25  N10 UNL     1      16.197  36.080   3.890  1.00  0.00    -0.284 N 
ATOM     26 2H10 UNL     1      15.309  35.657   3.622  1.00  0.00     0.186 HD
ATOM     27 1H10 UNL     1      16.995  36.171   3.261  1.00  0.00     0.186 HD
ENDBRANCH  24  25
ENDBRANCH  19  24
ENDBRANCH  17  19
BRANCH  16  28
HETATM   28  C4  UNL     1      16.937  39.977   3.692  1.00  0.00     0.230 C 
HETATM   29  O3  UNL     1      17.703  39.456   2.818  1.00  0.00    -0.643 OA
HETATM   30  O4  UNL     1      15.859  40.732   3.307  1.00  0.00    -0.643 OA
ENDBRANCH  16  28
ENDBRANCH  11  16
BRANCH  10  31
HETATM   31  N8  UNL     1      18.616  43.987   7.206  1.00  0.00    -0.323 N 
ATOM     32  H82 UNL     1      18.236  44.807   7.680  1.00  0.00     0.178 HD
ATOM     33  H81 UNL     1      19.598  44.126   6.966  1.00  0.00     0.178 HD
ENDBRANCH  10  31
ENDBRANCH   1   7
TORSDOF 8
ENDMDL
