MODEL 1
REMARK VINA RESULT: -6.704510461      0.000      0.000
REMARK  10 active torsions:
REMARK  status: ('A' for Active; 'I' for Inactive)
REMARK    1  A    between atoms: C2_2  and  N1_3 
REMARK    2  A    between atoms: C2_2  and  C4_12 
REMARK    3  A    between atoms: N1_3  and  C3_5 
REMARK    4  A    between atoms: C3_5  and  O1_6 
REMARK    5  A    between atoms: N2_8  and  O2_10 
REMARK       I    between atoms: C4_12  and  N3_14 
REMARK    6  A    between atoms: N3_14  and  O4_15 
REMARK    7  A    between atoms: N3_14  and  C5_17 
REMARK    8  A    between atoms: C6_18  and  N4_19 
REMARK    9  A    between atoms: C9_26  and  N6_27 
REMARK   10  A    between atoms: N7_30  and  N8_31 
ROOT
HETATM    1  C5  UNL     1      12.586  43.733   7.411  1.00  0.00     0.213 A 
HETATM    2  C6  UNL     1      12.470  44.764   6.511  1.00  0.00     0.219 A 
HETATM    3  C7  UNL     1      11.220  45.009   5.931  1.00  0.00     0.298 A 
HETATM    4  O7  UNL     1      11.170  45.965   5.114  1.00  0.00    -0.265 OA
HETATM    5  N5  UNL     1      10.177  44.238   6.264  1.00  0.00    -0.148 N 
HETATM    6  C8  UNL     1       8.880  44.526   5.631  1.00  0.00     0.179 C 
HETATM    7  C9  UNL     1      10.293  43.224   7.150  1.00  0.00     0.703 A 
HETATM    8  N7  UNL     1      11.478  42.997   7.696  1.00  0.00    -0.071 N 
ENDROOT
BRANCH   1   9
HETATM    9  N3  UNL     1      13.811  43.392   8.041  1.00  0.00    -0.167 N 
HETATM   10  C4  UNL     1      14.261  43.875   9.287  1.00  0.00     0.272 C 
HETATM   11  O3  UNL     1      13.572  44.669   9.941  1.00  0.00    -0.268 OA
BRANCH  10  12
HETATM   12  C2  UNL     1      15.571  43.434   9.824  1.00  0.00     0.176 C 
HETATM   13  C1  UNL     1      16.374  44.567  10.409  1.00  0.00     0.042 C 
BRANCH  12  14
HETATM   14  N1  UNL     1      15.443  42.333  10.735  1.00  0.00    -0.342 N 
ATOM     15  H1  UNL     1      15.590  42.466  11.736  1.00  0.00     0.164 HD
BRANCH  14  16
HETATM   16  C3  UNL     1      15.104  41.040  10.213  1.00  0.00     0.237 C 
HETATM   17  N2  UNL     1      14.007  40.485  10.579  1.00  0.00    -0.233 N 
ATOM     18  H2  UNL     1      13.757  39.567  10.212  1.00  0.00     0.198 HD
BRANCH  16  19
HETATM   19  O1  UNL     1      15.934  40.382   9.324  1.00  0.00    -0.331 OA
ATOM     20  H1  UNL     1      16.233  39.495   9.490  1.00  0.00     0.221 HD
ENDBRANCH  16  19
BRANCH  17  21
HETATM   21  O2  UNL     1      13.175  41.115  11.454  1.00  0.00    -0.287 OA
ATOM     22  H2  UNL     1      13.046  40.767  12.329  1.00  0.00     0.244 HD
ENDBRANCH  17  21
ENDBRANCH  14  16
ENDBRANCH  12  14
ENDBRANCH  10  12
BRANCH   9  23
HETATM   23  O4  UNL     1      14.617  42.503   7.367  1.00  0.00    -0.278 OA
ATOM     24  H4  UNL     1      14.237  41.674   7.100  1.00  0.00     0.245 HD
ENDBRANCH   9  23
ENDBRANCH   1   9
BRANCH   2  25
HETATM   25  N4  UNL     1      13.597  45.569   6.145  1.00  0.00    -0.106 N 
HETATM   26  O5  UNL     1      13.881  46.527   6.883  1.00  0.00    -0.531 OA
HETATM   27  O6  UNL     1      14.279  45.225   5.015  1.00  0.00    -0.531 OA
ENDBRANCH   2  25
BRANCH   8  28
HETATM   28  N8  UNL     1      11.622  41.961   8.604  1.00  0.00    -0.322 N 
ATOM     29  H82 UNL     1      12.140  42.120   9.469  1.00  0.00     0.178 HD
ATOM     30  H81 UNL     1      11.193  41.067   8.364  1.00  0.00     0.178 HD
ENDBRANCH   8  28
BRANCH   7  31
HETATM   31  N6  UNL     1       9.245  42.512   7.425  1.00  0.00    -0.232 N 
ATOM     32  H62 UNL     1       8.663  42.679   8.247  1.00  0.00     0.174 HD
ATOM     33  H61 UNL     1       8.990  41.749   6.798  1.00  0.00     0.174 HD
ENDBRANCH   7  31
TORSDOF 10
ENDMDL
MODEL 2
REMARK VINA RESULT: -6.574998431      4.661      6.275
REMARK  10 active torsions:
REMARK  status: ('A' for Active; 'I' for Inactive)
REMARK    1  A    between atoms: C2_2  and  N1_3 
REMARK    2  A    between atoms: C2_2  and  C4_12 
REMARK    3  A    between atoms: N1_3  and  C3_5 
REMARK    4  A    between atoms: C3_5  and  O1_6 
REMARK    5  A    between atoms: N2_8  and  O2_10 
REMARK       I    between atoms: C4_12  and  N3_14 
REMARK    6  A    between atoms: N3_14  and  O4_15 
REMARK    7  A    between atoms: N3_14  and  C5_17 
REMARK    8  A    between atoms: C6_18  and  N4_19 
REMARK    9  A    between atoms: C9_26  and  N6_27 
REMARK   10  A    between atoms: N7_30  and  N8_31 
ROOT
HETATM    1  C5  UNL     1      17.203  40.415   5.861  1.00  0.00     0.213 A 
HETATM    2  C6  UNL     1      17.222  40.270   4.495  1.00  0.00     0.219 A 
HETATM    3  C7  UNL     1      17.042  38.991   3.954  1.00  0.00     0.298 A 
HETATM    4  O7  UNL     1      17.068  38.916   2.698  1.00  0.00    -0.265 OA
HETATM    5  N5  UNL     1      16.857  37.950   4.775  1.00  0.00    -0.148 N 
HETATM    6  C8  UNL     1      16.673  36.622   4.167  1.00  0.00     0.179 C 
HETATM    7  C9  UNL     1      16.838  38.094   6.119  1.00  0.00     0.703 A 
HETATM    8  N7  UNL     1      17.009  39.306   6.624  1.00  0.00    -0.071 N 
ENDROOT
BRANCH   1   9
HETATM    9  N3  UNL     1      17.393  41.663   6.508  1.00  0.00    -0.167 N 
HETATM   10  C4  UNL     1      16.391  42.620   6.766  1.00  0.00     0.272 C 
HETATM   11  O3  UNL     1      15.218  42.414   6.424  1.00  0.00    -0.268 OA
BRANCH  10  12
HETATM   12  C2  UNL     1      16.735  43.889   7.451  1.00  0.00     0.176 C 
HETATM   13  C1  UNL     1      15.872  45.043   7.012  1.00  0.00     0.042 C 
BRANCH  12  14
HETATM   14  N1  UNL     1      16.766  43.747   8.878  1.00  0.00    -0.342 N 
ATOM     15  H1  UNL     1      17.647  43.814   9.389  1.00  0.00     0.164 HD
BRANCH  14  16
HETATM   16  C3  UNL     1      15.535  43.508   9.576  1.00  0.00     0.237 C 
HETATM   17  N2  UNL     1      15.322  42.354  10.092  1.00  0.00    -0.233 N 
ATOM     18  H2  UNL     1      14.451  42.175  10.592  1.00  0.00     0.198 HD
BRANCH  16  19
HETATM   19  O1  UNL     1      14.577  44.496   9.703  1.00  0.00    -0.331 OA
ATOM     20  H1  UNL     1      13.676  44.287   9.922  1.00  0.00     0.221 HD
ENDBRANCH  16  19
BRANCH  17  21
HETATM   21  O2  UNL     1      16.252  41.366   9.978  1.00  0.00    -0.287 OA
ATOM     22  H2  UNL     1      15.990  40.453  10.011  1.00  0.00     0.244 HD
ENDBRANCH  17  21
ENDBRANCH  14  16
ENDBRANCH  12  14
ENDBRANCH  10  12
BRANCH   9  23
HETATM   23  O4  UNL     1      18.675  41.946   6.923  1.00  0.00    -0.278 OA
ATOM     24  H4  UNL     1      19.392  41.670   6.365  1.00  0.00     0.245 HD
ENDBRANCH   9  23
ENDBRANCH   1   9
BRANCH   2  25
HETATM   25  N4  UNL     1      17.442  41.388   3.627  1.00  0.00    -0.106 N 
HETATM   26  O5  UNL     1      16.443  42.009   3.227  1.00  0.00    -0.531 OA
HETATM   27  O6  UNL     1      18.731  41.693   3.303  1.00  0.00    -0.531 OA
ENDBRANCH   2  25
BRANCH   8  28
HETATM   28  N8  UNL     1      16.997  39.477   7.999  1.00  0.00    -0.322 N 
ATOM     29  H82 UNL     1      16.432  40.223   8.406  1.00  0.00     0.178 HD
ATOM     30  H81 UNL     1      17.564  38.836   8.554  1.00  0.00     0.178 HD
ENDBRANCH   8  28
BRANCH   7  31
HETATM   31  N6  UNL     1      16.660  37.043   6.857  1.00  0.00    -0.232 N 
ATOM     32  H62 UNL     1      17.433  36.508   7.254  1.00  0.00     0.174 HD
ATOM     33  H61 UNL     1      15.707  36.732   7.047  1.00  0.00     0.174 HD
ENDBRANCH   7  31
TORSDOF 10
ENDMDL
MODEL 3
REMARK VINA RESULT: -6.485203660      2.236      3.606
REMARK  10 active torsions:
REMARK  status: ('A' for Active; 'I' for Inactive)
REMARK    1  A    between atoms: C2_2  and  N1_3 
REMARK    2  A    between atoms: C2_2  and  C4_12 
REMARK    3  A    between atoms: N1_3  and  C3_5 
REMARK    4  A    between atoms: C3_5  and  O1_6 
REMARK    5  A    between atoms: N2_8  and  O2_10 
REMARK       I    between atoms: C4_12  and  N3_14 
REMARK    6  A    between atoms: N3_14  and  O4_15 
REMARK    7  A    between atoms: N3_14  and  C5_17 
REMARK    8  A    between atoms: C6_18  and  N4_19 
REMARK    9  A    between atoms: C9_26  and  N6_27 
REMARK   10  A    between atoms: N7_30  and  N8_31 
ROOT
HETATM    1  C5  UNL     1      10.767  43.421   7.811  1.00  0.00     0.213 A 
HETATM    2  C6  UNL     1      10.163  42.188   7.848  1.00  0.00     0.219 A 
HETATM    3  C7  UNL     1       8.809  42.094   7.504  1.00  0.00     0.298 A 
HETATM    4  O7  UNL     1       8.307  40.941   7.555  1.00  0.00    -0.265 OA
HETATM    5  N5  UNL     1       8.141  43.200   7.152  1.00  0.00    -0.148 N 
HETATM    6  C8  UNL     1       6.719  43.060   6.800  1.00  0.00     0.179 C 
HETATM    7  C9  UNL     1       8.737  44.413   7.116  1.00  0.00     0.703 A 
HETATM    8  N7  UNL     1      10.018  44.495   7.442  1.00  0.00    -0.071 N 
ENDROOT
BRANCH   1   9
HETATM    9  N3  UNL     1      12.127  43.626   8.157  1.00  0.00    -0.167 N 
HETATM   10  C4  UNL     1      13.235  43.408   7.313  1.00  0.00     0.272 C 
HETATM   11  O3  UNL     1      13.075  43.004   6.153  1.00  0.00    -0.268 OA
BRANCH  10  12
HETATM   12  C2  UNL     1      14.609  43.662   7.812  1.00  0.00     0.176 C 
HETATM   13  C1  UNL     1      15.081  45.065   7.533  1.00  0.00     0.042 C 
BRANCH  12  14
HETATM   14  N1  UNL     1      14.763  43.301   9.191  1.00  0.00    -0.342 N 
ATOM     15  H1  UNL     1      14.599  43.987   9.929  1.00  0.00     0.164 HD
BRANCH  14  16
HETATM   16  C3  UNL     1      15.152  41.959   9.515  1.00  0.00     0.237 C 
HETATM   17  N2  UNL     1      14.554  41.347  10.471  1.00  0.00    -0.233 N 
ATOM     18  H2  UNL     1      14.822  40.392  10.707  1.00  0.00     0.198 HD
BRANCH  16  19
HETATM   19  O1  UNL     1      16.157  41.313   8.819  1.00  0.00    -0.331 OA
ATOM     20  H1  UNL     1      16.945  41.009   9.255  1.00  0.00     0.221 HD
ENDBRANCH  16  19
BRANCH  17  21
HETATM   21  O2  UNL     1      13.562  41.965  11.170  1.00  0.00    -0.287 OA
ATOM     22  H2  UNL     1      13.773  42.534  11.901  1.00  0.00     0.244 HD
ENDBRANCH  17  21
ENDBRANCH  14  16
ENDBRANCH  12  14
ENDBRANCH  10  12
BRANCH   9  23
HETATM   23  O4  UNL     1      12.370  44.086   9.431  1.00  0.00    -0.278 OA
ATOM     24  H4  UNL     1      11.682  43.986  10.078  1.00  0.00     0.245 HD
ENDBRANCH   9  23
ENDBRANCH   1   9
BRANCH   2  25
HETATM   25  N4  UNL     1      10.882  41.015   8.248  1.00  0.00    -0.106 N 
HETATM   26  O5  UNL     1      10.754  39.998   7.545  1.00  0.00    -0.531 OA
HETATM   27  O6  UNL     1      11.654  41.098   9.369  1.00  0.00    -0.531 OA
ENDBRANCH   2  25
BRANCH   8  28
HETATM   28  N8  UNL     1      10.649  45.728   7.416  1.00  0.00    -0.322 N 
ATOM     29  H82 UNL     1      10.718  46.237   6.534  1.00  0.00     0.178 HD
ATOM     30  H81 UNL     1      11.021  46.080   8.298  1.00  0.00     0.178 HD
ENDBRANCH   8  28
BRANCH   7  31
HETATM   31  N6  UNL     1       8.032  45.445   6.771  1.00  0.00    -0.232 N 
ATOM     32  H62 UNL     1       7.236  45.383   6.135  1.00  0.00     0.174 HD
ATOM     33  H61 UNL     1       8.284  46.359   7.145  1.00  0.00     0.174 HD
ENDBRANCH   7  31
TORSDOF 10
ENDMDL
MODEL 4
REMARK VINA RESULT: -6.463438363      8.756     10.203
REMARK  10 active torsions:
REMARK  status: ('A' for Active; 'I' for Inactive)
REMARK    1  A    between atoms: C2_2  and  N1_3 
REMARK    2  A    between atoms: C2_2  and  C4_12 
REMARK    3  A    between atoms: N1_3  and  C3_5 
REMARK    4  A    between atoms: C3_5  and  O1_6 
REMARK    5  A    between atoms: N2_8  and  O2_10 
REMARK       I    between atoms: C4_12  and  N3_14 
REMARK    6  A    between atoms: N3_14  and  O4_15 
REMARK    7  A    between atoms: N3_14  and  C5_17 
REMARK    8  A    between atoms: C6_18  and  N4_19 
REMARK    9  A    between atoms: C9_26  and  N6_27 
REMARK   10  A    between atoms: N7_30  and  N8_31 
ROOT
HETATM    1  C5  UNL     1      20.621  41.132   2.296  1.00  0.00     0.213 A 
HETATM    2  C6  UNL     1      20.384  41.087   0.944  1.00  0.00     0.219 A 
HETATM    3  C7  UNL     1      21.092  41.960   0.110  1.00  0.00     0.298 A 
HETATM    4  O7  UNL     1      20.836  41.875  -1.120  1.00  0.00    -0.265 OA
HETATM    5  N5  UNL     1      21.975  42.812   0.647  1.00  0.00    -0.148 N 
HETATM    6  C8  UNL     1      22.698  43.715  -0.264  1.00  0.00     0.179 C 
HETATM    7  C9  UNL     1      22.207  42.855   1.977  1.00  0.00     0.703 A 
HETATM    8  N7  UNL     1      21.534  42.027   2.761  1.00  0.00    -0.071 N 
ENDROOT
BRANCH   1   9
HETATM    9  N3  UNL     1      19.944  40.303   3.228  1.00  0.00    -0.167 N 
HETATM   10  C4  UNL     1      18.657  40.532   3.754  1.00  0.00     0.272 C 
HETATM   11  O3  UNL     1      18.004  41.527   3.412  1.00  0.00    -0.268 OA
BRANCH  10  12
HETATM   12  C2  UNL     1      18.073  39.578   4.728  1.00  0.00     0.176 C 
HETATM   13  C1  UNL     1      16.890  40.149   5.467  1.00  0.00     0.042 C 
BRANCH  12  14
HETATM   14  N1  UNL     1      17.780  38.305   4.135  1.00  0.00    -0.342 N 
ATOM     15  H1  UNL     1      17.229  38.246   3.278  1.00  0.00     0.164 HD
BRANCH  14  16
HETATM   16  C3  UNL     1      18.275  37.118   4.769  1.00  0.00     0.237 C 
HETATM   17  N2  UNL     1      17.639  36.014   4.616  1.00  0.00    -0.233 N 
ATOM     18  H2  UNL     1      17.983  35.164   5.061  1.00  0.00     0.198 HD
BRANCH  16  19
HETATM   19  O1  UNL     1      19.422  37.137   5.540  1.00  0.00    -0.331 OA
ATOM     20  H1  UNL     1      20.089  36.465   5.453  1.00  0.00     0.221 HD
ENDBRANCH  16  19
BRANCH  17  21
HETATM   21  O2  UNL     1      16.506  35.973   3.861  1.00  0.00    -0.287 OA
ATOM     22  H2  UNL     1      16.544  35.697   2.952  1.00  0.00     0.244 HD
ENDBRANCH  17  21
ENDBRANCH  14  16
ENDBRANCH  12  14
ENDBRANCH  10  12
BRANCH   9  23
HETATM   23  O4  UNL     1      20.615  39.173   3.639  1.00  0.00    -0.278 OA
ATOM     24  H4  UNL     1      21.329  38.859   3.096  1.00  0.00     0.245 HD
ENDBRANCH   9  23
ENDBRANCH   1   9
BRANCH   2  25
HETATM   25  N4  UNL     1      19.421  40.186   0.383  1.00  0.00    -0.106 N 
HETATM   26  O5  UNL     1      19.814  39.049   0.070  1.00  0.00    -0.531 OA
HETATM   27  O6  UNL     1      18.144  40.640   0.233  1.00  0.00    -0.531 OA
ENDBRANCH   2  25
BRANCH   8  28
HETATM   28  N8  UNL     1      21.753  42.056   4.129  1.00  0.00    -0.322 N 
ATOM     29  H82 UNL     1      21.419  42.852   4.673  1.00  0.00     0.178 HD
ATOM     30  H81 UNL     1      22.245  41.263   4.540  1.00  0.00     0.178 HD
ENDBRANCH   8  28
BRANCH   7  31
HETATM   31  N6  UNL     1      23.072  43.708   2.433  1.00  0.00    -0.232 N 
ATOM     32  H62 UNL     1      23.795  44.127   1.848  1.00  0.00     0.174 HD
ATOM     33  H61 UNL     1      23.032  43.969   3.418  1.00  0.00     0.174 HD
ENDBRANCH   7  31
TORSDOF 10
ENDMDL
MODEL 5
REMARK VINA RESULT: -6.397233392      1.543      2.788
REMARK  10 active torsions:
REMARK  status: ('A' for Active; 'I' for Inactive)
REMARK    1  A    between atoms: C2_2  and  N1_3 
REMARK    2  A    between atoms: C2_2  and  C4_12 
REMARK    3  A    between atoms: N1_3  and  C3_5 
REMARK    4  A    between atoms: C3_5  and  O1_6 
REMARK    5  A    between atoms: N2_8  and  O2_10 
REMARK       I    between atoms: C4_12  and  N3_14 
REMARK    6  A    between atoms: N3_14  and  O4_15 
REMARK    7  A    between atoms: N3_14  and  C5_17 
REMARK    8  A    between atoms: C6_18  and  N4_19 
REMARK    9  A    between atoms: C9_26  and  N6_27 
REMARK   10  A    between atoms: N7_30  and  N8_31 
ROOT
HETATM    1  C5  UNL     1      12.384  43.592   7.330  1.00  0.00     0.213 A 
HETATM    2  C6  UNL     1      11.268  42.814   7.515  1.00  0.00     0.219 A 
HETATM    3  C7  UNL     1      10.073  43.197   6.893  1.00  0.00     0.298 A 
HETATM    4  O7  UNL     1       9.082  42.447   7.096  1.00  0.00    -0.265 OA
HETATM    5  N5  UNL     1      10.048  44.304   6.141  1.00  0.00    -0.148 N 
HETATM    6  C8  UNL     1       8.773  44.674   5.506  1.00  0.00     0.179 C 
HETATM    7  C9  UNL     1      11.148  45.069   5.961  1.00  0.00     0.703 A 
HETATM    8  N7  UNL     1      12.275  44.702   6.551  1.00  0.00    -0.071 N 
ENDROOT
BRANCH   1   9
HETATM    9  N3  UNL     1      13.637  43.301   7.929  1.00  0.00    -0.167 N 
HETATM   10  C4  UNL     1      14.089  43.784   9.174  1.00  0.00     0.272 C 
HETATM   11  O3  UNL     1      13.375  44.531   9.857  1.00  0.00    -0.268 OA
BRANCH  10  12
HETATM   12  C2  UNL     1      15.430  43.399   9.676  1.00  0.00     0.176 C 
HETATM   13  C1  UNL     1      16.234  44.579  10.158  1.00  0.00     0.042 C 
BRANCH  12  14
HETATM   14  N1  UNL     1      15.365  42.351  10.654  1.00  0.00    -0.342 N 
ATOM     15  H1  UNL     1      15.542  42.548  11.639  1.00  0.00     0.164 HD
BRANCH  14  16
HETATM   16  C3  UNL     1      15.046  41.021  10.222  1.00  0.00     0.237 C 
HETATM   17  N2  UNL     1      14.009  40.438  10.701  1.00  0.00    -0.233 N 
ATOM     18  H2  UNL     1      13.772  39.493  10.398  1.00  0.00     0.198 HD
BRANCH  16  19
HETATM   19  O1  UNL     1      15.832  40.356   9.299  1.00  0.00    -0.331 OA
ATOM     20  H1  UNL     1      16.242  40.816   8.575  1.00  0.00     0.221 HD
ENDBRANCH  16  19
BRANCH  17  21
HETATM   21  O2  UNL     1      13.221  41.075  11.611  1.00  0.00    -0.287 OA
ATOM     22  H2  UNL     1      12.277  41.089  11.502  1.00  0.00     0.244 HD
ENDBRANCH  17  21
ENDBRANCH  14  16
ENDBRANCH  12  14
ENDBRANCH  10  12
BRANCH   9  23
HETATM   23  O4  UNL     1      14.471  42.465   7.222  1.00  0.00    -0.278 OA
ATOM     24  H4  UNL     1      14.079  41.734   6.760  1.00  0.00     0.245 HD
ENDBRANCH   9  23
ENDBRANCH   1   9
BRANCH   2  25
HETATM   25  N4  UNL     1      11.300  41.643   8.339  1.00  0.00    -0.106 N 
HETATM   26  O5  UNL     1      11.665  41.782   9.519  1.00  0.00    -0.531 OA
HETATM   27  O6  UNL     1      10.929  40.460   7.771  1.00  0.00    -0.531 OA
ENDBRANCH   2  25
BRANCH   8  28
HETATM   28  N8  UNL     1      13.413  45.473   6.383  1.00  0.00    -0.322 N 
ATOM     29  H82 UNL     1      13.561  46.286   6.981  1.00  0.00     0.178 HD
ATOM     30  H81 UNL     1      14.068  45.185   5.655  1.00  0.00     0.178 HD
ENDBRANCH   8  28
BRANCH   7  31
HETATM   31  N6  UNL     1      11.054  46.133   5.224  1.00  0.00    -0.232 N 
ATOM     32  H62 UNL     1      10.475  46.175   4.385  1.00  0.00     0.174 HD
ATOM     33  H61 UNL     1      11.585  46.962   5.489  1.00  0.00     0.174 HD
ENDBRANCH   7  31
TORSDOF 10
ENDMDL
