MODEL 1
REMARK VINA RESULT: -7.390756762      0.000      0.000
REMARK  8 active torsions:
REMARK  status: ('A' for Active; 'I' for Inactive)
REMARK    1  A    between atoms: N1_1  and  C1_4 
REMARK    2  A    between atoms: C2_6  and  C3_7 
REMARK    3  A    between atoms: N3_10  and  N4_11 
REMARK    4  A    between atoms: N4_11  and  S2_13 
REMARK    5  A    between atoms: S2_13  and  N5_14 
REMARK    6  A    between atoms: C5_21  and  N7_22 
REMARK    7  A    between atoms: C6_25  and  O5_26 
REMARK    8  A    between atoms: N8_28  and  N9_29 
ROOT
HETATM    1  C3  UNL     1      13.389  43.026   8.934  1.00  0.00     0.108 A 
HETATM    2  N2  UNL     1      14.405  43.795   8.412  1.00  0.00    -0.274 N 
ATOM      3  H2  UNL     1      14.269  44.539   7.728  1.00  0.00     0.189 HD
HETATM    4  N3  UNL     1      15.559  43.451   8.903  1.00  0.00    -0.169 N 
HETATM    5  C4  UNL     1      15.372  42.457   9.760  1.00  0.00     0.192 A 
HETATM    6  N6  UNL     1      16.364  41.759  10.542  1.00  0.00    -0.076 NA
HETATM    7  C5  UNL     1      13.983  42.190   9.777  1.00  0.00     0.176 A 
ENDROOT
BRANCH   1   8
HETATM    8  C2  UNL     1      12.009  43.226   8.475  1.00  0.00     0.091 A 
HETATM    9  S1  UNL     1      11.298  44.786   8.123  1.00  0.00    -0.046 SA
HETATM   10  C1  UNL     1       9.764  44.269   7.638  1.00  0.00     0.166 A 
HETATM   11  N8  UNL     1       9.842  42.958   7.757  1.00  0.00    -0.217 N 
HETATM   12  C6  UNL     1      10.965  42.409   8.177  1.00  0.00     0.183 A 
BRANCH  10  13
HETATM   13  N1  UNL     1       8.752  44.997   7.241  1.00  0.00    -0.378 N 
ATOM     14  H12 UNL     1       8.738  45.982   6.975  1.00  0.00     0.158 HD
ATOM     15  H11 UNL     1       7.779  44.715   7.124  1.00  0.00     0.158 HD
ENDBRANCH  10  13
BRANCH  11  16
HETATM   16  N9  UNL     1       8.689  42.160   7.426  1.00  0.00    -0.334 N 
ATOM     17  H92 UNL     1       7.795  42.587   7.183  1.00  0.00     0.177 HD
ATOM     18  H91 UNL     1       8.775  41.144   7.434  1.00  0.00     0.177 HD
ENDBRANCH  11  16
BRANCH  12  19
HETATM   19  O5  UNL     1      11.071  40.991   8.308  1.00  0.00    -0.344 OA
ATOM     20  H5  UNL     1      10.525  40.406   7.796  1.00  0.00     0.219 HD
ENDBRANCH  12  19
ENDBRANCH   1   8
BRANCH   7  21
HETATM   21  N7  UNL     1      13.452  41.178  10.625  1.00  0.00    -0.110 N 
HETATM   22  O3  UNL     1      13.243  40.052  10.159  1.00  0.00    -0.532 OA
HETATM   23  O4  UNL     1      13.130  41.461  11.913  1.00  0.00    -0.532 OA
ENDBRANCH   7  21
BRANCH   4  24
HETATM   24  N4  UNL     1      16.830  44.005   8.643  1.00  0.00    -0.187 N 
ATOM     25  H4  UNL     1      17.360  44.448   9.393  1.00  0.00     0.203 HD
BRANCH  24  26
HETATM   26  S2  UNL     1      17.473  43.929   7.071  1.00  0.00     0.332 S 
HETATM   27  O1  UNL     1      16.722  42.927   6.230  1.00  0.00    -0.181 OA
HETATM   28  O2  UNL     1      17.409  45.306   6.429  1.00  0.00    -0.181 OA
BRANCH  26  29
HETATM   29  N5  UNL     1      19.133  43.443   7.072  1.00  0.00    -0.310 N 
ATOM     30  H52 UNL     1      19.608  43.085   7.900  1.00  0.00     0.170 HD
ATOM     31  H51 UNL     1      19.566  43.559   6.156  1.00  0.00     0.170 HD
ENDBRANCH  26  29
ENDBRANCH  24  26
ENDBRANCH   4  24
TORSDOF 8
ENDMDL
MODEL 2
REMARK VINA RESULT: -7.101864900      1.283      1.689
REMARK  8 active torsions:
REMARK  status: ('A' for Active; 'I' for Inactive)
REMARK    1  A    between atoms: N1_1  and  C1_4 
REMARK    2  A    between atoms: C2_6  and  C3_7 
REMARK    3  A    between atoms: N3_10  and  N4_11 
REMARK    4  A    between atoms: N4_11  and  S2_13 
REMARK    5  A    between atoms: S2_13  and  N5_14 
REMARK    6  A    between atoms: C5_21  and  N7_22 
REMARK    7  A    between atoms: C6_25  and  O5_26 
REMARK    8  A    between atoms: N8_28  and  N9_29 
ROOT
HETATM    1  C3  UNL     1      13.312  43.001   8.881  1.00  0.00     0.108 A 
HETATM    2  N2  UNL     1      14.318  43.779   8.353  1.00  0.00    -0.274 N 
ATOM      3  H2  UNL     1      14.177  44.500   7.646  1.00  0.00     0.189 HD
HETATM    4  N3  UNL     1      15.472  43.475   8.870  1.00  0.00    -0.169 N 
HETATM    5  C4  UNL     1      15.294  42.500   9.751  1.00  0.00     0.192 A 
HETATM    6  N6  UNL     1      16.289  41.847  10.567  1.00  0.00    -0.076 NA
HETATM    7  C5  UNL     1      13.911  42.203   9.755  1.00  0.00     0.176 A 
ENDROOT
BRANCH   1   8
HETATM    8  C2  UNL     1      11.935  43.158   8.396  1.00  0.00     0.091 A 
HETATM    9  S1  UNL     1      10.842  41.830   8.073  1.00  0.00    -0.046 SA
HETATM   10  C1  UNL     1       9.485  42.721   7.599  1.00  0.00     0.166 A 
HETATM   11  N8  UNL     1       9.899  43.968   7.702  1.00  0.00    -0.217 N 
HETATM   12  C6  UNL     1      11.131  44.213   8.103  1.00  0.00     0.183 A 
BRANCH  10  13
HETATM   13  N1  UNL     1       8.314  42.274   7.225  1.00  0.00    -0.378 N 
ATOM     14  H12 UNL     1       7.686  41.637   7.716  1.00  0.00     0.158 HD
ATOM     15  H11 UNL     1       7.805  42.480   6.366  1.00  0.00     0.158 HD
ENDBRANCH  10  13
BRANCH  11  16
HETATM   16  N9  UNL     1       8.988  45.033   7.367  1.00  0.00    -0.334 N 
ATOM     17  H92 UNL     1       8.152  45.215   7.921  1.00  0.00     0.177 HD
ATOM     18  H91 UNL     1       9.191  45.617   6.556  1.00  0.00     0.177 HD
ENDBRANCH  11  16
BRANCH  12  19
HETATM   19  O5  UNL     1      11.597  45.558   8.225  1.00  0.00    -0.344 OA
ATOM     20  H5  UNL     1      11.726  45.960   9.077  1.00  0.00     0.219 HD
ENDBRANCH  12  19
ENDBRANCH   1   8
BRANCH   7  21
HETATM   21  N7  UNL     1      13.390  41.202  10.624  1.00  0.00    -0.110 N 
HETATM   22  O3  UNL     1      12.794  41.549  11.649  1.00  0.00    -0.532 OA
HETATM   23  O4  UNL     1      13.595  39.887  10.356  1.00  0.00    -0.532 OA
ENDBRANCH   7  21
BRANCH   4  24
HETATM   24  N4  UNL     1      16.734  44.049   8.613  1.00  0.00    -0.187 N 
ATOM     25  H4  UNL     1      17.246  44.518   9.361  1.00  0.00     0.203 HD
BRANCH  24  26
HETATM   26  S2  UNL     1      17.397  43.957   7.051  1.00  0.00     0.332 S 
HETATM   27  O1  UNL     1      16.625  42.982   6.196  1.00  0.00    -0.181 OA
HETATM   28  O2  UNL     1      17.387  45.337   6.412  1.00  0.00    -0.181 OA
BRANCH  26  29
HETATM   29  N5  UNL     1      19.040  43.417   7.074  1.00  0.00    -0.310 N 
ATOM     30  H52 UNL     1      19.420  42.758   6.394  1.00  0.00     0.170 HD
ATOM     31  H51 UNL     1      19.569  43.833   7.839  1.00  0.00     0.170 HD
ENDBRANCH  26  29
ENDBRANCH  24  26
ENDBRANCH   4  24
TORSDOF 8
ENDMDL
MODEL 3
REMARK VINA RESULT: -7.045362484      2.705      4.165
REMARK  8 active torsions:
REMARK  status: ('A' for Active; 'I' for Inactive)
REMARK    1  A    between atoms: N1_1  and  C1_4 
REMARK    2  A    between atoms: C2_6  and  C3_7 
REMARK    3  A    between atoms: N3_10  and  N4_11 
REMARK    4  A    between atoms: N4_11  and  S2_13 
REMARK    5  A    between atoms: S2_13  and  N5_14 
REMARK    6  A    between atoms: C5_21  and  N7_22 
REMARK    7  A    between atoms: C6_25  and  O5_26 
REMARK    8  A    between atoms: N8_28  and  N9_29 
ROOT
HETATM    1  C3  UNL     1      11.919  43.523   7.761  1.00  0.00     0.108 A 
HETATM    2  N2  UNL     1      12.796  43.087   8.728  1.00  0.00    -0.274 N 
ATOM      3  H2  UNL     1      12.619  42.302   9.353  1.00  0.00     0.189 HD
HETATM    4  N3  UNL     1      13.880  43.806   8.741  1.00  0.00    -0.169 N 
HETATM    5  C4  UNL     1      13.779  44.736   7.802  1.00  0.00     0.192 A 
HETATM    6  N6  UNL     1      14.740  45.756   7.454  1.00  0.00    -0.076 NA
HETATM    7  C5  UNL     1      12.524  44.550   7.178  1.00  0.00     0.176 A 
ENDROOT
BRANCH   1   8
HETATM    8  C2  UNL     1      10.612  42.871   7.610  1.00  0.00     0.091 A 
HETATM    9  S1  UNL     1       9.156  43.680   7.077  1.00  0.00    -0.046 SA
HETATM   10  C1  UNL     1       8.099  42.361   7.108  1.00  0.00     0.166 A 
HETATM   11  N8  UNL     1       8.872  41.373   7.512  1.00  0.00    -0.217 N 
HETATM   12  C6  UNL     1      10.143  41.605   7.770  1.00  0.00     0.183 A 
BRANCH  10  13
HETATM   13  N1  UNL     1       6.827  42.336   6.802  1.00  0.00    -0.378 N 
ATOM     14  H12 UNL     1       6.219  43.108   6.530  1.00  0.00     0.158 HD
ATOM     15  H11 UNL     1       6.200  41.532   6.779  1.00  0.00     0.158 HD
ENDBRANCH  10  13
BRANCH  11  16
HETATM   16  N9  UNL     1       8.298  40.060   7.663  1.00  0.00    -0.334 N 
ATOM     17  H92 UNL     1       7.299  39.896   7.544  1.00  0.00     0.177 HD
ATOM     18  H91 UNL     1       8.912  39.278   7.893  1.00  0.00     0.177 HD
ENDBRANCH  11  16
BRANCH  12  19
HETATM   19  O5  UNL     1      10.998  40.546   8.205  1.00  0.00    -0.344 OA
ATOM     20  H5  UNL     1      11.249  40.458   9.117  1.00  0.00     0.219 HD
ENDBRANCH  12  19
ENDBRANCH   1   8
BRANCH   7  21
HETATM   21  N7  UNL     1      12.123  45.389   6.100  1.00  0.00    -0.110 N 
HETATM   22  O3  UNL     1      11.585  46.473   6.351  1.00  0.00    -0.532 OA
HETATM   23  O4  UNL     1      12.279  44.977   4.815  1.00  0.00    -0.532 OA
ENDBRANCH   7  21
BRANCH   4  24
HETATM   24  N4  UNL     1      15.020  43.670   9.561  1.00  0.00    -0.187 N 
ATOM     25  H4  UNL     1      15.726  44.406   9.585  1.00  0.00     0.203 HD
BRANCH  24  26
HETATM   26  S2  UNL     1      15.211  42.272  10.509  1.00  0.00     0.332 S 
HETATM   27  O1  UNL     1      13.931  41.934  11.233  1.00  0.00    -0.181 OA
HETATM   28  O2  UNL     1      15.635  41.112   9.623  1.00  0.00    -0.181 OA
BRANCH  26  29
HETATM   29  N5  UNL     1      16.436  42.468  11.715  1.00  0.00    -0.310 N 
ATOM     30  H52 UNL     1      17.257  43.059  11.584  1.00  0.00     0.170 HD
ATOM     31  H51 UNL     1      16.235  41.927  12.555  1.00  0.00     0.170 HD
ENDBRANCH  26  29
ENDBRANCH  24  26
ENDBRANCH   4  24
TORSDOF 8
ENDMDL
MODEL 4
REMARK VINA RESULT: -6.936400656      2.755      4.356
REMARK  8 active torsions:
REMARK  status: ('A' for Active; 'I' for Inactive)
REMARK    1  A    between atoms: N1_1  and  C1_4 
REMARK    2  A    between atoms: C2_6  and  C3_7 
REMARK    3  A    between atoms: N3_10  and  N4_11 
REMARK    4  A    between atoms: N4_11  and  S2_13 
REMARK    5  A    between atoms: S2_13  and  N5_14 
REMARK    6  A    between atoms: C5_21  and  N7_22 
REMARK    7  A    between atoms: C6_25  and  O5_26 
REMARK    8  A    between atoms: N8_28  and  N9_29 
ROOT
HETATM    1  C3  UNL     1      12.208  43.846   7.695  1.00  0.00     0.108 A 
HETATM    2  N2  UNL     1      13.067  43.307   8.627  1.00  0.00    -0.274 N 
ATOM      3  H2  UNL     1      12.841  42.513   9.225  1.00  0.00     0.189 HD
HETATM    4  N3  UNL     1      14.202  43.942   8.645  1.00  0.00    -0.169 N 
HETATM    5  C4  UNL     1      14.156  44.913   7.744  1.00  0.00     0.192 A 
HETATM    6  N6  UNL     1      15.185  45.870   7.415  1.00  0.00    -0.076 NA
HETATM    7  C5  UNL     1      12.880  44.846   7.139  1.00  0.00     0.176 A 
ENDROOT
BRANCH   1   8
HETATM    8  C2  UNL     1      10.853  43.300   7.546  1.00  0.00     0.091 A 
HETATM    9  S1  UNL     1      10.465  41.594   7.564  1.00  0.00    -0.046 SA
HETATM   10  C1  UNL     1       8.788  41.707   7.382  1.00  0.00     0.166 A 
HETATM   11  N8  UNL     1       8.585  43.008   7.316  1.00  0.00    -0.217 N 
HETATM   12  C6  UNL     1       9.611  43.831   7.398  1.00  0.00     0.183 A 
BRANCH  10  13
HETATM   13  N1  UNL     1       7.913  40.736   7.323  1.00  0.00    -0.378 N 
ATOM     14  H12 UNL     1       7.770  39.963   7.973  1.00  0.00     0.158 HD
ATOM     15  H11 UNL     1       7.204  40.568   6.609  1.00  0.00     0.158 HD
ENDBRANCH  10  13
BRANCH  11  16
HETATM   16  N9  UNL     1       7.238  43.493   7.152  1.00  0.00    -0.334 N 
ATOM     17  H92 UNL     1       6.521  43.329   7.858  1.00  0.00     0.177 HD
ATOM     18  H91 UNL     1       7.003  44.015   6.308  1.00  0.00     0.177 HD
ENDBRANCH  11  16
BRANCH  12  19
HETATM   19  O5  UNL     1       9.411  45.244   7.333  1.00  0.00    -0.344 OA
ATOM     20  H5  UNL     1       9.012  45.652   6.574  1.00  0.00     0.219 HD
ENDBRANCH  12  19
ENDBRANCH   1   8
BRANCH   7  21
HETATM   21  N7  UNL     1      12.524  45.754   6.101  1.00  0.00    -0.110 N 
HETATM   22  O3  UNL     1      11.722  46.663   6.348  1.00  0.00    -0.532 OA
HETATM   23  O4  UNL     1      13.016  45.590   4.847  1.00  0.00    -0.532 OA
ENDBRANCH   7  21
BRANCH   4  24
HETATM   24  N4  UNL     1      15.342  43.688   9.436  1.00  0.00    -0.187 N 
ATOM     25  H4  UNL     1      16.143  44.319   9.398  1.00  0.00     0.203 HD
BRANCH  24  26
HETATM   26  S2  UNL     1      15.374  42.326  10.451  1.00  0.00     0.332 S 
HETATM   27  O1  UNL     1      14.019  42.082  11.067  1.00  0.00    -0.181 OA
HETATM   28  O2  UNL     1      15.816  41.108   9.654  1.00  0.00    -0.181 OA
BRANCH  26  29
HETATM   29  N5  UNL     1      16.495  42.515  11.756  1.00  0.00    -0.310 N 
ATOM     30  H52 UNL     1      17.064  43.351  11.885  1.00  0.00     0.170 HD
ATOM     31  H51 UNL     1      16.513  41.698  12.366  1.00  0.00     0.170 HD
ENDBRANCH  26  29
ENDBRANCH  24  26
ENDBRANCH   4  24
TORSDOF 8
ENDMDL
MODEL 5
REMARK VINA RESULT: -6.878799532      4.008      6.833
REMARK  8 active torsions:
REMARK  status: ('A' for Active; 'I' for Inactive)
REMARK    1  A    between atoms: N1_1  and  C1_4 
REMARK    2  A    between atoms: C2_6  and  C3_7 
REMARK    3  A    between atoms: N3_10  and  N4_11 
REMARK    4  A    between atoms: N4_11  and  S2_13 
REMARK    5  A    between atoms: S2_13  and  N5_14 
REMARK    6  A    between atoms: C5_21  and  N7_22 
REMARK    7  A    between atoms: C6_25  and  O5_26 
REMARK    8  A    between atoms: N8_28  and  N9_29 
ROOT
HETATM    1  C3  UNL     1      16.452  42.208   6.358  1.00  0.00     0.108 A 
HETATM    2  N2  UNL     1      16.156  41.921   7.672  1.00  0.00    -0.274 N 
ATOM      3  H2  UNL     1      16.125  40.979   8.061  1.00  0.00     0.189 HD
HETATM    4  N3  UNL     1      15.922  43.004   8.352  1.00  0.00    -0.169 N 
HETATM    5  C4  UNL     1      16.050  44.045   7.541  1.00  0.00     0.192 A 
HETATM    6  N6  UNL     1      15.884  45.444   7.857  1.00  0.00    -0.076 NA
HETATM    7  C5  UNL     1      16.390  43.531   6.269  1.00  0.00     0.176 A 
ENDROOT
BRANCH   1   8
HETATM    8  C2  UNL     1      16.706  41.117   5.409  1.00  0.00     0.091 A 
HETATM    9  S1  UNL     1      16.206  41.127   3.732  1.00  0.00    -0.046 SA
HETATM   10  C1  UNL     1      16.839  39.631   3.265  1.00  0.00     0.166 A 
HETATM   11  N8  UNL     1      17.396  39.185   4.373  1.00  0.00    -0.217 N 
HETATM   12  C6  UNL     1      17.343  39.918   5.467  1.00  0.00     0.183 A 
BRANCH  10  13
HETATM   13  N1  UNL     1      16.785  39.061   2.087  1.00  0.00    -0.378 N 
ATOM     14  H12 UNL     1      16.111  39.209   1.336  1.00  0.00     0.158 HD
ATOM     15  H11 UNL     1      17.411  38.357   1.698  1.00  0.00     0.158 HD
ENDBRANCH  10  13
BRANCH  11  16
HETATM   16  N9  UNL     1      18.048  37.900   4.356  1.00  0.00    -0.334 N 
ATOM     17  H92 UNL     1      18.539  37.561   3.529  1.00  0.00     0.177 HD
ATOM     18  H91 UNL     1      18.017  37.322   5.195  1.00  0.00     0.177 HD
ENDBRANCH  11  16
BRANCH  12  19
HETATM   19  O5  UNL     1      17.945  39.456   6.677  1.00  0.00    -0.344 OA
ATOM     20  H5  UNL     1      18.613  38.781   6.669  1.00  0.00     0.219 HD
ENDBRANCH  12  19
ENDBRANCH   1   8
BRANCH   7  21
HETATM   21  N7  UNL     1      16.619  44.410   5.172  1.00  0.00    -0.110 N 
HETATM   22  O3  UNL     1      17.761  44.843   4.979  1.00  0.00    -0.532 OA
HETATM   23  O4  UNL     1      15.588  44.809   4.385  1.00  0.00    -0.532 OA
ENDBRANCH   7  21
BRANCH   4  24
HETATM   24  N4  UNL     1      15.608  43.137   9.720  1.00  0.00    -0.187 N 
ATOM     25  H4  UNL     1      15.828  44.001  10.216  1.00  0.00     0.203 HD
BRANCH  24  26
HETATM   26  S2  UNL     1      14.859  41.849  10.539  1.00  0.00     0.332 S 
HETATM   27  O1  UNL     1      15.362  40.522  10.028  1.00  0.00    -0.181 OA
HETATM   28  O2  UNL     1      15.126  41.972  12.031  1.00  0.00    -0.181 OA
BRANCH  26  29
HETATM   29  N5  UNL     1      13.143  41.855  10.325  1.00  0.00    -0.310 N 
ATOM     30  H52 UNL     1      12.655  42.538   9.746  1.00  0.00     0.170 HD
ATOM     31  H51 UNL     1      12.691  41.101  10.843  1.00  0.00     0.170 HD
ENDBRANCH  26  29
ENDBRANCH  24  26
ENDBRANCH   4  24
TORSDOF 8
ENDMDL
