MODEL 1
REMARK VINA RESULT: -6.932145320      0.000      0.000
REMARK  7 active torsions:
REMARK  status: ('A' for Active; 'I' for Inactive)
REMARK    1  A    between atoms: C2_3  and  O1_4 
REMARK    2  A    between atoms: C3_6  and  C4_7 
REMARK    3  A    between atoms: C4_7  and  O2_8 
REMARK    4  A    between atoms: N2_10  and  N3_12 
REMARK    5  A    between atoms: C5_13  and  N4_14 
REMARK    6  A    between atoms: C6_17  and  C7_18 
REMARK       I    between atoms: C7_18  and  N5_20 
REMARK    7  A    between atoms: N5_20  and  N6_22 
ROOT
HETATM    1  N3  UNL     1      12.869  43.451   7.506  1.00  0.00    -0.059 N 
HETATM    2  C5  UNL     1      13.400  43.143   8.739  1.00  0.00     0.245 A 
HETATM    3  C6  UNL     1      14.554  43.881   8.884  1.00  0.00     0.171 A 
HETATM    4  N7  UNL     1      14.650  44.596   7.716  1.00  0.00    -0.181 N 
ATOM      5  H7  UNL     1      15.403  45.249   7.500  1.00  0.00     0.184 HD
HETATM    6  C8  UNL     1      13.642  44.328   6.912  1.00  0.00     0.700 A 
HETATM    7  N8  UNL     1      13.474  44.855   5.746  1.00  0.00    -0.233 N 
ATOM      8  H81 UNL     1      14.076  45.537   5.285  1.00  0.00     0.174 HD
ATOM      9  H82 UNL     1      12.693  44.647   5.124  1.00  0.00     0.174 HD
ENDROOT
BRANCH   1  10
HETATM   10  N2  UNL     1      11.685  42.916   6.956  1.00  0.00    -0.255 N 
HETATM   11  C4  UNL     1      10.571  43.493   7.150  1.00  0.00     0.195 C 
ATOM     12  H2  UNL     1      11.725  42.063   6.400  1.00  0.00     0.190 HD
BRANCH  11  13
HETATM   13  C3  UNL     1       9.362  42.921   6.571  1.00  0.00     0.183 A 
HETATM   14  C2  UNL     1       8.768  41.718   6.892  1.00  0.00     0.185 A 
HETATM   15  N1  UNL     1       7.656  41.555   6.118  1.00  0.00    -0.276 N 
HETATM   16  C1  UNL     1       6.776  40.402   6.182  1.00  0.00     0.164 C 
HETATM   17  C9  UNL     1       7.605  42.647   5.359  1.00  0.00     0.374 A 
HETATM   18  O6  UNL     1       8.606  43.438   5.631  1.00  0.00    -0.252 OA
HETATM   19  O7  UNL     1       6.720  42.887   4.499  1.00  0.00    -0.237 OA
BRANCH  14  20
HETATM   20  O1  UNL     1       9.208  40.812   7.838  1.00  0.00    -0.344 OA
ATOM     21  H1  UNL     1       9.492  41.040   8.716  1.00  0.00     0.219 HD
ENDBRANCH  14  20
ENDBRANCH  11  13
BRANCH  11  22
HETATM   22  O2  UNL     1      10.500  44.648   7.900  1.00  0.00    -0.343 OA
ATOM     23  H2  UNL     1      11.291  45.035   8.255  1.00  0.00     0.219 HD
ENDBRANCH  11  22
ENDBRANCH   1  10
BRANCH   2  24
HETATM   24  N4  UNL     1      12.799  42.224   9.627  1.00  0.00    -0.093 N 
HETATM   25  O3  UNL     1      13.111  42.328  10.867  1.00  0.00    -0.530 OA
HETATM   26  O4  UNL     1      11.922  41.246   9.287  1.00  0.00    -0.530 OA
ENDBRANCH   2  24
BRANCH   3  27
HETATM   27  C7  UNL     1      15.490  43.930   9.990  1.00  0.00     0.290 C 
HETATM   28  O5  UNL     1      15.968  44.939  10.532  1.00  0.00    -0.264 OA
HETATM   29  N5  UNL     1      15.934  42.675  10.544  1.00  0.00    -0.271 N 
ATOM     30  H5  UNL     1      15.597  41.790  10.165  1.00  0.00     0.189 HD
BRANCH  29  31
HETATM   31  N6  UNL     1      16.848  42.697  11.626  1.00  0.00    -0.342 N 
ATOM     32  H62 UNL     1      16.548  43.046  12.536  1.00  0.00     0.176 HD
ATOM     33  H61 UNL     1      17.798  42.359  11.468  1.00  0.00     0.176 HD
ENDBRANCH  29  31
ENDBRANCH   3  27
TORSDOF 7
ENDMDL
MODEL 2
REMARK VINA RESULT: -6.737831387      2.216      7.356
REMARK  7 active torsions:
REMARK  status: ('A' for Active; 'I' for Inactive)
REMARK    1  A    between atoms: C2_3  and  O1_4 
REMARK    2  A    between atoms: C3_6  and  C4_7 
REMARK    3  A    between atoms: C4_7  and  O2_8 
REMARK    4  A    between atoms: N2_10  and  N3_12 
REMARK    5  A    between atoms: C5_13  and  N4_14 
REMARK    6  A    between atoms: C6_17  and  C7_18 
REMARK       I    between atoms: C7_18  and  N5_20 
REMARK    7  A    between atoms: N5_20  and  N6_22 
ROOT
HETATM    1  N3  UNL     1       9.462  42.879   6.952  1.00  0.00    -0.059 N 
HETATM    2  C5  UNL     1       9.059  42.102   5.888  1.00  0.00     0.245 A 
HETATM    3  C6  UNL     1       8.176  42.852   5.143  1.00  0.00     0.171 A 
HETATM    4  N7  UNL     1       8.099  44.049   5.811  1.00  0.00    -0.181 N 
ATOM      5  H7  UNL     1       7.521  44.837   5.519  1.00  0.00     0.184 HD
HETATM    6  C8  UNL     1       8.868  44.046   6.881  1.00  0.00     0.700 A 
HETATM    7  N8  UNL     1       8.992  45.037   7.697  1.00  0.00    -0.233 N 
ATOM      8  H81 UNL     1       8.530  45.944   7.642  1.00  0.00     0.174 HD
ATOM      9  H82 UNL     1       9.588  45.034   8.525  1.00  0.00     0.174 HD
ENDROOT
BRANCH   1  10
HETATM   10  N2  UNL     1      10.366  42.495   7.964  1.00  0.00    -0.255 N 
HETATM   11  C4  UNL     1      11.613  42.682   7.814  1.00  0.00     0.195 C 
ATOM     12  H2  UNL     1      10.017  42.064   8.820  1.00  0.00     0.190 HD
BRANCH  11  13
HETATM   13  C3  UNL     1      12.527  42.277   8.875  1.00  0.00     0.183 A 
HETATM   14  C2  UNL     1      13.769  42.807   9.158  1.00  0.00     0.185 A 
HETATM   15  N1  UNL     1      14.297  42.145  10.227  1.00  0.00    -0.276 N 
HETATM   16  C1  UNL     1      15.596  42.434  10.809  1.00  0.00     0.164 C 
HETATM   17  C9  UNL     1      13.375  41.245  10.562  1.00  0.00     0.374 A 
HETATM   18  O6  UNL     1      12.345  41.331   9.765  1.00  0.00    -0.252 OA
HETATM   19  O7  UNL     1      13.478  40.426  11.510  1.00  0.00    -0.237 OA
BRANCH  14  20
HETATM   20  O1  UNL     1      14.395  43.837   8.482  1.00  0.00    -0.344 OA
ATOM     21  H1  UNL     1      14.848  43.744   7.652  1.00  0.00     0.219 HD
ENDBRANCH  14  20
ENDBRANCH  11  13
BRANCH  11  22
HETATM   22  O2  UNL     1      12.102  43.263   6.663  1.00  0.00    -0.343 OA
ATOM     23  H2  UNL     1      12.154  42.759   5.860  1.00  0.00     0.219 HD
ENDBRANCH  11  22
ENDBRANCH   1  10
BRANCH   2  24
HETATM   24  N4  UNL     1       9.523  40.784   5.679  1.00  0.00    -0.093 N 
HETATM   25  O3  UNL     1       9.327  39.944   6.628  1.00  0.00    -0.530 OA
HETATM   26  O4  UNL     1      10.155  40.330   4.567  1.00  0.00    -0.530 OA
ENDBRANCH   2  24
BRANCH   3  27
HETATM   27  C7  UNL     1       7.464  42.509   3.928  1.00  0.00     0.290 C 
HETATM   28  O5  UNL     1       6.841  43.275   3.175  1.00  0.00    -0.264 OA
HETATM   29  N5  UNL     1       7.461  41.125   3.526  1.00  0.00    -0.271 N 
ATOM     30  H5  UNL     1       7.944  40.420   4.082  1.00  0.00     0.189 HD
BRANCH  29  31
HETATM   31  N6  UNL     1       6.771  40.764   2.342  1.00  0.00    -0.342 N 
ATOM     32  H62 UNL     1       7.180  40.979   1.432  1.00  0.00     0.176 HD
ATOM     33  H61 UNL     1       5.870  40.293   2.427  1.00  0.00     0.176 HD
ENDBRANCH  29  31
ENDBRANCH   3  27
TORSDOF 7
ENDMDL
MODEL 3
REMARK VINA RESULT: -6.654553958      8.714     11.010
REMARK  7 active torsions:
REMARK  status: ('A' for Active; 'I' for Inactive)
REMARK    1  A    between atoms: C2_3  and  O1_4 
REMARK    2  A    between atoms: C3_6  and  C4_7 
REMARK    3  A    between atoms: C4_7  and  O2_8 
REMARK    4  A    between atoms: N2_10  and  N3_12 
REMARK    5  A    between atoms: C5_13  and  N4_14 
REMARK    6  A    between atoms: C6_17  and  C7_18 
REMARK       I    between atoms: C7_18  and  N5_20 
REMARK    7  A    between atoms: N5_20  and  N6_22 
ROOT
HETATM    1  N3  UNL     1      18.742  41.703   4.140  1.00  0.00    -0.059 N 
HETATM    2  C5  UNL     1      18.370  40.435   4.529  1.00  0.00     0.245 A 
HETATM    3  C6  UNL     1      17.733  40.548   5.745  1.00  0.00     0.171 A 
HETATM    4  N7  UNL     1      17.761  41.892   6.020  1.00  0.00    -0.181 N 
ATOM      5  H7  UNL     1      17.368  42.318   6.859  1.00  0.00     0.184 HD
HETATM    6  C8  UNL     1      18.363  42.561   5.057  1.00  0.00     0.700 A 
HETATM    7  N8  UNL     1      18.533  43.839   5.048  1.00  0.00    -0.233 N 
ATOM      8  H81 UNL     1      18.238  44.506   5.761  1.00  0.00     0.174 HD
ATOM      9  H82 UNL     1      18.999  44.357   4.302  1.00  0.00     0.174 HD
ENDROOT
BRANCH   1  10
HETATM   10  N2  UNL     1      19.422  42.040   2.952  1.00  0.00    -0.255 N 
HETATM   11  C4  UNL     1      20.686  41.949   2.889  1.00  0.00     0.195 C 
ATOM     12  H2  UNL     1      18.895  42.360   2.139  1.00  0.00     0.190 HD
BRANCH  11  13
HETATM   13  C3  UNL     1      21.366  42.303   1.649  1.00  0.00     0.183 A 
HETATM   14  C2  UNL     1      22.457  43.134   1.500  1.00  0.00     0.185 A 
HETATM   15  N1  UNL     1      22.782  43.201   0.177  1.00  0.00    -0.276 N 
HETATM   16  C1  UNL     1      23.882  43.983  -0.357  1.00  0.00     0.164 C 
HETATM   17  C9  UNL     1      21.894  42.421  -0.434  1.00  0.00     0.374 A 
HETATM   18  O6  UNL     1      21.070  41.901   0.436  1.00  0.00    -0.252 OA
HETATM   19  O7  UNL     1      21.848  42.212  -1.672  1.00  0.00    -0.237 OA
BRANCH  14  20
HETATM   20  O1  UNL     1      23.127  43.798   2.510  1.00  0.00    -0.344 OA
ATOM     21  H1  UNL     1      23.622  43.374   3.201  1.00  0.00     0.219 HD
ENDBRANCH  14  20
ENDBRANCH  11  13
BRANCH  11  22
HETATM   22  O2  UNL     1      21.413  41.519   3.979  1.00  0.00    -0.343 OA
ATOM     23  H2  UNL     1      20.967  41.193   4.751  1.00  0.00     0.219 HD
ENDBRANCH  11  22
ENDBRANCH   1  10
BRANCH   2  24
HETATM   24  N4  UNL     1      18.636  39.284   3.753  1.00  0.00    -0.093 N 
HETATM   25  O3  UNL     1      18.104  39.236   2.587  1.00  0.00    -0.530 OA
HETATM   26  O4  UNL     1      19.402  38.230   4.131  1.00  0.00    -0.530 OA
ENDBRANCH   2  24
BRANCH   3  27
HETATM   27  C7  UNL     1      17.151  39.520   6.586  1.00  0.00     0.290 C 
HETATM   28  O5  UNL     1      16.666  39.657   7.720  1.00  0.00    -0.264 OA
HETATM   29  N5  UNL     1      17.120  38.174   6.069  1.00  0.00    -0.271 N 
ATOM     30  H5  UNL     1      17.496  37.963   5.145  1.00  0.00     0.189 HD
BRANCH  29  31
HETATM   31  N6  UNL     1      16.556  37.153   6.872  1.00  0.00    -0.342 N 
ATOM     32  H62 UNL     1      16.820  37.077   7.854  1.00  0.00     0.176 HD
ATOM     33  H61 UNL     1      15.891  36.508   6.445  1.00  0.00     0.176 HD
ENDBRANCH  29  31
ENDBRANCH   3  27
TORSDOF 7
ENDMDL
MODEL 4
REMARK VINA RESULT: -6.653289378      7.224      9.615
REMARK  7 active torsions:
REMARK  status: ('A' for Active; 'I' for Inactive)
REMARK    1  A    between atoms: C2_3  and  O1_4 
REMARK    2  A    between atoms: C3_6  and  C4_7 
REMARK    3  A    between atoms: C4_7  and  O2_8 
REMARK    4  A    between atoms: N2_10  and  N3_12 
REMARK    5  A    between atoms: C5_13  and  N4_14 
REMARK    6  A    between atoms: C6_17  and  C7_18 
REMARK       I    between atoms: C7_18  and  N5_20 
REMARK    7  A    between atoms: N5_20  and  N6_22 
ROOT
HETATM    1  N3  UNL     1      17.509  40.893   5.009  1.00  0.00    -0.059 N 
HETATM    2  C5  UNL     1      17.644  39.700   4.335  1.00  0.00     0.245 A 
HETATM    3  C6  UNL     1      17.423  38.688   5.242  1.00  0.00     0.171 A 
HETATM    4  N7  UNL     1      17.167  39.339   6.422  1.00  0.00    -0.181 N 
ATOM      5  H7  UNL     1      16.961  38.873   7.306  1.00  0.00     0.184 HD
HETATM    6  C8  UNL     1      17.221  40.646   6.265  1.00  0.00     0.700 A 
HETATM    7  N8  UNL     1      17.022  41.507   7.205  1.00  0.00    -0.233 N 
ATOM      8  H81 UNL     1      16.799  41.314   8.181  1.00  0.00     0.174 HD
ATOM      9  H82 UNL     1      17.064  42.519   7.082  1.00  0.00     0.174 HD
ENDROOT
BRANCH   1  10
HETATM   10  N2  UNL     1      17.653  42.181   4.454  1.00  0.00    -0.255 N 
HETATM   11  C4  UNL     1      18.803  42.710   4.353  1.00  0.00     0.195 C 
ATOM     12  H2  UNL     1      16.831  42.691   4.132  1.00  0.00     0.190 HD
BRANCH  11  13
HETATM   13  C3  UNL     1      18.926  44.042   3.774  1.00  0.00     0.183 A 
HETATM   14  C2  UNL     1      18.196  45.167   4.100  1.00  0.00     0.185 A 
HETATM   15  N1  UNL     1      18.621  46.207   3.326  1.00  0.00    -0.276 N 
HETATM   16  C1  UNL     1      18.079  47.552   3.394  1.00  0.00     0.164 C 
HETATM   17  C9  UNL     1      19.584  45.695   2.563  1.00  0.00     0.374 A 
HETATM   18  O6  UNL     1      19.754  44.429   2.833  1.00  0.00    -0.252 OA
HETATM   19  O7  UNL     1      20.238  46.335   1.702  1.00  0.00    -0.237 OA
BRANCH  14  20
HETATM   20  O1  UNL     1      17.196  45.250   5.050  1.00  0.00    -0.344 OA
ATOM     21  H1  UNL     1      16.749  44.503   5.432  1.00  0.00     0.219 HD
ENDBRANCH  14  20
ENDBRANCH  11  13
BRANCH  11  22
HETATM   22  O2  UNL     1      19.926  42.035   4.782  1.00  0.00    -0.343 OA
ATOM     23  H2  UNL     1      19.841  41.294   5.370  1.00  0.00     0.219 HD
ENDBRANCH  11  22
ENDBRANCH   1  10
BRANCH   2  24
HETATM   24  N4  UNL     1      17.953  39.626   2.958  1.00  0.00    -0.093 N 
HETATM   25  O3  UNL     1      19.134  39.985   2.610  1.00  0.00    -0.530 OA
HETATM   26  O4  UNL     1      17.115  39.211   1.975  1.00  0.00    -0.530 OA
ENDBRANCH   2  24
BRANCH   3  27
HETATM   27  C7  UNL     1      17.446  37.251   5.051  1.00  0.00     0.290 C 
HETATM   28  O5  UNL     1      18.052  36.407   5.731  1.00  0.00    -0.264 OA
HETATM   29  N5  UNL     1      16.684  36.712   3.951  1.00  0.00    -0.271 N 
ATOM     30  H5  UNL     1      16.153  37.327   3.336  1.00  0.00     0.189 HD
BRANCH  29  31
HETATM   31  N6  UNL     1      16.690  35.311   3.745  1.00  0.00    -0.342 N 
ATOM     32  H62 UNL     1      17.119  34.699   4.439  1.00  0.00     0.176 HD
ATOM     33  H61 UNL     1      16.262  34.941   2.896  1.00  0.00     0.176 HD
ENDBRANCH  29  31
ENDBRANCH   3  27
TORSDOF 7
ENDMDL
MODEL 5
REMARK VINA RESULT: -6.620347712      5.819      8.049
REMARK  7 active torsions:
REMARK  status: ('A' for Active; 'I' for Inactive)
REMARK    1  A    between atoms: C2_3  and  O1_4 
REMARK    2  A    between atoms: C3_6  and  C4_7 
REMARK    3  A    between atoms: C4_7  and  O2_8 
REMARK    4  A    between atoms: N2_10  and  N3_12 
REMARK    5  A    between atoms: C5_13  and  N4_14 
REMARK    6  A    between atoms: C6_17  and  C7_18 
REMARK       I    between atoms: C7_18  and  N5_20 
REMARK    7  A    between atoms: N5_20  and  N6_22 
ROOT
HETATM    1  N3  UNL     1      18.022  42.539   4.732  1.00  0.00    -0.059 N 
HETATM    2  C5  UNL     1      19.350  42.899   4.664  1.00  0.00     0.245 A 
HETATM    3  C6  UNL     1      19.842  42.428   3.467  1.00  0.00     0.171 A 
HETATM    4  N7  UNL     1      18.770  41.805   2.880  1.00  0.00    -0.181 N 
ATOM      5  H7  UNL     1      18.797  41.343   1.970  1.00  0.00     0.184 HD
HETATM    6  C8  UNL     1      17.699  41.881   3.645  1.00  0.00     0.700 A 
HETATM    7  N8  UNL     1      16.548  41.383   3.346  1.00  0.00    -0.233 N 
ATOM      8  H81 UNL     1      16.297  40.872   2.500  1.00  0.00     0.174 HD
ATOM      9  H82 UNL     1      15.720  41.442   3.938  1.00  0.00     0.174 HD
ENDROOT
BRANCH   1  10
HETATM   10  N2  UNL     1      17.139  42.823   5.794  1.00  0.00    -0.255 N 
HETATM   11  C4  UNL     1      17.096  42.065   6.812  1.00  0.00     0.195 C 
ATOM     12  H2  UNL     1      16.532  43.641   5.745  1.00  0.00     0.190 HD
BRANCH  11  13
HETATM   13  C3  UNL     1      16.175  42.381   7.897  1.00  0.00     0.183 A 
HETATM   14  C2  UNL     1      15.786  41.555   8.932  1.00  0.00     0.185 A 
HETATM   15  N1  UNL     1      14.913  42.233   9.731  1.00  0.00    -0.276 N 
HETATM   16  C1  UNL     1      14.293  41.679  10.922  1.00  0.00     0.164 C 
HETATM   17  C9  UNL     1      14.797  43.435   9.170  1.00  0.00     0.374 A 
HETATM   18  O6  UNL     1      15.539  43.510   8.099  1.00  0.00    -0.252 OA
HETATM   19  O7  UNL     1      14.076  44.367   9.606  1.00  0.00    -0.237 OA
BRANCH  14  20
HETATM   20  O1  UNL     1      16.199  40.253   9.143  1.00  0.00    -0.344 OA
ATOM     21  H1  UNL     1      15.649  39.486   9.034  1.00  0.00     0.219 HD
ENDBRANCH  14  20
ENDBRANCH  11  13
BRANCH  11  22
HETATM   22  O2  UNL     1      17.910  40.955   6.895  1.00  0.00    -0.343 OA
ATOM     23  H2  UNL     1      17.538  40.105   7.097  1.00  0.00     0.219 HD
ENDBRANCH  11  22
ENDBRANCH   1  10
BRANCH   2  24
HETATM   24  N4  UNL     1      20.004  43.622   5.687  1.00  0.00    -0.093 N 
HETATM   25  O3  UNL     1      20.184  43.014   6.801  1.00  0.00    -0.530 OA
HETATM   26  O4  UNL     1      20.457  44.898   5.594  1.00  0.00    -0.530 OA
ENDBRANCH   2  24
BRANCH   3  27
HETATM   27  C7  UNL     1      21.175  42.536   2.906  1.00  0.00     0.290 C 
HETATM   28  O5  UNL     1      21.840  41.640   2.361  1.00  0.00    -0.264 OA
HETATM   29  N5  UNL     1      21.826  43.820   2.977  1.00  0.00    -0.271 N 
ATOM     30  H5  UNL     1      21.359  44.617   3.408  1.00  0.00     0.189 HD
BRANCH  29  31
HETATM   31  N6  UNL     1      23.129  43.950   2.436  1.00  0.00    -0.342 N 
ATOM     32  H62 UNL     1      23.441  43.307   1.708  1.00  0.00     0.176 HD
ATOM     33  H61 UNL     1      23.733  44.692   2.790  1.00  0.00     0.176 HD
ENDBRANCH  29  31
ENDBRANCH   3  27
TORSDOF 7
ENDMDL
