MODEL 1
REMARK VINA RESULT: -5.044079866      0.000      0.000
REMARK  2 active torsions:
REMARK  status: ('A' for Active; 'I' for Inactive)
REMARK       I    between atoms: C1_4  and  N2_5 
REMARK       I    between atoms: C1_4  and  N4_10 
REMARK    1  A    between atoms: N2_5  and  N3_7 
REMARK    2  A    between atoms: N5_13  and  N6_14 
ROOT
HETATM    1  N1  UNL     1      46.865  -4.235  14.253  1.00  0.00    -0.232 N 
ATOM      2  H11 UNL     1      46.270  -3.431  14.452  1.00  0.00     0.174 HD
ATOM      3  H12 UNL     1      47.174  -4.888  14.974  1.00  0.00     0.174 HD
HETATM    4  C1  UNL     1      47.241  -4.431  13.034  1.00  0.00     0.707 C 
HETATM    5  N2  UNL     1      48.070  -5.551  12.756  1.00  0.00    -0.138 N 
ATOM      6  H2  UNL     1      49.009  -5.572  13.155  1.00  0.00     0.205 HD
HETATM    7  N4  UNL     1      46.810  -3.520  12.029  1.00  0.00    -0.117 N 
HETATM    8  C2  UNL     1      45.371  -3.250  11.914  1.00  0.00     0.190 C 
HETATM    9  C3  UNL     1      45.173  -1.759  11.731  1.00  0.00     0.176 C 
HETATM   10  N5  UNL     1      45.830  -1.402  10.484  1.00  0.00    -0.246 N 
HETATM   11  C4  UNL     1      47.193  -1.802  10.373  1.00  0.00     0.355 C 
HETATM   12  O1  UNL     1      47.923  -1.169   9.563  1.00  0.00    -0.244 OA
HETATM   13  N7  UNL     1      47.700  -2.882  11.160  1.00  0.00    -0.234 N 
ATOM     14  H7  UNL     1      48.674  -3.176  11.090  1.00  0.00     0.192 HD
ENDROOT
BRANCH   5  15
HETATM   15  N3  UNL     1      47.663  -6.619  11.966  1.00  0.00    -0.331 N 
ATOM     16  H32 UNL     1      46.676  -6.666  11.713  1.00  0.00     0.177 HD
ATOM     17  H31 UNL     1      48.301  -7.342  11.635  1.00  0.00     0.177 HD
ENDBRANCH   5  15
BRANCH  10  18
HETATM   18  N6  UNL     1      45.160  -0.709   9.458  1.00  0.00    -0.339 N 
ATOM     19  H62 UNL     1      45.361   0.265   9.234  1.00  0.00     0.177 HD
ATOM     20  H61 UNL     1      44.439  -1.150   8.888  1.00  0.00     0.177 HD
ENDBRANCH  10  18
TORSDOF 2
ENDMDL
MODEL 2
REMARK VINA RESULT: -4.523486109      2.642      3.544
REMARK  2 active torsions:
REMARK  status: ('A' for Active; 'I' for Inactive)
REMARK       I    between atoms: C1_4  and  N2_5 
REMARK       I    between atoms: C1_4  and  N4_10 
REMARK    1  A    between atoms: N2_5  and  N3_7 
REMARK    2  A    between atoms: N5_13  and  N6_14 
ROOT
HETATM    1  N1  UNL     1      50.342  -3.263  12.464  1.00  0.00    -0.232 N 
ATOM      2  H11 UNL     1      50.078  -3.710  11.586  1.00  0.00     0.174 HD
ATOM      3  H12 UNL     1      51.184  -3.513  12.982  1.00  0.00     0.174 HD
HETATM    4  C1  UNL     1      49.572  -2.341  12.937  1.00  0.00     0.707 C 
HETATM    5  N2  UNL     1      49.940  -1.717  14.160  1.00  0.00    -0.138 N 
ATOM      6  H2  UNL     1      49.952  -2.283  15.009  1.00  0.00     0.205 HD
HETATM    7  N4  UNL     1      48.397  -1.992  12.214  1.00  0.00    -0.117 N 
HETATM    8  C2  UNL     1      48.539  -1.639  10.794  1.00  0.00     0.190 C 
HETATM    9  C3  UNL     1      47.432  -2.319  10.016  1.00  0.00     0.176 C 
HETATM   10  N5  UNL     1      46.178  -1.783  10.521  1.00  0.00    -0.246 N 
HETATM   11  C4  UNL     1      46.000  -1.867  11.931  1.00  0.00     0.355 C 
HETATM   12  O1  UNL     1      44.820  -1.844  12.374  1.00  0.00    -0.244 OA
HETATM   13  N7  UNL     1      47.130  -1.974  12.802  1.00  0.00    -0.234 N 
ATOM     14  H7  UNL     1      47.014  -2.036  13.814  1.00  0.00     0.192 HD
ENDROOT
BRANCH   5  15
HETATM   15  N3  UNL     1      50.283  -0.374  14.254  1.00  0.00    -0.331 N 
ATOM     16  H32 UNL     1      49.766   0.284  13.671  1.00  0.00     0.177 HD
ATOM     17  H31 UNL     1      51.018  -0.029  14.871  1.00  0.00     0.177 HD
ENDBRANCH   5  15
BRANCH  10  18
HETATM   18  N6  UNL     1      45.209  -1.220   9.669  1.00  0.00    -0.339 N 
ATOM     19  H62 UNL     1      45.456  -0.650   8.861  1.00  0.00     0.177 HD
ATOM     20  H61 UNL     1      44.210  -1.357   9.821  1.00  0.00     0.177 HD
ENDBRANCH  10  18
TORSDOF 2
ENDMDL
MODEL 3
REMARK VINA RESULT: -4.338823140      2.428      4.018
REMARK  2 active torsions:
REMARK  status: ('A' for Active; 'I' for Inactive)
REMARK       I    between atoms: C1_4  and  N2_5 
REMARK       I    between atoms: C1_4  and  N4_10 
REMARK    1  A    between atoms: N2_5  and  N3_7 
REMARK    2  A    between atoms: N5_13  and  N6_14 
ROOT
HETATM    1  N1  UNL     1      45.285  -1.025  10.463  1.00  0.00    -0.232 N 
ATOM      2  H11 UNL     1      45.786  -0.531   9.725  1.00  0.00     0.174 HD
ATOM      3  H12 UNL     1      44.274  -0.962  10.585  1.00  0.00     0.174 HD
HETATM    4  C1  UNL     1      45.965  -1.761  11.278  1.00  0.00     0.707 C 
HETATM    5  N2  UNL     1      45.267  -2.450  12.306  1.00  0.00    -0.138 N 
ATOM      6  H2  UNL     1      44.803  -1.902  13.030  1.00  0.00     0.205 HD
HETATM    7  N4  UNL     1      47.376  -1.848  11.108  1.00  0.00    -0.117 N 
HETATM    8  C2  UNL     1      47.889  -2.221   9.783  1.00  0.00     0.190 C 
HETATM    9  C3  UNL     1      49.059  -1.318   9.449  1.00  0.00     0.176 C 
HETATM   10  N5  UNL     1      50.081  -1.572  10.450  1.00  0.00    -0.246 N 
HETATM   11  C4  UNL     1      49.656  -1.454  11.804  1.00  0.00     0.355 C 
HETATM   12  O1  UNL     1      50.537  -1.223  12.676  1.00  0.00    -0.244 OA
HETATM   13  N7  UNL     1      48.275  -1.593  12.147  1.00  0.00    -0.234 N 
ATOM     14  H7  UNL     1      47.958  -1.509  13.113  1.00  0.00     0.192 HD
ENDROOT
BRANCH   5  15
HETATM   15  N3  UNL     1      45.187  -3.836  12.372  1.00  0.00    -0.331 N 
ATOM     16  H32 UNL     1      44.976  -4.335  11.508  1.00  0.00     0.177 HD
ATOM     17  H31 UNL     1      45.330  -4.361  13.234  1.00  0.00     0.177 HD
ENDBRANCH   5  15
BRANCH  10  18
HETATM   18  N6  UNL     1      51.401  -1.912  10.100  1.00  0.00    -0.339 N 
ATOM     19  H62 UNL     1      52.130  -2.066  10.796  1.00  0.00     0.177 HD
ATOM     20  H61 UNL     1      51.693  -2.022   9.129  1.00  0.00     0.177 HD
ENDBRANCH  10  18
TORSDOF 2
ENDMDL
MODEL 4
REMARK VINA RESULT: -4.207951874      2.310      4.630
REMARK  2 active torsions:
REMARK  status: ('A' for Active; 'I' for Inactive)
REMARK       I    between atoms: C1_4  and  N2_5 
REMARK       I    between atoms: C1_4  and  N4_10 
REMARK    1  A    between atoms: N2_5  and  N3_7 
REMARK    2  A    between atoms: N5_13  and  N6_14 
ROOT
HETATM    1  N1  UNL     1      48.135  -2.540   9.360  1.00  0.00    -0.232 N 
ATOM      2  H11 UNL     1      48.801  -3.231   9.704  1.00  0.00     0.174 HD
ATOM      3  H12 UNL     1      48.134  -2.202   8.397  1.00  0.00     0.174 HD
HETATM    4  C1  UNL     1      47.258  -2.073  10.183  1.00  0.00     0.707 C 
HETATM    5  N2  UNL     1      46.329  -1.109   9.704  1.00  0.00    -0.138 N 
ATOM      6  H2  UNL     1      46.683  -0.199   9.409  1.00  0.00     0.205 HD
HETATM    7  N4  UNL     1      47.260  -2.543  11.527  1.00  0.00    -0.117 N 
HETATM    8  C2  UNL     1      47.215  -3.995  11.749  1.00  0.00     0.190 C 
HETATM    9  C3  UNL     1      48.210  -4.346  12.836  1.00  0.00     0.176 C 
HETATM   10  N5  UNL     1      47.770  -3.662  14.040  1.00  0.00    -0.246 N 
HETATM   11  C4  UNL     1      47.563  -2.259  13.907  1.00  0.00     0.355 C 
HETATM   12  O1  UNL     1      47.620  -1.558  14.954  1.00  0.00    -0.244 OA
HETATM   13  N7  UNL     1      47.303  -1.681  12.626  1.00  0.00    -0.234 N 
ATOM     14  H7  UNL     1      47.154  -0.678  12.518  1.00  0.00     0.192 HD
ENDROOT
BRANCH   5  15
HETATM   15  N3  UNL     1      44.963  -1.348   9.621  1.00  0.00    -0.331 N 
ATOM     16  H32 UNL     1      44.492  -1.082   8.756  1.00  0.00     0.177 HD
ATOM     17  H31 UNL     1      44.425  -1.771  10.377  1.00  0.00     0.177 HD
ENDBRANCH   5  15
BRANCH  10  18
HETATM   18  N6  UNL     1      47.563  -4.344  15.254  1.00  0.00    -0.339 N 
ATOM     19  H62 UNL     1      46.989  -3.963  16.006  1.00  0.00     0.177 HD
ATOM     20  H61 UNL     1      47.980  -5.256  15.441  1.00  0.00     0.177 HD
ENDBRANCH  10  18
TORSDOF 2
ENDMDL
MODEL 5
REMARK VINA RESULT: -4.145351959      2.394      4.240
REMARK  2 active torsions:
REMARK  status: ('A' for Active; 'I' for Inactive)
REMARK       I    between atoms: C1_4  and  N2_5 
REMARK       I    between atoms: C1_4  and  N4_10 
REMARK    1  A    between atoms: N2_5  and  N3_7 
REMARK    2  A    between atoms: N5_13  and  N6_14 
ROOT
HETATM    1  N1  UNL     1      45.387  -3.003  11.944  1.00  0.00    -0.232 N 
ATOM      2  H11 UNL     1      46.035  -3.490  12.563  1.00  0.00     0.174 HD
ATOM      3  H12 UNL     1      44.375  -3.021  12.075  1.00  0.00     0.174 HD
HETATM    4  C1  UNL     1      45.873  -2.336  10.952  1.00  0.00     0.707 C 
HETATM    5  N2  UNL     1      44.971  -1.657  10.089  1.00  0.00    -0.138 N 
ATOM      6  H2  UNL     1      44.324  -2.211   9.529  1.00  0.00     0.205 HD
HETATM    7  N4  UNL     1      47.285  -2.311  10.769  1.00  0.00    -0.117 N 
HETATM    8  C2  UNL     1      48.121  -1.908  11.908  1.00  0.00     0.190 C 
HETATM    9  C3  UNL     1      49.302  -2.853  11.996  1.00  0.00     0.176 C 
HETATM   10  N5  UNL     1      50.057  -2.690  10.765  1.00  0.00    -0.246 N 
HETATM   11  C4  UNL     1      49.309  -2.844   9.562  1.00  0.00     0.355 C 
HETATM   12  O1  UNL     1      49.941  -3.154   8.516  1.00  0.00    -0.244 OA
HETATM   13  N7  UNL     1      47.892  -2.652   9.558  1.00  0.00    -0.234 N 
ATOM     14  H7  UNL     1      47.346  -2.761   8.703  1.00  0.00     0.192 HD
ENDROOT
BRANCH   5  15
HETATM   15  N3  UNL     1      44.929  -0.273   9.973  1.00  0.00    -0.331 N 
ATOM     16  H32 UNL     1      44.661   0.260  10.800  1.00  0.00     0.177 HD
ATOM     17  H31 UNL     1      45.153   0.220   9.108  1.00  0.00     0.177 HD
ENDBRANCH   5  15
BRANCH  10  18
HETATM   18  N6  UNL     1      51.435  -2.401  10.765  1.00  0.00    -0.339 N 
ATOM     19  H62 UNL     1      52.145  -3.116  10.611  1.00  0.00     0.177 HD
ATOM     20  H61 UNL     1      51.789  -1.457  10.921  1.00  0.00     0.177 HD
ENDBRANCH  10  18
TORSDOF 2
ENDMDL
