MODEL 1
REMARK VINA RESULT: -5.043291638      0.000      0.000
REMARK  3 active torsions:
REMARK  status: ('A' for Active; 'I' for Inactive)
REMARK    1  A    between atoms: C2_3  and  C3_4 
REMARK    2  A    between atoms: C4_9  and  N3_10 
REMARK    3  A    between atoms: C5_15  and  N5_16 
ROOT
HETATM    1  C1  UNL     1      47.833  -4.339  11.962  1.00  0.00     0.177 C 
HETATM    2  N1  UNL     1      47.111  -3.309  11.280  1.00  0.00    -0.165 N 
HETATM    3  C2  UNL     1      47.685  -2.580  10.306  1.00  0.00     0.214 A 
HETATM    4  N2  UNL     1      46.962  -1.612   9.685  1.00  0.00    -0.169 N 
ATOM      5  H2  UNL     1      47.393  -1.056   8.946  1.00  0.00     0.186 HD
HETATM    6  C4  UNL     1      45.690  -1.381  10.033  1.00  0.00     0.692 A 
HETATM    7  N4  UNL     1      45.140  -2.139  11.024  1.00  0.00    -0.023 N 
ATOM      8  H4  UNL     1      44.171  -1.969  11.295  1.00  0.00     0.203 HD
HETATM    9  C5  UNL     1      45.822  -3.090  11.646  1.00  0.00     0.694 A 
ENDROOT
BRANCH   3  10
HETATM   10  C3  UNL     1      49.056  -2.756   9.861  1.00  0.00     0.246 C 
HETATM   11  O1  UNL     1      50.001  -2.064  10.343  1.00  0.00    -0.642 OA
HETATM   12  O2  UNL     1      49.361  -3.680   8.902  1.00  0.00    -0.642 OA
ENDBRANCH   3  10
BRANCH   9  13
HETATM   13  N5  UNL     1      45.300  -3.800  12.577  1.00  0.00    -0.234 N 
ATOM     14  H52 UNL     1      45.575  -3.695  13.554  1.00  0.00     0.174 HD
ATOM     15  H51 UNL     1      44.588  -4.492  12.344  1.00  0.00     0.174 HD
ENDBRANCH   9  13
BRANCH   6  16
HETATM   16  N3  UNL     1      45.007  -0.462   9.442  1.00  0.00    -0.234 N 
ATOM     17  H32 UNL     1      44.693  -0.577   8.478  1.00  0.00     0.174 HD
ATOM     18  H31 UNL     1      44.766   0.400   9.931  1.00  0.00     0.174 HD
ENDBRANCH   6  16
TORSDOF 3
ENDMDL
MODEL 2
REMARK VINA RESULT: -4.860623964      2.585      3.343
REMARK  3 active torsions:
REMARK  status: ('A' for Active; 'I' for Inactive)
REMARK    1  A    between atoms: C2_3  and  C3_4 
REMARK    2  A    between atoms: C4_9  and  N3_10 
REMARK    3  A    between atoms: C5_15  and  N5_16 
ROOT
HETATM    1  C1  UNL     1      48.898  -3.454  12.192  1.00  0.00     0.177 C 
HETATM    2  N1  UNL     1      47.839  -2.716  11.572  1.00  0.00    -0.165 N 
HETATM    3  C2  UNL     1      46.814  -2.227  12.293  1.00  0.00     0.214 A 
HETATM    4  N2  UNL     1      45.831  -1.533  11.663  1.00  0.00    -0.169 N 
ATOM      5  H2  UNL     1      45.051  -1.159  12.205  1.00  0.00     0.186 HD
HETATM    6  C4  UNL     1      45.875  -1.333  10.340  1.00  0.00     0.692 A 
HETATM    7  N4  UNL     1      46.929  -1.842   9.642  1.00  0.00    -0.023 N 
ATOM      8  H4  UNL     1      46.971  -1.695   8.633  1.00  0.00     0.203 HD
HETATM    9  C5  UNL     1      47.903  -2.524  10.230  1.00  0.00     0.694 A 
ENDROOT
BRANCH   3  10
HETATM   10  C3  UNL     1      46.678  -2.392  13.729  1.00  0.00     0.246 C 
HETATM   11  O1  UNL     1      47.165  -1.549  14.540  1.00  0.00    -0.642 OA
HETATM   12  O2  UNL     1      46.017  -3.471  14.243  1.00  0.00    -0.642 OA
ENDBRANCH   3  10
BRANCH   9  13
HETATM   13  N5  UNL     1      48.891  -3.001   9.568  1.00  0.00    -0.234 N 
ATOM     14  H52 UNL     1      49.783  -2.509   9.500  1.00  0.00     0.174 HD
ATOM     15  H51 UNL     1      48.792  -3.898   9.093  1.00  0.00     0.174 HD
ENDBRANCH   9  13
BRANCH   6  16
HETATM   16  N3  UNL     1      44.941  -0.674   9.746  1.00  0.00    -0.234 N 
ATOM     17  H32 UNL     1      44.145  -0.304  10.267  1.00  0.00     0.174 HD
ATOM     18  H31 UNL     1      44.981  -0.510   8.740  1.00  0.00     0.174 HD
ENDBRANCH   6  16
TORSDOF 3
ENDMDL
MODEL 3
REMARK VINA RESULT: -4.728243445      0.946      1.278
REMARK  3 active torsions:
REMARK  status: ('A' for Active; 'I' for Inactive)
REMARK    1  A    between atoms: C2_3  and  C3_4 
REMARK    2  A    between atoms: C4_9  and  N3_10 
REMARK    3  A    between atoms: C5_15  and  N5_16 
ROOT
HETATM    1  C1  UNL     1      48.284  -3.542  12.472  1.00  0.00     0.177 C 
HETATM    2  N1  UNL     1      47.436  -2.757  11.627  1.00  0.00    -0.165 N 
HETATM    3  C2  UNL     1      47.672  -2.650  10.307  1.00  0.00     0.214 A 
HETATM    4  N2  UNL     1      46.841  -1.895   9.542  1.00  0.00    -0.169 N 
ATOM      5  H2  UNL     1      47.015  -1.810   8.541  1.00  0.00     0.186 HD
HETATM    6  C4  UNL     1      45.796  -1.261  10.090  1.00  0.00     0.692 A 
HETATM    7  N4  UNL     1      45.587  -1.393  11.430  1.00  0.00    -0.023 N 
ATOM      8  H4  UNL     1      44.793  -0.914  11.855  1.00  0.00     0.203 HD
HETATM    9  C5  UNL     1      46.381  -2.123  12.200  1.00  0.00     0.694 A 
ENDROOT
BRANCH   3  10
HETATM   10  C3  UNL     1      48.778  -3.297   9.624  1.00  0.00     0.246 C 
HETATM   11  O1  UNL     1      48.631  -4.412   9.039  1.00  0.00    -0.642 OA
HETATM   12  O2  UNL     1      50.013  -2.715   9.597  1.00  0.00    -0.642 OA
ENDBRANCH   3  10
BRANCH   9  13
HETATM   13  N5  UNL     1      46.180  -2.243  13.461  1.00  0.00    -0.234 N 
ATOM     14  H52 UNL     1      45.479  -1.687  13.951  1.00  0.00     0.174 HD
ATOM     15  H51 UNL     1      46.733  -2.912  13.997  1.00  0.00     0.174 HD
ENDBRANCH   9  13
BRANCH   6  16
HETATM   16  N3  UNL     1      45.010  -0.546   9.361  1.00  0.00    -0.234 N 
ATOM     17  H32 UNL     1      44.484   0.231   9.762  1.00  0.00     0.174 HD
ATOM     18  H31 UNL     1      44.900  -0.745   8.367  1.00  0.00     0.174 HD
ENDBRANCH   6  16
TORSDOF 3
ENDMDL
MODEL 4
REMARK VINA RESULT: -4.659337140      2.553      3.585
REMARK  3 active torsions:
REMARK  status: ('A' for Active; 'I' for Inactive)
REMARK    1  A    between atoms: C2_3  and  C3_4 
REMARK    2  A    between atoms: C4_9  and  N3_10 
REMARK    3  A    between atoms: C5_15  and  N5_16 
ROOT
HETATM    1  C1  UNL     1      45.284  -3.516  12.299  1.00  0.00     0.177 C 
HETATM    2  N1  UNL     1      46.412  -3.216  11.469  1.00  0.00    -0.165 N 
HETATM    3  C2  UNL     1      46.379  -2.202  10.587  1.00  0.00     0.214 A 
HETATM    4  N2  UNL     1      47.473  -1.952   9.820  1.00  0.00    -0.169 N 
ATOM      5  H2  UNL     1      47.454  -1.184   9.149  1.00  0.00     0.186 HD
HETATM    6  C4  UNL     1      48.575  -2.704   9.936  1.00  0.00     0.692 A 
HETATM    7  N4  UNL     1      48.572  -3.723  10.842  1.00  0.00    -0.023 N 
ATOM      8  H4  UNL     1      49.408  -4.300  10.938  1.00  0.00     0.203 HD
HETATM    9  C5  UNL     1      47.520  -3.989  11.603  1.00  0.00     0.694 A 
ENDROOT
BRANCH   3  10
HETATM   10  C3  UNL     1      45.233  -1.334  10.388  1.00  0.00     0.246 C 
HETATM   11  O1  UNL     1      44.680  -1.219   9.253  1.00  0.00    -0.642 OA
HETATM   12  O2  UNL     1      44.718  -0.614  11.429  1.00  0.00    -0.642 OA
ENDBRANCH   3  10
BRANCH   9  13
HETATM   13  N5  UNL     1      47.523  -4.949  12.452  1.00  0.00    -0.234 N 
ATOM     14  H52 UNL     1      48.190  -4.985  13.224  1.00  0.00     0.174 HD
ATOM     15  H51 UNL     1      46.842  -5.703  12.362  1.00  0.00     0.174 HD
ENDBRANCH   9  13
BRANCH   6  16
HETATM   16  N3  UNL     1      49.610  -2.465   9.208  1.00  0.00    -0.234 N 
ATOM     17  H32 UNL     1      50.127  -1.590   9.299  1.00  0.00     0.174 HD
ATOM     18  H31 UNL     1      49.933  -3.150   8.525  1.00  0.00     0.174 HD
ENDBRANCH   6  16
TORSDOF 3
ENDMDL
MODEL 5
REMARK VINA RESULT: -4.602844913      0.655      1.130
REMARK  3 active torsions:
REMARK  status: ('A' for Active; 'I' for Inactive)
REMARK    1  A    between atoms: C2_3  and  C3_4 
REMARK    2  A    between atoms: C4_9  and  N3_10 
REMARK    3  A    between atoms: C5_15  and  N5_16 
ROOT
HETATM    1  C1  UNL     1      48.426  -3.846  11.622  1.00  0.00     0.177 C 
HETATM    2  N1  UNL     1      47.480  -2.944  11.039  1.00  0.00    -0.165 N 
HETATM    3  C2  UNL     1      47.844  -2.074  10.079  1.00  0.00     0.214 A 
HETATM    4  N2  UNL     1      46.912  -1.237   9.553  1.00  0.00    -0.169 N 
ATOM      5  H2  UNL     1      47.182  -0.575   8.825  1.00  0.00     0.186 HD
HETATM    6  C4  UNL     1      45.643  -1.272   9.980  1.00  0.00     0.692 A 
HETATM    7  N4  UNL     1      45.311  -2.167  10.953  1.00  0.00    -0.023 N 
ATOM      8  H4  UNL     1      44.346  -2.200  11.284  1.00  0.00     0.203 HD
HETATM    9  C5  UNL     1      46.199  -2.995  11.484  1.00  0.00     0.694 A 
ENDROOT
BRANCH   3  10
HETATM   10  C3  UNL     1      49.192  -1.962   9.553  1.00  0.00     0.246 C 
HETATM   11  O1  UNL     1      49.596  -2.701   8.607  1.00  0.00    -0.642 OA
HETATM   12  O2  UNL     1      50.065  -1.047  10.072  1.00  0.00    -0.642 OA
ENDBRANCH   3  10
BRANCH   9  13
HETATM   13  N5  UNL     1      45.880  -3.834  12.399  1.00  0.00    -0.234 N 
ATOM     14  H52 UNL     1      44.999  -4.349  12.377  1.00  0.00     0.174 HD
ATOM     15  H51 UNL     1      46.520  -3.998  13.176  1.00  0.00     0.174 HD
ENDBRANCH   9  13
BRANCH   6  16
HETATM   16  N3  UNL     1      44.762  -0.476   9.479  1.00  0.00    -0.234 N 
ATOM     17  H32 UNL     1      43.869  -0.830   9.134  1.00  0.00     0.174 HD
ATOM     18  H31 UNL     1      44.943   0.525   9.417  1.00  0.00     0.174 HD
ENDBRANCH   6  16
TORSDOF 3
ENDMDL
