MODEL 1
REMARK VINA RESULT: -3.586487841      0.000      0.000
REMARK  5 active torsions:
REMARK  status: ('A' for Active; 'I' for Inactive)
REMARK    1  A    between atoms: N1_1  and  C1_5 
REMARK    2  A    between atoms: C1_5  and  C2_6 
REMARK    3  A    between atoms: C2_6  and  C3_7 
REMARK    4  A    between atoms: C3_7  and  N2_8 
REMARK    5  A    between atoms: N2_8  and  C4_10 
ROOT
HETATM    1  N2  UNL     1     -17.093  27.008  27.293  1.00  0.00    -0.225 N 
ATOM      2  H2  UNL     1     -17.480  27.159  26.361  1.00  0.00     0.177 HD
ENDROOT
BRANCH   1   3
HETATM    3  C3  UNL     1     -16.383  25.794  27.504  1.00  0.00     0.140 C 
BRANCH   3   4
HETATM    4  C2  UNL     1     -14.913  25.888  27.218  1.00  0.00     0.047 C 
BRANCH   4   5
HETATM    5  C1  UNL     1     -14.650  26.612  25.913  1.00  0.00     0.231 C 
BRANCH   5   6
HETATM    6  N1  UNL     1     -13.862  27.804  26.153  1.00  0.00    -0.079 N 
ATOM      7  H13 UNL     1     -14.287  28.633  25.736  1.00  0.00     0.274 HD
ATOM      8  H12 UNL     1     -13.896  28.093  27.130  1.00  0.00     0.274 HD
ATOM      9  H11 UNL     1     -12.905  27.663  25.830  1.00  0.00     0.274 HD
ENDBRANCH   5   6
ENDBRANCH   4   5
ENDBRANCH   3   4
ENDBRANCH   1   3
BRANCH   1  10
HETATM   10  C4  UNL     1     -17.296  27.933  28.157  1.00  0.00     0.693 A 
HETATM   11  N3  UNL     1     -18.530  28.306  28.551  1.00  0.00    -0.185 N 
HETATM   12  C5  UNL     1     -18.401  29.296  29.464  1.00  0.00     0.215 A 
ATOM     13  H3  UNL     1     -19.409  27.910  28.218  1.00  0.00     0.185 HD
HETATM   14  N4  UNL     1     -17.085  29.531  29.630  1.00  0.00    -0.281 N 
HETATM   15  N5  UNL     1     -16.439  28.698  28.833  1.00  0.00    -0.131 N 
ATOM     16  H4  UNL     1     -16.666  30.221  30.253  1.00  0.00     0.188 HD
ATOM     17  H5  UNL     1     -15.424  28.648  28.746  1.00  0.00     0.205 HD
ENDBRANCH   1  10
TORSDOF 5
ENDMDL
MODEL 2
REMARK VINA RESULT: -3.567372105      2.277      3.607
REMARK  5 active torsions:
REMARK  status: ('A' for Active; 'I' for Inactive)
REMARK    1  A    between atoms: N1_1  and  C1_5 
REMARK    2  A    between atoms: C1_5  and  C2_6 
REMARK    3  A    between atoms: C2_6  and  C3_7 
REMARK    4  A    between atoms: C3_7  and  N2_8 
REMARK    5  A    between atoms: N2_8  and  C4_10 
ROOT
HETATM    1  N2  UNL     1     -14.983  28.227  26.057  1.00  0.00    -0.225 N 
ATOM      2  H2  UNL     1     -14.991  28.289  25.039  1.00  0.00     0.177 HD
ENDROOT
BRANCH   1   3
HETATM    3  C3  UNL     1     -14.165  29.162  26.749  1.00  0.00     0.140 C 
BRANCH   3   4
HETATM    4  C2  UNL     1     -12.776  28.669  27.030  1.00  0.00     0.047 C 
BRANCH   4   5
HETATM    5  C1  UNL     1     -12.637  28.201  28.465  1.00  0.00     0.231 C 
BRANCH   5   6
HETATM    6  N1  UNL     1     -13.702  28.755  29.275  1.00  0.00    -0.079 N 
ATOM      7  H13 UNL     1     -13.577  29.754  29.439  1.00  0.00     0.274 HD
ATOM      8  H12 UNL     1     -14.586  28.796  28.767  1.00  0.00     0.274 HD
ATOM      9  H11 UNL     1     -13.788  28.233  30.148  1.00  0.00     0.274 HD
ENDBRANCH   5   6
ENDBRANCH   4   5
ENDBRANCH   3   4
ENDBRANCH   1   3
BRANCH   1  10
HETATM   10  C4  UNL     1     -15.711  27.313  26.585  1.00  0.00     0.693 A 
HETATM   11  N3  UNL     1     -15.343  26.016  26.618  1.00  0.00    -0.185 N 
HETATM   12  C5  UNL     1     -16.321  25.316  27.238  1.00  0.00     0.215 A 
ATOM     13  H3  UNL     1     -14.478  25.630  26.241  1.00  0.00     0.185 HD
HETATM   14  N4  UNL     1     -17.290  26.186  27.586  1.00  0.00    -0.281 N 
HETATM   15  N5  UNL     1     -16.900  27.382  27.182  1.00  0.00    -0.131 N 
ATOM     16  H4  UNL     1     -18.160  25.962  28.069  1.00  0.00     0.188 HD
ATOM     17  H5  UNL     1     -17.435  28.240  27.310  1.00  0.00     0.205 HD
ENDBRANCH   1  10
TORSDOF 5
ENDMDL
MODEL 3
REMARK VINA RESULT: -3.530129987      2.486      3.780
REMARK  5 active torsions:
REMARK  status: ('A' for Active; 'I' for Inactive)
REMARK    1  A    between atoms: N1_1  and  C1_5 
REMARK    2  A    between atoms: C1_5  and  C2_6 
REMARK    3  A    between atoms: C2_6  and  C3_7 
REMARK    4  A    between atoms: C3_7  and  N2_8 
REMARK    5  A    between atoms: N2_8  and  C4_10 
ROOT
HETATM    1  N2  UNL     1     -14.163  27.632  26.130  1.00  0.00    -0.225 N 
ATOM      2  H2  UNL     1     -13.954  27.422  25.154  1.00  0.00     0.177 HD
ENDROOT
BRANCH   1   3
HETATM    3  C3  UNL     1     -13.259  28.495  26.809  1.00  0.00     0.140 C 
BRANCH   3   4
HETATM    4  C2  UNL     1     -12.928  28.057  28.206  1.00  0.00     0.047 C 
BRANCH   4   5
HETATM    5  C1  UNL     1     -11.483  28.357  28.549  1.00  0.00     0.231 C 
BRANCH   5   6
HETATM    6  N1  UNL     1     -10.913  27.263  29.309  1.00  0.00    -0.079 N 
ATOM      7  H13 UNL     1     -10.749  27.518  30.283  1.00  0.00     0.274 HD
ATOM      8  H12 UNL     1     -11.588  26.513  29.462  1.00  0.00     0.274 HD
ATOM      9  H11 UNL     1     -10.064  26.925  28.855  1.00  0.00     0.274 HD
ENDBRANCH   5   6
ENDBRANCH   4   5
ENDBRANCH   3   4
ENDBRANCH   1   3
BRANCH   1  10
HETATM   10  C4  UNL     1     -15.216  27.090  26.623  1.00  0.00     0.693 A 
HETATM   11  N3  UNL     1     -15.318  25.765  26.846  1.00  0.00    -0.185 N 
HETATM   12  C5  UNL     1     -16.542  25.518  27.368  1.00  0.00     0.215 A 
ATOM     13  H3  UNL     1     -14.598  25.069  26.655  1.00  0.00     0.185 HD
HETATM   14  N4  UNL     1     -17.191  26.694  27.465  1.00  0.00    -0.281 N 
HETATM   15  N5  UNL     1     -16.372  27.627  27.010  1.00  0.00    -0.131 N 
ATOM     16  H4  UNL     1     -18.136  26.838  27.821  1.00  0.00     0.188 HD
ATOM     17  H5  UNL     1     -16.595  28.621  26.963  1.00  0.00     0.205 HD
ENDBRANCH   1  10
TORSDOF 5
ENDMDL
MODEL 4
REMARK VINA RESULT: -3.453350543      1.473      2.422
REMARK  5 active torsions:
REMARK  status: ('A' for Active; 'I' for Inactive)
REMARK    1  A    between atoms: N1_1  and  C1_5 
REMARK    2  A    between atoms: C1_5  and  C2_6 
REMARK    3  A    between atoms: C2_6  and  C3_7 
REMARK    4  A    between atoms: C3_7  and  N2_8 
REMARK    5  A    between atoms: N2_8  and  C4_10 
ROOT
HETATM    1  N2  UNL     1     -16.085  28.477  26.616  1.00  0.00    -0.225 N 
ATOM      2  H2  UNL     1     -15.855  29.057  25.809  1.00  0.00     0.177 HD
ENDROOT
BRANCH   1   3
HETATM    3  C3  UNL     1     -15.100  27.537  27.030  1.00  0.00     0.140 C 
BRANCH   3   4
HETATM    4  C2  UNL     1     -15.316  26.151  26.496  1.00  0.00     0.047 C 
BRANCH   4   5
HETATM    5  C1  UNL     1     -15.987  25.263  27.525  1.00  0.00     0.231 C 
BRANCH   5   6
HETATM    6  N1  UNL     1     -17.341  24.957  27.112  1.00  0.00    -0.079 N 
ATOM      7  H13 UNL     1     -17.903  25.800  26.988  1.00  0.00     0.274 HD
ATOM      8  H12 UNL     1     -17.379  24.609  26.154  1.00  0.00     0.274 HD
ATOM      9  H11 UNL     1     -17.771  24.306  27.771  1.00  0.00     0.274 HD
ENDBRANCH   5   6
ENDBRANCH   4   5
ENDBRANCH   3   4
ENDBRANCH   1   3
BRANCH   1  10
HETATM   10  C4  UNL     1     -17.232  28.668  27.156  1.00  0.00     0.693 A 
HETATM   11  N3  UNL     1     -17.455  28.500  28.474  1.00  0.00    -0.185 N 
HETATM   12  C5  UNL     1     -18.756  28.779  28.721  1.00  0.00     0.215 A 
ATOM     13  H3  UNL     1     -16.763  28.212  29.166  1.00  0.00     0.185 HD
HETATM   14  N4  UNL     1     -19.331  29.120  27.552  1.00  0.00    -0.281 N 
HETATM   15  N5  UNL     1     -18.393  29.045  26.623  1.00  0.00    -0.131 N 
ATOM     16  H4  UNL     1     -20.306  29.384  27.410  1.00  0.00     0.188 HD
ATOM     17  H5  UNL     1     -18.539  29.249  25.635  1.00  0.00     0.205 HD
ENDBRANCH   1  10
TORSDOF 5
ENDMDL
MODEL 5
REMARK VINA RESULT: -3.444860913      2.414      3.838
REMARK  5 active torsions:
REMARK  status: ('A' for Active; 'I' for Inactive)
REMARK    1  A    between atoms: N1_1  and  C1_5 
REMARK    2  A    between atoms: C1_5  and  C2_6 
REMARK    3  A    between atoms: C2_6  and  C3_7 
REMARK    4  A    between atoms: C3_7  and  N2_8 
REMARK    5  A    between atoms: N2_8  and  C4_10 
ROOT
HETATM    1  N2  UNL     1     -14.471  28.047  26.695  1.00  0.00    -0.225 N 
ATOM      2  H2  UNL     1     -14.767  28.838  26.123  1.00  0.00     0.177 HD
ENDROOT
BRANCH   1   3
HETATM    3  C3  UNL     1     -14.725  26.748  26.171  1.00  0.00     0.140 C 
BRANCH   3   4
HETATM    4  C2  UNL     1     -15.169  25.751  27.200  1.00  0.00     0.047 C 
BRANCH   4   5
HETATM    5  C1  UNL     1     -16.640  25.915  27.528  1.00  0.00     0.231 C 
BRANCH   5   6
HETATM    6  N1  UNL     1     -17.302  24.626  27.512  1.00  0.00    -0.079 N 
ATOM      7  H13 UNL     1     -17.512  24.317  26.562  1.00  0.00     0.274 HD
ATOM      8  H12 UNL     1     -16.671  23.871  27.780  1.00  0.00     0.274 HD
ATOM      9  H11 UNL     1     -18.136  24.652  28.098  1.00  0.00     0.274 HD
ENDBRANCH   5   6
ENDBRANCH   4   5
ENDBRANCH   3   4
ENDBRANCH   1   3
BRANCH   1  10
HETATM   10  C4  UNL     1     -13.908  28.321  27.813  1.00  0.00     0.693 A 
HETATM   11  N3  UNL     1     -12.583  28.182  28.016  1.00  0.00    -0.185 N 
HETATM   12  C5  UNL     1     -12.310  28.553  29.289  1.00  0.00     0.215 A 
ATOM     13  H3  UNL     1     -11.904  27.854  27.330  1.00  0.00     0.185 HD
HETATM   14  N4  UNL     1     -13.471  28.921  29.867  1.00  0.00    -0.281 N 
HETATM   15  N5  UNL     1     -14.419  28.773  28.958  1.00  0.00    -0.131 N 
ATOM     16  H4  UNL     1     -13.593  29.250  30.824  1.00  0.00     0.188 HD
ATOM     17  H5  UNL     1     -15.406  28.976  29.113  1.00  0.00     0.205 HD
ENDBRANCH   1  10
TORSDOF 5
ENDMDL
