MODEL 1
REMARK VINA RESULT: -3.465101691      0.000      0.000
REMARK  3 active torsions:
REMARK  status: ('A' for Active; 'I' for Inactive)
REMARK    1  A    between atoms: N1_1  and  C1_5 
REMARK    2  A    between atoms: C1_5  and  C2_6 
REMARK    3  A    between atoms: C2_6  and  C3_7 
ROOT
HETATM    1  C3  UNL     1     -15.963  27.864  26.824  1.00  0.00     0.103 C 
HETATM    2  C4  UNL     1     -14.815  27.180  26.141  1.00  0.00     0.256 C 
HETATM    3  N2  UNL     1     -13.579  27.943  26.265  1.00  0.00    -0.072 N 
ATOM      4  H21 UNL     1     -13.598  28.834  25.768  1.00  0.00     0.277 HD
ATOM      5  H22 UNL     1     -12.795  27.535  25.754  1.00  0.00     0.277 HD
HETATM    6  C5  UNL     1     -13.334  28.079  27.700  1.00  0.00     0.251 C 
HETATM    7  C6  UNL     1     -14.396  28.922  28.318  1.00  0.00     0.141 C 
HETATM    8  N3  UNL     1     -15.602  29.028  27.566  1.00  0.00    -0.414 N 
ATOM      9  H3  UNL     1     -16.167  29.877  27.559  1.00  0.00     0.153 HD
ENDROOT
BRANCH   1  10
HETATM   10  C2  UNL     1     -16.685  26.828  27.656  1.00  0.00     0.053 C 
BRANCH  10  11
HETATM   11  C1  UNL     1     -16.171  25.430  27.384  1.00  0.00     0.231 C 
BRANCH  11  12
HETATM   12  N1  UNL     1     -17.331  24.539  27.521  1.00  0.00    -0.079 N 
ATOM     13  H13 UNL     1     -17.646  24.427  28.484  1.00  0.00     0.274 HD
ATOM     14  H12 UNL     1     -18.195  24.937  27.154  1.00  0.00     0.274 HD
ATOM     15  H11 UNL     1     -17.065  23.661  27.074  1.00  0.00     0.274 HD
ENDBRANCH  11  12
ENDBRANCH  10  11
ENDBRANCH   1  10
TORSDOF 3
ENDMDL
MODEL 2
REMARK VINA RESULT: -3.278372977      1.225      2.092
REMARK  3 active torsions:
REMARK  status: ('A' for Active; 'I' for Inactive)
REMARK    1  A    between atoms: N1_1  and  C1_5 
REMARK    2  A    between atoms: C1_5  and  C2_6 
REMARK    3  A    between atoms: C2_6  and  C3_7 
ROOT
HETATM    1  C3  UNL     1     -14.497  27.534  26.611  1.00  0.00     0.103 C 
HETATM    2  C4  UNL     1     -14.452  27.619  28.109  1.00  0.00     0.256 C 
HETATM    3  N2  UNL     1     -14.916  28.914  28.592  1.00  0.00    -0.072 N 
ATOM      4  H21 UNL     1     -14.303  29.688  28.334  1.00  0.00     0.277 HD
ATOM      5  H22 UNL     1     -14.835  29.025  29.603  1.00  0.00     0.277 HD
HETATM    6  C5  UNL     1     -16.283  29.060  28.095  1.00  0.00     0.251 C 
HETATM    7  C6  UNL     1     -16.275  29.161  26.608  1.00  0.00     0.141 C 
HETATM    8  N3  UNL     1     -15.103  28.656  25.973  1.00  0.00    -0.414 N 
ATOM      9  H3  UNL     1     -14.725  29.069  25.120  1.00  0.00     0.153 HD
ENDROOT
BRANCH   1  10
HETATM   10  C2  UNL     1     -15.146  26.218  26.246  1.00  0.00     0.053 C 
BRANCH  10  11
HETATM   11  C1  UNL     1     -15.737  25.527  27.456  1.00  0.00     0.231 C 
BRANCH  11  12
HETATM   12  N1  UNL     1     -17.063  25.049  27.040  1.00  0.00    -0.079 N 
ATOM     13  H13 UNL     1     -17.027  24.281  26.371  1.00  0.00     0.274 HD
ATOM     14  H12 UNL     1     -17.564  24.549  27.774  1.00  0.00     0.274 HD
ATOM     15  H11 UNL     1     -17.562  25.869  26.693  1.00  0.00     0.274 HD
ENDBRANCH  11  12
ENDBRANCH  10  11
ENDBRANCH   1  10
TORSDOF 3
ENDMDL
MODEL 3
REMARK VINA RESULT: -3.166039658      1.648      3.848
REMARK  3 active torsions:
REMARK  status: ('A' for Active; 'I' for Inactive)
REMARK    1  A    between atoms: N1_1  and  C1_5 
REMARK    2  A    between atoms: C1_5  and  C2_6 
REMARK    3  A    between atoms: C2_6  and  C3_7 
ROOT
HETATM    1  C3  UNL     1     -14.166  28.628  27.036  1.00  0.00     0.103 C 
HETATM    2  C4  UNL     1     -14.996  28.222  28.219  1.00  0.00     0.256 C 
HETATM    3  N2  UNL     1     -16.042  27.276  27.847  1.00  0.00    -0.072 N 
ATOM      4  H21 UNL     1     -16.755  27.675  27.236  1.00  0.00     0.277 HD
ATOM      5  H22 UNL     1     -16.664  27.032  28.619  1.00  0.00     0.277 HD
HETATM    6  C5  UNL     1     -15.352  26.125  27.266  1.00  0.00     0.251 C 
HETATM    7  C6  UNL     1     -14.691  26.520  25.990  1.00  0.00     0.141 C 
HETATM    8  N3  UNL     1     -14.461  27.919  25.834  1.00  0.00    -0.414 N 
ATOM      9  H3  UNL     1     -14.506  28.380  24.925  1.00  0.00     0.153 HD
ENDROOT
BRANCH   1  10
HETATM   10  C2  UNL     1     -12.712  28.532  27.442  1.00  0.00     0.053 C 
BRANCH  10  11
HETATM   11  C1  UNL     1     -12.555  28.377  28.939  1.00  0.00     0.231 C 
BRANCH  11  12
HETATM   12  N1  UNL     1     -11.367  27.536  29.136  1.00  0.00    -0.079 N 
ATOM     13  H13 UNL     1     -11.313  27.119  30.065  1.00  0.00     0.274 HD
ATOM     14  H12 UNL     1     -11.395  26.663  28.611  1.00  0.00     0.274 HD
ATOM     15  H11 UNL     1     -10.565  28.124  28.907  1.00  0.00     0.274 HD
ENDBRANCH  11  12
ENDBRANCH  10  11
ENDBRANCH   1  10
TORSDOF 3
ENDMDL
MODEL 4
REMARK VINA RESULT: -3.157389107      1.553      3.589
REMARK  3 active torsions:
REMARK  status: ('A' for Active; 'I' for Inactive)
REMARK    1  A    between atoms: N1_1  and  C1_5 
REMARK    2  A    between atoms: C1_5  and  C2_6 
REMARK    3  A    between atoms: C2_6  and  C3_7 
ROOT
HETATM    1  C3  UNL     1     -15.218  28.622  26.329  1.00  0.00     0.103 C 
HETATM    2  C4  UNL     1     -16.488  28.559  27.126  1.00  0.00     0.256 C 
HETATM    3  N2  UNL     1     -17.083  27.228  27.092  1.00  0.00    -0.072 N 
ATOM      4  H21 UNL     1     -17.419  26.955  26.169  1.00  0.00     0.277 HD
ATOM      5  H22 UNL     1     -17.982  27.172  27.572  1.00  0.00     0.277 HD
HETATM    6  C5  UNL     1     -16.072  26.324  27.637  1.00  0.00     0.251 C 
HETATM    7  C6  UNL     1     -14.897  26.267  26.723  1.00  0.00     0.141 C 
HETATM    8  N3  UNL     1     -14.774  27.365  25.823  1.00  0.00    -0.414 N 
ATOM      9  H3  UNL     1     -14.395  27.258  24.882  1.00  0.00     0.153 HD
ENDROOT
BRANCH   1  10
HETATM   10  C2  UNL     1     -14.180  29.324  27.175  1.00  0.00     0.053 C 
BRANCH  10  11
HETATM   11  C1  UNL     1     -14.663  29.541  28.593  1.00  0.00     0.231 C 
BRANCH  11  12
HETATM   12  N1  UNL     1     -13.717  28.821  29.457  1.00  0.00    -0.079 N 
ATOM     13  H13 UNL     1     -12.938  28.404  28.948  1.00  0.00     0.274 HD
ATOM     14  H12 UNL     1     -13.162  29.435  30.052  1.00  0.00     0.274 HD
ATOM     15  H11 UNL     1     -14.273  28.142  29.978  1.00  0.00     0.274 HD
ENDBRANCH  11  12
ENDBRANCH  10  11
ENDBRANCH   1  10
TORSDOF 3
ENDMDL
MODEL 5
REMARK VINA RESULT: -3.150374831      1.182      1.282
REMARK  3 active torsions:
REMARK  status: ('A' for Active; 'I' for Inactive)
REMARK    1  A    between atoms: N1_1  and  C1_5 
REMARK    2  A    between atoms: C1_5  and  C2_6 
REMARK    3  A    between atoms: C2_6  and  C3_7 
ROOT
HETATM    1  C3  UNL     1     -15.484  27.670  27.153  1.00  0.00     0.103 C 
HETATM    2  C4  UNL     1     -15.110  28.580  26.019  1.00  0.00     0.256 C 
HETATM    3  N2  UNL     1     -14.120  29.571  26.423  1.00  0.00    -0.072 N 
ATOM      4  H21 UNL     1     -14.472  30.244  27.105  1.00  0.00     0.277 HD
ATOM      5  H22 UNL     1     -13.895  30.245  25.691  1.00  0.00     0.277 HD
HETATM    6  C5  UNL     1     -12.963  28.812  26.895  1.00  0.00     0.251 C 
HETATM    7  C6  UNL     1     -13.317  28.063  28.134  1.00  0.00     0.141 C 
HETATM    8  N3  UNL     1     -14.713  27.855  28.338  1.00  0.00    -0.414 N 
ATOM      9  H3  UNL     1     -15.130  27.840  29.269  1.00  0.00     0.153 HD
ENDROOT
BRANCH   1  10
HETATM   10  C2  UNL     1     -15.445  26.251  26.633  1.00  0.00     0.053 C 
BRANCH  10  11
HETATM   11  C1  UNL     1     -16.061  25.276  27.614  1.00  0.00     0.231 C 
BRANCH  11  12
HETATM   12  N1  UNL     1     -17.338  24.858  27.021  1.00  0.00    -0.079 N 
ATOM     13  H13 UNL     1     -17.879  25.630  26.632  1.00  0.00     0.274 HD
ATOM     14  H12 UNL     1     -17.231  24.333  26.153  1.00  0.00     0.274 HD
ATOM     15  H11 UNL     1     -17.831  24.341  27.750  1.00  0.00     0.274 HD
ENDBRANCH  11  12
ENDBRANCH  10  11
ENDBRANCH   1  10
TORSDOF 3
ENDMDL
