MODEL 1
REMARK VINA RESULT: -3.392831433      0.000      0.000
REMARK  3 active torsions:
REMARK  status: ('A' for Active; 'I' for Inactive)
REMARK    1  A    between atoms: N1_3  and  N2_5 
REMARK    2  A    between atoms: N2_5  and  C3_7 
REMARK    3  A    between atoms: C3_7  and  C4_8 
ROOT
HETATM    1  C3  UNL     1     -14.634  26.600  26.140  1.00  0.00     0.172 C 
ENDROOT
BRANCH   1   2
HETATM    2  N2  UNL     1     -14.321  28.009  26.039  1.00  0.00    -0.335 N 
ATOM      3  H2  UNL     1     -15.076  28.668  25.848  1.00  0.00     0.180 HD
BRANCH   2   4
HETATM    4  N1  UNL     1     -13.026  28.494  26.194  1.00  0.00    -0.320 N 
HETATM    5  C2  UNL     1     -12.549  28.677  27.399  1.00  0.00     0.075 C 
HETATM    6  C1  UNL     1     -11.155  29.199  27.546  1.00  0.00     0.056 C 
ATOM      7  H1  UNL     1     -12.455  28.706  25.376  1.00  0.00     0.185 HD
ENDBRANCH   2   4
ENDBRANCH   1   2
BRANCH   1   8
HETATM    8  C4  UNL     1     -15.350  26.277  27.430  1.00  0.00     0.206 A 
HETATM    9  C5  UNL     1     -16.812  26.551  27.450  1.00  0.00     0.062 A 
HETATM   10  C6  UNL     1     -17.068  25.059  27.574  1.00  0.00     0.235 A 
HETATM   11  N3  UNL     1     -15.633  24.863  27.599  1.00  0.00    -0.069 N 
ATOM     12  H32 UNL     1     -15.220  24.202  26.942  1.00  0.00     0.277 HD
ATOM     13  H31 UNL     1     -15.221  24.375  28.396  1.00  0.00     0.277 HD
ENDBRANCH   1   8
TORSDOF 3
ENDMDL
MODEL 2
REMARK VINA RESULT: -3.322416308      1.701      4.419
REMARK  3 active torsions:
REMARK  status: ('A' for Active; 'I' for Inactive)
REMARK    1  A    between atoms: N1_3  and  N2_5 
REMARK    2  A    between atoms: N2_5  and  C3_7 
REMARK    3  A    between atoms: C3_7  and  C4_8 
ROOT
HETATM    1  C3  UNL     1     -13.469  28.464  26.816  1.00  0.00     0.172 C 
ENDROOT
BRANCH   1   2
HETATM    2  N2  UNL     1     -14.335  27.635  26.006  1.00  0.00    -0.335 N 
ATOM      3  H2  UNL     1     -14.594  27.958  25.074  1.00  0.00     0.180 HD
BRANCH   2   4
HETATM    4  N1  UNL     1     -14.826  26.414  26.456  1.00  0.00    -0.320 N 
HETATM    5  C2  UNL     1     -16.070  26.329  26.854  1.00  0.00     0.075 C 
HETATM    6  C1  UNL     1     -16.581  25.007  27.335  1.00  0.00     0.056 C 
ATOM      7  H1  UNL     1     -14.223  25.592  26.476  1.00  0.00     0.185 HD
ENDBRANCH   2   4
ENDBRANCH   1   2
BRANCH   1   8
HETATM    8  C4  UNL     1     -13.240  27.864  28.183  1.00  0.00     0.206 A 
HETATM    9  C5  UNL     1     -11.884  28.061  28.763  1.00  0.00     0.062 A 
HETATM   10  C6  UNL     1     -12.497  28.928  29.849  1.00  0.00     0.235 A 
HETATM   11  N3  UNL     1     -13.795  28.657  29.265  1.00  0.00    -0.069 N 
ATOM     12  H32 UNL     1     -14.399  29.445  29.032  1.00  0.00     0.277 HD
ATOM     13  H31 UNL     1     -14.516  28.240  29.855  1.00  0.00     0.277 HD
ENDBRANCH   1   8
TORSDOF 3
ENDMDL
MODEL 3
REMARK VINA RESULT: -3.306453520      1.393      4.264
REMARK  3 active torsions:
REMARK  status: ('A' for Active; 'I' for Inactive)
REMARK    1  A    between atoms: N1_3  and  N2_5 
REMARK    2  A    between atoms: N2_5  and  C3_7 
REMARK    3  A    between atoms: C3_7  and  C4_8 
ROOT
HETATM    1  C3  UNL     1     -14.885  28.727  26.404  1.00  0.00     0.172 C 
ENDROOT
BRANCH   1   2
HETATM    2  N2  UNL     1     -14.481  27.469  25.815  1.00  0.00    -0.335 N 
ATOM      3  H2  UNL     1     -13.714  27.464  25.144  1.00  0.00     0.180 HD
BRANCH   2   4
HETATM    4  N1  UNL     1     -15.105  26.266  26.135  1.00  0.00    -0.320 N 
HETATM    5  C2  UNL     1     -16.006  26.243  27.082  1.00  0.00     0.075 C 
HETATM    6  C1  UNL     1     -16.667  24.941  27.412  1.00  0.00     0.056 C 
ATOM      7  H1  UNL     1     -14.861  25.412  25.635  1.00  0.00     0.185 HD
ENDBRANCH   2   4
ENDBRANCH   1   2
BRANCH   1   8
HETATM    8  C4  UNL     1     -13.810  29.298  27.297  1.00  0.00     0.206 A 
HETATM    9  C5  UNL     1     -13.830  28.846  28.714  1.00  0.00     0.062 A 
HETATM   10  C6  UNL     1     -12.502  28.143  28.487  1.00  0.00     0.235 A 
HETATM   11  N3  UNL     1     -12.517  28.657  27.132  1.00  0.00    -0.069 N 
ATOM     12  H32 UNL     1     -12.394  28.001  26.361  1.00  0.00     0.277 HD
ATOM     13  H31 UNL     1     -11.729  29.223  26.817  1.00  0.00     0.277 HD
ENDBRANCH   1   8
TORSDOF 3
ENDMDL
MODEL 4
REMARK VINA RESULT: -3.299885000      1.850      2.188
REMARK  3 active torsions:
REMARK  status: ('A' for Active; 'I' for Inactive)
REMARK    1  A    between atoms: N1_3  and  N2_5 
REMARK    2  A    between atoms: N2_5  and  C3_7 
REMARK    3  A    between atoms: C3_7  and  C4_8 
ROOT
HETATM    1  C3  UNL     1     -14.676  26.601  26.069  1.00  0.00     0.172 C 
ENDROOT
BRANCH   1   2
HETATM    2  N2  UNL     1     -14.134  27.942  26.044  1.00  0.00    -0.335 N 
ATOM      3  H2  UNL     1     -13.162  28.085  26.318  1.00  0.00     0.180 HD
BRANCH   2   4
HETATM    4  N1  UNL     1     -14.894  29.042  25.657  1.00  0.00    -0.320 N 
HETATM    5  C2  UNL     1     -15.213  29.946  26.547  1.00  0.00     0.075 C 
HETATM    6  C1  UNL     1     -16.030  31.122  26.113  1.00  0.00     0.056 C 
ATOM      7  H1  UNL     1     -15.199  29.142  24.689  1.00  0.00     0.185 HD
ENDBRANCH   2   4
ENDBRANCH   1   2
BRANCH   1   8
HETATM    8  C4  UNL     1     -15.317  26.282  27.398  1.00  0.00     0.206 A 
HETATM    9  C5  UNL     1     -16.768  26.592  27.513  1.00  0.00     0.062 A 
HETATM   10  C6  UNL     1     -17.054  25.105  27.640  1.00  0.00     0.235 A 
HETATM   11  N3  UNL     1     -15.625  24.874  27.573  1.00  0.00    -0.069 N 
ATOM     12  H32 UNL     1     -15.271  24.210  26.885  1.00  0.00     0.277 HD
ATOM     13  H31 UNL     1     -15.177  24.368  28.337  1.00  0.00     0.277 HD
ENDBRANCH   1   8
TORSDOF 3
ENDMDL
MODEL 5
REMARK VINA RESULT: -3.292068793      2.286      2.463
REMARK  3 active torsions:
REMARK  status: ('A' for Active; 'I' for Inactive)
REMARK    1  A    between atoms: N1_3  and  N2_5 
REMARK    2  A    between atoms: N2_5  and  C3_7 
REMARK    3  A    between atoms: C3_7  and  C4_8 
ROOT
HETATM    1  C3  UNL     1     -15.869  28.286  28.195  1.00  0.00     0.172 C 
ENDROOT
BRANCH   1   2
HETATM    2  N2  UNL     1     -14.453  28.222  28.485  1.00  0.00    -0.335 N 
ATOM      3  H2  UNL     1     -13.859  27.624  27.910  1.00  0.00     0.180 HD
BRANCH   2   4
HETATM    4  N1  UNL     1     -13.874  28.949  29.521  1.00  0.00    -0.320 N 
HETATM    5  C2  UNL     1     -12.607  28.775  29.798  1.00  0.00     0.075 C 
HETATM    6  C1  UNL     1     -12.002  29.565  30.915  1.00  0.00     0.056 C 
ATOM      7  H1  UNL     1     -14.433  29.610  30.061  1.00  0.00     0.185 HD
ENDBRANCH   2   4
ENDBRANCH   1   2
BRANCH   1   8
HETATM    8  C4  UNL     1     -16.267  27.293  27.130  1.00  0.00     0.206 A 
HETATM    9  C5  UNL     1     -15.313  26.178  26.888  1.00  0.00     0.062 A 
HETATM   10  C6  UNL     1     -16.352  25.202  27.412  1.00  0.00     0.235 A 
HETATM   11  N3  UNL     1     -17.253  26.325  27.577  1.00  0.00    -0.069 N 
ATOM     12  H32 UNL     1     -17.696  26.465  28.485  1.00  0.00     0.277 HD
ATOM     13  H31 UNL     1     -18.157  26.297  27.106  1.00  0.00     0.277 HD
ENDBRANCH   1   8
TORSDOF 3
ENDMDL
