MODEL 1
REMARK VINA RESULT: -3.905643387      0.000      0.000
REMARK  2 active torsions:
REMARK  status: ('A' for Active; 'I' for Inactive)
REMARK    1  A    between atoms: O1_2  and  C2_3 
REMARK    2  A    between atoms: C2_3  and  C3_4 
ROOT
HETATM    1  C3  UNL     1     -14.349  27.077  26.386  1.00  0.00     0.246 C 
HETATM    2  N1  UNL     1     -15.675  27.656  26.397  1.00  0.00    -0.350 N 
ATOM      3  H1  UNL     1     -16.003  28.466  25.871  1.00  0.00     0.163 HD
HETATM    4  C4  UNL     1     -16.421  26.848  27.297  1.00  0.00     0.097 C 
HETATM    5  N2  UNL     1     -17.484  27.171  27.969  1.00  0.00    -0.387 N 
ATOM      6  H21 UNL     1     -18.020  26.591  28.615  1.00  0.00     0.157 HD
ATOM      7  H22 UNL     1     -17.977  28.064  27.971  1.00  0.00     0.157 HD
HETATM    8  C5  UNL     1     -15.702  25.546  27.294  1.00  0.00     0.246 C 
HETATM    9  O2  UNL     1     -14.402  25.885  27.049  1.00  0.00    -0.357 OA
ENDROOT
BRANCH   1  10
HETATM   10  C2  UNL     1     -13.448  28.089  27.115  1.00  0.00     0.220 C 
BRANCH  10  11
HETATM   11  O1  UNL     1     -12.701  27.347  28.011  1.00  0.00    -0.392 OA
HETATM   12  C1  UNL     1     -11.801  28.101  28.739  1.00  0.00     0.201 C 
ENDBRANCH  10  11
ENDBRANCH   1  10
TORSDOF 2
ENDMDL
MODEL 2
REMARK VINA RESULT: -3.613797769      1.036      1.036
REMARK  2 active torsions:
REMARK  status: ('A' for Active; 'I' for Inactive)
REMARK    1  A    between atoms: O1_2  and  C2_3 
REMARK    2  A    between atoms: C2_3  and  C3_4 
ROOT
HETATM    1  C3  UNL     1     -14.665  26.566  26.713  1.00  0.00     0.246 C 
HETATM    2  N1  UNL     1     -15.817  27.437  26.635  1.00  0.00    -0.350 N 
ATOM      3  H1  UNL     1     -15.906  28.303  26.103  1.00  0.00     0.163 HD
HETATM    4  C4  UNL     1     -16.797  26.825  27.462  1.00  0.00     0.097 C 
HETATM    5  N2  UNL     1     -17.806  27.385  28.058  1.00  0.00    -0.387 N 
ATOM      6  H21 UNL     1     -18.509  26.945  28.651  1.00  0.00     0.157 HD
ATOM      7  H22 UNL     1     -18.076  28.368  28.041  1.00  0.00     0.157 HD
HETATM    8  C5  UNL     1     -16.402  25.391  27.487  1.00  0.00     0.246 C 
HETATM    9  O2  UNL     1     -15.044  25.419  27.347  1.00  0.00    -0.357 OA
ENDROOT
BRANCH   1  10
HETATM   10  C2  UNL     1     -13.613  27.339  27.527  1.00  0.00     0.220 C 
BRANCH  10  11
HETATM   11  O1  UNL     1     -12.881  28.061  26.603  1.00  0.00    -0.392 OA
HETATM   12  C1  UNL     1     -12.338  29.224  27.115  1.00  0.00     0.201 C 
ENDBRANCH  10  11
ENDBRANCH   1  10
TORSDOF 2
ENDMDL
MODEL 3
REMARK VINA RESULT: -3.582180897      1.793      3.871
REMARK  2 active torsions:
REMARK  status: ('A' for Active; 'I' for Inactive)
REMARK    1  A    between atoms: O1_2  and  C2_3 
REMARK    2  A    between atoms: C2_3  and  C3_4 
ROOT
HETATM    1  C3  UNL     1     -14.438  27.654  27.114  1.00  0.00     0.246 C 
HETATM    2  N1  UNL     1     -14.057  28.827  26.358  1.00  0.00    -0.350 N 
ATOM      3  H1  UNL     1     -14.657  29.413  25.777  1.00  0.00     0.163 HD
HETATM    4  C4  UNL     1     -12.666  28.986  26.601  1.00  0.00     0.097 C 
HETATM    5  N2  UNL     1     -11.787  29.591  25.860  1.00  0.00    -0.387 N 
ATOM      6  H21 UNL     1     -10.789  29.705  26.035  1.00  0.00     0.157 HD
ATOM      7  H22 UNL     1     -11.938  30.062  24.968  1.00  0.00     0.157 HD
HETATM    8  C5  UNL     1     -12.447  28.299  27.902  1.00  0.00     0.246 C 
HETATM    9  O2  UNL     1     -13.389  27.311  27.918  1.00  0.00    -0.357 OA
ENDROOT
BRANCH   1  10
HETATM   10  C2  UNL     1     -14.728  26.563  26.069  1.00  0.00     0.220 C 
BRANCH  10  11
HETATM   11  O1  UNL     1     -15.040  25.426  26.792  1.00  0.00    -0.392 OA
HETATM   12  C1  UNL     1     -16.341  25.407  27.259  1.00  0.00     0.201 C 
ENDBRANCH  10  11
ENDBRANCH   1  10
TORSDOF 2
ENDMDL
MODEL 4
REMARK VINA RESULT: -3.575360242      2.477      3.745
REMARK  2 active torsions:
REMARK  status: ('A' for Active; 'I' for Inactive)
REMARK    1  A    between atoms: O1_2  and  C2_3 
REMARK    2  A    between atoms: C2_3  and  C3_4 
ROOT
HETATM    1  C3  UNL     1     -14.850  27.260  26.066  1.00  0.00     0.246 C 
HETATM    2  N1  UNL     1     -13.624  27.975  26.346  1.00  0.00    -0.350 N 
ATOM      3  H1  UNL     1     -12.669  27.631  26.248  1.00  0.00     0.163 HD
HETATM    4  C4  UNL     1     -14.041  29.260  26.786  1.00  0.00     0.097 C 
HETATM    5  N2  UNL     1     -13.393  30.099  27.537  1.00  0.00    -0.387 N 
ATOM      6  H21 UNL     1     -13.692  31.021  27.853  1.00  0.00     0.157 HD
ATOM      7  H22 UNL     1     -12.466  29.985  27.948  1.00  0.00     0.157 HD
HETATM    8  C5  UNL     1     -15.392  29.426  26.187  1.00  0.00     0.246 C 
HETATM    9  O2  UNL     1     -15.881  28.153  26.115  1.00  0.00    -0.357 OA
ENDROOT
BRANCH   1  10
HETATM   10  C2  UNL     1     -14.973  26.196  27.170  1.00  0.00     0.220 C 
BRANCH  10  11
HETATM   11  O1  UNL     1     -15.734  25.178  26.627  1.00  0.00    -0.392 OA
HETATM   12  C1  UNL     1     -16.877  24.896  27.350  1.00  0.00     0.201 C 
ENDBRANCH  10  11
ENDBRANCH   1  10
TORSDOF 2
ENDMDL
MODEL 5
REMARK VINA RESULT: -3.484198772      2.223      3.211
REMARK  2 active torsions:
REMARK  status: ('A' for Active; 'I' for Inactive)
REMARK    1  A    between atoms: O1_2  and  C2_3 
REMARK    2  A    between atoms: C2_3  and  C3_4 
ROOT
HETATM    1  C3  UNL     1     -14.611  27.484  26.897  1.00  0.00     0.246 C 
HETATM    2  N1  UNL     1     -14.669  28.182  28.163  1.00  0.00    -0.350 N 
ATOM      3  H1  UNL     1     -13.953  28.211  28.889  1.00  0.00     0.163 HD
HETATM    4  C4  UNL     1     -15.939  28.819  28.174  1.00  0.00     0.097 C 
HETATM    5  N2  UNL     1     -16.637  29.195  29.203  1.00  0.00    -0.387 N 
ATOM      6  H21 UNL     1     -17.549  29.652  29.211  1.00  0.00     0.157 HD
ATOM      7  H22 UNL     1     -16.399  29.099  30.190  1.00  0.00     0.157 HD
HETATM    8  C5  UNL     1     -16.285  28.958  26.735  1.00  0.00     0.246 C 
HETATM    9  O2  UNL     1     -15.673  27.890  26.142  1.00  0.00    -0.357 OA
ENDROOT
BRANCH   1  10
HETATM   10  C2  UNL     1     -14.704  25.988  27.242  1.00  0.00     0.220 C 
BRANCH  10  11
HETATM   11  O1  UNL     1     -15.767  25.499  26.506  1.00  0.00    -0.392 OA
HETATM   12  C1  UNL     1     -16.750  24.909  27.278  1.00  0.00     0.201 C 
ENDBRANCH  10  11
ENDBRANCH   1  10
TORSDOF 2
ENDMDL
