MODEL 1
REMARK VINA RESULT: -9.771487101      0.000      0.000
REMARK  7 active torsions:
REMARK  status: ('A' for Active; 'I' for Inactive)
REMARK    1  A    between atoms: C2_2  and  N1_5 
REMARK    2  A    between atoms: N1_5  and  C5_7 
REMARK    3  A    between atoms: C6_10  and  N3_11 
REMARK    4  A    between atoms: N3_11  and  C7_13 
REMARK    5  A    between atoms: C11_17  and  N4_18 
REMARK    6  A    between atoms: N4_18  and  C12_20 
REMARK    7  A    between atoms: C14_24  and  C15_25 
ROOT
HETATM    1  C7  UNL     1      38.894 -11.137  43.714  1.00  0.00     0.035 A 
HETATM    2  C8  UNL     1      39.579  -9.980  44.008  1.00  0.00     0.029 A 
HETATM    3  C9  UNL     1      38.976  -8.753  43.861  1.00  0.00     0.004 A 
HETATM    4  C10 UNL     1      37.670  -8.651  43.416  1.00  0.00     0.029 A 
HETATM    5  C11 UNL     1      36.974  -9.792  43.119  1.00  0.00     0.035 A 
HETATM    6  C25 UNL     1      37.570 -11.024  43.264  1.00  0.00     0.059 A 
ENDROOT
BRANCH   1   7
HETATM    7  N3  UNL     1      39.505 -12.387  43.864  1.00  0.00    -0.341 N 
ATOM      8  H3  UNL     1      39.157 -13.049  44.557  1.00  0.00     0.167 HD
BRANCH   7   9
HETATM    9  C6  UNL     1      40.512 -12.697  43.121  1.00  0.00     0.137 A 
HETATM   10  N2  UNL     1      41.673 -11.982  43.102  1.00  0.00    -0.176 N 
HETATM   11  C5  UNL     1      42.706 -12.324  42.316  1.00  0.00     0.681 A 
ATOM     12  H2  UNL     1      41.758 -11.162  43.703  1.00  0.00     0.186 HD
HETATM   13  N8  UNL     1      42.561 -13.431  41.520  1.00  0.00    -0.174 N 
HETATM   14  C28 UNL     1      41.457 -14.160  41.499  1.00  0.00     0.151 A 
ATOM     15  H8  UNL     1      43.337 -13.705  40.918  1.00  0.00     0.186 HD
HETATM   16  C26 UNL     1      40.410 -13.793  42.312  1.00  0.00     0.071 A 
HETATM   17  N7  UNL     1      41.056 -15.271  40.825  1.00  0.00    -0.285 N 
HETATM   18  C27 UNL     1      39.414 -14.709  42.088  1.00  0.00     0.126 A 
HETATM   19  N6  UNL     1      39.832 -15.602  41.176  1.00  0.00    -0.309 N 
ATOM     20  H6  UNL     1      39.297 -16.394  40.820  1.00  0.00     0.186 HD
ATOM     21  H7  UNL     1      41.623 -15.776  40.145  1.00  0.00     0.188 HD
BRANCH  11  22
HETATM   22  N1  UNL     1      43.815 -11.678  42.279  1.00  0.00    -0.218 N 
ATOM     23  H1  UNL     1      43.806 -10.805  41.750  1.00  0.00     0.178 HD
BRANCH  22  24
HETATM   24  C2  UNL     1      45.059 -12.029  42.884  1.00  0.00     0.036 C 
HETATM   25  C1  UNL     1      46.004 -12.511  41.793  1.00  0.00     0.038 C 
HETATM   26  C3  UNL     1      45.691 -10.748  43.465  1.00  0.00     0.038 C 
HETATM   27  C4  UNL     1      44.942 -13.018  43.999  1.00  0.00     0.038 C 
ENDBRANCH  22  24
ENDBRANCH  11  22
ENDBRANCH   7   9
ENDBRANCH   1   7
BRANCH   5  28
HETATM   28  N4  UNL     1      35.614  -9.780  42.653  1.00  0.00    -0.342 N 
ATOM     29  H4  UNL     1      34.889  -9.360  43.236  1.00  0.00     0.167 HD
BRANCH  28  30
HETATM   30  C12 UNL     1      35.294 -10.289  41.513  1.00  0.00     0.116 A 
HETATM   31  N5  UNL     1      35.024 -11.588  41.371  1.00  0.00    -0.351 N 
HETATM   32  C13 UNL     1      34.710 -12.037  40.174  1.00  0.00     0.098 A 
ATOM     33  H5  UNL     1      35.060 -12.219  42.172  1.00  0.00     0.166 HD
HETATM   34  C14 UNL     1      34.624 -11.291  38.998  1.00  0.00    -0.024 A 
HETATM   35  C19 UNL     1      34.903  -9.932  39.133  1.00  0.00    -0.014 A 
HETATM   36  C20 UNL     1      34.841  -9.105  38.063  1.00  0.00     0.013 A 
HETATM   37  C24 UNL     1      35.234  -9.463  40.399  1.00  0.00     0.019 A 
HETATM   38  C21 UNL     1      35.119  -7.744  38.230  1.00  0.00     0.001 A 
HETATM   39  C22 UNL     1      35.451  -7.242  39.468  1.00  0.00     0.001 A 
HETATM   40  C23 UNL     1      35.504  -8.111  40.533  1.00  0.00     0.016 A 
BRANCH  34  41
HETATM   41  C15 UNL     1      34.302 -11.906  37.706  1.00  0.00    -0.022 C 
HETATM   42  C16 UNL     1      35.423 -11.978  36.716  1.00  0.00     0.019 C 
HETATM   43  C17 UNL     1      33.989 -13.383  38.013  1.00  0.00     0.019 C 
HETATM   44  C18 UNL     1      33.009 -11.398  37.105  1.00  0.00     0.019 C 
ENDBRANCH  34  41
ENDBRANCH  28  30
ENDBRANCH   5  28
TORSDOF 7
ENDMDL
MODEL 2
REMARK VINA RESULT: -9.724415739      2.968      8.870
REMARK  7 active torsions:
REMARK  status: ('A' for Active; 'I' for Inactive)
REMARK    1  A    between atoms: C2_2  and  N1_5 
REMARK    2  A    between atoms: N1_5  and  C5_7 
REMARK    3  A    between atoms: C6_10  and  N3_11 
REMARK    4  A    between atoms: N3_11  and  C7_13 
REMARK    5  A    between atoms: C11_17  and  N4_18 
REMARK    6  A    between atoms: N4_18  and  C12_20 
REMARK    7  A    between atoms: C14_24  and  C15_25 
ROOT
HETATM    1  C7  UNL     1      35.846 -10.171  41.513  1.00  0.00     0.035 A 
HETATM    2  C8  UNL     1      35.162  -9.357  42.388  1.00  0.00     0.029 A 
HETATM    3  C9  UNL     1      35.841  -8.529  43.250  1.00  0.00     0.004 A 
HETATM    4  C10 UNL     1      37.225  -8.492  43.259  1.00  0.00     0.029 A 
HETATM    5  C11 UNL     1      37.920  -9.295  42.396  1.00  0.00     0.035 A 
HETATM    6  C25 UNL     1      37.248 -10.127  41.530  1.00  0.00     0.059 A 
ENDROOT
BRANCH   1   7
HETATM    7  N3  UNL     1      35.156 -11.014  40.635  1.00  0.00    -0.341 N 
ATOM      8  H3  UNL     1      34.562 -11.759  40.999  1.00  0.00     0.167 HD
BRANCH   7   9
HETATM    9  C6  UNL     1      35.276 -10.844  39.362  1.00  0.00     0.137 A 
HETATM   10  N2  UNL     1      35.942  -9.791  38.811  1.00  0.00    -0.176 N 
HETATM   11  C5  UNL     1      36.050  -9.635  37.481  1.00  0.00     0.681 A 
ATOM     12  H2  UNL     1      36.372  -9.101  39.427  1.00  0.00     0.186 HD
HETATM   13  N8  UNL     1      35.461 -10.579  36.681  1.00  0.00    -0.174 N 
HETATM   14  C28 UNL     1      34.802 -11.619  37.163  1.00  0.00     0.151 A 
ATOM     15  H8  UNL     1      35.534 -10.475  35.668  1.00  0.00     0.186 HD
HETATM   16  C26 UNL     1      34.704 -11.761  38.527  1.00  0.00     0.071 A 
HETATM   17  N7  UNL     1      34.141 -12.673  36.613  1.00  0.00    -0.285 N 
HETATM   18  C27 UNL     1      33.979 -12.907  38.740  1.00  0.00     0.126 A 
HETATM   19  N6  UNL     1      33.646 -13.445  37.556  1.00  0.00    -0.309 N 
ATOM     20  H6  UNL     1      33.108 -14.300  37.414  1.00  0.00     0.186 HD
ATOM     21  H7  UNL     1      34.042 -12.841  35.612  1.00  0.00     0.188 HD
BRANCH  11  22
HETATM   22  N1  UNL     1      36.676  -8.660  36.929  1.00  0.00    -0.218 N 
ATOM     23  H1  UNL     1      37.652  -8.834  36.688  1.00  0.00     0.178 HD
BRANCH  22  24
HETATM   24  C2  UNL     1      36.176  -7.361  36.609  1.00  0.00     0.036 C 
HETATM   25  C1  UNL     1      37.051  -6.327  37.302  1.00  0.00     0.038 C 
HETATM   26  C3  UNL     1      36.359  -7.134  35.094  1.00  0.00     0.038 C 
HETATM   27  C4  UNL     1      34.728  -7.167  36.921  1.00  0.00     0.038 C 
ENDBRANCH  22  24
ENDBRANCH  11  22
ENDBRANCH   7   9
ENDBRANCH   1   7
BRANCH   5  28
HETATM   28  N4  UNL     1      39.356  -9.320  42.336  1.00  0.00    -0.342 N 
ATOM     29  H4  UNL     1      39.818  -9.412  41.431  1.00  0.00     0.167 HD
BRANCH  28  30
HETATM   30  C12 UNL     1      40.071  -9.228  43.405  1.00  0.00     0.116 A 
HETATM   31  N5  UNL     1      40.390  -8.048  43.941  1.00  0.00    -0.351 N 
HETATM   32  C13 UNL     1      41.129  -8.033  45.031  1.00  0.00     0.098 A 
ATOM     33  H5  UNL     1      40.069  -7.178  43.517  1.00  0.00     0.166 HD
HETATM   34  C14 UNL     1      41.634  -9.140  45.713  1.00  0.00    -0.024 A 
HETATM   35  C19 UNL     1      41.307 -10.379  45.164  1.00  0.00    -0.014 A 
HETATM   36  C20 UNL     1      41.731 -11.525  45.744  1.00  0.00     0.013 A 
HETATM   37  C24 UNL     1      40.527 -10.389  44.013  1.00  0.00     0.019 A 
HETATM   38  C21 UNL     1      41.382 -12.754  45.175  1.00  0.00     0.001 A 
HETATM   39  C22 UNL     1      40.611 -12.805  44.035  1.00  0.00     0.001 A 
HETATM   40  C23 UNL     1      40.196 -11.620  43.472  1.00  0.00     0.016 A 
BRANCH  34  41
HETATM   41  C15 UNL     1      42.483  -9.003  46.901  1.00  0.00    -0.022 C 
HETATM   42  C16 UNL     1      43.873  -9.548  46.781  1.00  0.00     0.019 C 
HETATM   43  C17 UNL     1      42.698  -7.489  47.089  1.00  0.00     0.019 C 
HETATM   44  C18 UNL     1      41.792  -9.415  48.183  1.00  0.00     0.019 C 
ENDBRANCH  34  41
ENDBRANCH  28  30
ENDBRANCH   5  28
TORSDOF 7
ENDMDL
MODEL 3
REMARK VINA RESULT: -9.684840863      0.854      2.505
REMARK  7 active torsions:
REMARK  status: ('A' for Active; 'I' for Inactive)
REMARK    1  A    between atoms: C2_2  and  N1_5 
REMARK    2  A    between atoms: N1_5  and  C5_7 
REMARK    3  A    between atoms: C6_10  and  N3_11 
REMARK    4  A    between atoms: N3_11  and  C7_13 
REMARK    5  A    between atoms: C11_17  and  N4_18 
REMARK    6  A    between atoms: N4_18  and  C12_20 
REMARK    7  A    between atoms: C14_24  and  C15_25 
ROOT
HETATM    1  C7  UNL     1      39.025 -11.104  43.772  1.00  0.00     0.035 A 
HETATM    2  C8  UNL     1      39.715 -10.010  44.243  1.00  0.00     0.029 A 
HETATM    3  C9  UNL     1      39.175  -8.749  44.149  1.00  0.00     0.004 A 
HETATM    4  C10 UNL     1      37.929  -8.548  43.581  1.00  0.00     0.029 A 
HETATM    5  C11 UNL     1      37.229  -9.626  43.108  1.00  0.00     0.035 A 
HETATM    6  C25 UNL     1      37.763 -10.892  43.198  1.00  0.00     0.059 A 
ENDROOT
BRANCH   1   7
HETATM    7  N3  UNL     1      39.572 -12.388  43.868  1.00  0.00    -0.341 N 
ATOM      8  H3  UNL     1      39.190 -13.061  44.533  1.00  0.00     0.167 HD
BRANCH   7   9
HETATM    9  C6  UNL     1      40.562 -12.718  43.110  1.00  0.00     0.137 A 
HETATM   10  N2  UNL     1      41.729 -12.014  43.061  1.00  0.00    -0.176 N 
HETATM   11  C5  UNL     1      42.744 -12.376  42.261  1.00  0.00     0.681 A 
ATOM     12  H2  UNL     1      41.833 -11.188  43.650  1.00  0.00     0.186 HD
HETATM   13  N8  UNL     1      42.573 -13.490  41.480  1.00  0.00    -0.174 N 
HETATM   14  C28 UNL     1      41.461 -14.208  41.488  1.00  0.00     0.151 A 
ATOM     15  H8  UNL     1      43.335 -13.779  40.867  1.00  0.00     0.186 HD
HETATM   16  C26 UNL     1      40.434 -13.821  42.315  1.00  0.00     0.071 A 
HETATM   17  N7  UNL     1      41.037 -15.323  40.835  1.00  0.00    -0.285 N 
HETATM   18  C27 UNL     1      39.424 -14.730  42.120  1.00  0.00     0.126 A 
HETATM   19  N6  UNL     1      39.817 -15.637  41.212  1.00  0.00    -0.309 N 
ATOM     20  H6  UNL     1      39.267 -16.427  40.875  1.00  0.00     0.186 HD
ATOM     21  H7  UNL     1      41.587 -15.842  40.150  1.00  0.00     0.188 HD
BRANCH  11  22
HETATM   22  N1  UNL     1      43.859 -11.742  42.195  1.00  0.00    -0.218 N 
ATOM     23  H1  UNL     1      43.857 -10.892  41.630  1.00  0.00     0.178 HD
BRANCH  22  24
HETATM   24  C2  UNL     1      45.100 -12.078  42.815  1.00  0.00     0.036 C 
HETATM   25  C1  UNL     1      46.054 -12.574  41.739  1.00  0.00     0.038 C 
HETATM   26  C3  UNL     1      45.723 -10.784  43.378  1.00  0.00     0.038 C 
HETATM   27  C4  UNL     1      44.979 -13.047  43.945  1.00  0.00     0.038 C 
ENDBRANCH  22  24
ENDBRANCH  11  22
ENDBRANCH   7   9
ENDBRANCH   1   7
BRANCH   5  28
HETATM   28  N4  UNL     1      35.930  -9.511  42.506  1.00  0.00    -0.342 N 
ATOM     29  H4  UNL     1      35.107  -9.812  43.029  1.00  0.00     0.167 HD
BRANCH  28  30
HETATM   30  C12 UNL     1      35.784  -9.035  41.317  1.00  0.00     0.116 A 
HETATM   31  N5  UNL     1      36.035  -7.755  41.034  1.00  0.00    -0.351 N 
HETATM   32  C13 UNL     1      35.858  -7.339  39.797  1.00  0.00     0.098 A 
ATOM     33  H5  UNL     1      36.358  -7.113  41.758  1.00  0.00     0.166 HD
HETATM   34  C14 UNL     1      35.424  -8.103  38.713  1.00  0.00    -0.024 A 
HETATM   35  C19 UNL     1      35.158  -9.442  38.995  1.00  0.00    -0.014 A 
HETATM   36  C20 UNL     1      34.741 -10.284  38.022  1.00  0.00     0.013 A 
HETATM   37  C24 UNL     1      35.347  -9.875  40.303  1.00  0.00     0.019 A 
HETATM   38  C21 UNL     1      34.489 -11.624  38.333  1.00  0.00     0.001 A 
HETATM   39  C22 UNL     1      34.664 -12.091  39.616  1.00  0.00     0.001 A 
HETATM   40  C23 UNL     1      35.090 -11.208  40.581  1.00  0.00     0.016 A 
BRANCH  34  41
HETATM   41  C15 UNL     1      35.223  -7.523  37.381  1.00  0.00    -0.022 C 
HETATM   42  C16 UNL     1      33.865  -7.715  36.779  1.00  0.00     0.019 C 
HETATM   43  C17 UNL     1      35.327  -5.997  37.569  1.00  0.00     0.019 C 
HETATM   44  C18 UNL     1      36.350  -7.828  36.417  1.00  0.00     0.019 C 
ENDBRANCH  34  41
ENDBRANCH  28  30
ENDBRANCH   5  28
TORSDOF 7
ENDMDL
MODEL 4
REMARK VINA RESULT: -9.638134440      2.291      4.406
REMARK  7 active torsions:
REMARK  status: ('A' for Active; 'I' for Inactive)
REMARK    1  A    between atoms: C2_2  and  N1_5 
REMARK    2  A    between atoms: N1_5  and  C5_7 
REMARK    3  A    between atoms: C6_10  and  N3_11 
REMARK    4  A    between atoms: N3_11  and  C7_13 
REMARK    5  A    between atoms: C11_17  and  N4_18 
REMARK    6  A    between atoms: N4_18  and  C12_20 
REMARK    7  A    between atoms: C14_24  and  C15_25 
ROOT
HETATM    1  C7  UNL     1      37.681 -16.417  41.342  1.00  0.00     0.035 A 
HETATM    2  C8  UNL     1      36.804 -17.477  41.304  1.00  0.00     0.029 A 
HETATM    3  C9  UNL     1      35.470 -17.291  41.582  1.00  0.00     0.004 A 
HETATM    4  C10 UNL     1      34.978 -16.038  41.906  1.00  0.00     0.029 A 
HETATM    5  C11 UNL     1      35.838 -14.973  41.948  1.00  0.00     0.035 A 
HETATM    6  C25 UNL     1      37.175 -15.151  41.671  1.00  0.00     0.059 A 
ENDROOT
BRANCH   1   7
HETATM    7  N3  UNL     1      39.039 -16.604  41.058  1.00  0.00    -0.341 N 
ATOM      8  H3  UNL     1      39.325 -17.251  40.323  1.00  0.00     0.167 HD
BRANCH   7   9
HETATM    9  C6  UNL     1      39.926 -15.954  41.730  1.00  0.00     0.137 A 
HETATM   10  N2  UNL     1      40.120 -14.611  41.605  1.00  0.00    -0.176 N 
HETATM   11  C5  UNL     1      41.053 -13.957  42.315  1.00  0.00     0.681 A 
ATOM     12  H2  UNL     1      39.537 -14.086  40.951  1.00  0.00     0.186 HD
HETATM   13  N8  UNL     1      41.820 -14.689  43.183  1.00  0.00    -0.174 N 
HETATM   14  C28 UNL     1      41.675 -15.995  43.343  1.00  0.00     0.151 A 
ATOM     15  H8  UNL     1      42.533 -14.208  43.731  1.00  0.00     0.186 HD
HETATM   16  C26 UNL     1      40.713 -16.645  42.608  1.00  0.00     0.071 A 
HETATM   17  N7  UNL     1      42.282 -16.939  44.112  1.00  0.00    -0.285 N 
HETATM   18  C27 UNL     1      40.785 -17.967  42.969  1.00  0.00     0.126 A 
HETATM   19  N6  UNL     1      41.751 -18.121  43.889  1.00  0.00    -0.309 N 
ATOM     20  H6  UNL     1      42.023 -18.997  44.334  1.00  0.00     0.186 HD
ATOM     21  H7  UNL     1      43.041 -16.756  44.768  1.00  0.00     0.188 HD
BRANCH  11  22
HETATM   22  N1  UNL     1      41.257 -12.692  42.227  1.00  0.00    -0.218 N 
ATOM     23  H1  UNL     1      41.969 -12.400  41.557  1.00  0.00     0.178 HD
BRANCH  22  24
HETATM   24  C2  UNL     1      40.611 -11.645  42.949  1.00  0.00     0.036 C 
HETATM   25  C1  UNL     1      41.679 -10.701  43.482  1.00  0.00     0.038 C 
HETATM   26  C3  UNL     1      39.768 -10.821  41.954  1.00  0.00     0.038 C 
HETATM   27  C4  UNL     1      39.694 -12.119  44.029  1.00  0.00     0.038 C 
ENDBRANCH  22  24
ENDBRANCH  11  22
ENDBRANCH   7   9
ENDBRANCH   1   7
BRANCH   5  28
HETATM   28  N4  UNL     1      35.414 -13.639  42.274  1.00  0.00    -0.342 N 
ATOM     29  H4  UNL     1      35.156 -13.417  43.236  1.00  0.00     0.167 HD
BRANCH  28  30
HETATM   30  C12 UNL     1      35.355 -12.719  41.374  1.00  0.00     0.116 A 
HETATM   31  N5  UNL     1      34.889 -12.960  40.147  1.00  0.00    -0.351 N 
HETATM   32  C13 UNL     1      34.863 -11.971  39.278  1.00  0.00     0.098 A 
ATOM     33  H5  UNL     1      34.559 -13.890  39.887  1.00  0.00     0.166 HD
HETATM   34  C14 UNL     1      35.280 -10.658  39.496  1.00  0.00    -0.024 A 
HETATM   35  C19 UNL     1      35.769 -10.391  40.775  1.00  0.00    -0.014 A 
HETATM   36  C20 UNL     1      36.192  -9.150  41.108  1.00  0.00     0.013 A 
HETATM   37  C24 UNL     1      35.793 -11.440  41.687  1.00  0.00     0.019 A 
HETATM   38  C21 UNL     1      36.670  -8.910  42.400  1.00  0.00     0.001 A 
HETATM   39  C22 UNL     1      36.711  -9.923  43.332  1.00  0.00     0.001 A 
HETATM   40  C23 UNL     1      36.272 -11.173  42.959  1.00  0.00     0.016 A 
BRANCH  34  41
HETATM   41  C15 UNL     1      35.243  -9.642  38.439  1.00  0.00    -0.022 C 
HETATM   42  C16 UNL     1      36.422  -9.612  37.515  1.00  0.00     0.019 C 
HETATM   43  C17 UNL     1      34.070 -10.036  37.522  1.00  0.00     0.019 C 
HETATM   44  C18 UNL     1      34.844  -8.270  38.938  1.00  0.00     0.019 C 
ENDBRANCH  34  41
ENDBRANCH  28  30
ENDBRANCH   5  28
TORSDOF 7
ENDMDL
MODEL 5
REMARK VINA RESULT: -9.511543172      3.082      9.301
REMARK  7 active torsions:
REMARK  status: ('A' for Active; 'I' for Inactive)
REMARK    1  A    between atoms: C2_2  and  N1_5 
REMARK    2  A    between atoms: N1_5  and  C5_7 
REMARK    3  A    between atoms: C6_10  and  N3_11 
REMARK    4  A    between atoms: N3_11  and  C7_13 
REMARK    5  A    between atoms: C11_17  and  N4_18 
REMARK    6  A    between atoms: N4_18  and  C12_20 
REMARK    7  A    between atoms: C14_24  and  C15_25 
ROOT
HETATM    1  C7  UNL     1      35.810  -8.512  41.164  1.00  0.00     0.035 A 
HETATM    2  C8  UNL     1      35.059  -8.731  42.297  1.00  0.00     0.029 A 
HETATM    3  C9  UNL     1      35.653  -9.176  43.454  1.00  0.00     0.004 A 
HETATM    4  C10 UNL     1      37.015  -9.415  43.510  1.00  0.00     0.029 A 
HETATM    5  C11 UNL     1      37.777  -9.203  42.391  1.00  0.00     0.035 A 
HETATM    6  C25 UNL     1      37.190  -8.757  41.229  1.00  0.00     0.059 A 
ENDROOT
BRANCH   1   7
HETATM    7  N3  UNL     1      35.208  -8.058  39.985  1.00  0.00    -0.341 N 
ATOM      8  H3  UNL     1      34.537  -7.290  40.015  1.00  0.00     0.167 HD
BRANCH   7   9
HETATM    9  C6  UNL     1      35.506  -8.615  38.861  1.00  0.00     0.137 A 
HETATM   10  N2  UNL     1      35.167  -9.899  38.554  1.00  0.00    -0.176 N 
HETATM   11  C5  UNL     1      35.492 -10.458  37.377  1.00  0.00     0.681 A 
ATOM     12  H2  UNL     1      34.651 -10.452  39.239  1.00  0.00     0.186 HD
HETATM   13  N8  UNL     1      36.185  -9.689  36.478  1.00  0.00    -0.174 N 
HETATM   14  C28 UNL     1      36.540  -8.439  36.726  1.00  0.00     0.151 A 
ATOM     15  H8  UNL     1      36.439 -10.099  35.579  1.00  0.00     0.186 HD
HETATM   16  C26 UNL     1      36.197  -7.885  37.936  1.00  0.00     0.071 A 
HETATM   17  N7  UNL     1      37.212  -7.479  36.035  1.00  0.00    -0.285 N 
HETATM   18  C27 UNL     1      36.684  -6.602  37.921  1.00  0.00     0.126 A 
HETATM   19  N6  UNL     1      37.300  -6.378  36.749  1.00  0.00    -0.309 N 
ATOM     20  H6  UNL     1      37.754  -5.511  36.464  1.00  0.00     0.186 HD
ATOM     21  H7  UNL     1      37.593  -7.597  35.096  1.00  0.00     0.188 HD
BRANCH  11  22
HETATM   22  N1  UNL     1      35.183 -11.660  37.051  1.00  0.00    -0.218 N 
ATOM     23  H1  UNL     1      35.884 -12.174  36.517  1.00  0.00     0.178 HD
BRANCH  22  24
HETATM   24  C2  UNL     1      33.979 -12.369  37.344  1.00  0.00     0.036 C 
HETATM   25  C1  UNL     1      32.806 -11.420  37.153  1.00  0.00     0.038 C 
HETATM   26  C3  UNL     1      33.807 -13.483  36.291  1.00  0.00     0.038 C 
HETATM   27  C4  UNL     1      33.960 -13.018  38.690  1.00  0.00     0.038 C 
ENDBRANCH  22  24
ENDBRANCH  11  22
ENDBRANCH   7   9
ENDBRANCH   1   7
BRANCH   5  28
HETATM   28  N4  UNL     1      39.196  -9.423  42.359  1.00  0.00    -0.342 N 
ATOM     29  H4  UNL     1      39.643  -9.680  41.478  1.00  0.00     0.167 HD
BRANCH  28  30
HETATM   30  C12 UNL     1      39.916  -9.304  43.421  1.00  0.00     0.116 A 
HETATM   31  N5  UNL     1      40.165  -8.115  43.975  1.00  0.00    -0.351 N 
HETATM   32  C13 UNL     1      40.914  -8.071  45.057  1.00  0.00     0.098 A 
ATOM     33  H5  UNL     1      39.784  -7.260  43.569  1.00  0.00     0.166 HD
HETATM   34  C14 UNL     1      41.496  -9.155  45.714  1.00  0.00    -0.024 A 
HETATM   35  C19 UNL     1      41.243 -10.403  45.147  1.00  0.00    -0.014 A 
HETATM   36  C20 UNL     1      41.746 -11.529  45.703  1.00  0.00     0.013 A 
HETATM   37  C24 UNL     1      40.452 -10.443  44.004  1.00  0.00     0.019 A 
HETATM   38  C21 UNL     1      41.469 -12.768  45.116  1.00  0.00     0.001 A 
HETATM   39  C22 UNL     1      40.691 -12.849  43.983  1.00  0.00     0.001 A 
HETATM   40  C23 UNL     1      40.195 -11.684  43.445  1.00  0.00     0.016 A 
BRANCH  34  41
HETATM   41  C15 UNL     1      42.349  -8.984  46.896  1.00  0.00    -0.022 C 
HETATM   42  C16 UNL     1      43.764  -9.453  46.758  1.00  0.00     0.019 C 
HETATM   43  C17 UNL     1      42.485  -7.462  47.096  1.00  0.00     0.019 C 
HETATM   44  C18 UNL     1      41.693  -9.443  48.181  1.00  0.00     0.019 C 
ENDBRANCH  34  41
ENDBRANCH  28  30
ENDBRANCH   5  28
TORSDOF 7
ENDMDL
