MODEL 1
REMARK VINA RESULT: -11.130987383      0.000      0.000
REMARK  5 active torsions:
REMARK  status: ('A' for Active; 'I' for Inactive)
REMARK    1  A    between atoms: C8_8  and  C9_9 
REMARK    2  A    between atoms: C9_9  and  N2_29 
REMARK    3  A    between atoms: N1_10  and  S1_12 
REMARK    4  A    between atoms: S1_12  and  C10_15 
REMARK       I    between atoms: N2_29  and  C24_31 
REMARK    5  A    between atoms: C27_38  and  O3_39 
ROOT
HETATM    1  C9  UNL     1      36.398 -10.192  40.902  1.00  0.00     0.128 C 
HETATM    2  N1  UNL     1      36.481 -11.418  41.094  1.00  0.00    -0.265 N 
ATOM      3  H1  UNL     1      36.075 -11.961  40.332  1.00  0.00     0.180 HD
ENDROOT
BRANCH   1   4
HETATM    4  C8  UNL     1      35.772  -9.678  39.689  1.00  0.00     0.020 A 
HETATM    5  C7  UNL     1      35.973  -8.353  39.338  1.00  0.00     0.016 A 
HETATM    6  C6  UNL     1      35.404  -7.856  38.192  1.00  0.00     0.002 A 
HETATM    7  C5  UNL     1      34.639  -8.683  37.405  1.00  0.00     0.012 A 
HETATM    8  C4  UNL     1      34.439 -10.008  37.757  1.00  0.00    -0.024 A 
HETATM    9  C3  UNL     1      33.680 -10.851  36.967  1.00  0.00     0.022 A 
HETATM   10  C25 UNL     1      35.012 -10.530  38.922  1.00  0.00    -0.009 A 
HETATM   11  C2  UNL     1      33.461 -12.184  37.271  1.00  0.00    -0.028 A 
HETATM   12  C1  UNL     1      32.630 -13.010  36.353  1.00  0.00     0.051 C 
HETATM   13  C27 UNL     1      34.024 -12.700  38.413  1.00  0.00     0.072 A 
HETATM   14  C26 UNL     1      34.788 -11.855  39.211  1.00  0.00     0.050 A 
BRANCH  13  15
HETATM   15  O3  UNL     1      33.805 -14.030  38.714  1.00  0.00    -0.360 OA
ATOM     16  H3  UNL     1      32.990 -14.271  39.138  1.00  0.00     0.217 HD
ENDBRANCH  13  15
ENDBRANCH   1   4
BRANCH   1  17
HETATM   17  N2  UNL     1      36.905  -9.257  41.832  1.00  0.00    -0.316 N 
HETATM   18  C24 UNL     1      36.108  -8.562  42.797  1.00  0.00     0.187 C 
HETATM   19  N3  UNL     1      35.465  -9.207  43.685  1.00  0.00    -0.373 N 
HETATM   20  N4  UNL     1      36.051  -7.157  42.745  1.00  0.00    -0.064 NA
ATOM     21  H32 UNL     1      35.506 -10.226  43.723  1.00  0.00     0.158 HD
ATOM     22  H31 UNL     1      34.897  -8.713  44.373  1.00  0.00     0.158 HD
ATOM     23  H2  UNL     1      37.906  -9.064  41.814  1.00  0.00     0.170 HD
ENDBRANCH   1  17
BRANCH   2  24
HETATM   24  S1  UNL     1      37.105 -12.389  42.310  1.00  0.00     0.264 S 
HETATM   25  O1  UNL     1      36.424 -13.760  42.347  1.00  0.00    -0.200 OA
HETATM   26  O2  UNL     1      36.691 -11.777  43.648  1.00  0.00    -0.200 OA
BRANCH  24  27
HETATM   27  C10 UNL     1      38.842 -12.615  42.274  1.00  0.00     0.080 A 
HETATM   28  C11 UNL     1      39.710 -11.553  42.205  1.00  0.00     0.026 A 
HETATM   29  C12 UNL     1      41.104 -11.730  42.159  1.00  0.00     0.014 A 
HETATM   30  C13 UNL     1      41.656 -12.998  42.183  1.00  0.00    -0.015 A 
HETATM   31  C14 UNL     1      40.775 -14.064  42.253  1.00  0.00    -0.024 A 
HETATM   32  C22 UNL     1      43.021 -13.173  42.139  1.00  0.00    -0.015 A 
HETATM   33  C15 UNL     1      41.275 -15.348  42.279  1.00  0.00     0.013 A 
HETATM   34  C23 UNL     1      39.400 -13.871  42.297  1.00  0.00     0.037 A 
HETATM   35  C16 UNL     1      42.650 -15.544  42.235  1.00  0.00     0.013 A 
HETATM   36  C17 UNL     1      43.518 -14.477  42.165  1.00  0.00    -0.025 A 
HETATM   37  C18 UNL     1      44.867 -14.719  42.122  1.00  0.00     0.012 A 
HETATM   38  C19 UNL     1      45.747 -13.665  42.052  1.00  0.00     0.001 A 
HETATM   39  C20 UNL     1      45.238 -12.371  42.025  1.00  0.00     0.001 A 
HETATM   40  C21 UNL     1      43.889 -12.106  42.068  1.00  0.00     0.013 A 
ENDBRANCH  24  27
ENDBRANCH   2  24
TORSDOF 5
ENDMDL
MODEL 2
REMARK VINA RESULT: -10.925049785      2.813      3.704
REMARK  5 active torsions:
REMARK  status: ('A' for Active; 'I' for Inactive)
REMARK    1  A    between atoms: C8_8  and  C9_9 
REMARK    2  A    between atoms: C9_9  and  N2_29 
REMARK    3  A    between atoms: N1_10  and  S1_12 
REMARK    4  A    between atoms: S1_12  and  C10_15 
REMARK       I    between atoms: N2_29  and  C24_31 
REMARK    5  A    between atoms: C27_38  and  O3_39 
ROOT
HETATM    1  C9  UNL     1      37.147  -9.827  41.124  1.00  0.00     0.128 C 
HETATM    2  N1  UNL     1      37.749 -10.911  41.225  1.00  0.00    -0.265 N 
ATOM      3  H1  UNL     1      37.814 -11.405  40.335  1.00  0.00     0.180 HD
ENDROOT
BRANCH   1   4
HETATM    4  C8  UNL     1      36.627  -9.390  39.834  1.00  0.00     0.020 A 
HETATM    5  C7  UNL     1      37.018  -8.161  39.331  1.00  0.00     0.016 A 
HETATM    6  C6  UNL     1      36.550  -7.740  38.111  1.00  0.00     0.002 A 
HETATM    7  C5  UNL     1      35.694  -8.549  37.402  1.00  0.00     0.012 A 
HETATM    8  C4  UNL     1      35.303  -9.779  37.906  1.00  0.00    -0.024 A 
HETATM    9  C3  UNL     1      34.452 -10.606  37.196  1.00  0.00     0.022 A 
HETATM   10  C25 UNL     1      35.772 -10.223  39.148  1.00  0.00    -0.009 A 
HETATM   11  C2  UNL     1      34.042 -11.847  37.652  1.00  0.00    -0.028 A 
HETATM   12  C1  UNL     1      33.125 -12.663  36.811  1.00  0.00     0.051 C 
HETATM   13  C27 UNL     1      34.502 -12.285  38.870  1.00  0.00     0.072 A 
HETATM   14  C26 UNL     1      35.359 -11.457  39.588  1.00  0.00     0.050 A 
BRANCH  13  15
HETATM   15  O3  UNL     1      34.094 -13.524  39.324  1.00  0.00    -0.360 OA
ATOM     16  H3  UNL     1      34.141 -14.263  38.730  1.00  0.00     0.217 HD
ENDBRANCH  13  15
ENDBRANCH   1   4
BRANCH   1  17
HETATM   17  N2  UNL     1      36.951  -8.979  42.238  1.00  0.00    -0.316 N 
HETATM   18  C24 UNL     1      35.712  -8.842  42.942  1.00  0.00     0.187 C 
HETATM   19  N3  UNL     1      35.187  -9.846  43.521  1.00  0.00    -0.373 N 
HETATM   20  N4  UNL     1      35.090  -7.580  42.982  1.00  0.00    -0.064 NA
ATOM     21  H32 UNL     1      35.638 -10.760  43.492  1.00  0.00     0.158 HD
ATOM     22  H31 UNL     1      34.305  -9.748  44.023  1.00  0.00     0.158 HD
ATOM     23  H2  UNL     1      37.745  -8.427  42.561  1.00  0.00     0.170 HD
ENDBRANCH   1  17
BRANCH   2  24
HETATM   24  S1  UNL     1      38.480 -11.750  42.478  1.00  0.00     0.264 S 
HETATM   25  O1  UNL     1      38.861 -13.174  42.062  1.00  0.00    -0.200 OA
HETATM   26  O2  UNL     1      37.419 -11.992  43.552  1.00  0.00    -0.200 OA
BRANCH  24  27
HETATM   27  C10 UNL     1      39.878 -10.970  43.191  1.00  0.00     0.080 A 
HETATM   28  C11 UNL     1      41.153 -11.428  42.971  1.00  0.00     0.026 A 
HETATM   29  C12 UNL     1      42.277 -10.815  43.555  1.00  0.00     0.014 A 
HETATM   30  C13 UNL     1      42.132  -9.716  44.381  1.00  0.00    -0.015 A 
HETATM   31  C14 UNL     1      40.843  -9.259  44.598  1.00  0.00    -0.024 A 
HETATM   32  C22 UNL     1      43.231  -9.114  44.952  1.00  0.00    -0.015 A 
HETATM   33  C15 UNL     1      40.645  -8.167  45.414  1.00  0.00     0.013 A 
HETATM   34  C23 UNL     1      39.744  -9.877  44.013  1.00  0.00     0.037 A 
HETATM   35  C16 UNL     1      41.742  -7.547  45.999  1.00  0.00     0.013 A 
HETATM   36  C17 UNL     1      43.020  -8.008  45.778  1.00  0.00    -0.025 A 
HETATM   37  C18 UNL     1      44.073  -7.366  46.379  1.00  0.00     0.012 A 
HETATM   38  C19 UNL     1      45.355  -7.814  46.168  1.00  0.00     0.001 A 
HETATM   39  C20 UNL     1      45.550  -8.917  45.344  1.00  0.00     0.001 A 
HETATM   40  C21 UNL     1      44.510  -9.576  44.732  1.00  0.00     0.013 A 
ENDBRANCH  24  27
ENDBRANCH   2  24
TORSDOF 5
ENDMDL
MODEL 3
REMARK VINA RESULT: -10.879576692      1.866      3.309
REMARK  5 active torsions:
REMARK  status: ('A' for Active; 'I' for Inactive)
REMARK    1  A    between atoms: C8_8  and  C9_9 
REMARK    2  A    between atoms: C9_9  and  N2_29 
REMARK    3  A    between atoms: N1_10  and  S1_12 
REMARK    4  A    between atoms: S1_12  and  C10_15 
REMARK       I    between atoms: N2_29  and  C24_31 
REMARK    5  A    between atoms: C27_38  and  O3_39 
ROOT
HETATM    1  C9  UNL     1      36.353 -10.571  41.339  1.00  0.00     0.128 C 
HETATM    2  N1  UNL     1      37.565 -10.850  41.333  1.00  0.00    -0.265 N 
ATOM      3  H1  UNL     1      37.873 -11.229  40.438  1.00  0.00     0.180 HD
ENDROOT
BRANCH   1   4
HETATM    4  C8  UNL     1      35.539 -10.794  40.150  1.00  0.00     0.020 A 
HETATM    5  C7  UNL     1      34.680 -11.879  40.115  1.00  0.00     0.016 A 
HETATM    6  C6  UNL     1      33.896 -12.096  39.010  1.00  0.00     0.002 A 
HETATM    7  C5  UNL     1      33.975 -11.229  37.947  1.00  0.00     0.012 A 
HETATM    8  C4  UNL     1      34.834 -10.142  37.982  1.00  0.00    -0.024 A 
HETATM    9  C3  UNL     1      34.913  -9.258  36.923  1.00  0.00     0.022 A 
HETATM   10  C25 UNL     1      35.640  -9.907  39.102  1.00  0.00    -0.009 A 
HETATM   11  C2  UNL     1      35.747  -8.152  36.917  1.00  0.00    -0.028 A 
HETATM   12  C1  UNL     1      35.757  -7.258  35.727  1.00  0.00     0.051 C 
HETATM   13  C27 UNL     1      36.538  -7.919  38.015  1.00  0.00     0.072 A 
HETATM   14  C26 UNL     1      36.462  -8.807  39.083  1.00  0.00     0.050 A 
BRANCH  13  15
HETATM   15  O3  UNL     1      37.369  -6.816  38.008  1.00  0.00    -0.360 OA
ATOM     16  H3  UNL     1      38.307  -6.955  37.945  1.00  0.00     0.217 HD
ENDBRANCH  13  15
ENDBRANCH   1   4
BRANCH   1  17
HETATM   17  N2  UNL     1      35.721 -10.025  42.480  1.00  0.00    -0.316 N 
HETATM   18  C24 UNL     1      35.574  -8.624  42.732  1.00  0.00     0.187 C 
HETATM   19  N3  UNL     1      34.916  -7.891  41.926  1.00  0.00    -0.373 N 
HETATM   20  N4  UNL     1      36.169  -8.076  43.884  1.00  0.00    -0.064 NA
ATOM     21  H32 UNL     1      34.486  -8.288  41.091  1.00  0.00     0.158 HD
ATOM     22  H31 UNL     1      34.811  -6.893  42.105  1.00  0.00     0.158 HD
ATOM     23  H2  UNL     1      35.344 -10.675  43.170  1.00  0.00     0.170 HD
ENDBRANCH   1  17
BRANCH   2  24
HETATM   24  S1  UNL     1      38.812 -10.748  42.448  1.00  0.00     0.264 S 
HETATM   25  O1  UNL     1      38.285 -10.666  43.884  1.00  0.00    -0.200 OA
HETATM   26  O2  UNL     1      39.487  -9.389  42.265  1.00  0.00    -0.200 OA
BRANCH  24  27
HETATM   27  C10 UNL     1      40.011 -12.023  42.352  1.00  0.00     0.080 A 
HETATM   28  C11 UNL     1      39.657 -13.346  42.266  1.00  0.00     0.026 A 
HETATM   29  C12 UNL     1      40.616 -14.373  42.206  1.00  0.00     0.014 A 
HETATM   30  C13 UNL     1      41.967 -14.080  42.232  1.00  0.00    -0.015 A 
HETATM   31  C14 UNL     1      42.318 -12.743  42.318  1.00  0.00    -0.024 A 
HETATM   32  C22 UNL     1      42.907 -15.085  42.172  1.00  0.00    -0.015 A 
HETATM   33  C15 UNL     1      43.651 -12.399  42.347  1.00  0.00     0.013 A 
HETATM   34  C23 UNL     1      41.356 -11.741  42.377  1.00  0.00     0.037 A 
HETATM   35  C16 UNL     1      44.613 -13.399  42.288  1.00  0.00     0.013 A 
HETATM   36  C17 UNL     1      44.256 -14.725  42.202  1.00  0.00    -0.025 A 
HETATM   37  C18 UNL     1      45.241 -15.678  42.149  1.00  0.00     0.012 A 
HETATM   38  C19 UNL     1      44.900 -17.008  42.063  1.00  0.00     0.001 A 
HETATM   39  C20 UNL     1      43.552 -17.351  42.035  1.00  0.00     0.001 A 
HETATM   40  C21 UNL     1      42.549 -16.412  42.087  1.00  0.00     0.013 A 
ENDBRANCH  24  27
ENDBRANCH   2  24
TORSDOF 5
ENDMDL
MODEL 4
REMARK VINA RESULT: -10.879520099      2.414      8.234
REMARK  5 active torsions:
REMARK  status: ('A' for Active; 'I' for Inactive)
REMARK    1  A    between atoms: C8_8  and  C9_9 
REMARK    2  A    between atoms: C9_9  and  N2_29 
REMARK    3  A    between atoms: N1_10  and  S1_12 
REMARK    4  A    between atoms: S1_12  and  C10_15 
REMARK       I    between atoms: N2_29  and  C24_31 
REMARK    5  A    between atoms: C27_38  and  O3_39 
ROOT
HETATM    1  C9  UNL     1      37.577  -9.389  41.915  1.00  0.00     0.128 C 
HETATM    2  N1  UNL     1      37.443  -9.496  40.683  1.00  0.00    -0.265 N 
ATOM      3  H1  UNL     1      38.312  -9.756  40.217  1.00  0.00     0.180 HD
ENDROOT
BRANCH   1   4
HETATM    4  C8  UNL     1      38.873  -9.629  42.539  1.00  0.00     0.020 A 
HETATM    5  C7  UNL     1      39.595  -8.552  43.027  1.00  0.00     0.016 A 
HETATM    6  C6  UNL     1      40.810  -8.761  43.631  1.00  0.00     0.002 A 
HETATM    7  C5  UNL     1      41.297 -10.042  43.742  1.00  0.00     0.012 A 
HETATM    8  C4  UNL     1      40.574 -11.118  43.253  1.00  0.00    -0.024 A 
HETATM    9  C3  UNL     1      41.049 -12.411  43.370  1.00  0.00     0.022 A 
HETATM   10  C25 UNL     1      39.333 -10.922  42.636  1.00  0.00    -0.009 A 
HETATM   11  C2  UNL     1      40.358 -13.519  42.907  1.00  0.00    -0.028 A 
HETATM   12  C1  UNL     1      40.954 -14.871  43.083  1.00  0.00     0.051 C 
HETATM   13  C27 UNL     1      39.140 -13.329  42.302  1.00  0.00     0.072 A 
HETATM   14  C26 UNL     1      38.658 -12.030  42.183  1.00  0.00     0.050 A 
BRANCH  13  15
HETATM   15  O3  UNL     1      38.451 -14.434  41.842  1.00  0.00    -0.360 OA
ATOM     16  H3  UNL     1      38.876 -15.283  41.884  1.00  0.00     0.217 HD
ENDBRANCH  13  15
ENDBRANCH   1   4
BRANCH   1  17
HETATM   17  N2  UNL     1      36.494  -9.042  42.754  1.00  0.00    -0.316 N 
HETATM   18  C24 UNL     1      36.240  -7.721  43.243  1.00  0.00     0.187 C 
HETATM   19  N3  UNL     1      36.012  -6.767  42.432  1.00  0.00    -0.373 N 
HETATM   20  N4  UNL     1      36.245  -7.500  44.633  1.00  0.00    -0.064 NA
ATOM     21  H32 UNL     1      36.008  -6.928  41.425  1.00  0.00     0.158 HD
ATOM     22  H31 UNL     1      35.830  -5.826  42.780  1.00  0.00     0.158 HD
ATOM     23  H2  UNL     1      35.850  -9.783  43.029  1.00  0.00     0.170 HD
ENDBRANCH   1  17
BRANCH   2  24
HETATM   24  S1  UNL     1      36.170  -9.316  39.608  1.00  0.00     0.264 S 
HETATM   25  O1  UNL     1      36.635  -8.732  38.270  1.00  0.00    -0.200 OA
HETATM   26  O2  UNL     1      35.259  -8.214  40.151  1.00  0.00    -0.200 OA
BRANCH  24  27
HETATM   27  C10 UNL     1      35.232 -10.764  39.304  1.00  0.00     0.080 A 
HETATM   28  C11 UNL     1      35.241 -11.829  40.172  1.00  0.00     0.026 A 
HETATM   29  C12 UNL     1      34.503 -13.000  39.923  1.00  0.00     0.014 A 
HETATM   30  C13 UNL     1      33.732 -13.120  38.782  1.00  0.00    -0.015 A 
HETATM   31  C14 UNL     1      33.727 -12.043  37.911  1.00  0.00    -0.024 A 
HETATM   32  C22 UNL     1      33.008 -14.266  38.538  1.00  0.00    -0.015 A 
HETATM   33  C15 UNL     1      32.974 -12.113  36.759  1.00  0.00     0.013 A 
HETATM   34  C23 UNL     1      34.462 -10.893  38.173  1.00  0.00     0.037 A 
HETATM   35  C16 UNL     1      32.238 -13.261  36.497  1.00  0.00     0.013 A 
HETATM   36  C17 UNL     1      32.249 -14.327  37.368  1.00  0.00    -0.025 A 
HETATM   37  C18 UNL     1      31.508 -15.441  37.065  1.00  0.00     0.012 A 
HETATM   38  C19 UNL     1      31.509 -16.515  37.925  1.00  0.00     0.001 A 
HETATM   39  C20 UNL     1      32.270 -16.439  39.087  1.00  0.00     0.001 A 
HETATM   40  C21 UNL     1      33.020 -15.333  39.409  1.00  0.00     0.013 A 
ENDBRANCH  24  27
ENDBRANCH   2  24
TORSDOF 5
ENDMDL
MODEL 5
REMARK VINA RESULT: -10.796312942      3.806      5.314
REMARK  5 active torsions:
REMARK  status: ('A' for Active; 'I' for Inactive)
REMARK    1  A    between atoms: C8_8  and  C9_9 
REMARK    2  A    between atoms: C9_9  and  N2_29 
REMARK    3  A    between atoms: N1_10  and  S1_12 
REMARK    4  A    between atoms: S1_12  and  C10_15 
REMARK       I    between atoms: N2_29  and  C24_31 
REMARK    5  A    between atoms: C27_38  and  O3_39 
ROOT
HETATM    1  C9  UNL     1      37.624 -10.644  42.087  1.00  0.00     0.128 C 
HETATM    2  N1  UNL     1      38.648 -10.470  42.772  1.00  0.00    -0.265 N 
ATOM      3  H1  UNL     1      38.693  -9.534  43.175  1.00  0.00     0.180 HD
ENDROOT
BRANCH   1   4
HETATM    4  C8  UNL     1      36.648  -9.571  41.935  1.00  0.00     0.020 A 
HETATM    5  C7  UNL     1      36.069  -9.021  43.067  1.00  0.00     0.016 A 
HETATM    6  C6  UNL     1      35.159  -8.001  42.944  1.00  0.00     0.002 A 
HETATM    7  C5  UNL     1      34.833  -7.536  41.692  1.00  0.00     0.012 A 
HETATM    8  C4  UNL     1      35.413  -8.085  40.560  1.00  0.00    -0.024 A 
HETATM    9  C3  UNL     1      35.101  -7.618  39.297  1.00  0.00     0.022 A 
HETATM   10  C25 UNL     1      36.343  -9.126  40.669  1.00  0.00    -0.009 A 
HETATM   11  C2  UNL     1      35.662  -8.127  38.138  1.00  0.00    -0.028 A 
HETATM   12  C1  UNL     1      35.261  -7.553  36.825  1.00  0.00     0.051 C 
HETATM   13  C27 UNL     1      36.575  -9.148  38.243  1.00  0.00     0.072 A 
HETATM   14  C26 UNL     1      36.892  -9.622  39.511  1.00  0.00     0.050 A 
BRANCH  13  15
HETATM   15  O3  UNL     1      37.134  -9.655  37.086  1.00  0.00    -0.360 OA
ATOM     16  H3  UNL     1      38.073  -9.579  36.965  1.00  0.00     0.217 HD
ENDBRANCH  13  15
ENDBRANCH   1   4
BRANCH   1  17
HETATM   17  N2  UNL     1      37.360 -11.873  41.442  1.00  0.00    -0.316 N 
HETATM   18  C24 UNL     1      36.650 -12.963  42.038  1.00  0.00     0.187 C 
HETATM   19  N3  UNL     1      35.442 -12.817  42.413  1.00  0.00    -0.373 N 
HETATM   20  N4  UNL     1      37.310 -14.196  42.199  1.00  0.00    -0.064 NA
ATOM     21  H32 UNL     1      34.964 -11.924  42.296  1.00  0.00     0.158 HD
ATOM     22  H31 UNL     1      34.936 -13.594  42.837  1.00  0.00     0.158 HD
ATOM     23  H2  UNL     1      37.699 -11.991  40.488  1.00  0.00     0.170 HD
ENDBRANCH   1  17
BRANCH   2  24
HETATM   24  S1  UNL     1      39.971 -11.410  43.188  1.00  0.00     0.264 S 
HETATM   25  O1  UNL     1      40.495 -12.213  41.994  1.00  0.00    -0.200 OA
HETATM   26  O2  UNL     1      39.479 -12.506  44.134  1.00  0.00    -0.200 OA
BRANCH  24  27
HETATM   27  C10 UNL     1      41.305 -10.546  43.925  1.00  0.00     0.080 A 
HETATM   28  C11 UNL     1      42.613 -10.853  43.641  1.00  0.00     0.026 A 
HETATM   29  C12 UNL     1      43.686 -10.173  44.243  1.00  0.00     0.014 A 
HETATM   30  C13 UNL     1      43.458  -9.159  45.154  1.00  0.00    -0.015 A 
HETATM   31  C14 UNL     1      42.137  -8.854  45.437  1.00  0.00    -0.024 A 
HETATM   32  C22 UNL     1      44.509  -8.492  45.744  1.00  0.00    -0.015 A 
HETATM   33  C15 UNL     1      41.857  -7.851  46.338  1.00  0.00     0.013 A 
HETATM   34  C23 UNL     1      41.088  -9.536  44.832  1.00  0.00     0.037 A 
HETATM   35  C16 UNL     1      42.904  -7.168  46.943  1.00  0.00     0.013 A 
HETATM   36  C17 UNL     1      44.215  -7.477  46.657  1.00  0.00    -0.025 A 
HETATM   37  C18 UNL     1      45.215  -6.777  47.280  1.00  0.00     0.012 A 
HETATM   38  C19 UNL     1      46.530  -7.075  47.005  1.00  0.00     0.001 A 
HETATM   39  C20 UNL     1      46.808  -8.088  46.094  1.00  0.00     0.001 A 
HETATM   40  C21 UNL     1      45.820  -8.803  45.458  1.00  0.00     0.013 A 
ENDBRANCH  24  27
ENDBRANCH   2  24
TORSDOF 5
ENDMDL
