MODEL 1
REMARK VINA RESULT: -10.058736914      0.000      0.000
REMARK  6 active torsions:
REMARK  status: ('A' for Active; 'I' for Inactive)
REMARK    1  A    between atoms: C8_9  and  N2_10 
REMARK    2  A    between atoms: N2_10  and  C9_12 
REMARK    3  A    between atoms: C18_23  and  N4_24 
REMARK    4  A    between atoms: N4_24  and  C19_26 
REMARK    5  A    between atoms: C19_26  and  N5_28 
REMARK    6  A    between atoms: N5_28  and  C20_30 
ROOT
HETATM    1  C1  UNL     1      37.759  -9.366  40.415  1.00  0.00     0.051 C 
HETATM    2  C2  UNL     1      36.700 -10.375  40.275  1.00  0.00    -0.023 A 
HETATM    3  C3  UNL     1      36.314 -11.251  41.264  1.00  0.00     0.014 A 
HETATM    4  C4  UNL     1      36.897 -11.334  42.649  1.00  0.00     0.069 C 
HETATM    5  N1  UNL     1      35.310 -12.061  40.832  1.00  0.00    -0.353 N 
HETATM    6  C5  UNL     1      34.717 -13.077  41.668  1.00  0.00     0.156 C 
HETATM    7  C6  UNL     1      35.055 -11.710  39.582  1.00  0.00     0.061 A 
HETATM    8  C7  UNL     1      35.904 -10.662  39.207  1.00  0.00     0.044 A 
HETATM    9  C8  UNL     1      35.840 -10.120  37.960  1.00  0.00     0.119 A 
HETATM   10  N3  UNL     1      34.960 -10.572  37.050  1.00  0.00    -0.341 N 
ATOM     11  H3  UNL     1      34.933 -10.146  36.124  1.00  0.00     0.167 HD
HETATM   12  C15 UNL     1      34.115 -11.574  37.341  1.00  0.00     0.046 A 
HETATM   13  C16 UNL     1      33.215 -12.014  36.367  1.00  0.00     0.033 A 
HETATM   14  C17 UNL     1      32.378 -13.033  36.711  1.00  0.00     0.032 A 
HETATM   15  C18 UNL     1      32.373 -13.643  37.949  1.00  0.00     0.035 A 
HETATM   16  C27 UNL     1      33.284 -13.183  38.910  1.00  0.00     0.045 A 
HETATM   17  C28 UNL     1      34.152 -12.157  38.615  1.00  0.00     0.021 A 
ENDROOT
BRANCH  15  18
HETATM   18  N4  UNL     1      31.459 -14.661  38.228  1.00  0.00    -0.333 N 
ATOM     19  H4  UNL     1      30.557 -14.331  38.572  1.00  0.00     0.168 HD
BRANCH  18  20
HETATM   20  C19 UNL     1      31.558 -16.045  38.122  1.00  0.00     0.191 C 
HETATM   21  S1  UNL     1      31.421 -16.838  36.725  1.00  0.00    -0.040 SA
BRANCH  20  22
HETATM   22  N5  UNL     1      31.760 -16.865  39.297  1.00  0.00    -0.166 N 
ATOM     23  H5  UNL     1      30.954 -17.242  39.796  1.00  0.00     0.186 HD
BRANCH  22  24
HETATM   24  C20 UNL     1      32.945 -17.122  39.715  1.00  0.00     0.685 A 
HETATM   25  N6  UNL     1      33.770 -16.309  40.392  1.00  0.00    -0.189 N 
HETATM   26  C21 UNL     1      34.916 -16.950  40.642  1.00  0.00     0.076 A 
ATOM     27  H6  UNL     1      33.556 -15.351  40.671  1.00  0.00     0.184 HD
HETATM   28  C22 UNL     1      36.099 -16.623  41.286  1.00  0.00     0.032 A 
HETATM   29  C26 UNL     1      34.815 -18.225  40.102  1.00  0.00     0.076 A 
HETATM   30  C23 UNL     1      37.154 -17.498  41.406  1.00  0.00     0.002 A 
HETATM   31  C24 UNL     1      37.027 -18.757  40.860  1.00  0.00     0.002 A 
HETATM   32  C25 UNL     1      35.862 -19.114  40.214  1.00  0.00     0.032 A 
HETATM   33  N7  UNL     1      33.592 -18.282  39.545  1.00  0.00    -0.189 N 
ATOM     34  H7  UNL     1      33.210 -19.094  39.062  1.00  0.00     0.184 HD
ENDBRANCH  22  24
ENDBRANCH  20  22
ENDBRANCH  18  20
ENDBRANCH  15  18
BRANCH   9  35
HETATM   35  N2  UNL     1      36.603  -9.166  37.600  1.00  0.00    -0.342 N 
ATOM     36  H2  UNL     1      37.592  -9.384  37.471  1.00  0.00     0.167 HD
BRANCH  35  37
HETATM   37  C9  UNL     1      36.202  -7.843  37.365  1.00  0.00     0.033 A 
HETATM   38  C10 UNL     1      36.759  -7.117  36.334  1.00  0.00     0.029 A 
HETATM   39  C11 UNL     1      36.398  -5.812  36.061  1.00  0.00     0.002 A 
HETATM   40  C12 UNL     1      35.452  -5.196  36.830  1.00  0.00     0.000 A 
HETATM   41  C13 UNL     1      34.871  -5.898  37.876  1.00  0.00     0.002 A 
HETATM   42  C14 UNL     1      35.247  -7.211  38.136  1.00  0.00     0.029 A 
ENDBRANCH  35  37
ENDBRANCH   9  35
TORSDOF 6
ENDMDL
MODEL 2
REMARK VINA RESULT: -9.617282049      6.720     10.438
REMARK  6 active torsions:
REMARK  status: ('A' for Active; 'I' for Inactive)
REMARK    1  A    between atoms: C8_9  and  N2_10 
REMARK    2  A    between atoms: N2_10  and  C9_12 
REMARK    3  A    between atoms: C18_23  and  N4_24 
REMARK    4  A    between atoms: N4_24  and  C19_26 
REMARK    5  A    between atoms: C19_26  and  N5_28 
REMARK    6  A    between atoms: N5_28  and  C20_30 
ROOT
HETATM    1  C1  UNL     1      34.487  -8.042  42.020  1.00  0.00     0.051 C 
HETATM    2  C2  UNL     1      35.795  -8.393  42.589  1.00  0.00    -0.023 A 
HETATM    3  C3  UNL     1      36.590  -7.538  43.318  1.00  0.00     0.014 A 
HETATM    4  C4  UNL     1      36.269  -6.108  43.662  1.00  0.00     0.069 C 
HETATM    5  N1  UNL     1      37.738  -8.154  43.708  1.00  0.00    -0.353 N 
HETATM    6  C5  UNL     1      38.754  -7.485  44.485  1.00  0.00     0.156 C 
HETATM    7  C6  UNL     1      37.682  -9.388  43.235  1.00  0.00     0.061 A 
HETATM    8  C7  UNL     1      36.484  -9.568  42.534  1.00  0.00     0.044 A 
HETATM    9  C8  UNL     1      36.187 -10.759  41.947  1.00  0.00     0.119 A 
HETATM   10  N3  UNL     1      37.032 -11.801  42.022  1.00  0.00    -0.341 N 
ATOM     11  H3  UNL     1      36.783 -12.682  41.573  1.00  0.00     0.167 HD
HETATM   12  C15 UNL     1      38.200 -11.700  42.678  1.00  0.00     0.046 A 
HETATM   13  C16 UNL     1      39.051 -12.807  42.733  1.00  0.00     0.033 A 
HETATM   14  C17 UNL     1      40.223 -12.655  43.411  1.00  0.00     0.032 A 
HETATM   15  C18 UNL     1      40.608 -11.485  44.035  1.00  0.00     0.035 A 
HETATM   16  C27 UNL     1      39.736 -10.390  43.967  1.00  0.00     0.045 A 
HETATM   17  C28 UNL     1      38.540 -10.488  43.295  1.00  0.00     0.021 A 
ENDROOT
BRANCH  15  18
HETATM   18  N4  UNL     1      41.814 -11.426  44.737  1.00  0.00    -0.333 N 
ATOM     19  H4  UNL     1      41.842 -12.010  45.572  1.00  0.00     0.168 HD
BRANCH  18  20
HETATM   20  C19 UNL     1      42.985 -10.712  44.500  1.00  0.00     0.191 C 
HETATM   21  S1  UNL     1      44.378 -11.410  44.087  1.00  0.00    -0.040 SA
BRANCH  20  22
HETATM   22  N5  UNL     1      43.018  -9.274  44.649  1.00  0.00    -0.166 N 
ATOM     23  H5  UNL     1      42.499  -8.685  43.997  1.00  0.00     0.186 HD
BRANCH  22  24
HETATM   24  C20 UNL     1      43.695  -8.733  45.595  1.00  0.00     0.685 A 
HETATM   25  N6  UNL     1      44.165  -7.477  45.654  1.00  0.00    -0.189 N 
HETATM   26  C21 UNL     1      44.821  -7.303  46.805  1.00  0.00     0.076 A 
ATOM     27  H6  UNL     1      44.040  -6.767  44.932  1.00  0.00     0.184 HD
HETATM   28  C22 UNL     1      45.496  -6.246  47.395  1.00  0.00     0.032 A 
HETATM   29  C26 UNL     1      44.766  -8.499  47.509  1.00  0.00     0.076 A 
HETATM   30  C23 UNL     1      46.100  -6.338  48.629  1.00  0.00     0.002 A 
HETATM   31  C24 UNL     1      46.030  -7.537  49.305  1.00  0.00     0.002 A 
HETATM   32  C25 UNL     1      45.365  -8.607  48.745  1.00  0.00     0.032 A 
HETATM   33  N7  UNL     1      44.067  -9.342  46.727  1.00  0.00    -0.189 N 
ATOM     34  H7  UNL     1      43.851 -10.310  46.964  1.00  0.00     0.184 HD
ENDBRANCH  22  24
ENDBRANCH  20  22
ENDBRANCH  18  20
ENDBRANCH  15  18
BRANCH   9  35
HETATM   35  N2  UNL     1      35.102 -10.942  41.305  1.00  0.00    -0.342 N 
ATOM     36  H2  UNL     1      34.236 -10.947  41.846  1.00  0.00     0.167 HD
BRANCH  35  37
HETATM   37  C9  UNL     1      34.995 -11.137  39.920  1.00  0.00     0.033 A 
HETATM   38  C10 UNL     1      34.367 -12.257  39.419  1.00  0.00     0.029 A 
HETATM   39  C11 UNL     1      34.236 -12.494  38.064  1.00  0.00     0.002 A 
HETATM   40  C12 UNL     1      34.740 -11.597  37.168  1.00  0.00     0.000 A 
HETATM   41  C13 UNL     1      35.378 -10.458  37.638  1.00  0.00     0.002 A 
HETATM   42  C14 UNL     1      35.501 -10.235  39.005  1.00  0.00     0.029 A 
ENDBRANCH  35  37
ENDBRANCH   9  35
TORSDOF 6
ENDMDL
MODEL 3
REMARK VINA RESULT: -9.609904174      6.219      9.201
REMARK  6 active torsions:
REMARK  status: ('A' for Active; 'I' for Inactive)
REMARK    1  A    between atoms: C8_9  and  N2_10 
REMARK    2  A    between atoms: N2_10  and  C9_12 
REMARK    3  A    between atoms: C18_23  and  N4_24 
REMARK    4  A    between atoms: N4_24  and  C19_26 
REMARK    5  A    between atoms: C19_26  and  N5_28 
REMARK    6  A    between atoms: N5_28  and  C20_30 
ROOT
HETATM    1  C1  UNL     1      34.576  -7.961  41.980  1.00  0.00     0.051 C 
HETATM    2  C2  UNL     1      35.861  -8.321  42.594  1.00  0.00    -0.023 A 
HETATM    3  C3  UNL     1      36.636  -7.471  43.350  1.00  0.00     0.014 A 
HETATM    4  C4  UNL     1      36.313  -6.038  43.682  1.00  0.00     0.069 C 
HETATM    5  N1  UNL     1      37.766  -8.095  43.780  1.00  0.00    -0.353 N 
HETATM    6  C5  UNL     1      38.759  -7.432  44.591  1.00  0.00     0.156 C 
HETATM    7  C6  UNL     1      37.718  -9.329  43.305  1.00  0.00     0.061 A 
HETATM    8  C7  UNL     1      36.543  -9.500  42.563  1.00  0.00     0.044 A 
HETATM    9  C8  UNL     1      36.259 -10.689  41.967  1.00  0.00     0.119 A 
HETATM   10  N3  UNL     1      37.094 -11.737  42.071  1.00  0.00    -0.341 N 
ATOM     11  H3  UNL     1      36.854 -12.617  41.615  1.00  0.00     0.167 HD
HETATM   12  C15 UNL     1      38.239 -11.644  42.768  1.00  0.00     0.046 A 
HETATM   13  C16 UNL     1      39.080 -12.757  42.852  1.00  0.00     0.033 A 
HETATM   14  C17 UNL     1      40.229 -12.613  43.570  1.00  0.00     0.032 A 
HETATM   15  C18 UNL     1      40.600 -11.445  44.207  1.00  0.00     0.035 A 
HETATM   16  C27 UNL     1      39.739 -10.344  44.108  1.00  0.00     0.045 A 
HETATM   17  C28 UNL     1      38.565 -10.435  43.395  1.00  0.00     0.021 A 
ENDROOT
BRANCH  15  18
HETATM   18  N4  UNL     1      41.781 -11.394  44.949  1.00  0.00    -0.333 N 
ATOM     19  H4  UNL     1      42.570 -11.872  44.515  1.00  0.00     0.168 HD
BRANCH  18  20
HETATM   20  C19 UNL     1      42.075 -10.806  46.176  1.00  0.00     0.191 C 
HETATM   21  S1  UNL     1      41.700  -9.280  46.539  1.00  0.00    -0.040 SA
BRANCH  20  22
HETATM   22  N5  UNL     1      42.780 -11.545  47.201  1.00  0.00    -0.166 N 
ATOM     23  H5  UNL     1      43.800 -11.571  47.196  1.00  0.00     0.186 HD
BRANCH  22  24
HETATM   24  C20 UNL     1      42.132 -12.167  48.117  1.00  0.00     0.685 A 
HETATM   25  N6  UNL     1      41.886 -11.758  49.371  1.00  0.00    -0.189 N 
HETATM   26  C21 UNL     1      41.179 -12.693  50.012  1.00  0.00     0.076 A 
ATOM     27  H6  UNL     1      42.192 -10.871  49.772  1.00  0.00     0.184 HD
HETATM   28  C22 UNL     1      40.654 -12.819  51.289  1.00  0.00     0.032 A 
HETATM   29  C26 UNL     1      40.965 -13.742  49.128  1.00  0.00     0.076 A 
HETATM   30  C23 UNL     1      39.943 -13.923  51.702  1.00  0.00     0.002 A 
HETATM   31  C24 UNL     1      39.746 -14.949  50.803  1.00  0.00     0.002 A 
HETATM   32  C25 UNL     1      40.256 -14.855  49.526  1.00  0.00     0.032 A 
HETATM   33  N7  UNL     1      41.567 -13.373  47.982  1.00  0.00    -0.189 N 
ATOM     34  H7  UNL     1      41.591 -13.934  47.131  1.00  0.00     0.184 HD
ENDBRANCH  22  24
ENDBRANCH  20  22
ENDBRANCH  18  20
ENDBRANCH  15  18
BRANCH   9  35
HETATM   35  N2  UNL     1      35.195 -10.866  41.288  1.00  0.00    -0.342 N 
ATOM     36  H2  UNL     1      34.311 -10.855  41.797  1.00  0.00     0.167 HD
BRANCH  35  37
HETATM   37  C9  UNL     1      35.136 -11.073  39.902  1.00  0.00     0.033 A 
HETATM   38  C10 UNL     1      34.394 -12.112  39.382  1.00  0.00     0.029 A 
HETATM   39  C11 UNL     1      34.304 -12.357  38.026  1.00  0.00     0.002 A 
HETATM   40  C12 UNL     1      34.966 -11.551  37.146  1.00  0.00     0.000 A 
HETATM   41  C13 UNL     1      35.722 -10.496  37.635  1.00  0.00     0.002 A 
HETATM   42  C14 UNL     1      35.802 -10.263  39.004  1.00  0.00     0.029 A 
ENDBRANCH  35  37
ENDBRANCH   9  35
TORSDOF 6
ENDMDL
MODEL 4
REMARK VINA RESULT: -9.592603971      6.273      9.313
REMARK  6 active torsions:
REMARK  status: ('A' for Active; 'I' for Inactive)
REMARK    1  A    between atoms: C8_9  and  N2_10 
REMARK    2  A    between atoms: N2_10  and  C9_12 
REMARK    3  A    between atoms: C18_23  and  N4_24 
REMARK    4  A    between atoms: N4_24  and  C19_26 
REMARK    5  A    between atoms: C19_26  and  N5_28 
REMARK    6  A    between atoms: N5_28  and  C20_30 
ROOT
HETATM    1  C1  UNL     1      34.564  -8.027  42.061  1.00  0.00     0.051 C 
HETATM    2  C2  UNL     1      35.863  -8.340  42.669  1.00  0.00    -0.023 A 
HETATM    3  C3  UNL     1      36.630  -7.449  43.386  1.00  0.00     0.014 A 
HETATM    4  C4  UNL     1      36.283  -6.013  43.673  1.00  0.00     0.069 C 
HETATM    5  N1  UNL     1      37.778  -8.035  43.820  1.00  0.00    -0.353 N 
HETATM    6  C5  UNL     1      38.768  -7.326  44.595  1.00  0.00     0.156 C 
HETATM    7  C6  UNL     1      37.749  -9.286  43.389  1.00  0.00     0.061 A 
HETATM    8  C7  UNL     1      36.569  -9.506  42.669  1.00  0.00     0.044 A 
HETATM    9  C8  UNL     1      36.301 -10.720  42.118  1.00  0.00     0.119 A 
HETATM   10  N3  UNL     1      37.158 -11.747  42.246  1.00  0.00    -0.341 N 
ATOM     11  H3  UNL     1      36.931 -12.647  41.823  1.00  0.00     0.167 HD
HETATM   12  C15 UNL     1      38.310 -11.608  42.923  1.00  0.00     0.046 A 
HETATM   13  C16 UNL     1      39.174 -12.700  43.034  1.00  0.00     0.033 A 
HETATM   14  C17 UNL     1      40.329 -12.508  43.731  1.00  0.00     0.032 A 
HETATM   15  C18 UNL     1      40.684 -11.313  44.323  1.00  0.00     0.035 A 
HETATM   16  C27 UNL     1      39.800 -10.232  44.199  1.00  0.00     0.045 A 
HETATM   17  C28 UNL     1      38.620 -10.371  43.505  1.00  0.00     0.021 A 
ENDROOT
BRANCH  15  18
HETATM   18  N4  UNL     1      41.874 -11.212  45.047  1.00  0.00    -0.333 N 
ATOM     19  H4  UNL     1      42.685 -11.616  44.578  1.00  0.00     0.168 HD
BRANCH  18  20
HETATM   20  C19 UNL     1      42.152 -10.660  46.294  1.00  0.00     0.191 C 
HETATM   21  S1  UNL     1      41.777  -9.144  46.694  1.00  0.00    -0.040 SA
BRANCH  20  22
HETATM   22  N5  UNL     1      42.838 -11.430  47.308  1.00  0.00    -0.166 N 
ATOM     23  H5  UNL     1      43.858 -11.428  47.342  1.00  0.00     0.186 HD
BRANCH  22  24
HETATM   24  C20 UNL     1      42.174 -12.115  48.166  1.00  0.00     0.685 A 
HETATM   25  N6  UNL     1      41.575 -13.302  47.981  1.00  0.00    -0.189 N 
HETATM   26  C21 UNL     1      40.986 -13.683  49.119  1.00  0.00     0.076 A 
ATOM     27  H6  UNL     1      41.571 -13.831  47.108  1.00  0.00     0.184 HD
HETATM   28  C22 UNL     1      40.243 -14.784  49.514  1.00  0.00     0.032 A 
HETATM   29  C26 UNL     1      41.221 -12.697  50.068  1.00  0.00     0.076 A 
HETATM   30  C23 UNL     1      39.740 -14.931  50.787  1.00  0.00     0.002 A 
HETATM   31  C24 UNL     1      39.988 -13.937  51.709  1.00  0.00     0.002 A 
HETATM   32  C25 UNL     1      40.724 -12.829  51.346  1.00  0.00     0.032 A 
HETATM   33  N7  UNL     1      41.950 -11.759  49.436  1.00  0.00    -0.189 N 
ATOM     34  H7  UNL     1      42.287 -10.898  49.866  1.00  0.00     0.184 HD
ENDBRANCH  22  24
ENDBRANCH  20  22
ENDBRANCH  18  20
ENDBRANCH  15  18
BRANCH   9  35
HETATM   35  N2  UNL     1      35.232 -10.941  41.460  1.00  0.00    -0.342 N 
ATOM     36  H2  UNL     1      34.362 -10.992  41.989  1.00  0.00     0.167 HD
BRANCH  35  37
HETATM   37  C9  UNL     1      35.150 -11.118  40.071  1.00  0.00     0.033 A 
HETATM   38  C10 UNL     1      35.806 -10.258  39.217  1.00  0.00     0.029 A 
HETATM   39  C11 UNL     1      35.757 -10.391  37.843  1.00  0.00     0.002 A 
HETATM   40  C12 UNL     1      35.037 -11.408  37.285  1.00  0.00     0.000 A 
HETATM   41  C13 UNL     1      34.364 -12.292  38.117  1.00  0.00     0.002 A 
HETATM   42  C14 UNL     1      34.424 -12.144  39.497  1.00  0.00     0.029 A 
ENDBRANCH  35  37
ENDBRANCH   9  35
TORSDOF 6
ENDMDL
MODEL 5
REMARK VINA RESULT: -9.563705659      7.107     10.905
REMARK  6 active torsions:
REMARK  status: ('A' for Active; 'I' for Inactive)
REMARK    1  A    between atoms: C8_9  and  N2_10 
REMARK    2  A    between atoms: N2_10  and  C9_12 
REMARK    3  A    between atoms: C18_23  and  N4_24 
REMARK    4  A    between atoms: N4_24  and  C19_26 
REMARK    5  A    between atoms: C19_26  and  N5_28 
REMARK    6  A    between atoms: N5_28  and  C20_30 
ROOT
HETATM    1  C1  UNL     1      34.762  -8.129  42.325  1.00  0.00     0.051 C 
HETATM    2  C2  UNL     1      36.094  -8.448  42.857  1.00  0.00    -0.023 A 
HETATM    3  C3  UNL     1      36.900  -7.565  43.539  1.00  0.00     0.014 A 
HETATM    4  C4  UNL     1      36.569  -6.131  43.861  1.00  0.00     0.069 C 
HETATM    5  N1  UNL     1      38.070  -8.155  43.903  1.00  0.00    -0.353 N 
HETATM    6  C5  UNL     1      39.101  -7.453  44.629  1.00  0.00     0.156 C 
HETATM    7  C6  UNL     1      38.017  -9.400  43.461  1.00  0.00     0.061 A 
HETATM    8  C7  UNL     1      36.798  -9.613  42.806  1.00  0.00     0.044 A 
HETATM    9  C8  UNL     1      36.499 -10.822  42.257  1.00  0.00     0.119 A 
HETATM   10  N3  UNL     1      37.362 -11.850  42.327  1.00  0.00    -0.341 N 
ATOM     11  H3  UNL     1      37.111 -12.745  41.907  1.00  0.00     0.167 HD
HETATM   12  C15 UNL     1      38.550 -11.717  42.940  1.00  0.00     0.046 A 
HETATM   13  C16 UNL     1      39.419 -12.810  42.991  1.00  0.00     0.033 A 
HETATM   14  C17 UNL     1      40.610 -12.626  43.625  1.00  0.00     0.032 A 
HETATM   15  C18 UNL     1      40.999 -11.436  44.208  1.00  0.00     0.035 A 
HETATM   16  C27 UNL     1      40.109 -10.355  44.145  1.00  0.00     0.045 A 
HETATM   17  C28 UNL     1      38.892 -10.487  43.517  1.00  0.00     0.021 A 
ENDROOT
BRANCH  15  18
HETATM   18  N4  UNL     1      42.227 -11.343  44.867  1.00  0.00    -0.333 N 
ATOM     19  H4  UNL     1      42.811 -12.175  44.782  1.00  0.00     0.168 HD
BRANCH  18  20
HETATM   20  C19 UNL     1      42.796 -10.319  45.617  1.00  0.00     0.191 C 
HETATM   21  S1  UNL     1      42.633 -10.198  47.217  1.00  0.00    -0.040 SA
BRANCH  20  22
HETATM   22  N5  UNL     1      43.555  -9.266  44.978  1.00  0.00    -0.166 N 
ATOM     23  H5  UNL     1      43.487  -9.135  43.968  1.00  0.00     0.186 HD
BRANCH  22  24
HETATM   24  C20 UNL     1      44.312  -8.496  45.671  1.00  0.00     0.685 A 
HETATM   25  N6  UNL     1      44.022  -7.277  46.152  1.00  0.00    -0.189 N 
HETATM   26  C21 UNL     1      45.076  -6.803  46.822  1.00  0.00     0.076 A 
ATOM     27  H6  UNL     1      43.134  -6.790  46.026  1.00  0.00     0.184 HD
HETATM   28  C22 UNL     1      45.351  -5.633  47.512  1.00  0.00     0.032 A 
HETATM   29  C26 UNL     1      46.080  -7.761  46.764  1.00  0.00     0.076 A 
HETATM   30  C23 UNL     1      46.557  -5.393  48.130  1.00  0.00     0.002 A 
HETATM   31  C24 UNL     1      47.536  -6.361  48.057  1.00  0.00     0.002 A 
HETATM   32  C25 UNL     1      47.293  -7.536  47.377  1.00  0.00     0.032 A 
HETATM   33  N7  UNL     1      45.564  -8.777  46.049  1.00  0.00    -0.189 N 
ATOM     34  H7  UNL     1      46.058  -9.641  45.827  1.00  0.00     0.184 HD
ENDBRANCH  22  24
ENDBRANCH  20  22
ENDBRANCH  18  20
ENDBRANCH  15  18
BRANCH   9  35
HETATM   35  N2  UNL     1      35.396 -11.036  41.657  1.00  0.00    -0.342 N 
ATOM     36  H2  UNL     1      34.565 -11.150  42.238  1.00  0.00     0.167 HD
BRANCH  35  37
HETATM   37  C9  UNL     1      35.226 -11.127  40.268  1.00  0.00     0.033 A 
HETATM   38  C10 UNL     1      34.396 -12.086  39.727  1.00  0.00     0.029 A 
HETATM   39  C11 UNL     1      34.195 -12.216  38.367  1.00  0.00     0.002 A 
HETATM   40  C12 UNL     1      34.832 -11.372  37.504  1.00  0.00     0.000 A 
HETATM   41  C13 UNL     1      35.674 -10.394  38.015  1.00  0.00     0.002 A 
HETATM   42  C14 UNL     1      35.866 -10.277  39.387  1.00  0.00     0.029 A 
ENDBRANCH  35  37
ENDBRANCH   9  35
TORSDOF 6
ENDMDL
