MODEL 1
REMARK VINA RESULT: -8.344695372      0.000      0.000
REMARK  5 active torsions:
REMARK  status: ('A' for Active; 'I' for Inactive)
REMARK    1  A    between atoms: N1_2  and  C2_4 
REMARK    2  A    between atoms: C2_4  and  N2_6 
REMARK    3  A    between atoms: N2_6  and  N3_8 
REMARK    4  A    between atoms: C7_14  and  C8_15 
REMARK    5  A    between atoms: C17_26  and  O1_27 
ROOT
HETATM    1  N3  UNL     1      40.673 -15.012  41.959  1.00  0.00    -0.302 N 
ATOM      2  H3  UNL     1      39.932 -14.492  41.490  1.00  0.00     0.186 HD
HETATM    3  C3  UNL     1      41.828 -14.464  42.093  1.00  0.00     0.040 C 
HETATM    4  C4  UNL     1      41.898 -13.064  41.494  1.00  0.00     0.100 C 
HETATM    5  C5  UNL     1      41.607 -12.000  42.481  1.00  0.00    -0.025 A 
HETATM    6  C6  UNL     1      40.261 -11.581  42.482  1.00  0.00     0.022 A 
HETATM    7  C7  UNL     1      39.746 -10.640  43.327  1.00  0.00    -0.025 A 
HETATM    8  C14 UNL     1      40.579 -10.057  44.241  1.00  0.00     0.014 A 
HETATM    9  C15 UNL     1      41.878 -10.449  44.252  1.00  0.00     0.031 A 
HETATM   10  C16 UNL     1      42.463 -11.425  43.388  1.00  0.00     0.040 A 
HETATM   11  N4  UNL     1      43.840 -11.651  43.610  1.00  0.00    -0.340 N 
ATOM     12  H4  UNL     1      43.972 -12.030  44.548  1.00  0.00     0.167 HD
HETATM   13  C17 UNL     1      45.066 -11.534  42.991  1.00  0.00     0.115 C 
HETATM   14  C18 UNL     1      45.614 -11.802  41.665  1.00  0.00     0.085 C 
HETATM   15  C19 UNL     1      46.765 -12.807  41.643  1.00  0.00     0.027 C 
HETATM   16  C20 UNL     1      47.139 -13.374  42.966  1.00  0.00     0.123 C 
HETATM   17  N5  UNL     1      47.532 -14.786  42.903  1.00  0.00    -0.357 N 
ATOM     18  H5  UNL     1      48.456 -15.027  42.546  1.00  0.00     0.162 HD
HETATM   19  C21 UNL     1      46.646 -15.851  43.333  1.00  0.00     0.251 C 
HETATM   20  O2  UNL     1      47.172 -16.955  43.735  1.00  0.00    -0.268 OA
HETATM   21  C22 UNL     1      45.161 -15.766  43.352  1.00  0.00     0.032 A 
HETATM   22  C23 UNL     1      44.704 -16.148  44.639  1.00  0.00     0.017 A 
HETATM   23  C24 UNL     1      43.397 -16.022  45.022  1.00  0.00     0.002 A 
HETATM   24  C25 UNL     1      42.543 -15.502  44.088  1.00  0.00     0.013 A 
HETATM   25  C26 UNL     1      42.969 -15.114  42.794  1.00  0.00    -0.011 A 
HETATM   26  C27 UNL     1      44.287 -15.253  42.413  1.00  0.00     0.030 A 
ENDROOT
BRANCH   1  27
HETATM   27  N2  UNL     1      40.403 -16.279  42.428  1.00  0.00    -0.276 N 
ATOM     28  H2  UNL     1      40.418 -16.439  43.436  1.00  0.00     0.189 HD
BRANCH  27  29
HETATM   29  C2  UNL     1      40.103 -17.383  41.564  1.00  0.00     0.186 C 
HETATM   30  S1  UNL     1      38.568 -17.817  41.220  1.00  0.00    -0.040 SA
BRANCH  29  31
HETATM   31  N1  UNL     1      41.138 -18.150  40.970  1.00  0.00    -0.370 N 
HETATM   32  C1  UNL     1      42.281 -18.558  41.783  1.00  0.00     0.148 C 
ATOM     33  H1  UNL     1      41.084 -18.414  39.986  1.00  0.00     0.161 HD
ENDBRANCH  29  31
ENDBRANCH  27  29
ENDBRANCH   1  27
BRANCH   7  34
HETATM   34  C8  UNL     1      38.355 -10.221  43.308  1.00  0.00    -0.026 A 
HETATM   35  C9  UNL     1      38.016  -8.895  43.494  1.00  0.00     0.012 A 
HETATM   36  C10 UNL     1      36.708  -8.463  43.481  1.00  0.00     0.001 A 
HETATM   37  C11 UNL     1      35.692  -9.365  43.277  1.00  0.00     0.000 A 
HETATM   38  C12 UNL     1      35.998 -10.705  43.086  1.00  0.00     0.001 A 
HETATM   39  C13 UNL     1      37.328 -11.116  43.104  1.00  0.00     0.012 A 
ENDBRANCH   7  34
BRANCH  13  40
HETATM   40  O1  UNL     1      46.084 -11.056  43.736  1.00  0.00    -0.349 OA
ATOM     41  H1  UNL     1      46.772 -10.590  43.276  1.00  0.00     0.219 HD
ENDBRANCH  13  40
TORSDOF 5
ENDMDL
MODEL 2
REMARK VINA RESULT: -8.168878352      4.551      7.173
REMARK  5 active torsions:
REMARK  status: ('A' for Active; 'I' for Inactive)
REMARK    1  A    between atoms: N1_2  and  C2_4 
REMARK    2  A    between atoms: C2_4  and  N2_6 
REMARK    3  A    between atoms: N2_6  and  N3_8 
REMARK    4  A    between atoms: C7_14  and  C8_15 
REMARK    5  A    between atoms: C17_26  and  O1_27 
ROOT
HETATM    1  N3  UNL     1      43.011 -12.574  47.529  1.00  0.00    -0.302 N 
ATOM      2  H3  UNL     1      43.136 -12.001  48.364  1.00  0.00     0.186 HD
HETATM    3  C3  UNL     1      42.231 -12.153  46.597  1.00  0.00     0.040 C 
HETATM    4  C4  UNL     1      41.592 -10.807  46.917  1.00  0.00     0.100 C 
HETATM    5  C5  UNL     1      42.363  -9.661  46.382  1.00  0.00    -0.025 A 
HETATM    6  C6  UNL     1      43.254  -9.093  47.315  1.00  0.00     0.022 A 
HETATM    7  C7  UNL     1      44.097  -8.054  47.045  1.00  0.00    -0.025 A 
HETATM    8  C14 UNL     1      44.088  -7.517  45.787  1.00  0.00     0.014 A 
HETATM    9  C15 UNL     1      43.235  -8.052  44.877  1.00  0.00     0.031 A 
HETATM   10  C16 UNL     1      42.335  -9.135  45.114  1.00  0.00     0.040 A 
HETATM   11  N4  UNL     1      41.555  -9.502  43.993  1.00  0.00    -0.340 N 
ATOM     12  H4  UNL     1      42.170  -9.839  43.252  1.00  0.00     0.167 HD
HETATM   13  C17 UNL     1      40.247  -9.560  43.561  1.00  0.00     0.115 C 
HETATM   14  C18 UNL     1      38.963  -9.963  44.122  1.00  0.00     0.085 C 
HETATM   15  C19 UNL     1      38.263 -11.092  43.365  1.00  0.00     0.027 C 
HETATM   16  C20 UNL     1      39.002 -11.621  42.188  1.00  0.00     0.123 C 
HETATM   17  N5  UNL     1      38.853 -13.069  42.010  1.00  0.00    -0.357 N 
ATOM     18  H5  UNL     1      37.984 -13.433  41.620  1.00  0.00     0.162 HD
HETATM   19  C21 UNL     1      39.904 -14.001  42.373  1.00  0.00     0.251 C 
HETATM   20  O2  UNL     1      39.952 -15.132  41.762  1.00  0.00    -0.268 OA
HETATM   21  C22 UNL     1      40.944 -13.748  43.405  1.00  0.00     0.032 A 
HETATM   22  C23 UNL     1      42.217 -14.001  42.833  1.00  0.00     0.017 A 
HETATM   23  C24 UNL     1      43.386 -13.707  43.480  1.00  0.00     0.002 A 
HETATM   24  C25 UNL     1      43.262 -13.149  44.723  1.00  0.00     0.013 A 
HETATM   25  C26 UNL     1      42.006 -12.886  45.322  1.00  0.00    -0.011 A 
HETATM   26  C27 UNL     1      40.832 -13.194  44.666  1.00  0.00     0.030 A 
ENDROOT
BRANCH   1  27
HETATM   27  N2  UNL     1      43.682 -13.773  47.438  1.00  0.00    -0.276 N 
ATOM     28  H2  UNL     1      44.542 -13.810  46.890  1.00  0.00     0.189 HD
BRANCH  27  29
HETATM   29  C2  UNL     1      43.227 -14.973  48.078  1.00  0.00     0.186 C 
HETATM   30  S1  UNL     1      43.262 -15.151  49.700  1.00  0.00    -0.040 SA
BRANCH  29  31
HETATM   31  N1  UNL     1      42.724 -16.061  47.321  1.00  0.00    -0.370 N 
HETATM   32  C1  UNL     1      43.510 -16.575  46.201  1.00  0.00     0.148 C 
ATOM     33  H1  UNL     1      41.825 -16.481  47.555  1.00  0.00     0.161 HD
ENDBRANCH  29  31
ENDBRANCH  27  29
ENDBRANCH   1  27
BRANCH   7  34
HETATM   34  C8  UNL     1      45.005  -7.482  48.023  1.00  0.00    -0.026 A 
HETATM   35  C9  UNL     1      45.377  -6.154  47.949  1.00  0.00     0.012 A 
HETATM   36  C10 UNL     1      46.235  -5.580  48.859  1.00  0.00     0.001 A 
HETATM   37  C11 UNL     1      46.749  -6.336  49.885  1.00  0.00     0.000 A 
HETATM   38  C12 UNL     1      46.396  -7.674  49.990  1.00  0.00     0.001 A 
HETATM   39  C13 UNL     1      45.527  -8.230  49.056  1.00  0.00     0.012 A 
ENDBRANCH   7  34
BRANCH  13  40
HETATM   40  O1  UNL     1      40.004  -9.158  42.297  1.00  0.00    -0.349 OA
ATOM     41  H1  UNL     1      39.223  -9.502  41.879  1.00  0.00     0.219 HD
ENDBRANCH  13  40
TORSDOF 5
ENDMDL
MODEL 3
REMARK VINA RESULT: -8.145121814      4.791      5.726
REMARK  5 active torsions:
REMARK  status: ('A' for Active; 'I' for Inactive)
REMARK    1  A    between atoms: N1_2  and  C2_4 
REMARK    2  A    between atoms: C2_4  and  N2_6 
REMARK    3  A    between atoms: N2_6  and  N3_8 
REMARK    4  A    between atoms: C7_14  and  C8_15 
REMARK    5  A    between atoms: C17_26  and  O1_27 
ROOT
HETATM    1  N3  UNL     1      41.870 -12.891  46.815  1.00  0.00    -0.302 N 
ATOM      2  H3  UNL     1      41.347 -13.176  45.987  1.00  0.00     0.186 HD
HETATM    3  C3  UNL     1      42.722 -11.933  46.713  1.00  0.00     0.040 C 
HETATM    4  C4  UNL     1      42.813 -11.364  45.302  1.00  0.00     0.100 C 
HETATM    5  C5  UNL     1      41.924 -10.199  45.092  1.00  0.00    -0.025 A 
HETATM    6  C6  UNL     1      40.676 -10.533  44.528  1.00  0.00     0.022 A 
HETATM    7  C7  UNL     1      39.677  -9.637  44.276  1.00  0.00    -0.025 A 
HETATM    8  C14 UNL     1      39.886  -8.322  44.589  1.00  0.00     0.014 A 
HETATM    9  C15 UNL     1      41.082  -7.984  45.132  1.00  0.00     0.031 A 
HETATM   10  C16 UNL     1      42.156  -8.883  45.410  1.00  0.00     0.040 A 
HETATM   11  N4  UNL     1      43.296  -8.273  45.981  1.00  0.00    -0.340 N 
ATOM     12  H4  UNL     1      43.049  -7.883  46.890  1.00  0.00     0.167 HD
HETATM   13  C17 UNL     1      44.628  -8.026  45.727  1.00  0.00     0.115 C 
HETATM   14  C18 UNL     1      45.757  -8.767  45.176  1.00  0.00     0.085 C 
HETATM   15  C19 UNL     1      46.947  -8.913  46.124  1.00  0.00     0.027 C 
HETATM   16  C20 UNL     1      46.769  -8.299  47.467  1.00  0.00     0.123 C 
HETATM   17  N5  UNL     1      47.385  -9.075  48.549  1.00  0.00    -0.357 N 
ATOM     18  H5  UNL     1      48.397  -9.033  48.672  1.00  0.00     0.162 HD
HETATM   19  C21 UNL     1      46.601  -9.899  49.448  1.00  0.00     0.251 C 
HETATM   20  O2  UNL     1      47.069 -10.130  50.625  1.00  0.00    -0.268 OA
HETATM   21  C22 UNL     1      45.283 -10.501  49.117  1.00  0.00     0.032 A 
HETATM   22  C23 UNL     1      44.363 -10.163  50.142  1.00  0.00     0.017 A 
HETATM   23  C24 UNL     1      43.025 -10.435  50.049  1.00  0.00     0.002 A 
HETATM   24  C25 UNL     1      42.616 -11.058  48.901  1.00  0.00     0.013 A 
HETATM   25  C26 UNL     1      43.511 -11.410  47.861  1.00  0.00    -0.011 A 
HETATM   26  C27 UNL     1      44.859 -11.140  47.968  1.00  0.00     0.030 A 
ENDROOT
BRANCH   1  27
HETATM   27  N2  UNL     1      41.641 -13.545  48.006  1.00  0.00    -0.276 N 
ATOM     28  H2  UNL     1      41.120 -13.059  48.736  1.00  0.00     0.189 HD
BRANCH  27  29
HETATM   29  C2  UNL     1      42.102 -14.878  48.265  1.00  0.00     0.186 C 
HETATM   30  S1  UNL     1      43.640 -15.332  47.964  1.00  0.00    -0.040 SA
BRANCH  29  31
HETATM   31  N1  UNL     1      41.230 -15.863  48.795  1.00  0.00    -0.370 N 
HETATM   32  C1  UNL     1      40.084 -15.444  49.598  1.00  0.00     0.148 C 
ATOM     33  H1  UNL     1      41.402 -16.852  48.618  1.00  0.00     0.161 HD
ENDBRANCH  29  31
ENDBRANCH  27  29
ENDBRANCH   1  27
BRANCH   7  34
HETATM   34  C8  UNL     1      38.399 -10.004  43.691  1.00  0.00    -0.026 A 
HETATM   35  C9  UNL     1      37.457  -9.038  43.394  1.00  0.00     0.012 A 
HETATM   36  C10 UNL     1      36.236  -9.351  42.838  1.00  0.00     0.001 A 
HETATM   37  C11 UNL     1      35.926 -10.660  42.561  1.00  0.00     0.000 A 
HETATM   38  C12 UNL     1      36.851 -11.655  42.846  1.00  0.00     0.001 A 
HETATM   39  C13 UNL     1      38.077 -11.313  43.408  1.00  0.00     0.012 A 
ENDBRANCH   7  34
BRANCH  13  40
HETATM   40  O1  UNL     1      45.093  -6.799  46.044  1.00  0.00    -0.349 OA
ATOM     41  H1  UNL     1      45.578  -6.720  46.857  1.00  0.00     0.219 HD
ENDBRANCH  13  40
TORSDOF 5
ENDMDL
MODEL 4
REMARK VINA RESULT: -8.134143512      1.217      1.744
REMARK  5 active torsions:
REMARK  status: ('A' for Active; 'I' for Inactive)
REMARK    1  A    between atoms: N1_2  and  C2_4 
REMARK    2  A    between atoms: C2_4  and  N2_6 
REMARK    3  A    between atoms: N2_6  and  N3_8 
REMARK    4  A    between atoms: C7_14  and  C8_15 
REMARK    5  A    between atoms: C17_26  and  O1_27 
ROOT
HETATM    1  N3  UNL     1      40.509 -15.364  41.240  1.00  0.00    -0.302 N 
ATOM      2  H3  UNL     1      39.850 -14.711  40.815  1.00  0.00     0.186 HD
HETATM    3  C3  UNL     1      41.682 -14.944  41.557  1.00  0.00     0.040 C 
HETATM    4  C4  UNL     1      41.900 -13.473  41.220  1.00  0.00     0.100 C 
HETATM    5  C5  UNL     1      41.595 -12.571  42.354  1.00  0.00    -0.025 A 
HETATM    6  C6  UNL     1      40.287 -12.048  42.326  1.00  0.00     0.022 A 
HETATM    7  C7  UNL     1      39.763 -11.225  43.280  1.00  0.00    -0.025 A 
HETATM    8  C14 UNL     1      40.549 -10.876  44.344  1.00  0.00     0.014 A 
HETATM    9  C15 UNL     1      41.811 -11.370  44.386  1.00  0.00     0.031 A 
HETATM   10  C16 UNL     1      42.403 -12.231  43.411  1.00  0.00     0.040 A 
HETATM   11  N4  UNL     1      43.737 -12.605  43.695  1.00  0.00    -0.340 N 
ATOM     12  H4  UNL     1      43.757 -13.147  44.559  1.00  0.00     0.167 HD
HETATM   13  C17 UNL     1      45.018 -12.486  43.201  1.00  0.00     0.115 C 
HETATM   14  C18 UNL     1      45.663 -12.569  41.896  1.00  0.00     0.085 C 
HETATM   15  C19 UNL     1      46.741 -13.648  41.785  1.00  0.00     0.027 C 
HETATM   16  C20 UNL     1      46.955 -14.460  43.012  1.00  0.00     0.123 C 
HETATM   17  N5  UNL     1      47.254 -15.869  42.733  1.00  0.00    -0.357 N 
ATOM     18  H5  UNL     1      48.189 -16.121  42.411  1.00  0.00     0.162 HD
HETATM   19  C21 UNL     1      46.263 -16.914  42.900  1.00  0.00     0.251 C 
HETATM   20  O2  UNL     1      46.674 -18.110  43.140  1.00  0.00    -0.268 OA
HETATM   21  C22 UNL     1      44.792 -16.711  42.819  1.00  0.00     0.032 A 
HETATM   22  C23 UNL     1      44.196 -17.266  43.980  1.00  0.00     0.017 A 
HETATM   23  C24 UNL     1      42.871 -17.100  44.278  1.00  0.00     0.002 A 
HETATM   24  C25 UNL     1      42.142 -16.360  43.387  1.00  0.00     0.013 A 
HETATM   25  C26 UNL     1      42.708 -15.795  42.218  1.00  0.00    -0.011 A 
HETATM   26  C27 UNL     1      44.043 -15.976  41.921  1.00  0.00     0.030 A 
ENDROOT
BRANCH   1  27
HETATM   27  N2  UNL     1      40.112 -16.665  41.457  1.00  0.00    -0.276 N 
ATOM     28  H2  UNL     1      40.809 -17.341  41.772  1.00  0.00     0.189 HD
BRANCH  27  29
HETATM   29  C2  UNL     1      38.764 -17.112  41.262  1.00  0.00     0.186 C 
HETATM   30  S1  UNL     1      38.425 -18.567  40.603  1.00  0.00    -0.040 SA
BRANCH  29  31
HETATM   31  N1  UNL     1      37.662 -16.301  41.635  1.00  0.00    -0.370 N 
HETATM   32  C1  UNL     1      36.308 -16.744  41.314  1.00  0.00     0.148 C 
ATOM     33  H1  UNL     1      37.814 -15.417  42.122  1.00  0.00     0.161 HD
ENDBRANCH  29  31
ENDBRANCH  27  29
ENDBRANCH   1  27
BRANCH   7  34
HETATM   34  C8  UNL     1      38.411 -10.695  43.229  1.00  0.00    -0.026 A 
HETATM   35  C9  UNL     1      37.338 -11.525  42.966  1.00  0.00     0.012 A 
HETATM   36  C10 UNL     1      36.045 -11.056  42.910  1.00  0.00     0.001 A 
HETATM   37  C11 UNL     1      35.791  -9.722  43.122  1.00  0.00     0.000 A 
HETATM   38  C12 UNL     1      36.846  -8.861  43.389  1.00  0.00     0.001 A 
HETATM   39  C13 UNL     1      38.144  -9.360  43.439  1.00  0.00     0.012 A 
ENDBRANCH   7  34
BRANCH  13  40
HETATM   40  O1  UNL     1      45.995 -12.227  44.095  1.00  0.00    -0.349 OA
ATOM     41  H1  UNL     1      46.158 -11.314  44.301  1.00  0.00     0.219 HD
ENDBRANCH  13  40
TORSDOF 5
ENDMDL
MODEL 5
REMARK VINA RESULT: -8.007220740      4.579      7.338
REMARK  5 active torsions:
REMARK  status: ('A' for Active; 'I' for Inactive)
REMARK    1  A    between atoms: N1_2  and  C2_4 
REMARK    2  A    between atoms: C2_4  and  N2_6 
REMARK    3  A    between atoms: N2_6  and  N3_8 
REMARK    4  A    between atoms: C7_14  and  C8_15 
REMARK    5  A    between atoms: C17_26  and  O1_27 
ROOT
HETATM    1  N3  UNL     1      42.966 -12.559  47.536  1.00  0.00    -0.302 N 
ATOM      2  H3  UNL     1      43.095 -11.993  48.374  1.00  0.00     0.186 HD
HETATM    3  C3  UNL     1      42.195 -12.123  46.603  1.00  0.00     0.040 C 
HETATM    4  C4  UNL     1      41.571 -10.771  46.928  1.00  0.00     0.100 C 
HETATM    5  C5  UNL     1      42.358  -9.632  46.403  1.00  0.00    -0.025 A 
HETATM    6  C6  UNL     1      43.253  -9.081  47.342  1.00  0.00     0.022 A 
HETATM    7  C7  UNL     1      44.109  -8.050  47.081  1.00  0.00    -0.025 A 
HETATM    8  C14 UNL     1      44.111  -7.506  45.827  1.00  0.00     0.014 A 
HETATM    9  C15 UNL     1      43.255  -8.025  44.911  1.00  0.00     0.031 A 
HETATM   10  C16 UNL     1      42.341  -9.099  45.138  1.00  0.00     0.040 A 
HETATM   11  N4  UNL     1      41.561  -9.450  44.012  1.00  0.00    -0.340 N 
ATOM     12  H4  UNL     1      42.174  -9.790  43.272  1.00  0.00     0.167 HD
HETATM   13  C17 UNL     1      40.254  -9.489  43.575  1.00  0.00     0.115 C 
HETATM   14  C18 UNL     1      38.963  -9.879  44.130  1.00  0.00     0.085 C 
HETATM   15  C19 UNL     1      38.251 -10.995  43.363  1.00  0.00     0.027 C 
HETATM   16  C20 UNL     1      38.988 -11.526  42.186  1.00  0.00     0.123 C 
HETATM   17  N5  UNL     1      38.823 -12.971  41.999  1.00  0.00    -0.357 N 
ATOM     18  H5  UNL     1      37.951 -13.322  41.603  1.00  0.00     0.162 HD
HETATM   19  C21 UNL     1      39.860 -13.918  42.360  1.00  0.00     0.251 C 
HETATM   20  O2  UNL     1      39.897 -15.046  41.742  1.00  0.00    -0.268 OA
HETATM   21  C22 UNL     1      40.900 -13.684  43.397  1.00  0.00     0.032 A 
HETATM   22  C23 UNL     1      42.172 -13.949  42.828  1.00  0.00     0.017 A 
HETATM   23  C24 UNL     1      43.342 -13.674  43.481  1.00  0.00     0.002 A 
HETATM   24  C25 UNL     1      43.221 -13.121  44.727  1.00  0.00     0.013 A 
HETATM   25  C26 UNL     1      41.965 -12.846  45.323  1.00  0.00    -0.011 A 
HETATM   26  C27 UNL     1      40.790 -13.136  44.661  1.00  0.00     0.030 A 
ENDROOT
BRANCH   1  27
HETATM   27  N2  UNL     1      43.623 -13.766  47.439  1.00  0.00    -0.276 N 
ATOM     28  H2  UNL     1      44.533 -13.790  46.979  1.00  0.00     0.189 HD
BRANCH  27  29
HETATM   29  C2  UNL     1      43.085 -14.991  47.957  1.00  0.00     0.186 C 
HETATM   30  S1  UNL     1      43.464 -16.440  47.311  1.00  0.00    -0.040 SA
BRANCH  29  31
HETATM   31  N1  UNL     1      42.193 -14.989  49.060  1.00  0.00    -0.370 N 
HETATM   32  C1  UNL     1      42.714 -14.734  50.400  1.00  0.00     0.148 C 
ATOM     33  H1  UNL     1      41.198 -15.165  48.918  1.00  0.00     0.161 HD
ENDBRANCH  29  31
ENDBRANCH  27  29
ENDBRANCH   1  27
BRANCH   7  34
HETATM   34  C8  UNL     1      45.021  -7.495  48.067  1.00  0.00    -0.026 A 
HETATM   35  C9  UNL     1      45.519  -8.282  49.087  1.00  0.00     0.012 A 
HETATM   36  C10 UNL     1      46.385  -7.788  50.037  1.00  0.00     0.001 A 
HETATM   37  C11 UNL     1      46.781  -6.473  49.985  1.00  0.00     0.000 A 
HETATM   38  C12 UNL     1      46.299  -5.656  48.972  1.00  0.00     0.001 A 
HETATM   39  C13 UNL     1      45.424  -6.178  48.025  1.00  0.00     0.012 A 
ENDBRANCH   7  34
BRANCH  13  40
HETATM   40  O1  UNL     1      40.020  -9.076  42.313  1.00  0.00    -0.349 OA
ATOM     41  H1  UNL     1      39.211  -8.603  42.158  1.00  0.00     0.219 HD
ENDBRANCH  13  40
TORSDOF 5
ENDMDL
