MODEL 1
REMARK VINA RESULT: -10.493947006      0.000      0.000
REMARK  6 active torsions:
REMARK  status: ('A' for Active; 'I' for Inactive)
REMARK    1  A    between atoms: C6_8  and  N2_9 
REMARK    2  A    between atoms: N2_9  and  C7_11 
REMARK    3  A    between atoms: C10_14  and  N3_15 
REMARK    4  A    between atoms: N3_15  and  C11_17 
REMARK    5  A    between atoms: C15_25  and  C16_26 
REMARK    6  A    between atoms: C17_27  and  C18_28 
ROOT
HETATM    1  C11 UNL     1      35.767  -8.390  37.798  1.00  0.00     0.133 A 
HETATM    2  N4  UNL     1      35.013  -7.912  38.799  1.00  0.00    -0.284 N 
ATOM      3  H4  UNL     1      34.654  -8.463  39.579  1.00  0.00     0.188 HD
HETATM    4  N5  UNL     1      34.809  -6.623  38.621  1.00  0.00    -0.298 N 
ATOM      5  H5  UNL     1      34.268  -6.017  39.238  1.00  0.00     0.187 HD
HETATM    6  C12 UNL     1      35.437  -6.236  37.481  1.00  0.00     0.062 A 
HETATM    7  C13 UNL     1      35.560  -5.040  36.821  1.00  0.00     0.033 A 
HETATM    8  C14 UNL     1      36.282  -4.976  35.660  1.00  0.00     0.023 A 
HETATM    9  C15 UNL     1      36.908  -6.072  35.098  1.00  0.00     0.019 A 
HETATM   10  C27 UNL     1      36.755  -7.263  35.802  1.00  0.00     0.038 A 
HETATM   11  C28 UNL     1      36.042  -7.350  36.961  1.00  0.00     0.039 A 
ENDROOT
BRANCH   1  12
HETATM   12  N3  UNL     1      36.156  -9.622  37.663  1.00  0.00    -0.341 N 
ATOM     13  H3  UNL     1      37.143  -9.858  37.761  1.00  0.00     0.167 HD
BRANCH  12  14
HETATM   14  C10 UNL     1      35.203 -10.648  37.378  1.00  0.00     0.033 A 
HETATM   15  C9  UNL     1      33.951 -10.649  37.957  1.00  0.00     0.032 A 
HETATM   16  C8  UNL     1      33.049 -11.650  37.664  1.00  0.00     0.032 A 
HETATM   17  C7  UNL     1      33.337 -12.685  36.798  1.00  0.00     0.049 A 
HETATM   18  C30 UNL     1      34.596 -12.679  36.219  1.00  0.00     0.032 A 
HETATM   19  C29 UNL     1      35.509 -11.684  36.502  1.00  0.00     0.032 A 
BRANCH  17  20
HETATM   20  N2  UNL     1      32.362 -13.669  36.552  1.00  0.00    -0.192 N 
ATOM     21  H2  UNL     1      31.887 -13.627  35.650  1.00  0.00     0.184 HD
BRANCH  20  22
HETATM   22  C6  UNL     1      32.014 -14.603  37.333  1.00  0.00     0.683 A 
HETATM   23  N1  UNL     1      32.815 -15.208  38.218  1.00  0.00    -0.196 N 
HETATM   24  C4  UNL     1      32.376 -16.192  39.016  1.00  0.00     0.024 A 
ATOM     25  H1  UNL     1      33.788 -14.912  38.287  1.00  0.00     0.184 HD
HETATM   26  C3  UNL     1      31.055 -16.602  38.929  1.00  0.00     0.050 A 
HETATM   27  C5  UNL     1      33.325 -16.815  39.972  1.00  0.00     0.068 C 
HETATM   28  C2  UNL     1      30.230 -15.995  38.033  1.00  0.00     0.024 A 
HETATM   29  C1  UNL     1      28.807 -16.406  37.911  1.00  0.00     0.068 C 
HETATM   30  N7  UNL     1      30.721 -15.020  37.264  1.00  0.00    -0.196 N 
ATOM     31  H7  UNL     1      30.099 -14.568  36.595  1.00  0.00     0.184 HD
ENDBRANCH  20  22
ENDBRANCH  17  20
ENDBRANCH  12  14
ENDBRANCH   1  12
BRANCH   9  32
HETATM   32  C16 UNL     1      37.660  -5.983  33.880  1.00  0.00    -0.061 C 
HETATM   33  C17 UNL     1      38.307  -5.906  32.859  1.00  0.00    -0.060 C 
BRANCH  33  34
HETATM   34  C18 UNL     1      39.076  -5.811  31.647  1.00  0.00     0.032 A 
HETATM   35  C19 UNL     1      39.766  -4.673  31.325  1.00  0.00     0.038 A 
HETATM   36  C20 UNL     1      40.503  -4.598  30.150  1.00  0.00     0.090 A 
HETATM   37  N6  UNL     1      40.543  -5.659  29.314  1.00  0.00    -0.365 N 
HETATM   38  C21 UNL     1      39.885  -6.798  29.583  1.00  0.00     0.043 A 
ATOM     39  H6  UNL     1      41.088  -5.592  28.454  1.00  0.00     0.165 HD
HETATM   40  C22 UNL     1      39.959  -7.850  28.696  1.00  0.00     0.030 A 
HETATM   41  C26 UNL     1      39.152  -6.876  30.747  1.00  0.00     0.009 A 
HETATM   42  C23 UNL     1      39.268  -9.000  29.010  1.00  0.00     0.002 A 
HETATM   43  C24 UNL     1      38.522  -9.108  30.175  1.00  0.00     0.001 A 
HETATM   44  C25 UNL     1      38.465  -8.033  31.049  1.00  0.00     0.015 A 
ENDBRANCH  33  34
ENDBRANCH   9  32
TORSDOF 6
ENDMDL
MODEL 2
REMARK VINA RESULT: -10.411026766      6.047      8.881
REMARK  6 active torsions:
REMARK  status: ('A' for Active; 'I' for Inactive)
REMARK    1  A    between atoms: C6_8  and  N2_9 
REMARK    2  A    between atoms: N2_9  and  C7_11 
REMARK    3  A    between atoms: C10_14  and  N3_15 
REMARK    4  A    between atoms: N3_15  and  C11_17 
REMARK    5  A    between atoms: C15_25  and  C16_26 
REMARK    6  A    between atoms: C17_27  and  C18_28 
ROOT
HETATM    1  C11 UNL     1      36.356  -9.071  40.259  1.00  0.00     0.133 A 
HETATM    2  N4  UNL     1      35.647  -8.057  40.777  1.00  0.00    -0.284 N 
ATOM      3  H4  UNL     1      34.942  -7.516  40.277  1.00  0.00     0.188 HD
HETATM    4  N5  UNL     1      36.003  -7.866  42.031  1.00  0.00    -0.298 N 
ATOM      5  H5  UNL     1      35.618  -7.158  42.657  1.00  0.00     0.187 HD
HETATM    6  C12 UNL     1      36.965  -8.768  42.353  1.00  0.00     0.062 A 
HETATM    7  C13 UNL     1      37.685  -9.027  43.492  1.00  0.00     0.033 A 
HETATM    8  C14 UNL     1      38.610 -10.036  43.496  1.00  0.00     0.023 A 
HETATM    9  C15 UNL     1      38.870 -10.827  42.394  1.00  0.00     0.019 A 
HETATM   10  C27 UNL     1      38.116 -10.528  41.262  1.00  0.00     0.038 A 
HETATM   11  C28 UNL     1      37.189  -9.528  41.236  1.00  0.00     0.039 A 
ENDROOT
BRANCH   1  12
HETATM   12  N3  UNL     1      36.257  -9.522  39.045  1.00  0.00    -0.341 N 
ATOM     13  H3  UNL     1      36.938  -9.239  38.340  1.00  0.00     0.167 HD
BRANCH  12  14
HETATM   14  C10 UNL     1      35.197 -10.412  38.695  1.00  0.00     0.033 A 
HETATM   15  C9  UNL     1      34.578 -10.349  37.463  1.00  0.00     0.032 A 
HETATM   16  C8  UNL     1      33.558 -11.221  37.150  1.00  0.00     0.032 A 
HETATM   17  C7  UNL     1      33.103 -12.186  38.026  1.00  0.00     0.049 A 
HETATM   18  C30 UNL     1      33.728 -12.245  39.262  1.00  0.00     0.032 A 
HETATM   19  C29 UNL     1      34.751 -11.379  39.590  1.00  0.00     0.032 A 
BRANCH  17  20
HETATM   20  N2  UNL     1      32.056 -13.038  37.632  1.00  0.00    -0.192 N 
ATOM     21  H2  UNL     1      31.406 -12.671  36.936  1.00  0.00     0.184 HD
BRANCH  20  22
HETATM   22  C6  UNL     1      31.837 -14.213  38.050  1.00  0.00     0.683 A 
HETATM   23  N1  UNL     1      32.723 -14.979  38.696  1.00  0.00    -0.196 N 
HETATM   24  C4  UNL     1      32.420 -16.218  39.112  1.00  0.00     0.024 A 
ATOM     25  H1  UNL     1      33.656 -14.611  38.879  1.00  0.00     0.184 HD
HETATM   26  C3  UNL     1      31.155 -16.728  38.868  1.00  0.00     0.050 A 
HETATM   27  C5  UNL     1      33.456 -17.008  39.822  1.00  0.00     0.068 C 
HETATM   28  C2  UNL     1      30.245 -15.959  38.211  1.00  0.00     0.024 A 
HETATM   29  C1  UNL     1      28.877 -16.470  37.931  1.00  0.00     0.068 C 
HETATM   30  N7  UNL     1      30.601 -14.732  37.821  1.00  0.00    -0.196 N 
ATOM     31  H7  UNL     1      29.916 -14.159  37.330  1.00  0.00     0.184 HD
ENDBRANCH  20  22
ENDBRANCH  17  20
ENDBRANCH  12  14
ENDBRANCH   1  12
BRANCH   9  32
HETATM   32  C16 UNL     1      39.844 -11.879  42.420  1.00  0.00    -0.061 C 
HETATM   33  C17 UNL     1      40.656 -12.777  42.440  1.00  0.00    -0.060 C 
BRANCH  33  34
HETATM   34  C18 UNL     1      41.620 -13.846  42.465  1.00  0.00     0.032 A 
HETATM   35  C19 UNL     1      41.239 -15.147  42.658  1.00  0.00     0.038 A 
HETATM   36  C20 UNL     1      42.183 -16.166  42.682  1.00  0.00     0.090 A 
HETATM   37  N6  UNL     1      43.491 -15.875  42.511  1.00  0.00    -0.365 N 
HETATM   38  C21 UNL     1      43.916 -14.615  42.318  1.00  0.00     0.043 A 
ATOM     39  H6  UNL     1      44.175 -16.632  42.529  1.00  0.00     0.165 HD
HETATM   40  C22 UNL     1      45.262 -14.372  42.149  1.00  0.00     0.030 A 
HETATM   41  C26 UNL     1      42.984 -13.601  42.295  1.00  0.00     0.009 A 
HETATM   42  C23 UNL     1      45.655 -13.066  41.954  1.00  0.00     0.002 A 
HETATM   43  C24 UNL     1      44.740 -12.025  41.926  1.00  0.00     0.001 A 
HETATM   44  C25 UNL     1      43.391 -12.299  42.099  1.00  0.00     0.015 A 
ENDBRANCH  33  34
ENDBRANCH   9  32
TORSDOF 6
ENDMDL
MODEL 3
REMARK VINA RESULT: -10.341328368      5.289      8.684
REMARK  6 active torsions:
REMARK  status: ('A' for Active; 'I' for Inactive)
REMARK    1  A    between atoms: C6_8  and  N2_9 
REMARK    2  A    between atoms: N2_9  and  C7_11 
REMARK    3  A    between atoms: C10_14  and  N3_15 
REMARK    4  A    between atoms: N3_15  and  C11_17 
REMARK    5  A    between atoms: C15_25  and  C16_26 
REMARK    6  A    between atoms: C17_27  and  C18_28 
ROOT
HETATM    1  C11 UNL     1      35.043  -9.486  37.563  1.00  0.00     0.133 A 
HETATM    2  N4  UNL     1      34.348  -8.468  37.035  1.00  0.00    -0.284 N 
ATOM      3  H4  UNL     1      33.789  -8.517  36.184  1.00  0.00     0.188 HD
HETATM    4  N5  UNL     1      34.500  -7.395  37.785  1.00  0.00    -0.298 N 
ATOM      5  H5  UNL     1      34.078  -6.483  37.609  1.00  0.00     0.187 HD
HETATM    6  C12 UNL     1      35.310  -7.705  38.830  1.00  0.00     0.062 A 
HETATM    7  C13 UNL     1      35.798  -6.996  39.898  1.00  0.00     0.033 A 
HETATM    8  C14 UNL     1      36.617  -7.614  40.805  1.00  0.00     0.023 A 
HETATM    9  C15 UNL     1      36.990  -8.940  40.705  1.00  0.00     0.019 A 
HETATM   10  C27 UNL     1      36.471  -9.618  39.606  1.00  0.00     0.038 A 
HETATM   11  C28 UNL     1      35.653  -9.024  38.691  1.00  0.00     0.039 A 
ENDROOT
BRANCH   1  12
HETATM   12  N3  UNL     1      35.113 -10.689  37.076  1.00  0.00    -0.341 N 
ATOM     13  H3  UNL     1      35.918 -10.963  36.514  1.00  0.00     0.167 HD
BRANCH  12  14
HETATM   14  C10 UNL     1      34.066 -11.627  37.328  1.00  0.00     0.033 A 
HETATM   15  C9  UNL     1      33.573 -11.834  38.599  1.00  0.00     0.032 A 
HETATM   16  C8  UNL     1      32.561 -12.745  38.815  1.00  0.00     0.032 A 
HETATM   17  C7  UNL     1      31.993 -13.485  37.798  1.00  0.00     0.049 A 
HETATM   18  C30 UNL     1      32.492 -13.274  36.522  1.00  0.00     0.032 A 
HETATM   19  C29 UNL     1      33.505 -12.365  36.292  1.00  0.00     0.032 A 
BRANCH  17  20
HETATM   20  N2  UNL     1      30.964 -14.395  38.100  1.00  0.00    -0.192 N 
ATOM     21  H2  UNL     1      30.135 -14.013  38.556  1.00  0.00     0.184 HD
BRANCH  20  22
HETATM   22  C6  UNL     1      30.959 -15.639  37.863  1.00  0.00     0.683 A 
HETATM   23  N1  UNL     1      31.945 -16.488  38.174  1.00  0.00    -0.196 N 
HETATM   24  C4  UNL     1      31.871 -17.797  37.892  1.00  0.00     0.024 A 
ATOM     25  H1  UNL     1      32.779 -16.128  38.638  1.00  0.00     0.184 HD
HETATM   26  C3  UNL     1      30.742 -18.295  37.262  1.00  0.00     0.050 A 
HETATM   27  C5  UNL     1      33.006 -18.675  38.267  1.00  0.00     0.068 C 
HETATM   28  C2  UNL     1      29.731 -17.443  36.940  1.00  0.00     0.024 A 
HETATM   29  C1  UNL     1      28.504 -17.939  36.264  1.00  0.00     0.068 C 
HETATM   30  N7  UNL     1      29.860 -16.149  37.245  1.00  0.00    -0.196 N 
ATOM     31  H7  UNL     1      29.099 -15.514  37.003  1.00  0.00     0.184 HD
ENDBRANCH  20  22
ENDBRANCH  17  20
ENDBRANCH  12  14
ENDBRANCH   1  12
BRANCH   9  32
HETATM   32  C16 UNL     1      37.849  -9.568  41.668  1.00  0.00    -0.061 C 
HETATM   33  C17 UNL     1      38.575 -10.085  42.488  1.00  0.00    -0.060 C 
BRANCH  33  34
HETATM   34  C18 UNL     1      39.439 -10.697  43.461  1.00  0.00     0.032 A 
HETATM   35  C19 UNL     1      39.618 -12.055  43.504  1.00  0.00     0.038 A 
HETATM   36  C20 UNL     1      40.456 -12.630  44.451  1.00  0.00     0.090 A 
HETATM   37  N6  UNL     1      41.104 -11.846  45.340  1.00  0.00    -0.365 N 
HETATM   38  C21 UNL     1      40.963 -10.510  45.340  1.00  0.00     0.043 A 
ATOM     39  H6  UNL     1      41.717 -12.280  46.031  1.00  0.00     0.165 HD
HETATM   40  C22 UNL     1      41.646  -9.756  46.269  1.00  0.00     0.030 A 
HETATM   41  C26 UNL     1      40.133  -9.935  44.403  1.00  0.00     0.009 A 
HETATM   42  C23 UNL     1      41.473  -8.389  46.234  1.00  0.00     0.002 A 
HETATM   43  C24 UNL     1      40.644  -7.782  45.303  1.00  0.00     0.001 A 
HETATM   44  C25 UNL     1      39.968  -8.566  44.380  1.00  0.00     0.015 A 
ENDBRANCH  33  34
ENDBRANCH   9  32
TORSDOF 6
ENDMDL
MODEL 4
REMARK VINA RESULT: -10.319350478      6.118      8.924
REMARK  6 active torsions:
REMARK  status: ('A' for Active; 'I' for Inactive)
REMARK    1  A    between atoms: C6_8  and  N2_9 
REMARK    2  A    between atoms: N2_9  and  C7_11 
REMARK    3  A    between atoms: C10_14  and  N3_15 
REMARK    4  A    between atoms: N3_15  and  C11_17 
REMARK    5  A    between atoms: C15_25  and  C16_26 
REMARK    6  A    between atoms: C17_27  and  C18_28 
ROOT
HETATM    1  C11 UNL     1      42.178 -10.783  43.679  1.00  0.00     0.133 A 
HETATM    2  N4  UNL     1      42.686 -10.344  44.841  1.00  0.00    -0.284 N 
ATOM      3  H4  UNL     1      43.579 -10.635  45.239  1.00  0.00     0.188 HD
HETATM    4  N5  UNL     1      41.854  -9.481  45.388  1.00  0.00    -0.298 N 
ATOM      5  H5  UNL     1      41.999  -8.997  46.274  1.00  0.00     0.187 HD
HETATM    6  C12 UNL     1      40.774  -9.343  44.577  1.00  0.00     0.062 A 
HETATM    7  C13 UNL     1      39.624  -8.598  44.642  1.00  0.00     0.033 A 
HETATM    8  C14 UNL     1      38.702  -8.683  43.634  1.00  0.00     0.023 A 
HETATM    9  C15 UNL     1      38.863  -9.497  42.529  1.00  0.00     0.019 A 
HETATM   10  C27 UNL     1      40.044 -10.234  42.507  1.00  0.00     0.038 A 
HETATM   11  C28 UNL     1      40.977 -10.164  43.499  1.00  0.00     0.039 A 
ENDROOT
BRANCH   1  12
HETATM   12  N3  UNL     1      42.739 -11.642  42.883  1.00  0.00    -0.341 N 
ATOM     13  H3  UNL     1      43.665 -11.451  42.501  1.00  0.00     0.167 HD
BRANCH  12  14
HETATM   14  C10 UNL     1      42.062 -12.853  42.541  1.00  0.00     0.033 A 
HETATM   15  C9  UNL     1      41.561 -13.696  43.511  1.00  0.00     0.032 A 
HETATM   16  C8  UNL     1      40.912 -14.859  43.154  1.00  0.00     0.032 A 
HETATM   17  C7  UNL     1      40.727 -15.239  41.841  1.00  0.00     0.049 A 
HETATM   18  C30 UNL     1      41.232 -14.388  40.871  1.00  0.00     0.032 A 
HETATM   19  C29 UNL     1      41.885 -13.221  41.212  1.00  0.00     0.032 A 
BRANCH  17  20
HETATM   20  N2  UNL     1      40.053 -16.442  41.559  1.00  0.00    -0.192 N 
ATOM     21  H2  UNL     1      40.632 -17.271  41.429  1.00  0.00     0.184 HD
BRANCH  20  22
HETATM   22  C6  UNL     1      38.801 -16.601  41.450  1.00  0.00     0.683 A 
HETATM   23  N1  UNL     1      38.198 -17.733  41.070  1.00  0.00    -0.196 N 
HETATM   24  C4  UNL     1      36.863 -17.830  40.978  1.00  0.00     0.024 A 
ATOM     25  H1  UNL     1      38.770 -18.546  40.844  1.00  0.00     0.184 HD
HETATM   26  C3  UNL     1      36.078 -16.730  41.283  1.00  0.00     0.050 A 
HETATM   27  C5  UNL     1      36.268 -19.119  40.548  1.00  0.00     0.068 C 
HETATM   28  C2  UNL     1      36.679 -15.572  41.671  1.00  0.00     0.024 A 
HETATM   29  C1  UNL     1      35.871 -14.371  42.007  1.00  0.00     0.068 C 
HETATM   30  N7  UNL     1      38.012 -15.534  41.746  1.00  0.00    -0.196 N 
ATOM     31  H7  UNL     1      38.458 -14.664  42.038  1.00  0.00     0.184 HD
ENDBRANCH  20  22
ENDBRANCH  17  20
ENDBRANCH  12  14
ENDBRANCH   1  12
BRANCH   9  32
HETATM   32  C16 UNL     1      37.883  -9.571  41.484  1.00  0.00    -0.061 C 
HETATM   33  C17 UNL     1      37.050  -9.622  40.608  1.00  0.00    -0.060 C 
BRANCH  33  34
HETATM   34  C18 UNL     1      36.057  -9.684  39.568  1.00  0.00     0.032 A 
HETATM   35  C19 UNL     1      35.386 -10.845  39.289  1.00  0.00     0.038 A 
HETATM   36  C20 UNL     1      34.431 -10.887  38.281  1.00  0.00     0.090 A 
HETATM   37  N6  UNL     1      34.157  -9.772  37.567  1.00  0.00    -0.365 N 
HETATM   38  C21 UNL     1      34.786  -8.609  37.803  1.00  0.00     0.043 A 
ATOM     39  H6  UNL     1      33.453  -9.815  36.830  1.00  0.00     0.165 HD
HETATM   40  C22 UNL     1      34.469  -7.502  37.046  1.00  0.00     0.030 A 
HETATM   41  C26 UNL     1      35.734  -8.563  38.800  1.00  0.00     0.009 A 
HETATM   42  C23 UNL     1      35.139  -6.329  37.319  1.00  0.00     0.002 A 
HETATM   43  C24 UNL     1      36.098  -6.252  38.318  1.00  0.00     0.001 A 
HETATM   44  C25 UNL     1      36.397  -7.383  39.063  1.00  0.00     0.015 A 
ENDBRANCH  33  34
ENDBRANCH   9  32
TORSDOF 6
ENDMDL
MODEL 5
REMARK VINA RESULT: -10.316634601      5.103     11.412
REMARK  6 active torsions:
REMARK  status: ('A' for Active; 'I' for Inactive)
REMARK    1  A    between atoms: C6_8  and  N2_9 
REMARK    2  A    between atoms: N2_9  and  C7_11 
REMARK    3  A    between atoms: C10_14  and  N3_15 
REMARK    4  A    between atoms: N3_15  and  C11_17 
REMARK    5  A    between atoms: C15_25  and  C16_26 
REMARK    6  A    between atoms: C17_27  and  C18_28 
ROOT
HETATM    1  C11 UNL     1      38.832  -9.371  43.394  1.00  0.00     0.133 A 
HETATM    2  N4  UNL     1      39.695  -8.421  43.785  1.00  0.00    -0.284 N 
ATOM      3  H4  UNL     1      39.449  -7.453  43.990  1.00  0.00     0.188 HD
HETATM    4  N5  UNL     1      40.907  -8.931  43.864  1.00  0.00    -0.298 N 
ATOM      5  H5  UNL     1      41.748  -8.424  44.138  1.00  0.00     0.187 HD
HETATM    6  C12 UNL     1      40.850 -10.243  43.518  1.00  0.00     0.062 A 
HETATM    7  C13 UNL     1      41.785 -11.243  43.422  1.00  0.00     0.033 A 
HETATM    8  C14 UNL     1      41.398 -12.498  43.035  1.00  0.00     0.023 A 
HETATM    9  C15 UNL     1      40.092 -12.825  42.725  1.00  0.00     0.019 A 
HETATM   10  C27 UNL     1      39.180 -11.779  42.837  1.00  0.00     0.038 A 
HETATM   11  C28 UNL     1      39.542 -10.522  43.221  1.00  0.00     0.039 A 
ENDROOT
BRANCH   1  12
HETATM   12  N3  UNL     1      37.556  -9.209  43.215  1.00  0.00    -0.341 N 
ATOM     13  H3  UNL     1      36.926  -9.210  44.017  1.00  0.00     0.167 HD
BRANCH  12  14
HETATM   14  C10 UNL     1      37.033  -9.028  41.898  1.00  0.00     0.033 A 
HETATM   15  C9  UNL     1      37.811  -9.239  40.779  1.00  0.00     0.032 A 
HETATM   16  C8  UNL     1      37.282  -9.059  39.519  1.00  0.00     0.032 A 
HETATM   17  C7  UNL     1      35.976  -8.666  39.305  1.00  0.00     0.049 A 
HETATM   18  C30 UNL     1      35.199  -8.455  40.433  1.00  0.00     0.032 A 
HETATM   19  C29 UNL     1      35.715  -8.632  41.701  1.00  0.00     0.032 A 
BRANCH  17  20
HETATM   20  N2  UNL     1      35.511  -8.503  37.988  1.00  0.00    -0.192 N 
ATOM     21  H2  UNL     1      34.953  -9.265  37.602  1.00  0.00     0.184 HD
BRANCH  20  22
HETATM   22  C6  UNL     1      35.714  -7.509  37.230  1.00  0.00     0.683 A 
HETATM   23  N1  UNL     1      36.395  -7.541  36.079  1.00  0.00    -0.196 N 
HETATM   24  C4  UNL     1      36.569  -6.445  35.326  1.00  0.00     0.024 A 
ATOM     25  H1  UNL     1      36.793  -8.426  35.765  1.00  0.00     0.184 HD
HETATM   26  C3  UNL     1      36.032  -5.239  35.745  1.00  0.00     0.050 A 
HETATM   27  C5  UNL     1      37.337  -6.561  34.062  1.00  0.00     0.068 C 
HETATM   28  C2  UNL     1      35.337  -5.192  36.914  1.00  0.00     0.024 A 
HETATM   29  C1  UNL     1      34.745  -3.916  37.396  1.00  0.00     0.068 C 
HETATM   30  N7  UNL     1      35.194  -6.315  37.623  1.00  0.00    -0.196 N 
ATOM     31  H7  UNL     1      34.672  -6.275  38.498  1.00  0.00     0.184 HD
ENDBRANCH  20  22
ENDBRANCH  17  20
ENDBRANCH  12  14
ENDBRANCH   1  12
BRANCH   9  32
HETATM   32  C16 UNL     1      39.709 -14.147  42.321  1.00  0.00    -0.061 C 
HETATM   33  C17 UNL     1      39.373 -15.261  41.987  1.00  0.00    -0.060 C 
BRANCH  33  34
HETATM   34  C18 UNL     1      38.973 -16.586  41.592  1.00  0.00     0.032 A 
HETATM   35  C19 UNL     1      39.894 -17.580  41.394  1.00  0.00     0.038 A 
HETATM   36  C20 UNL     1      39.491 -18.854  41.012  1.00  0.00     0.090 A 
HETATM   37  N6  UNL     1      38.178 -19.119  40.835  1.00  0.00    -0.365 N 
HETATM   38  C21 UNL     1      37.236 -18.179  41.017  1.00  0.00     0.043 A 
ATOM     39  H6  UNL     1      37.895 -20.058  40.555  1.00  0.00     0.165 HD
HETATM   40  C22 UNL     1      35.910 -18.502  40.823  1.00  0.00     0.030 A 
HETATM   41  C26 UNL     1      37.631 -16.915  41.395  1.00  0.00     0.009 A 
HETATM   42  C23 UNL     1      34.976 -17.508  41.021  1.00  0.00     0.002 A 
HETATM   43  C24 UNL     1      35.343 -16.226  41.401  1.00  0.00     0.001 A 
HETATM   44  C25 UNL     1      36.685 -15.930  41.589  1.00  0.00     0.015 A 
ENDBRANCH  33  34
ENDBRANCH   9  32
TORSDOF 6
ENDMDL
