MODEL 1
REMARK VINA RESULT: -10.138255632      0.000      0.000
REMARK  5 active torsions:
REMARK  status: ('A' for Active; 'I' for Inactive)
REMARK    1  A    between atoms: C2_2  and  N1_3 
REMARK    2  A    between atoms: C6_7  and  C7_8 
REMARK    3  A    between atoms: C8_9  and  C9_10 
REMARK    4  A    between atoms: C13_14  and  C14_15 
REMARK    5  A    between atoms: C24_33  and  O1_34 
ROOT
HETATM    1  N1  UNL     1      41.312 -13.067  43.810  1.00  0.00    -0.356 N 
HETATM    2  C3  UNL     1      40.131 -12.442  44.275  1.00  0.00     0.103 C 
HETATM    3  C4  UNL     1      39.547 -11.193  43.810  1.00  0.00    -0.008 A 
HETATM    4  C5  UNL     1      38.568 -11.350  42.809  1.00  0.00     0.034 A 
HETATM    5  C6  UNL     1      37.833 -10.332  42.296  1.00  0.00     0.018 A 
HETATM    6  C16 UNL     1      38.056  -9.068  42.778  1.00  0.00     0.021 A 
HETATM    7  C17 UNL     1      39.006  -8.889  43.752  1.00  0.00     0.014 A 
HETATM    8  C18 UNL     1      39.780  -9.913  44.304  1.00  0.00    -0.014 A 
HETATM    9  C19 UNL     1      40.766  -9.478  45.317  1.00  0.00    -0.020 A 
HETATM   10  C20 UNL     1      41.493  -8.385  44.763  1.00  0.00     0.029 A 
HETATM   11  C21 UNL     1      42.617  -7.867  45.352  1.00  0.00     0.090 A 
HETATM   12  N4  UNL     1      42.977  -8.448  46.456  1.00  0.00    -0.352 N 
ATOM     13  H4  UNL     1      43.812  -8.087  46.918  1.00  0.00     0.166 HD
HETATM   14  C22 UNL     1      42.326  -9.522  47.069  1.00  0.00     0.108 A 
HETATM   15  C23 UNL     1      41.180 -10.052  46.498  1.00  0.00     0.061 A 
HETATM   16  N5  UNL     1      43.211  -9.955  48.118  1.00  0.00    -0.308 N 
ATOM     17  H5  UNL     1      43.292  -9.265  48.865  1.00  0.00     0.171 HD
HETATM   18  C24 UNL     1      43.990 -11.099  48.363  1.00  0.00     0.223 C 
HETATM   19  N6  UNL     1      44.583 -12.101  47.518  1.00  0.00    -0.322 N 
ATOM     20  H6  UNL     1      45.553 -12.326  47.741  1.00  0.00     0.169 HD
HETATM   21  C25 UNL     1      44.025 -12.847  46.396  1.00  0.00     0.037 A 
HETATM   22  C26 UNL     1      44.203 -14.247  46.558  1.00  0.00     0.029 A 
HETATM   23  C27 UNL     1      43.579 -15.197  45.778  1.00  0.00     0.004 A 
HETATM   24  C28 UNL     1      42.738 -14.708  44.802  1.00  0.00     0.030 A 
HETATM   25  C29 UNL     1      42.545 -13.316  44.626  1.00  0.00     0.036 A 
HETATM   26  C30 UNL     1      43.197 -12.416  45.400  1.00  0.00     0.059 A 
ENDROOT
BRANCH   5  27
HETATM   27  C7  UNL     1      36.841 -10.553  41.290  1.00  0.00    -0.061 C 
HETATM   28  C8  UNL     1      36.039 -10.727  40.433  1.00  0.00    -0.061 C 
BRANCH  28  29
HETATM   29  C9  UNL     1      35.095 -10.926  39.373  1.00  0.00     0.019 A 
HETATM   30  C10 UNL     1      34.903  -9.938  38.396  1.00  0.00     0.020 A 
HETATM   31  C11 UNL     1      33.982 -10.157  37.392  1.00  0.00     0.002 A 
HETATM   32  C12 UNL     1      33.274 -11.342  37.379  1.00  0.00     0.015 A 
HETATM   33  C13 UNL     1      33.456 -12.318  38.333  1.00  0.00     0.006 A 
HETATM   34  C15 UNL     1      34.379 -12.098  39.337  1.00  0.00     0.035 A 
BRANCH  33  35
HETATM   35  C14 UNL     1      32.674 -13.577  38.288  1.00  0.00     0.120 C 
HETATM   36  N2  UNL     1      31.529 -13.570  37.945  1.00  0.00    -0.387 N 
ATOM     37  H22 UNL     1      31.041 -12.717  37.672  1.00  0.00     0.157 HD
ATOM     38  H21 UNL     1      30.992 -14.436  37.913  1.00  0.00     0.157 HD
HETATM   39  N3  UNL     1      33.359 -14.774  38.670  1.00  0.00    -0.082 NA
ENDBRANCH  33  35
ENDBRANCH  28  29
ENDBRANCH   5  27
BRANCH   1  40
HETATM   40  C2  UNL     1      41.359 -13.640  42.461  1.00  0.00     0.124 C 
HETATM   41  C1  UNL     1      42.265 -12.781  41.620  1.00  0.00     0.027 C 
ENDBRANCH   1  40
BRANCH  18  42
HETATM   42  O1  UNL     1      44.228 -11.287  49.649  1.00  0.00    -0.332 OA
ATOM     43  H1  UNL     1      43.577 -11.840  50.064  1.00  0.00     0.220 HD
ENDBRANCH  18  42
TORSDOF 5
ENDMDL
MODEL 2
REMARK VINA RESULT: -9.018668504      2.728      3.297
REMARK  5 active torsions:
REMARK  status: ('A' for Active; 'I' for Inactive)
REMARK    1  A    between atoms: C2_2  and  N1_3 
REMARK    2  A    between atoms: C6_7  and  C7_8 
REMARK    3  A    between atoms: C8_9  and  C9_10 
REMARK    4  A    between atoms: C13_14  and  C14_15 
REMARK    5  A    between atoms: C24_33  and  O1_34 
ROOT
HETATM    1  N1  UNL     1      41.719 -13.129  43.743  1.00  0.00    -0.356 N 
HETATM    2  C3  UNL     1      40.542 -12.510  44.222  1.00  0.00     0.103 C 
HETATM    3  C4  UNL     1      40.169 -11.108  44.110  1.00  0.00    -0.008 A 
HETATM    4  C5  UNL     1      39.367 -10.810  42.991  1.00  0.00     0.034 A 
HETATM    5  C6  UNL     1      38.832  -9.589  42.739  1.00  0.00     0.018 A 
HETATM    6  C16 UNL     1      39.089  -8.577  43.627  1.00  0.00     0.021 A 
HETATM    7  C17 UNL     1      39.870  -8.840  44.724  1.00  0.00     0.014 A 
HETATM    8  C18 UNL     1      40.436 -10.084  45.015  1.00  0.00    -0.014 A 
HETATM    9  C19 UNL     1      41.270 -10.124  46.236  1.00  0.00    -0.020 A 
HETATM   10  C20 UNL     1      42.183  -9.033  46.165  1.00  0.00     0.029 A 
HETATM   11  C21 UNL     1      43.233  -8.886  47.033  1.00  0.00     0.090 A 
HETATM   12  N4  UNL     1      43.341  -9.820  47.929  1.00  0.00    -0.352 N 
ATOM     13  H4  UNL     1      44.114  -9.741  48.590  1.00  0.00     0.166 HD
HETATM   14  C22 UNL     1      42.494 -10.922  48.072  1.00  0.00     0.108 A 
HETATM   15  C23 UNL     1      41.417 -11.081  47.214  1.00  0.00     0.061 A 
HETATM   16  N5  UNL     1      43.138 -11.775  49.035  1.00  0.00    -0.308 N 
ATOM     17  H5  UNL     1      43.156 -11.363  49.967  1.00  0.00     0.171 HD
HETATM   18  C24 UNL     1      43.751 -13.040  49.001  1.00  0.00     0.223 C 
HETATM   19  N6  UNL     1      44.381 -13.815  47.966  1.00  0.00    -0.322 N 
ATOM     20  H6  UNL     1      45.271 -14.236  48.231  1.00  0.00     0.169 HD
HETATM   21  C25 UNL     1      43.955 -14.098  46.599  1.00  0.00     0.037 A 
HETATM   22  C26 UNL     1      43.967 -15.492  46.326  1.00  0.00     0.029 A 
HETATM   23  C27 UNL     1      43.399 -16.060  45.206  1.00  0.00     0.004 A 
HETATM   24  C28 UNL     1      42.789 -15.183  44.335  1.00  0.00     0.030 A 
HETATM   25  C29 UNL     1      42.763 -13.790  44.592  1.00  0.00     0.036 A 
HETATM   26  C30 UNL     1      43.356 -13.270  45.694  1.00  0.00     0.059 A 
ENDROOT
BRANCH   5  27
HETATM   27  C7  UNL     1      38.012  -9.349  41.593  1.00  0.00    -0.061 C 
HETATM   28  C8  UNL     1      37.347  -9.123  40.636  1.00  0.00    -0.061 C 
BRANCH  28  29
HETATM   29  C9  UNL     1      36.563  -8.819  39.475  1.00  0.00     0.019 A 
HETATM   30  C10 UNL     1      35.413  -9.564  39.179  1.00  0.00     0.020 A 
HETATM   31  C11 UNL     1      34.683  -9.251  38.050  1.00  0.00     0.002 A 
HETATM   32  C12 UNL     1      35.108  -8.214  37.244  1.00  0.00     0.015 A 
HETATM   33  C13 UNL     1      36.236  -7.477  37.526  1.00  0.00     0.006 A 
HETATM   34  C15 UNL     1      36.965  -7.791  38.657  1.00  0.00     0.035 A 
BRANCH  33  35
HETATM   35  C14 UNL     1      36.663  -6.372  36.634  1.00  0.00     0.120 C 
HETATM   36  N2  UNL     1      37.719  -6.415  36.077  1.00  0.00    -0.387 N 
ATOM     37  H22 UNL     1      38.367  -7.195  36.184  1.00  0.00     0.157 HD
ATOM     38  H21 UNL     1      38.013  -5.655  35.464  1.00  0.00     0.157 HD
HETATM   39  N3  UNL     1      35.754  -5.277  36.485  1.00  0.00    -0.082 NA
ENDBRANCH  33  35
ENDBRANCH  28  29
ENDBRANCH   5  27
BRANCH   1  40
HETATM   40  C2  UNL     1      41.942 -13.269  42.300  1.00  0.00     0.124 C 
HETATM   41  C1  UNL     1      43.104 -12.389  41.921  1.00  0.00     0.027 C 
ENDBRANCH   1  40
BRANCH  18  42
HETATM   42  O1  UNL     1      43.744 -13.641  50.178  1.00  0.00    -0.332 OA
ATOM     43  H1  UNL     1      43.820 -14.584  50.107  1.00  0.00     0.220 HD
ENDBRANCH  18  42
TORSDOF 5
ENDMDL
MODEL 3
REMARK VINA RESULT: -8.866655251      2.617      3.390
REMARK  5 active torsions:
REMARK  status: ('A' for Active; 'I' for Inactive)
REMARK    1  A    between atoms: C2_2  and  N1_3 
REMARK    2  A    between atoms: C6_7  and  C7_8 
REMARK    3  A    between atoms: C8_9  and  C9_10 
REMARK    4  A    between atoms: C13_14  and  C14_15 
REMARK    5  A    between atoms: C24_33  and  O1_34 
ROOT
HETATM    1  N1  UNL     1      43.731 -11.801  43.836  1.00  0.00    -0.356 N 
HETATM    2  C3  UNL     1      42.507 -11.524  44.489  1.00  0.00     0.103 C 
HETATM    3  C4  UNL     1      41.716 -10.305  44.409  1.00  0.00    -0.008 A 
HETATM    4  C5  UNL     1      40.703 -10.336  43.432  1.00  0.00     0.034 A 
HETATM    5  C6  UNL     1      39.793  -9.347  43.244  1.00  0.00     0.018 A 
HETATM    6  C16 UNL     1      39.863  -8.245  44.057  1.00  0.00     0.021 A 
HETATM    7  C17 UNL     1      40.843  -8.190  45.016  1.00  0.00     0.014 A 
HETATM    8  C18 UNL     1      41.794  -9.189  45.237  1.00  0.00    -0.014 A 
HETATM    9  C19 UNL     1      42.775  -8.895  46.304  1.00  0.00    -0.020 A 
HETATM   10  C20 UNL     1      43.294  -7.592  46.061  1.00  0.00     0.029 A 
HETATM   11  C21 UNL     1      44.369  -7.082  46.741  1.00  0.00     0.090 A 
HETATM   12  N4  UNL     1      44.887  -7.878  47.627  1.00  0.00    -0.352 N 
ATOM     13  H4  UNL     1      45.691  -7.529  48.150  1.00  0.00     0.166 HD
HETATM   14  C22 UNL     1      44.444  -9.168  47.931  1.00  0.00     0.108 A 
HETATM   15  C23 UNL     1      43.349  -9.697  47.265  1.00  0.00     0.061 A 
HETATM   16  N5  UNL     1      45.453  -9.724  48.792  1.00  0.00    -0.308 N 
ATOM     17  H5  UNL     1      45.485  -9.261  49.700  1.00  0.00     0.171 HD
HETATM   18  C24 UNL     1      46.407 -10.752  48.686  1.00  0.00     0.223 C 
HETATM   19  N6  UNL     1      47.078 -11.377  47.578  1.00  0.00    -0.322 N 
ATOM     20  H6  UNL     1      48.084 -11.497  47.702  1.00  0.00     0.169 HD
HETATM   21  C25 UNL     1      46.558 -11.867  46.306  1.00  0.00     0.037 A 
HETATM   22  C26 UNL     1      46.948 -13.211  46.064  1.00  0.00     0.029 A 
HETATM   23  C27 UNL     1      46.417 -13.998  45.065  1.00  0.00     0.004 A 
HETATM   24  C28 UNL     1      45.447 -13.402  44.288  1.00  0.00     0.030 A 
HETATM   25  C29 UNL     1      45.041 -12.065  44.516  1.00  0.00     0.036 A 
HETATM   26  C30 UNL     1      45.607 -11.318  45.494  1.00  0.00     0.059 A 
ENDROOT
BRANCH   5  27
HETATM   27  C7  UNL     1      38.776  -9.440  42.244  1.00  0.00    -0.061 C 
HETATM   28  C8  UNL     1      37.953  -9.508  41.392  1.00  0.00    -0.061 C 
BRANCH  28  29
HETATM   29  C9  UNL     1      36.984  -9.578  40.338  1.00  0.00     0.019 A 
HETATM   30  C10 UNL     1      36.035 -10.610  40.311  1.00  0.00     0.020 A 
HETATM   31  C11 UNL     1      35.119 -10.653  39.279  1.00  0.00     0.002 A 
HETATM   32  C12 UNL     1      35.165  -9.679  38.302  1.00  0.00     0.015 A 
HETATM   33  C13 UNL     1      36.093  -8.663  38.320  1.00  0.00     0.006 A 
HETATM   34  C15 UNL     1      37.008  -8.619  39.353  1.00  0.00     0.035 A 
BRANCH  33  35
HETATM   35  C14 UNL     1      36.113  -7.636  37.250  1.00  0.00     0.120 C 
HETATM   36  N2  UNL     1      37.148  -7.271  36.776  1.00  0.00    -0.387 N 
ATOM     37  H22 UNL     1      38.050  -7.639  37.076  1.00  0.00     0.157 HD
ATOM     38  H21 UNL     1      37.161  -6.566  36.041  1.00  0.00     0.157 HD
HETATM   39  N3  UNL     1      34.846  -7.120  36.829  1.00  0.00    -0.082 NA
ENDBRANCH  33  35
ENDBRANCH  28  29
ENDBRANCH   5  27
BRANCH   1  40
HETATM   40  C2  UNL     1      43.766 -11.969  42.379  1.00  0.00     0.124 C 
HETATM   41  C1  UNL     1      42.708 -12.972  42.000  1.00  0.00     0.027 C 
ENDBRANCH   1  40
BRANCH  18  42
HETATM   42  O1  UNL     1      46.759 -11.244  49.860  1.00  0.00    -0.332 OA
ATOM     43  H1  UNL     1      47.515 -11.816  49.805  1.00  0.00     0.220 HD
ENDBRANCH  18  42
TORSDOF 5
ENDMDL
MODEL 4
REMARK VINA RESULT: -8.863068205      1.434      1.844
REMARK  5 active torsions:
REMARK  status: ('A' for Active; 'I' for Inactive)
REMARK    1  A    between atoms: C2_2  and  N1_3 
REMARK    2  A    between atoms: C6_7  and  C7_8 
REMARK    3  A    between atoms: C8_9  and  C9_10 
REMARK    4  A    between atoms: C13_14  and  C14_15 
REMARK    5  A    between atoms: C24_33  and  O1_34 
ROOT
HETATM    1  N1  UNL     1      41.693 -13.332  43.716  1.00  0.00    -0.356 N 
HETATM    2  C3  UNL     1      40.569 -12.686  44.282  1.00  0.00     0.103 C 
HETATM    3  C4  UNL     1      40.190 -11.288  44.149  1.00  0.00    -0.008 A 
HETATM    4  C5  UNL     1      39.282 -11.032  43.103  1.00  0.00     0.034 A 
HETATM    5  C6  UNL     1      38.727  -9.820  42.853  1.00  0.00     0.018 A 
HETATM    6  C16 UNL     1      39.071  -8.773  43.669  1.00  0.00     0.021 A 
HETATM    7  C17 UNL     1      39.956  -8.996  44.695  1.00  0.00     0.014 A 
HETATM    8  C18 UNL     1      40.545 -10.230  44.981  1.00  0.00    -0.014 A 
HETATM    9  C19 UNL     1      41.495 -10.223  46.114  1.00  0.00    -0.020 A 
HETATM   10  C20 UNL     1      42.398  -9.141  45.909  1.00  0.00     0.029 A 
HETATM   11  C21 UNL     1      43.528  -8.965  46.663  1.00  0.00     0.090 A 
HETATM   12  N4  UNL     1      43.722  -9.861  47.583  1.00  0.00    -0.352 N 
ATOM     13  H4  UNL     1      44.556  -9.759  48.160  1.00  0.00     0.166 HD
HETATM   14  C22 UNL     1      42.891 -10.952  47.854  1.00  0.00     0.108 A 
HETATM   15  C23 UNL     1      41.735 -11.141  47.112  1.00  0.00     0.061 A 
HETATM   16  N5  UNL     1      43.626 -11.768  48.783  1.00  0.00    -0.308 N 
ATOM     17  H5  UNL     1      43.735 -11.318  49.691  1.00  0.00     0.171 HD
HETATM   18  C24 UNL     1      44.231 -13.037  48.742  1.00  0.00     0.223 C 
HETATM   19  N6  UNL     1      44.755 -13.858  47.683  1.00  0.00    -0.322 N 
ATOM     20  H6  UNL     1      45.667 -14.272  47.877  1.00  0.00     0.169 HD
HETATM   21  C25 UNL     1      44.197 -14.194  46.378  1.00  0.00     0.037 A 
HETATM   22  C26 UNL     1      44.180 -15.598  46.163  1.00  0.00     0.029 A 
HETATM   23  C27 UNL     1      43.504 -16.209  45.128  1.00  0.00     0.004 A 
HETATM   24  C28 UNL     1      42.813 -15.365  44.286  1.00  0.00     0.030 A 
HETATM   25  C29 UNL     1      42.815 -13.963  44.486  1.00  0.00     0.036 A 
HETATM   26  C30 UNL     1      43.513 -13.401  45.502  1.00  0.00     0.059 A 
ENDROOT
BRANCH   5  27
HETATM   27  C7  UNL     1      37.798  -9.623  41.785  1.00  0.00    -0.061 C 
HETATM   28  C8  UNL     1      37.049  -9.440  40.883  1.00  0.00    -0.061 C 
BRANCH  28  29
HETATM   29  C9  UNL     1      36.168  -9.196  39.779  1.00  0.00     0.019 A 
HETATM   30  C10 UNL     1      35.798  -7.886  39.440  1.00  0.00     0.020 A 
HETATM   31  C11 UNL     1      34.943  -7.684  38.375  1.00  0.00     0.002 A 
HETATM   32  C12 UNL     1      34.474  -8.778  37.676  1.00  0.00     0.015 A 
HETATM   33  C13 UNL     1      34.831 -10.067  38.001  1.00  0.00     0.006 A 
HETATM   34  C15 UNL     1      35.688 -10.268  39.066  1.00  0.00     0.035 A 
BRANCH  33  35
HETATM   35  C14 UNL     1      34.305 -11.218  37.228  1.00  0.00     0.120 C 
HETATM   36  N2  UNL     1      33.133 -11.452  37.208  1.00  0.00    -0.387 N 
ATOM     37  H22 UNL     1      32.450 -10.885  37.711  1.00  0.00     0.157 HD
ATOM     38  H21 UNL     1      32.771 -12.242  36.676  1.00  0.00     0.157 HD
HETATM   39  N3  UNL     1      35.263 -12.012  36.522  1.00  0.00    -0.082 NA
ENDBRANCH  33  35
ENDBRANCH  28  29
ENDBRANCH   5  27
BRANCH   1  40
HETATM   40  C2  UNL     1      41.773 -13.532  42.266  1.00  0.00     0.124 C 
HETATM   41  C1  UNL     1      42.899 -12.681  41.739  1.00  0.00     0.027 C 
ENDBRANCH   1  40
BRANCH  18  42
HETATM   42  O1  UNL     1      44.338 -13.589  49.938  1.00  0.00    -0.332 OA
ATOM     43  H1  UNL     1      43.683 -14.258  50.092  1.00  0.00     0.220 HD
ENDBRANCH  18  42
TORSDOF 5
ENDMDL
MODEL 5
REMARK VINA RESULT: -8.738993291      2.352      3.486
REMARK  5 active torsions:
REMARK  status: ('A' for Active; 'I' for Inactive)
REMARK    1  A    between atoms: C2_2  and  N1_3 
REMARK    2  A    between atoms: C6_7  and  C7_8 
REMARK    3  A    between atoms: C8_9  and  C9_10 
REMARK    4  A    between atoms: C13_14  and  C14_15 
REMARK    5  A    between atoms: C24_33  and  O1_34 
ROOT
HETATM    1  N1  UNL     1      43.241 -12.249  46.057  1.00  0.00    -0.356 N 
HETATM    2  C3  UNL     1      42.150 -11.435  46.443  1.00  0.00     0.103 C 
HETATM    3  C4  UNL     1      41.669 -10.229  45.787  1.00  0.00    -0.008 A 
HETATM    4  C5  UNL     1      40.633 -10.449  44.859  1.00  0.00     0.034 A 
HETATM    5  C6  UNL     1      39.977  -9.461  44.199  1.00  0.00     0.018 A 
HETATM    6  C16 UNL     1      40.345  -8.164  44.450  1.00  0.00     0.021 A 
HETATM    7  C17 UNL     1      41.353  -7.923  45.349  1.00  0.00     0.014 A 
HETATM    8  C18 UNL     1      42.048  -8.915  46.046  1.00  0.00    -0.014 A 
HETATM    9  C19 UNL     1      43.119  -8.420  46.938  1.00  0.00    -0.020 A 
HETATM   10  C20 UNL     1      43.922  -7.518  46.183  1.00  0.00     0.029 A 
HETATM   11  C21 UNL     1      45.117  -7.028  46.640  1.00  0.00     0.090 A 
HETATM   12  N4  UNL     1      45.471  -7.449  47.817  1.00  0.00    -0.352 N 
ATOM     13  H4  UNL     1      46.358  -7.104  48.184  1.00  0.00     0.166 HD
HETATM   14  C22 UNL     1      44.749  -8.331  48.625  1.00  0.00     0.108 A 
HETATM   15  C23 UNL     1      43.530  -8.827  48.188  1.00  0.00     0.061 A 
HETATM   16  N5  UNL     1      45.635  -8.670  49.706  1.00  0.00    -0.308 N 
ATOM     17  H5  UNL     1      45.818  -7.877  50.319  1.00  0.00     0.171 HD
HETATM   18  C24 UNL     1      46.311  -9.831  50.121  1.00  0.00     0.223 C 
HETATM   19  N6  UNL     1      46.762 -11.017  49.444  1.00  0.00    -0.322 N 
ATOM     20  H6  UNL     1      47.715 -11.302  49.673  1.00  0.00     0.169 HD
HETATM   21  C25 UNL     1      46.082 -11.880  48.484  1.00  0.00     0.037 A 
HETATM   22  C26 UNL     1      46.130 -13.243  48.880  1.00  0.00     0.029 A 
HETATM   23  C27 UNL     1      45.381 -14.241  48.294  1.00  0.00     0.004 A 
HETATM   24  C28 UNL     1      44.546 -13.839  47.274  1.00  0.00     0.030 A 
HETATM   25  C29 UNL     1      44.481 -12.484  46.867  1.00  0.00     0.036 A 
HETATM   26  C30 UNL     1      45.253 -11.539  47.454  1.00  0.00     0.059 A 
ENDROOT
BRANCH   5  27
HETATM   27  C7  UNL     1      38.922  -9.744  43.277  1.00  0.00    -0.061 C 
HETATM   28  C8  UNL     1      38.066  -9.969  42.487  1.00  0.00    -0.061 C 
BRANCH  28  29
HETATM   29  C9  UNL     1      37.053 -10.230  41.507  1.00  0.00     0.019 A 
HETATM   30  C10 UNL     1      35.840 -10.829  41.878  1.00  0.00     0.020 A 
HETATM   31  C11 UNL     1      34.888 -11.073  40.909  1.00  0.00     0.002 A 
HETATM   32  C12 UNL     1      35.158 -10.722  39.602  1.00  0.00     0.015 A 
HETATM   33  C13 UNL     1      36.344 -10.134  39.228  1.00  0.00     0.006 A 
HETATM   34  C15 UNL     1      37.297  -9.889  40.198  1.00  0.00     0.035 A 
BRANCH  33  35
HETATM   35  C14 UNL     1      36.599  -9.773  37.812  1.00  0.00     0.120 C 
HETATM   36  N2  UNL     1      37.072  -8.712  37.530  1.00  0.00    -0.387 N 
ATOM     37  H22 UNL     1      37.319  -8.016  38.233  1.00  0.00     0.157 HD
ATOM     38  H21 UNL     1      37.247  -8.465  36.557  1.00  0.00     0.157 HD
HETATM   39  N3  UNL     1      36.251 -10.751  36.826  1.00  0.00    -0.082 NA
ENDBRANCH  33  35
ENDBRANCH  28  29
ENDBRANCH   5  27
BRANCH   1  40
HETATM   40  C2  UNL     1      43.168 -13.043  44.827  1.00  0.00     0.124 C 
HETATM   41  C1  UNL     1      43.966 -12.333  43.765  1.00  0.00     0.027 C 
ENDBRANCH   1  40
BRANCH  18  42
HETATM   42  O1  UNL     1      46.589  -9.824  51.412  1.00  0.00    -0.332 OA
ATOM     43  H1  UNL     1      47.438 -10.204  51.606  1.00  0.00     0.220 HD
ENDBRANCH  18  42
TORSDOF 5
ENDMDL
