MODEL 1
REMARK VINA RESULT: -7.365949430      0.000      0.000
REMARK  5 active torsions:
REMARK  status: ('A' for Active; 'I' for Inactive)
REMARK    1  A    between atoms: C2_2  and  C4_5 
REMARK    2  A    between atoms: C4_5  and  O1_6 
REMARK    3  A    between atoms: C4_5  and  N2_8 
REMARK    4  A    between atoms: C8_16  and  S1_17 
REMARK    5  A    between atoms: S1_17  and  C9_18 
ROOT
HETATM    1  C1  UNL     1     -12.718-103.300  -3.097  1.00  0.00     0.040 C 
HETATM    2  C2  UNL     1     -13.980-103.106  -3.200  1.00  0.00     0.087 C 
HETATM    3  C3  UNL     1     -14.865-104.124  -2.563  1.00  0.00     0.103 C 
HETATM    4  N1  UNL     1     -15.565-104.905  -2.083  1.00  0.00    -0.191 NA
ENDROOT
BRANCH   2   5
HETATM    5  C4  UNL     1     -14.644-102.043  -3.884  1.00  0.00     0.179 C 
BRANCH   5   6
HETATM    6  O1  UNL     1     -13.964-101.464  -4.862  1.00  0.00    -0.344 OA
ATOM      7  H1  UNL     1     -14.413-101.388  -5.696  1.00  0.00     0.219 HD
ENDBRANCH   5   6
BRANCH   5   8
HETATM    8  N2  UNL     1     -15.904-101.486  -3.716  1.00  0.00    -0.250 N 
HETATM    9  C5  UNL     1     -16.219-100.913  -2.383  1.00  0.00     0.273 C 
HETATM   10  N3  UNL     1     -16.744 -99.577  -2.620  1.00  0.00    -0.364 N 
HETATM   11  C6  UNL     1     -17.809 -99.466  -3.565  1.00  0.00     0.144 A 
ATOM     12  H3  UNL     1     -16.370 -98.760  -2.137  1.00  0.00     0.161 HD
HETATM   13  C7  UNL     1     -17.895-100.394  -4.571  1.00  0.00     0.154 A 
HETATM   14  C10 UNL     1     -18.735 -98.431  -3.452  1.00  0.00     0.277 A 
HETATM   15  N4  UNL     1     -18.919-100.270  -5.459  1.00  0.00    -0.319 N 
HETATM   16  N6  UNL     1     -16.934-101.443  -4.671  1.00  0.00    -0.278 N 
HETATM   17  C8  UNL     1     -19.822 -99.278  -5.368  1.00  0.00     0.155 A 
ATOM     18  H4  UNL     1     -19.003-100.949  -6.216  1.00  0.00     0.169 HD
HETATM   19  N5  UNL     1     -19.719 -98.372  -4.367  1.00  0.00    -0.301 N 
ATOM     20  H5  UNL     1     -20.408 -97.623  -4.305  1.00  0.00     0.171 HD
ATOM     21  H6  UNL     1     -16.992-102.141  -5.412  1.00  0.00     0.189 HD
HETATM   22  O3  UNL     1     -18.598 -97.612  -2.505  1.00  0.00    -0.265 OA
BRANCH  17  23
HETATM   23  S1  UNL     1     -21.170 -99.092  -6.513  1.00  0.00    -0.025 SA
BRANCH  23  24
HETATM   24  C9  UNL     1     -22.747 -99.289  -5.759  1.00  0.00     0.312 C 
HETATM   25  O2  UNL     1     -23.105-100.374  -5.368  1.00  0.00    -0.295 OA
ENDBRANCH  23  24
ENDBRANCH  17  23
ENDBRANCH   5   8
ENDBRANCH   2   5
TORSDOF 5
ENDMDL
MODEL 2
REMARK VINA RESULT: -7.330617470      2.050      2.351
REMARK  5 active torsions:
REMARK  status: ('A' for Active; 'I' for Inactive)
REMARK    1  A    between atoms: C2_2  and  C4_5 
REMARK    2  A    between atoms: C4_5  and  O1_6 
REMARK    3  A    between atoms: C4_5  and  N2_8 
REMARK    4  A    between atoms: C8_16  and  S1_17 
REMARK    5  A    between atoms: S1_17  and  C9_18 
ROOT
HETATM    1  C1  UNL     1     -14.104-101.599  -4.242  1.00  0.00     0.040 C 
HETATM    2  C2  UNL     1     -14.953-102.182  -3.481  1.00  0.00     0.087 C 
HETATM    3  C3  UNL     1     -14.512-103.458  -2.846  1.00  0.00     0.103 C 
HETATM    4  N1  UNL     1     -14.190-104.449  -2.352  1.00  0.00    -0.191 NA
ENDROOT
BRANCH   2   5
HETATM    5  C4  UNL     1     -16.289-101.772  -3.192  1.00  0.00     0.179 C 
BRANCH   5   6
HETATM    6  O1  UNL     1     -16.930-102.476  -2.273  1.00  0.00    -0.344 OA
ATOM      7  H1  UNL     1     -17.877-102.507  -2.354  1.00  0.00     0.219 HD
ENDBRANCH   5   6
BRANCH   5   8
HETATM    8  N2  UNL     1     -17.067-100.742  -3.706  1.00  0.00    -0.250 N 
HETATM    9  C5  UNL     1     -16.352 -99.556  -4.243  1.00  0.00     0.273 C 
HETATM   10  N3  UNL     1     -16.903 -99.306  -5.566  1.00  0.00    -0.364 N 
HETATM   11  C6  UNL     1     -18.326 -99.217  -5.661  1.00  0.00     0.144 A 
ATOM     12  H3  UNL     1     -16.304 -99.199  -6.384  1.00  0.00     0.161 HD
HETATM   13  C7  UNL     1     -19.089 -99.902  -4.750  1.00  0.00     0.154 A 
HETATM   14  C10 UNL     1     -18.909 -98.446  -6.664  1.00  0.00     0.277 A 
HETATM   15  N4  UNL     1     -20.442 -99.802  -4.859  1.00  0.00    -0.319 N 
HETATM   16  N6  UNL     1     -18.470-100.689  -3.734  1.00  0.00    -0.278 N 
HETATM   17  C8  UNL     1     -21.025 -99.063  -5.819  1.00  0.00     0.155 A 
ATOM     18  H4  UNL     1     -21.031-100.302  -4.192  1.00  0.00     0.169 HD
HETATM   19  N5  UNL     1     -20.252 -98.396  -6.709  1.00  0.00    -0.301 N 
ATOM     20  H5  UNL     1     -20.703 -97.839  -7.434  1.00  0.00     0.171 HD
ATOM     21  H6  UNL     1     -19.029-101.198  -3.050  1.00  0.00     0.189 HD
HETATM   22  O3  UNL     1     -18.150 -97.843  -7.468  1.00  0.00    -0.265 OA
BRANCH  17  23
HETATM   23  S1  UNL     1     -22.789 -98.915  -5.986  1.00  0.00    -0.025 SA
BRANCH  23  24
HETATM   24  C9  UNL     1     -23.664-100.257  -5.260  1.00  0.00     0.312 C 
HETATM   25  O2  UNL     1     -24.792-100.104  -4.855  1.00  0.00    -0.295 OA
ENDBRANCH  23  24
ENDBRANCH  17  23
ENDBRANCH   5   8
ENDBRANCH   2   5
TORSDOF 5
ENDMDL
MODEL 3
REMARK VINA RESULT: -7.302532965      2.147      2.547
REMARK  5 active torsions:
REMARK  status: ('A' for Active; 'I' for Inactive)
REMARK    1  A    between atoms: C2_2  and  C4_5 
REMARK    2  A    between atoms: C4_5  and  O1_6 
REMARK    3  A    between atoms: C4_5  and  N2_8 
REMARK    4  A    between atoms: C8_16  and  S1_17 
REMARK    5  A    between atoms: S1_17  and  C9_18 
ROOT
HETATM    1  C1  UNL     1     -13.891-100.662  -4.923  1.00  0.00     0.040 C 
HETATM    2  C2  UNL     1     -14.452-101.426  -4.062  1.00  0.00     0.087 C 
HETATM    3  C3  UNL     1     -13.587-102.463  -3.428  1.00  0.00     0.103 C 
HETATM    4  N1  UNL     1     -12.934-103.275  -2.933  1.00  0.00    -0.191 NA
ENDROOT
BRANCH   2   5
HETATM    5  C4  UNL     1     -15.821-101.426  -3.659  1.00  0.00     0.179 C 
BRANCH   5   6
HETATM    6  O1  UNL     1     -16.192-102.407  -2.850  1.00  0.00    -0.344 OA
ATOM      7  H1  UNL     1     -16.026-102.272  -1.924  1.00  0.00     0.219 HD
ENDBRANCH   5   6
BRANCH   5   8
HETATM    8  N2  UNL     1     -16.869-100.566  -3.960  1.00  0.00    -0.250 N 
HETATM    9  C5  UNL     1     -16.514 -99.207  -4.441  1.00  0.00     0.273 C 
HETATM   10  N3  UNL     1     -17.284 -98.984  -5.655  1.00  0.00    -0.364 N 
HETATM   11  C6  UNL     1     -18.691 -99.220  -5.573  1.00  0.00     0.144 A 
ATOM     12  H3  UNL     1     -16.843 -98.674  -6.521  1.00  0.00     0.161 HD
HETATM   13  C7  UNL     1     -19.151-100.134  -4.661  1.00  0.00     0.154 A 
HETATM   14  C10 UNL     1     -19.563 -98.525  -6.409  1.00  0.00     0.277 A 
HETATM   15  N4  UNL     1     -20.495-100.343  -4.599  1.00  0.00    -0.319 N 
HETATM   16  N6  UNL     1     -18.240-100.837  -3.818  1.00  0.00    -0.278 N 
HETATM   17  C8  UNL     1     -21.353 -99.683  -5.397  1.00  0.00     0.155 A 
ATOM     18  H4  UNL     1     -20.861-101.018  -3.928  1.00  0.00     0.169 HD
HETATM   19  N5  UNL     1     -20.877 -98.784  -6.291  1.00  0.00    -0.301 N 
ATOM     20  H5  UNL     1     -21.535 -98.289  -6.892  1.00  0.00     0.171 HD
ATOM     21  H6  UNL     1     -18.574-101.516  -3.134  1.00  0.00     0.189 HD
HETATM   22  O3  UNL     1     -19.073 -97.699  -7.224  1.00  0.00    -0.265 OA
BRANCH  17  23
HETATM   23  S1  UNL     1     -23.113 -99.934  -5.338  1.00  0.00    -0.025 SA
BRANCH  23  24
HETATM   24  C9  UNL     1     -24.023 -98.592  -6.021  1.00  0.00     0.312 C 
HETATM   25  O2  UNL     1     -25.183 -98.733  -6.325  1.00  0.00    -0.295 OA
ENDBRANCH  23  24
ENDBRANCH  17  23
ENDBRANCH   5   8
ENDBRANCH   2   5
TORSDOF 5
ENDMDL
MODEL 4
REMARK VINA RESULT: -7.139745386      2.890      6.826
REMARK  5 active torsions:
REMARK  status: ('A' for Active; 'I' for Inactive)
REMARK    1  A    between atoms: C2_2  and  C4_5 
REMARK    2  A    between atoms: C4_5  and  O1_6 
REMARK    3  A    between atoms: C4_5  and  N2_8 
REMARK    4  A    between atoms: C8_16  and  S1_17 
REMARK    5  A    between atoms: S1_17  and  C9_18 
ROOT
HETATM    1  C1  UNL     1     -22.538-100.210  -5.344  1.00  0.00     0.040 C 
HETATM    2  C2  UNL     1     -21.420 -99.605  -5.501  1.00  0.00     0.087 C 
HETATM    3  C3  UNL     1     -21.315 -98.695  -6.679  1.00  0.00     0.103 C 
HETATM    4  N1  UNL     1     -21.212 -97.993  -7.588  1.00  0.00    -0.191 NA
ENDROOT
BRANCH   2   5
HETATM    5  C4  UNL     1     -20.246 -99.723  -4.698  1.00  0.00     0.179 C 
BRANCH   5   6
HETATM    6  O1  UNL     1     -20.398 -99.488  -3.404  1.00  0.00    -0.344 OA
ATOM      7  H1  UNL     1     -21.164 -99.875  -2.995  1.00  0.00     0.219 HD
ENDBRANCH   5   6
BRANCH   5   8
HETATM    8  N2  UNL     1     -18.937-100.049  -5.024  1.00  0.00    -0.250 N 
HETATM    9  C5  UNL     1     -18.335 -99.352  -6.189  1.00  0.00     0.273 C 
HETATM   10  N3  UNL     1     -17.052 -98.832  -5.743  1.00  0.00    -0.364 N 
HETATM   11  C6  UNL     1     -16.172 -99.759  -5.105  1.00  0.00     0.144 A 
ATOM     12  H3  UNL     1     -16.793 -97.855  -5.878  1.00  0.00     0.161 HD
HETATM   13  C7  UNL     1     -16.715-100.829  -4.441  1.00  0.00     0.154 A 
HETATM   14  C10 UNL     1     -14.793 -99.566  -5.167  1.00  0.00     0.277 A 
HETATM   15  N4  UNL     1     -15.858-101.701  -3.841  1.00  0.00    -0.319 N 
HETATM   16  N6  UNL     1     -18.129-101.005  -4.386  1.00  0.00    -0.278 N 
HETATM   17  C8  UNL     1     -14.524-101.532  -3.890  1.00  0.00     0.155 A 
ATOM     18  H4  UNL     1     -16.238-102.505  -3.342  1.00  0.00     0.169 HD
HETATM   19  N5  UNL     1     -14.010-100.468  -4.551  1.00  0.00    -0.301 N 
ATOM     20  H5  UNL     1     -12.998-100.348  -4.581  1.00  0.00     0.171 HD
ATOM     21  H6  UNL     1     -18.541-101.800  -3.899  1.00  0.00     0.189 HD
HETATM   22  O3  UNL     1     -14.361 -98.562  -5.793  1.00  0.00    -0.265 OA
BRANCH  17  23
HETATM   23  S1  UNL     1     -13.381-102.654  -3.116  1.00  0.00    -0.025 SA
BRANCH  23  24
HETATM   24  C9  UNL     1     -14.162-104.085  -2.456  1.00  0.00     0.312 C 
HETATM   25  O2  UNL     1     -15.357-104.103  -2.280  1.00  0.00    -0.295 OA
ENDBRANCH  23  24
ENDBRANCH  17  23
ENDBRANCH   5   8
ENDBRANCH   2   5
TORSDOF 5
ENDMDL
MODEL 5
REMARK VINA RESULT: -7.136761163      1.976      2.192
REMARK  5 active torsions:
REMARK  status: ('A' for Active; 'I' for Inactive)
REMARK    1  A    between atoms: C2_2  and  C4_5 
REMARK    2  A    between atoms: C4_5  and  O1_6 
REMARK    3  A    between atoms: C4_5  and  N2_8 
REMARK    4  A    between atoms: C8_16  and  S1_17 
REMARK    5  A    between atoms: S1_17  and  C9_18 
ROOT
HETATM    1  C1  UNL     1     -13.738-102.321  -3.601  1.00  0.00     0.040 C 
HETATM    2  C2  UNL     1     -14.813-102.801  -3.096  1.00  0.00     0.087 C 
HETATM    3  C3  UNL     1     -14.766-104.228  -2.663  1.00  0.00     0.103 C 
HETATM    4  N1  UNL     1     -14.750-105.332  -2.328  1.00  0.00    -0.191 NA
ENDROOT
BRANCH   2   5
HETATM    5  C4  UNL     1     -16.067-102.140  -2.928  1.00  0.00     0.179 C 
BRANCH   5   6
HETATM    6  O1  UNL     1     -16.873-102.643  -2.006  1.00  0.00    -0.344 OA
ATOM      7  H1  UNL     1     -17.317-103.451  -2.234  1.00  0.00     0.219 HD
ENDBRANCH   5   6
BRANCH   5   8
HETATM    8  N2  UNL     1     -16.617-101.036  -3.565  1.00  0.00    -0.250 N 
HETATM    9  C5  UNL     1     -15.687 -99.948  -3.960  1.00  0.00     0.273 C 
HETATM   10  N3  UNL     1     -15.962 -99.655  -5.358  1.00  0.00    -0.364 N 
HETATM   11  C6  UNL     1     -17.326 -99.405  -5.703  1.00  0.00     0.144 A 
ATOM     12  H3  UNL     1     -15.220 -99.630  -6.057  1.00  0.00     0.161 HD
HETATM   13  C7  UNL     1     -18.312 -99.984  -4.946  1.00  0.00     0.154 A 
HETATM   14  C10 UNL     1     -17.630 -98.587  -6.789  1.00  0.00     0.277 A 
HETATM   15  N4  UNL     1     -19.604 -99.731  -5.292  1.00  0.00    -0.319 N 
HETATM   16  N6  UNL     1     -17.978-100.821  -3.841  1.00  0.00    -0.278 N 
HETATM   17  C8  UNL     1     -19.919 -98.944  -6.336  1.00  0.00     0.155 A 
ATOM     18  H4  UNL     1     -20.355-100.150  -4.742  1.00  0.00     0.169 HD
HETATM   19  N5  UNL     1     -18.929 -98.383  -7.071  1.00  0.00    -0.301 N 
ATOM     20  H5  UNL     1     -19.177 -97.789  -7.861  1.00  0.00     0.171 HD
ATOM     21  H6  UNL     1     -18.704-101.252  -3.269  1.00  0.00     0.189 HD
HETATM   22  O3  UNL     1     -16.676 -98.087  -7.443  1.00  0.00    -0.265 OA
BRANCH  17  23
HETATM   23  S1  UNL     1     -21.597 -98.596  -6.811  1.00  0.00    -0.025 SA
BRANCH  23  24
HETATM   24  C9  UNL     1     -22.782 -99.305  -5.721  1.00  0.00     0.312 C 
HETATM   25  O2  UNL     1     -22.682-100.459  -5.377  1.00  0.00    -0.295 OA
ENDBRANCH  23  24
ENDBRANCH  17  23
ENDBRANCH   5   8
ENDBRANCH   2   5
TORSDOF 5
ENDMDL
