MODEL 1
REMARK VINA RESULT: -6.684488626      0.000      0.000
REMARK  5 active torsions:
REMARK  status: ('A' for Active; 'I' for Inactive)
REMARK    1  A    between atoms: C2_2  and  N1_3 
REMARK    2  A    between atoms: C3_4  and  C4_5 
REMARK    3  A    between atoms: C4_5  and  O2_7 
REMARK    4  A    between atoms: C6_9  and  N2_10 
REMARK    5  A    between atoms: N3_12  and  N4_14 
ROOT
HETATM    1  N1  UNL     1     -16.514 -99.150  -6.057  1.00  0.00    -0.326 N 
HETATM    2  C3  UNL     1     -16.103 -99.663  -4.887  1.00  0.00     0.141 A 
HETATM    3  C6  UNL     1     -17.242 -99.833  -4.085  1.00  0.00     0.102 A 
HETATM    4  C7  UNL     1     -18.314 -99.401  -4.834  1.00  0.00     0.107 A 
HETATM    5  C8  UNL     1     -19.679 -99.317  -4.604  1.00  0.00     0.267 A 
HETATM    6  O3  UNL     1     -20.140 -99.693  -3.501  1.00  0.00    -0.267 OA
HETATM    7  N5  UNL     1     -20.536 -98.849  -5.517  1.00  0.00    -0.270 N 
HETATM    8  C9  UNL     1     -21.958 -98.765  -5.270  1.00  0.00     0.164 C 
HETATM    9  C10 UNL     1     -20.053 -98.444  -6.705  1.00  0.00     0.330 A 
HETATM   10  O4  UNL     1     -20.803 -97.993  -7.610  1.00  0.00    -0.246 OA
HETATM   11  N6  UNL     1     -18.723 -98.502  -6.987  1.00  0.00    -0.293 N 
ATOM     12  H6  UNL     1     -18.373 -98.188  -7.892  1.00  0.00     0.172 HD
HETATM   13  C11 UNL     1     -17.873 -98.977  -6.057  1.00  0.00     0.130 A 
ENDROOT
BRANCH   3  14
HETATM   14  N2  UNL     1     -17.283-100.344  -2.770  1.00  0.00    -0.283 N 
HETATM   15  N3  UNL     1     -17.501 -99.690  -1.732  1.00  0.00    -0.249 N 
ATOM     16  H3  UNL     1     -17.499-100.208  -0.852  1.00  0.00     0.207 HD
ATOM     17  H2  UNL     1     -17.119-101.344  -2.659  1.00  0.00     0.188 HD
BRANCH  15  18
HETATM   18  N4  UNL     1     -17.747 -98.327  -1.657  1.00  0.00    -0.331 N 
ATOM     19  H42 UNL     1     -18.243 -97.922  -2.450  1.00  0.00     0.178 HD
ATOM     20  H41 UNL     1     -17.481 -97.706  -0.892  1.00  0.00     0.178 HD
ENDBRANCH  15  18
ENDBRANCH   3  14
BRANCH   2  21
HETATM   21  C4  UNL     1     -14.774-100.032  -4.415  1.00  0.00     0.312 C 
HETATM   22  O1  UNL     1     -14.253 -99.511  -3.394  1.00  0.00    -0.258 OA
BRANCH  21  23
HETATM   23  O2  UNL     1     -14.026-100.989  -5.091  1.00  0.00    -0.321 OA
HETATM   24  C5  UNL     1     -13.563-102.125  -4.389  1.00  0.00     0.213 C 
ENDBRANCH  21  23
ENDBRANCH   2  21
BRANCH   1  25
HETATM   25  C2  UNL     1     -15.652 -98.813  -7.160  1.00  0.00     0.126 C 
HETATM   26  C1  UNL     1     -14.510 -97.928  -6.796  1.00  0.00     0.027 C 
ENDBRANCH   1  25
TORSDOF 5
ENDMDL
MODEL 2
REMARK VINA RESULT: -6.035851994      2.358      5.316
REMARK  5 active torsions:
REMARK  status: ('A' for Active; 'I' for Inactive)
REMARK    1  A    between atoms: C2_2  and  N1_3 
REMARK    2  A    between atoms: C3_4  and  C4_5 
REMARK    3  A    between atoms: C4_5  and  O2_7 
REMARK    4  A    between atoms: C6_9  and  N2_10 
REMARK    5  A    between atoms: N3_12  and  N4_14 
ROOT
HETATM    1  N1  UNL     1     -15.331 -99.689  -5.340  1.00  0.00    -0.326 N 
HETATM    2  C3  UNL     1     -16.669 -99.591  -5.323  1.00  0.00     0.141 A 
HETATM    3  C6  UNL     1     -17.151-100.631  -4.512  1.00  0.00     0.102 A 
HETATM    4  C7  UNL     1     -16.047-101.322  -4.067  1.00  0.00     0.107 A 
HETATM    5  C8  UNL     1     -15.866-102.428  -3.250  1.00  0.00     0.267 A 
HETATM    6  O3  UNL     1     -16.868-102.997  -2.757  1.00  0.00    -0.267 OA
HETATM    7  N5  UNL     1     -14.658-102.920  -2.961  1.00  0.00    -0.270 N 
HETATM    8  C9  UNL     1     -14.478-104.074  -2.107  1.00  0.00     0.164 C 
HETATM    9  C10 UNL     1     -13.575-102.319  -3.484  1.00  0.00     0.330 A 
HETATM   10  O4  UNL     1     -12.408-102.730  -3.253  1.00  0.00    -0.246 OA
HETATM   11  N6  UNL     1     -13.691-101.230  -4.293  1.00  0.00    -0.293 N 
ATOM     12  H6  UNL     1     -12.859-100.787  -4.683  1.00  0.00     0.172 HD
HETATM   13  C11 UNL     1     -14.915-100.746  -4.574  1.00  0.00     0.130 A 
ENDROOT
BRANCH   3  14
HETATM   14  N2  UNL     1     -18.501-100.913  -4.211  1.00  0.00    -0.283 N 
HETATM   15  N3  UNL     1     -19.219-100.297  -3.400  1.00  0.00    -0.249 N 
ATOM     16  H3  UNL     1     -20.180-100.624  -3.294  1.00  0.00     0.207 HD
ATOM     17  H2  UNL     1     -18.929-101.696  -4.703  1.00  0.00     0.188 HD
BRANCH  15  18
HETATM   18  N4  UNL     1     -18.839 -99.209  -2.628  1.00  0.00    -0.331 N 
ATOM     19  H42 UNL     1     -17.998 -99.337  -2.065  1.00  0.00     0.178 HD
ATOM     20  H41 UNL     1     -19.317 -98.309  -2.576  1.00  0.00     0.178 HD
ENDBRANCH  15  18
ENDBRANCH   3  14
BRANCH   2  21
HETATM   21  C4  UNL     1     -17.570 -98.639  -5.961  1.00  0.00     0.312 C 
HETATM   22  O1  UNL     1     -17.425 -98.271  -7.156  1.00  0.00    -0.258 OA
BRANCH  21  23
HETATM   23  O2  UNL     1     -18.639 -98.097  -5.255  1.00  0.00    -0.321 OA
HETATM   24  C5  UNL     1     -19.820 -97.752  -5.949  1.00  0.00     0.213 C 
ENDBRANCH  21  23
ENDBRANCH   2  21
BRANCH   1  25
HETATM   25  C2  UNL     1     -14.448 -98.815  -6.068  1.00  0.00     0.126 C 
HETATM   26  C1  UNL     1     -13.707 -99.480  -7.176  1.00  0.00     0.027 C 
ENDBRANCH   1  25
TORSDOF 5
ENDMDL
MODEL 3
REMARK VINA RESULT: -5.881647964      0.670      1.191
REMARK  5 active torsions:
REMARK  status: ('A' for Active; 'I' for Inactive)
REMARK    1  A    between atoms: C2_2  and  N1_3 
REMARK    2  A    between atoms: C3_4  and  C4_5 
REMARK    3  A    between atoms: C4_5  and  O2_7 
REMARK    4  A    between atoms: C6_9  and  N2_10 
REMARK    5  A    between atoms: N3_12  and  N4_14 
ROOT
HETATM    1  N1  UNL     1     -16.462 -99.166  -6.004  1.00  0.00    -0.326 N 
HETATM    2  C3  UNL     1     -16.055 -99.751  -4.868  1.00  0.00     0.141 A 
HETATM    3  C6  UNL     1     -17.199 -99.991  -4.091  1.00  0.00     0.102 A 
HETATM    4  C7  UNL     1     -18.270 -99.526  -4.820  1.00  0.00     0.107 A 
HETATM    5  C8  UNL     1     -19.638 -99.477  -4.601  1.00  0.00     0.267 A 
HETATM    6  O3  UNL     1     -20.104 -99.933  -3.530  1.00  0.00    -0.267 OA
HETATM    7  N5  UNL     1     -20.493 -98.961  -5.489  1.00  0.00    -0.270 N 
HETATM    8  C9  UNL     1     -21.919 -98.915  -5.252  1.00  0.00     0.164 C 
HETATM    9  C10 UNL     1     -20.006 -98.470  -6.641  1.00  0.00     0.330 A 
HETATM   10  O4  UNL     1     -20.754 -97.969  -7.521  1.00  0.00    -0.246 OA
HETATM   11  N6  UNL     1     -18.672 -98.489  -6.912  1.00  0.00    -0.293 N 
ATOM     12  H6  UNL     1     -18.318 -98.110  -7.791  1.00  0.00     0.172 HD
HETATM   13  C11 UNL     1     -17.824 -99.013  -6.008  1.00  0.00     0.130 A 
ENDROOT
BRANCH   3  14
HETATM   14  N2  UNL     1     -17.245-100.591  -2.814  1.00  0.00    -0.283 N 
HETATM   15  N3  UNL     1     -16.897-101.755  -2.534  1.00  0.00    -0.249 N 
ATOM     16  H3  UNL     1     -16.990-102.042  -1.560  1.00  0.00     0.207 HD
ATOM     17  H2  UNL     1     -17.597-100.018  -2.048  1.00  0.00     0.188 HD
BRANCH  15  18
HETATM   18  N4  UNL     1     -16.394-102.696  -3.420  1.00  0.00    -0.331 N 
ATOM     19  H42 UNL     1     -17.031-102.995  -4.158  1.00  0.00     0.178 HD
ATOM     20  H41 UNL     1     -15.461-103.109  -3.398  1.00  0.00     0.178 HD
ENDBRANCH  15  18
ENDBRANCH   3  14
BRANCH   2  21
HETATM   21  C4  UNL     1     -14.725-100.132  -4.408  1.00  0.00     0.312 C 
HETATM   22  O1  UNL     1     -14.169 -99.578  -3.423  1.00  0.00    -0.258 OA
BRANCH  21  23
HETATM   23  O2  UNL     1     -14.016-101.137  -5.055  1.00  0.00    -0.321 OA
HETATM   24  C5  UNL     1     -13.283-102.069  -4.286  1.00  0.00     0.213 C 
ENDBRANCH  21  23
ENDBRANCH   2  21
BRANCH   1  25
HETATM   25  C2  UNL     1     -15.595 -98.743  -7.073  1.00  0.00     0.126 C 
HETATM   26  C1  UNL     1     -14.385 -98.000  -6.621  1.00  0.00     0.027 C 
ENDBRANCH   1  25
TORSDOF 5
ENDMDL
MODEL 4
REMARK VINA RESULT: -5.874960114      1.405      4.885
REMARK  5 active torsions:
REMARK  status: ('A' for Active; 'I' for Inactive)
REMARK    1  A    between atoms: C2_2  and  N1_3 
REMARK    2  A    between atoms: C3_4  and  C4_5 
REMARK    3  A    between atoms: C4_5  and  O2_7 
REMARK    4  A    between atoms: C6_9  and  N2_10 
REMARK    5  A    between atoms: N3_12  and  N4_14 
ROOT
HETATM    1  N1  UNL     1     -18.498 -98.885  -6.085  1.00  0.00    -0.326 N 
HETATM    2  C3  UNL     1     -18.795 -99.443  -4.902  1.00  0.00     0.141 A 
HETATM    3  C6  UNL     1     -17.583 -99.815  -4.301  1.00  0.00     0.102 A 
HETATM    4  C7  UNL     1     -16.585 -99.451  -5.178  1.00  0.00     0.107 A 
HETATM    5  C8  UNL     1     -15.203 -99.549  -5.160  1.00  0.00     0.267 A 
HETATM    6  O3  UNL     1     -14.637-100.069  -4.169  1.00  0.00    -0.267 OA
HETATM    7  N5  UNL     1     -14.436 -99.108  -6.162  1.00  0.00    -0.270 N 
HETATM    8  C9  UNL     1     -12.993 -99.214  -6.135  1.00  0.00     0.164 C 
HETATM    9  C10 UNL     1     -15.030 -98.548  -7.229  1.00  0.00     0.330 A 
HETATM   10  O4  UNL     1     -14.369 -98.113  -8.208  1.00  0.00    -0.246 OA
HETATM   11  N6  UNL     1     -16.384 -98.426  -7.304  1.00  0.00    -0.293 N 
ATOM     12  H6  UNL     1     -16.819 -98.000  -8.122  1.00  0.00     0.172 HD
HETATM   13  C11 UNL     1     -17.142 -98.873  -6.285  1.00  0.00     0.130 A 
ENDROOT
BRANCH   3  14
HETATM   14  N2  UNL     1     -17.416-100.439  -3.046  1.00  0.00    -0.283 N 
HETATM   15  N3  UNL     1     -17.444 -99.876  -1.934  1.00  0.00    -0.249 N 
ATOM     16  H3  UNL     1     -17.307-100.469  -1.114  1.00  0.00     0.207 HD
ATOM     17  H2  UNL     1     -17.257-101.446  -3.049  1.00  0.00     0.188 HD
BRANCH  15  18
HETATM   18  N4  UNL     1     -17.645 -98.524  -1.703  1.00  0.00    -0.331 N 
ATOM     19  H42 UNL     1     -17.072 -97.889  -2.260  1.00  0.00     0.178 HD
ATOM     20  H41 UNL     1     -18.302 -98.115  -1.039  1.00  0.00     0.178 HD
ENDBRANCH  15  18
ENDBRANCH   3  14
BRANCH   2  21
HETATM   21  C4  UNL     1     -20.076 -99.669  -4.242  1.00  0.00     0.312 C 
HETATM   22  O1  UNL     1     -20.289 -99.325  -3.049  1.00  0.00    -0.258 OA
BRANCH  21  23
HETATM   23  O2  UNL     1     -21.121-100.283  -4.923  1.00  0.00    -0.321 OA
HETATM   24  C5  UNL     1     -22.239 -99.511  -5.312  1.00  0.00     0.213 C 
ENDBRANCH  21  23
ENDBRANCH   2  21
BRANCH   1  25
HETATM   25  C2  UNL     1     -19.463 -98.377  -7.025  1.00  0.00     0.126 C 
HETATM   26  C1  UNL     1     -19.824 -96.946  -6.818  1.00  0.00     0.027 C 
ENDBRANCH   1  25
TORSDOF 5
ENDMDL
MODEL 5
REMARK VINA RESULT: -5.626702539      1.324      1.742
REMARK  5 active torsions:
REMARK  status: ('A' for Active; 'I' for Inactive)
REMARK    1  A    between atoms: C2_2  and  N1_3 
REMARK    2  A    between atoms: C3_4  and  C4_5 
REMARK    3  A    between atoms: C4_5  and  O2_7 
REMARK    4  A    between atoms: C6_9  and  N2_10 
REMARK    5  A    between atoms: N3_12  and  N4_14 
ROOT
HETATM    1  N1  UNL     1     -15.354 -99.557  -5.535  1.00  0.00    -0.326 N 
HETATM    2  C3  UNL     1     -15.188-100.230  -4.386  1.00  0.00     0.141 A 
HETATM    3  C6  UNL     1     -16.443-100.298  -3.759  1.00  0.00     0.102 A 
HETATM    4  C7  UNL     1     -17.327 -99.643  -4.586  1.00  0.00     0.107 A 
HETATM    5  C8  UNL     1     -18.686 -99.374  -4.525  1.00  0.00     0.267 A 
HETATM    6  O3  UNL     1     -19.347 -99.774  -3.538  1.00  0.00    -0.267 OA
HETATM    7  N5  UNL     1     -19.332 -98.702  -5.483  1.00  0.00    -0.270 N 
HETATM    8  C9  UNL     1     -20.750 -98.426  -5.412  1.00  0.00     0.164 C 
HETATM    9  C10 UNL     1     -18.634 -98.268  -6.547  1.00  0.00     0.330 A 
HETATM   10  O4  UNL     1     -19.179 -97.628  -7.485  1.00  0.00    -0.246 OA
HETATM   11  N6  UNL     1     -17.298 -98.501  -6.662  1.00  0.00    -0.293 N 
ATOM     12  H6  UNL     1     -16.783 -98.163  -7.475  1.00  0.00     0.172 HD
HETATM   13  C11 UNL     1     -16.663 -99.181  -5.690  1.00  0.00     0.130 A 
ENDROOT
BRANCH   3  14
HETATM   14  N2  UNL     1     -16.740-100.914  -2.525  1.00  0.00    -0.283 N 
HETATM   15  N3  UNL     1     -16.675-102.133  -2.276  1.00  0.00    -0.249 N 
ATOM     16  H3  UNL     1     -16.923-102.424  -1.330  1.00  0.00     0.207 HD
ATOM     17  H2  UNL     1     -17.037-100.303  -1.764  1.00  0.00     0.188 HD
BRANCH  15  18
HETATM   18  N4  UNL     1     -16.298-103.133  -3.161  1.00  0.00    -0.331 N 
ATOM     19  H42 UNL     1     -15.757-102.827  -3.970  1.00  0.00     0.178 HD
ATOM     20  H41 UNL     1     -16.509-104.127  -3.075  1.00  0.00     0.178 HD
ENDBRANCH  15  18
ENDBRANCH   3  14
BRANCH   2  21
HETATM   21  C4  UNL     1     -14.004-100.837  -3.792  1.00  0.00     0.312 C 
HETATM   22  O1  UNL     1     -13.396-100.317  -2.819  1.00  0.00    -0.258 OA
BRANCH  21  23
HETATM   23  O2  UNL     1     -13.498-102.032  -4.291  1.00  0.00    -0.321 OA
HETATM   24  C5  UNL     1     -12.805-102.905  -3.421  1.00  0.00     0.213 C 
ENDBRANCH  21  23
ENDBRANCH   2  21
BRANCH   1  25
HETATM   25  C2  UNL     1     -14.306 -99.256  -6.475  1.00  0.00     0.126 C 
HETATM   26  C1  UNL     1     -14.175 -97.808  -6.803  1.00  0.00     0.027 C 
ENDBRANCH   1  25
TORSDOF 5
ENDMDL
