MODEL 1
REMARK VINA RESULT: -5.738902773      0.000      0.000
REMARK  5 active torsions:
REMARK  status: ('A' for Active; 'I' for Inactive)
REMARK    1  A    between atoms: C2_4  and  C3_5 
REMARK    2  A    between atoms: C3_5  and  N2_6 
REMARK    3  A    between atoms: C3_5  and  N7_23 
REMARK    4  A    between atoms: C11_18  and  N6_19 
REMARK    5  A    between atoms: N6_19  and  O1_21 
ROOT
HETATM    1  N2  UNL     1     -18.025 -99.312  -5.794  1.00  0.00    -0.300 N 
HETATM    2  C4  UNL     1     -18.181-100.105  -4.717  1.00  0.00     0.143 A 
HETATM    3  N3  UNL     1     -19.404-100.531  -4.140  1.00  0.00    -0.081 NA
HETATM    4  C5  UNL     1     -16.936-100.449  -4.250  1.00  0.00     0.101 A 
HETATM    5  C6  UNL     1     -16.558-101.266  -3.141  1.00  0.00     0.104 C 
HETATM    6  N4  UNL     1     -16.257-101.943  -2.247  1.00  0.00    -0.191 NA
HETATM    7  C7  UNL     1     -16.028 -99.834  -5.085  1.00  0.00     0.046 A 
HETATM    8  C8  UNL     1     -16.739 -99.120  -6.055  1.00  0.00     0.068 A 
HETATM    9  C9  UNL     1     -16.018 -98.363  -7.083  1.00  0.00     0.118 C 
HETATM   10  N5  UNL     1     -14.638 -98.219  -6.884  1.00  0.00    -0.371 N 
ATOM     11  H5  UNL     1     -14.166 -97.358  -7.158  1.00  0.00     0.164 HD
HETATM   12  C10 UNL     1     -13.913 -99.269  -6.305  1.00  0.00     0.119 C 
HETATM   13  C11 UNL     1     -14.569 -99.826  -5.095  1.00  0.00     0.083 C 
ENDROOT
BRANCH   1  14
HETATM   14  C3  UNL     1     -19.135 -98.760  -6.544  1.00  0.00     0.301 C 
BRANCH  14  15
HETATM   15  C2  UNL     1     -20.333 -99.639  -6.483  1.00  0.00     0.108 C 
HETATM   16  N1  UNL     1     -21.407 -99.266  -5.929  1.00  0.00    -0.403 N 
HETATM   17  C1  UNL     1     -22.588-100.037  -5.828  1.00  0.00     0.145 C 
ATOM     18  H1  UNL     1     -21.422 -98.332  -5.522  1.00  0.00     0.158 HD
ENDBRANCH  14  15
BRANCH  14  19
HETATM   19  N7  UNL     1     -19.462 -97.427  -6.144  1.00  0.00    -0.125 N 
HETATM   20  O2  UNL     1     -19.385 -96.489  -6.948  1.00  0.00    -0.534 OA
HETATM   21  O3  UNL     1     -19.868 -97.150  -4.865  1.00  0.00    -0.534 OA
ENDBRANCH  14  19
ENDBRANCH   1  14
BRANCH  13  22
HETATM   22  N6  UNL     1     -13.944-100.288  -4.085  1.00  0.00    -0.267 N 
ATOM     23  H6  UNL     1     -13.767 -99.647  -3.312  1.00  0.00     0.194 HD
BRANCH  22  24
HETATM   24  O1  UNL     1     -13.494-101.560  -3.951  1.00  0.00    -0.289 OA
ATOM     25  H1  UNL     1     -13.133-101.937  -3.158  1.00  0.00     0.244 HD
ENDBRANCH  22  24
ENDBRANCH  13  22
TORSDOF 5
ENDMDL
MODEL 2
REMARK VINA RESULT: -5.156487114      2.341      4.262
REMARK  5 active torsions:
REMARK  status: ('A' for Active; 'I' for Inactive)
REMARK    1  A    between atoms: C2_4  and  C3_5 
REMARK    2  A    between atoms: C3_5  and  N2_6 
REMARK    3  A    between atoms: C3_5  and  N7_23 
REMARK    4  A    between atoms: C11_18  and  N6_19 
REMARK    5  A    between atoms: N6_19  and  O1_21 
ROOT
HETATM    1  N2  UNL     1     -16.815-100.449  -4.042  1.00  0.00    -0.300 N 
HETATM    2  C4  UNL     1     -16.005 -99.743  -4.853  1.00  0.00     0.143 A 
HETATM    3  N3  UNL     1     -16.327 -98.558  -5.561  1.00  0.00    -0.081 NA
HETATM    4  C5  UNL     1     -14.782-100.367  -4.890  1.00  0.00     0.101 A 
HETATM    5  C6  UNL     1     -13.589-100.021  -5.596  1.00  0.00     0.104 C 
HETATM    6  N4  UNL     1     -12.618 -99.726  -6.160  1.00  0.00    -0.191 NA
HETATM    7  C7  UNL     1     -14.888-101.471  -4.072  1.00  0.00     0.046 A 
HETATM    8  C8  UNL     1     -16.183-101.503  -3.546  1.00  0.00     0.068 A 
HETATM    9  C9  UNL     1     -16.577-102.583  -2.635  1.00  0.00     0.118 C 
HETATM   10  N5  UNL     1     -15.680-103.654  -2.529  1.00  0.00    -0.371 N 
ATOM     11  H5  UNL     1     -16.027-104.605  -2.407  1.00  0.00     0.164 HD
HETATM   12  C10 UNL     1     -14.302-103.407  -2.594  1.00  0.00     0.119 C 
HETATM   13  C11 UNL     1     -13.927-102.510  -3.715  1.00  0.00     0.083 C 
ENDROOT
BRANCH   1  14
HETATM   14  C3  UNL     1     -18.189-100.078  -3.769  1.00  0.00     0.301 C 
BRANCH  14  15
HETATM   15  C2  UNL     1     -18.275 -98.800  -3.014  1.00  0.00     0.108 C 
HETATM   16  N1  UNL     1     -17.703 -98.645  -1.897  1.00  0.00    -0.403 N 
HETATM   17  C1  UNL     1     -17.735 -97.467  -1.115  1.00  0.00     0.145 C 
ATOM     18  H1  UNL     1     -17.174 -99.435  -1.529  1.00  0.00     0.158 HD
ENDBRANCH  14  15
BRANCH  14  19
HETATM   19  N7  UNL     1     -18.991-100.023  -4.952  1.00  0.00    -0.125 N 
HETATM   20  O2  UNL     1     -18.779-100.795  -5.896  1.00  0.00    -0.534 OA
HETATM   21  O3  UNL     1     -20.012 -99.117  -5.075  1.00  0.00    -0.534 OA
ENDBRANCH  14  19
ENDBRANCH   1  14
BRANCH  13  22
HETATM   22  N6  UNL     1     -12.838-102.593  -4.371  1.00  0.00    -0.267 N 
ATOM     23  H6  UNL     1     -12.772-102.060  -5.238  1.00  0.00     0.194 HD
BRANCH  22  24
HETATM   24  O1  UNL     1     -11.758-103.330  -4.014  1.00  0.00    -0.289 OA
ATOM     25  H1  UNL     1     -10.877-103.218  -4.350  1.00  0.00     0.244 HD
ENDBRANCH  22  24
ENDBRANCH  13  22
TORSDOF 5
ENDMDL
MODEL 3
REMARK VINA RESULT: -5.007727900      0.971      2.941
REMARK  5 active torsions:
REMARK  status: ('A' for Active; 'I' for Inactive)
REMARK    1  A    between atoms: C2_4  and  C3_5 
REMARK    2  A    between atoms: C3_5  and  N2_6 
REMARK    3  A    between atoms: C3_5  and  N7_23 
REMARK    4  A    between atoms: C11_18  and  N6_19 
REMARK    5  A    between atoms: N6_19  and  O1_21 
ROOT
HETATM    1  N2  UNL     1     -17.717 -99.032  -6.121  1.00  0.00    -0.300 N 
HETATM    2  C4  UNL     1     -16.585 -98.724  -6.781  1.00  0.00     0.143 A 
HETATM    3  N3  UNL     1     -16.476 -98.073  -8.035  1.00  0.00    -0.081 NA
HETATM    4  C5  UNL     1     -15.518 -99.151  -6.028  1.00  0.00     0.101 A 
HETATM    5  C6  UNL     1     -14.114 -99.064  -6.281  1.00  0.00     0.104 C 
HETATM    6  N4  UNL     1     -12.975 -98.977  -6.486  1.00  0.00    -0.191 NA
HETATM    7  C7  UNL     1     -16.051 -99.725  -4.895  1.00  0.00     0.046 A 
HETATM    8  C8  UNL     1     -17.445 -99.638  -4.974  1.00  0.00     0.068 A 
HETATM    9  C9  UNL     1     -18.275-100.176  -3.892  1.00  0.00     0.118 C 
HETATM   10  N5  UNL     1     -17.609-100.958  -2.939  1.00  0.00    -0.371 N 
ATOM     11  H5  UNL     1     -18.074-101.762  -2.518  1.00  0.00     0.164 HD
HETATM   12  C10 UNL     1     -16.299-100.627  -2.570  1.00  0.00     0.119 C 
HETATM   13  C11 UNL     1     -15.422-100.350  -3.736  1.00  0.00     0.083 C 
ENDROOT
BRANCH   1  14
HETATM   14  C3  UNL     1     -19.040 -98.726  -6.626  1.00  0.00     0.301 C 
BRANCH  14  15
HETATM   15  C2  UNL     1     -20.023 -99.785  -6.275  1.00  0.00     0.108 C 
HETATM   16  N1  UNL     1     -21.256 -99.536  -6.146  1.00  0.00    -0.403 N 
HETATM   17  C1  UNL     1     -22.254-100.482  -5.815  1.00  0.00     0.145 C 
ATOM     18  H1  UNL     1     -21.556 -98.573  -6.293  1.00  0.00     0.158 HD
ENDBRANCH  14  15
BRANCH  14  19
HETATM   19  N7  UNL     1     -19.507 -97.441  -6.206  1.00  0.00    -0.125 N 
HETATM   20  O2  UNL     1     -19.429 -96.462  -6.959  1.00  0.00    -0.534 OA
HETATM   21  O3  UNL     1     -20.051 -97.257  -4.961  1.00  0.00    -0.534 OA
ENDBRANCH  14  19
ENDBRANCH   1  14
BRANCH  13  22
HETATM   22  N6  UNL     1     -14.178-100.622  -3.782  1.00  0.00    -0.267 N 
ATOM     23  H6  UNL     1     -13.526 -99.868  -3.567  1.00  0.00     0.194 HD
BRANCH  22  24
HETATM   24  O1  UNL     1     -13.647-101.831  -4.093  1.00  0.00    -0.289 OA
ATOM     25  H1  UNL     1     -13.846-102.650  -3.655  1.00  0.00     0.244 HD
ENDBRANCH  22  24
ENDBRANCH  13  22
TORSDOF 5
ENDMDL
MODEL 4
REMARK VINA RESULT: -4.920762790     10.587     11.821
REMARK  5 active torsions:
REMARK  status: ('A' for Active; 'I' for Inactive)
REMARK    1  A    between atoms: C2_4  and  C3_5 
REMARK    2  A    between atoms: C3_5  and  N2_6 
REMARK    3  A    between atoms: C3_5  and  N7_23 
REMARK    4  A    between atoms: C11_18  and  N6_19 
REMARK    5  A    between atoms: N6_19  and  O1_21 
ROOT
HETATM    1  N2  UNL     1      -9.279 -99.270   2.023  1.00  0.00    -0.300 N 
HETATM    2  C4  UNL     1      -9.531-100.585   2.164  1.00  0.00     0.143 A 
HETATM    3  N3  UNL     1      -8.742-101.662   1.689  1.00  0.00    -0.081 NA
HETATM    4  C5  UNL     1     -10.706-100.726   2.862  1.00  0.00     0.101 A 
HETATM    5  C6  UNL     1     -11.404-101.905   3.269  1.00  0.00     0.104 C 
HETATM    6  N4  UNL     1     -11.958-102.866   3.610  1.00  0.00    -0.191 NA
HETATM    7  C7  UNL     1     -11.149 -99.449   3.133  1.00  0.00     0.046 A 
HETATM    8  C8  UNL     1     -10.230 -98.543   2.593  1.00  0.00     0.068 A 
HETATM    9  C9  UNL     1     -10.454 -97.101   2.734  1.00  0.00     0.118 C 
HETATM   10  N5  UNL     1     -11.714 -96.720   3.214  1.00  0.00    -0.371 N 
ATOM     11  H5  UNL     1     -12.161 -95.872   2.867  1.00  0.00     0.164 HD
HETATM   12  C10 UNL     1     -12.355 -97.515   4.174  1.00  0.00     0.119 C 
HETATM   13  C11 UNL     1     -12.329 -98.961   3.837  1.00  0.00     0.083 C 
ENDROOT
BRANCH   1  14
HETATM   14  C3  UNL     1      -8.114 -98.752   1.334  1.00  0.00     0.301 C 
BRANCH  14  15
HETATM   15  C2  UNL     1      -6.943 -99.658   1.474  1.00  0.00     0.108 C 
HETATM   16  N1  UNL     1      -6.293-100.069   0.470  1.00  0.00    -0.403 N 
HETATM   17  C1  UNL     1      -5.171-100.930   0.515  1.00  0.00     0.145 C 
ATOM     18  H1  UNL     1      -6.603 -99.754  -0.448  1.00  0.00     0.158 HD
ENDBRANCH  14  15
BRANCH  14  19
HETATM   19  N7  UNL     1      -8.370 -98.463  -0.043  1.00  0.00    -0.125 N 
HETATM   20  O2  UNL     1      -8.655 -99.368  -0.837  1.00  0.00    -0.534 OA
HETATM   21  O3  UNL     1      -8.306 -97.180  -0.521  1.00  0.00    -0.534 OA
ENDBRANCH  14  19
ENDBRANCH   1  14
BRANCH  13  22
HETATM   22  N6  UNL     1     -13.261 -99.783   4.121  1.00  0.00    -0.267 N 
ATOM     23  H6  UNL     1     -13.088-100.769   3.931  1.00  0.00     0.194 HD
BRANCH  22  24
HETATM   24  O1  UNL     1     -14.464 -99.456   4.656  1.00  0.00    -0.289 OA
ATOM     25  H1  UNL     1     -15.297 -99.489   4.201  1.00  0.00     0.244 HD
ENDBRANCH  22  24
ENDBRANCH  13  22
TORSDOF 5
ENDMDL
MODEL 5
REMARK VINA RESULT: -4.826911311     10.547     12.198
REMARK  5 active torsions:
REMARK  status: ('A' for Active; 'I' for Inactive)
REMARK    1  A    between atoms: C2_4  and  C3_5 
REMARK    2  A    between atoms: C3_5  and  N2_6 
REMARK    3  A    between atoms: C3_5  and  N7_23 
REMARK    4  A    between atoms: C11_18  and  N6_19 
REMARK    5  A    between atoms: N6_19  and  O1_21 
ROOT
HETATM    1  N2  UNL     1      -9.148 -99.501   2.716  1.00  0.00    -0.300 N 
HETATM    2  C4  UNL     1     -10.323-100.091   3.006  1.00  0.00     0.143 A 
HETATM    3  N3  UNL     1     -10.632-101.471   2.916  1.00  0.00    -0.081 NA
HETATM    4  C5  UNL     1     -11.203 -99.119   3.417  1.00  0.00     0.101 A 
HETATM    5  C6  UNL     1     -12.566 -99.223   3.834  1.00  0.00     0.104 C 
HETATM    6  N4  UNL     1     -13.668 -99.315   4.186  1.00  0.00    -0.191 NA
HETATM    7  C7  UNL     1     -10.514 -97.927   3.362  1.00  0.00     0.046 A 
HETATM    8  C8  UNL     1      -9.215 -98.192   2.915  1.00  0.00     0.068 A 
HETATM    9  C9  UNL     1      -8.255 -97.094   2.761  1.00  0.00     0.118 C 
HETATM   10  N5  UNL     1      -8.783 -95.800   2.857  1.00  0.00    -0.371 N 
ATOM     11  H5  UNL     1      -8.408 -95.048   2.280  1.00  0.00     0.164 HD
HETATM   12  C10 UNL     1      -9.830 -95.548   3.754  1.00  0.00     0.119 C 
HETATM   13  C11 UNL     1     -10.915 -96.559   3.675  1.00  0.00     0.083 C 
ENDROOT
BRANCH   1  14
HETATM   14  C3  UNL     1      -7.986-100.229   2.249  1.00  0.00     0.301 C 
BRANCH  14  15
HETATM   15  C2  UNL     1      -7.963-101.623   2.768  1.00  0.00     0.108 C 
HETATM   16  N1  UNL     1      -7.936-102.623   1.995  1.00  0.00    -0.403 N 
HETATM   17  C1  UNL     1      -7.914-103.977   2.405  1.00  0.00     0.145 C 
ATOM     18  H1  UNL     1      -7.930-102.438   0.992  1.00  0.00     0.158 HD
ENDBRANCH  14  15
BRANCH  14  19
HETATM   19  N7  UNL     1      -7.862-100.216   0.825  1.00  0.00    -0.125 N 
HETATM   20  O2  UNL     1      -8.855-100.050   0.104  1.00  0.00    -0.534 OA
HETATM   21  O3  UNL     1      -6.645-100.388   0.218  1.00  0.00    -0.534 OA
ENDBRANCH  14  19
ENDBRANCH   1  14
BRANCH  13  22
HETATM   22  N6  UNL     1     -12.150 -96.306   3.859  1.00  0.00    -0.267 N 
ATOM     23  H6  UNL     1     -12.514 -96.419   4.805  1.00  0.00     0.194 HD
BRANCH  22  24
HETATM   24  O1  UNL     1     -13.022 -95.900   2.904  1.00  0.00    -0.289 OA
ATOM     25  H1  UNL     1     -13.066 -95.027   2.533  1.00  0.00     0.244 HD
ENDBRANCH  22  24
ENDBRANCH  13  22
TORSDOF 5
ENDMDL
