MODEL 1
REMARK VINA RESULT: -8.301650915      0.000      0.000
REMARK  10 active torsions:
REMARK  status: ('A' for Active; 'I' for Inactive)
REMARK    1  A    between atoms: C2_2  and  S1_3 
REMARK    2  A    between atoms: S1_3  and  C3_4 
REMARK    3  A    between atoms: C3_4  and  C4_6 
REMARK    4  A    between atoms: C5_10  and  C6_11 
REMARK       I    between atoms: C6_11  and  N2_13 
REMARK    5  A    between atoms: N2_13  and  C7_15 
REMARK    6  A    between atoms: C8_17  and  C9_18 
REMARK    7  A    between atoms: C10_21  and  N4_22 
REMARK    8  A    between atoms: N4_22  and  C11_25 
REMARK    9  A    between atoms: C18_32  and  O6_33 
REMARK   10  A    between atoms: C19_35  and  O7_36 
ROOT
HETATM    1  C7  UNL     1      12.513  -5.186   0.921  1.00  0.00     0.255 C 
HETATM    2  O4  UNL     1      12.198  -3.948   1.355  1.00  0.00    -0.348 OA
HETATM    3  C8  UNL     1      12.353  -3.810   2.733  1.00  0.00     0.246 C 
HETATM    4  C10 UNL     1      13.196  -5.002   3.149  1.00  0.00     0.256 C 
HETATM    5  C18 UNL     1      12.627  -6.035   2.193  1.00  0.00     0.200 C 
ENDROOT
BRANCH   1   6
HETATM    6  N2  UNL     1      11.484  -5.740   0.050  1.00  0.00    -0.330 N 
HETATM    7  C6  UNL     1      11.863  -6.519  -1.070  1.00  0.00     0.254 C 
HETATM    8  O3  UNL     1      13.073  -6.757  -1.344  1.00  0.00    -0.270 OA
ATOM      9  H2  UNL     1      10.498  -5.566   0.244  1.00  0.00     0.165 HD
BRANCH   7  10
HETATM   10  C5  UNL     1      10.818  -7.081  -1.954  1.00  0.00     0.278 C 
HETATM   11  O2  UNL     1       9.596  -6.436  -1.663  1.00  0.00    -0.262 OA
HETATM   12  N1  UNL     1       8.587  -7.333  -1.536  1.00  0.00    -0.263 N 
HETATM   13  C4  UNL     1       9.035  -8.539  -1.504  1.00  0.00     0.120 C 
ATOM     14  H1  UNL     1       7.600  -7.084  -1.474  1.00  0.00     0.194 HD
HETATM   15  C19 UNL     1      10.513  -8.504  -1.616  1.00  0.00     0.215 C 
BRANCH  13  16
HETATM   16  C3  UNL     1       8.234  -9.770  -1.374  1.00  0.00     0.235 C 
HETATM   17  O1  UNL     1       8.657 -10.666  -0.621  1.00  0.00    -0.278 OA
BRANCH  16  18
HETATM   18  S1  UNL     1       6.726  -9.875  -2.310  1.00  0.00    -0.086 SA
BRANCH  18  19
HETATM   19  C2  UNL     1       5.309  -9.513  -1.242  1.00  0.00     0.078 C 
HETATM   20  C1  UNL     1       4.814 -10.812  -0.659  1.00  0.00     0.016 C 
ENDBRANCH  18  19
ENDBRANCH  16  18
ENDBRANCH  13  16
BRANCH  15  21
HETATM   21  O7  UNL     1      11.096  -8.942  -0.426  1.00  0.00    -0.386 OA
ATOM     22  H7  UNL     1      12.043  -8.946  -0.507  1.00  0.00     0.210 HD
ENDBRANCH  15  21
ENDBRANCH   7  10
ENDBRANCH   1   6
BRANCH   5  23
HETATM   23  O6  UNL     1      11.375  -6.455   2.562  1.00  0.00    -0.389 OA
ATOM     24  H6  UNL     1      11.088  -7.134   1.964  1.00  0.00     0.210 HD
ENDBRANCH   5  23
BRANCH   3  25
HETATM   25  C9  UNL     1      11.007  -3.796   3.331  1.00  0.00     0.262 C 
HETATM   26  N3  UNL     1       9.798  -4.021   2.632  1.00  0.00    -0.060 NA
HETATM   27  O5  UNL     1      10.896  -3.565   4.576  1.00  0.00    -0.274 OA
ENDBRANCH   3  25
BRANCH   4  28
HETATM   28  N4  UNL     1      13.034  -5.285   4.525  1.00  0.00    -0.061 N 
ATOM     29  H42 UNL     1      13.387  -4.523   5.105  1.00  0.00     0.278 HD
ATOM     30  H41 UNL     1      12.052  -5.250   4.798  1.00  0.00     0.278 HD
BRANCH  28  31
HETATM   31  C11 UNL     1      13.646  -6.564   4.892  1.00  0.00     0.186 C 
HETATM   32  C12 UNL     1      12.941  -7.099   6.108  1.00  0.00     0.033 C 
HETATM   33  C13 UNL     1      13.341  -8.543   6.339  1.00  0.00     0.002 C 
HETATM   34  C14 UNL     1      14.804  -8.601   6.630  1.00  0.00     0.000 C 
HETATM   35  C15 UNL     1      15.337  -7.430   7.410  1.00  0.00     0.000 C 
HETATM   36  C16 UNL     1      15.412  -6.157   6.622  1.00  0.00     0.002 C 
HETATM   37  C17 UNL     1      15.121  -6.353   5.156  1.00  0.00     0.033 C 
ENDBRANCH  28  31
ENDBRANCH   4  28
TORSDOF 10
ENDMDL
MODEL 2
REMARK VINA RESULT: -8.133230688      1.212      1.378
REMARK  10 active torsions:
REMARK  status: ('A' for Active; 'I' for Inactive)
REMARK    1  A    between atoms: C2_2  and  S1_3 
REMARK    2  A    between atoms: S1_3  and  C3_4 
REMARK    3  A    between atoms: C3_4  and  C4_6 
REMARK    4  A    between atoms: C5_10  and  C6_11 
REMARK       I    between atoms: C6_11  and  N2_13 
REMARK    5  A    between atoms: N2_13  and  C7_15 
REMARK    6  A    between atoms: C8_17  and  C9_18 
REMARK    7  A    between atoms: C10_21  and  N4_22 
REMARK    8  A    between atoms: N4_22  and  C11_25 
REMARK    9  A    between atoms: C18_32  and  O6_33 
REMARK   10  A    between atoms: C19_35  and  O7_36 
ROOT
HETATM    1  C7  UNL     1      12.487  -5.073   0.978  1.00  0.00     0.255 C 
HETATM    2  O4  UNL     1      12.210  -3.839   1.449  1.00  0.00    -0.348 OA
HETATM    3  C8  UNL     1      12.367  -3.747   2.830  1.00  0.00     0.246 C 
HETATM    4  C10 UNL     1      13.173  -4.976   3.211  1.00  0.00     0.256 C 
HETATM    5  C18 UNL     1      12.573  -5.962   2.224  1.00  0.00     0.200 C 
ENDROOT
BRANCH   1   6
HETATM    6  N2  UNL     1      11.442  -5.568   0.091  1.00  0.00    -0.330 N 
HETATM    7  C6  UNL     1      11.752  -5.857  -1.261  1.00  0.00     0.254 C 
HETATM    8  O3  UNL     1      12.914  -5.700  -1.730  1.00  0.00    -0.270 OA
ATOM      9  H2  UNL     1      10.493  -5.706   0.440  1.00  0.00     0.165 HD
BRANCH   7  10
HETATM   10  C5  UNL     1      10.692  -6.360  -2.161  1.00  0.00     0.278 C 
HETATM   11  O2  UNL     1       9.446  -6.197  -1.515  1.00  0.00    -0.262 OA
HETATM   12  N1  UNL     1       8.695  -7.322  -1.607  1.00  0.00    -0.263 N 
HETATM   13  C4  UNL     1       9.384  -8.306  -2.070  1.00  0.00     0.120 C 
ATOM     14  H1  UNL     1       7.712  -7.381  -1.344  1.00  0.00     0.194 HD
HETATM   15  C19 UNL     1      10.767  -7.842  -2.332  1.00  0.00     0.215 C 
BRANCH  13  16
HETATM   16  C3  UNL     1       8.904  -9.680  -2.305  1.00  0.00     0.235 C 
HETATM   17  O1  UNL     1       9.566 -10.622  -1.832  1.00  0.00    -0.278 OA
BRANCH  16  18
HETATM   18  S1  UNL     1       7.412  -9.881  -3.254  1.00  0.00    -0.086 SA
BRANCH  18  19
HETATM   19  C2  UNL     1       7.691 -11.052  -4.605  1.00  0.00     0.078 C 
HETATM   20  C1  UNL     1       6.678 -10.776  -5.687  1.00  0.00     0.016 C 
ENDBRANCH  18  19
ENDBRANCH  16  18
ENDBRANCH  13  16
BRANCH  15  21
HETATM   21  O7  UNL     1      11.659  -8.469  -1.460  1.00  0.00    -0.386 OA
ATOM     22  H7  UNL     1      12.103  -9.183  -1.902  1.00  0.00     0.210 HD
ENDBRANCH  15  21
ENDBRANCH   7  10
ENDBRANCH   1   6
BRANCH   5  23
HETATM   23  O6  UNL     1      11.308  -6.355   2.581  1.00  0.00    -0.389 OA
ATOM     24  H6  UNL     1      11.257  -6.408   3.527  1.00  0.00     0.210 HD
ENDBRANCH   5  23
BRANCH   3  25
HETATM   25  C9  UNL     1      11.022  -3.709   3.428  1.00  0.00     0.262 C 
HETATM   26  N3  UNL     1       9.811  -3.944   2.735  1.00  0.00    -0.060 NA
HETATM   27  O5  UNL     1      10.913  -3.447   4.667  1.00  0.00    -0.274 OA
ENDBRANCH   3  25
BRANCH   4  28
HETATM   28  N4  UNL     1      13.001  -5.294   4.577  1.00  0.00    -0.061 N 
ATOM     29  H42 UNL     1      13.343  -4.545   5.179  1.00  0.00     0.278 HD
ATOM     30  H41 UNL     1      12.017  -5.275   4.843  1.00  0.00     0.278 HD
BRANCH  28  31
HETATM   31  C11 UNL     1      13.621  -6.578   4.918  1.00  0.00     0.186 C 
HETATM   32  C12 UNL     1      12.926  -7.136   6.130  1.00  0.00     0.033 C 
HETATM   33  C13 UNL     1      13.333  -8.583   6.333  1.00  0.00     0.002 C 
HETATM   34  C14 UNL     1      14.798  -8.640   6.612  1.00  0.00     0.000 C 
HETATM   35  C15 UNL     1      15.333  -7.480   7.408  1.00  0.00     0.000 C 
HETATM   36  C16 UNL     1      15.398  -6.194   6.641  1.00  0.00     0.002 C 
HETATM   37  C17 UNL     1      15.096  -6.366   5.174  1.00  0.00     0.033 C 
ENDBRANCH  28  31
ENDBRANCH   4  28
TORSDOF 10
ENDMDL
MODEL 3
REMARK VINA RESULT: -7.984896853      6.128      7.155
REMARK  10 active torsions:
REMARK  status: ('A' for Active; 'I' for Inactive)
REMARK    1  A    between atoms: C2_2  and  S1_3 
REMARK    2  A    between atoms: S1_3  and  C3_4 
REMARK    3  A    between atoms: C3_4  and  C4_6 
REMARK    4  A    between atoms: C5_10  and  C6_11 
REMARK       I    between atoms: C6_11  and  N2_13 
REMARK    5  A    between atoms: N2_13  and  C7_15 
REMARK    6  A    between atoms: C8_17  and  C9_18 
REMARK    7  A    between atoms: C10_21  and  N4_22 
REMARK    8  A    between atoms: N4_22  and  C11_25 
REMARK    9  A    between atoms: C18_32  and  O6_33 
REMARK   10  A    between atoms: C19_35  and  O7_36 
ROOT
HETATM    1  C7  UNL     1      10.157  -6.672  -3.690  1.00  0.00     0.255 C 
HETATM    2  O4  UNL     1      10.397  -6.280  -4.959  1.00  0.00    -0.348 OA
HETATM    3  C8  UNL     1      10.600  -4.906  -5.064  1.00  0.00     0.246 C 
HETATM    4  C10 UNL     1      10.863  -4.443  -3.643  1.00  0.00     0.256 C 
HETATM    5  C18 UNL     1       9.906  -5.372  -2.915  1.00  0.00     0.200 C 
ENDROOT
BRANCH   1   6
HETATM    6  N2  UNL     1       8.987  -7.536  -3.594  1.00  0.00    -0.330 N 
HETATM    7  C6  UNL     1       9.161  -8.940  -3.513  1.00  0.00     0.254 C 
HETATM    8  O3  UNL     1      10.305  -9.475  -3.519  1.00  0.00    -0.270 OA
ATOM      9  H2  UNL     1       8.050  -7.134  -3.586  1.00  0.00     0.165 HD
BRANCH   7  10
HETATM   10  C5  UNL     1       7.974  -9.816  -3.415  1.00  0.00     0.278 C 
HETATM   11  O2  UNL     1       6.828  -9.000  -3.292  1.00  0.00    -0.262 OA
HETATM   12  N1  UNL     1       6.017  -9.440  -2.298  1.00  0.00    -0.263 N 
HETATM   13  C4  UNL     1       6.594 -10.349  -1.593  1.00  0.00     0.120 C 
ATOM     14  H1  UNL     1       5.072  -9.096  -2.131  1.00  0.00     0.194 HD
HETATM   15  C19 UNL     1       7.955 -10.583  -2.132  1.00  0.00     0.215 C 
BRANCH  13  16
HETATM   16  C3  UNL     1       6.021 -11.056  -0.433  1.00  0.00     0.235 C 
HETATM   17  O1  UNL     1       6.764 -11.817   0.215  1.00  0.00    -0.278 OA
BRANCH  16  18
HETATM   18  S1  UNL     1       4.308 -10.765  -0.054  1.00  0.00    -0.086 SA
BRANCH  18  19
HETATM   19  C2  UNL     1       3.724 -11.988   1.147  1.00  0.00     0.078 C 
HETATM   20  C1  UNL     1       2.958 -13.052   0.403  1.00  0.00     0.016 C 
ENDBRANCH  18  19
ENDBRANCH  16  18
ENDBRANCH  13  16
BRANCH  15  21
HETATM   21  O7  UNL     1       8.916 -10.167  -1.210  1.00  0.00    -0.386 OA
ATOM     22  H7  UNL     1       9.776 -10.161  -1.613  1.00  0.00     0.210 HD
ENDBRANCH  15  21
ENDBRANCH   7  10
ENDBRANCH   1   6
BRANCH   5  23
HETATM   23  O6  UNL     1       8.596  -5.003  -3.075  1.00  0.00    -0.389 OA
ATOM     24  H6  UNL     1       8.211  -4.849  -2.221  1.00  0.00     0.210 HD
ENDBRANCH   5  23
BRANCH   3  25
HETATM   25  C9  UNL     1       9.388  -4.324  -5.665  1.00  0.00     0.262 C 
HETATM   26  N3  UNL     1       9.267  -2.997  -6.142  1.00  0.00    -0.060 NA
HETATM   27  O5  UNL     1       8.353  -5.053  -5.779  1.00  0.00    -0.274 OA
ENDBRANCH   3  25
BRANCH   4  28
HETATM   28  N4  UNL     1      10.602  -3.061  -3.501  1.00  0.00    -0.061 N 
ATOM     29  H42 UNL     1       9.984  -2.722  -4.238  1.00  0.00     0.278 HD
ATOM     30  H41 UNL     1      10.003  -2.877  -2.696  1.00  0.00     0.278 HD
BRANCH  28  31
HETATM   31  C11 UNL     1      11.839  -2.278  -3.436  1.00  0.00     0.186 C 
HETATM   32  C12 UNL     1      12.793  -2.971  -2.503  1.00  0.00     0.033 C 
HETATM   33  C13 UNL     1      14.175  -2.361  -2.639  1.00  0.00     0.002 C 
HETATM   34  C14 UNL     1      14.118  -0.931  -2.214  1.00  0.00     0.000 C 
HETATM   35  C15 UNL     1      13.164  -0.647  -1.085  1.00  0.00     0.000 C 
HETATM   36  C16 UNL     1      11.720  -0.723  -1.476  1.00  0.00     0.002 C 
HETATM   37  C17 UNL     1      11.518  -0.878  -2.962  1.00  0.00     0.033 C 
ENDBRANCH  28  31
ENDBRANCH   4  28
TORSDOF 10
ENDMDL
MODEL 4
REMARK VINA RESULT: -7.938686351      1.251      1.820
REMARK  10 active torsions:
REMARK  status: ('A' for Active; 'I' for Inactive)
REMARK    1  A    between atoms: C2_2  and  S1_3 
REMARK    2  A    between atoms: S1_3  and  C3_4 
REMARK    3  A    between atoms: C3_4  and  C4_6 
REMARK    4  A    between atoms: C5_10  and  C6_11 
REMARK       I    between atoms: C6_11  and  N2_13 
REMARK    5  A    between atoms: N2_13  and  C7_15 
REMARK    6  A    between atoms: C8_17  and  C9_18 
REMARK    7  A    between atoms: C10_21  and  N4_22 
REMARK    8  A    between atoms: N4_22  and  C11_25 
REMARK    9  A    between atoms: C18_32  and  O6_33 
REMARK   10  A    between atoms: C19_35  and  O7_36 
ROOT
HETATM    1  C7  UNL     1      12.477  -5.034   0.982  1.00  0.00     0.255 C 
HETATM    2  O4  UNL     1      12.142  -3.806   1.430  1.00  0.00    -0.348 OA
HETATM    3  C8  UNL     1      12.319  -3.674   2.806  1.00  0.00     0.246 C 
HETATM    4  C10 UNL     1      13.197  -4.849   3.199  1.00  0.00     0.256 C 
HETATM    5  C18 UNL     1      12.633  -5.889   2.246  1.00  0.00     0.200 C 
ENDROOT
BRANCH   1   6
HETATM    6  N2  UNL     1      11.445  -5.605   0.125  1.00  0.00    -0.330 N 
HETATM    7  C6  UNL     1      11.727  -5.846  -1.242  1.00  0.00     0.254 C 
HETATM    8  O3  UNL     1      12.852  -5.583  -1.751  1.00  0.00    -0.270 OA
ATOM      9  H2  UNL     1      10.526  -5.829   0.507  1.00  0.00     0.165 HD
BRANCH   7  10
HETATM   10  C5  UNL     1      10.679  -6.426  -2.110  1.00  0.00     0.278 C 
HETATM   11  O2  UNL     1       9.430  -6.258  -1.473  1.00  0.00    -0.262 OA
HETATM   12  N1  UNL     1       8.707  -7.404  -1.500  1.00  0.00    -0.263 N 
HETATM   13  C4  UNL     1       9.420  -8.396  -1.906  1.00  0.00     0.120 C 
ATOM     14  H1  UNL     1       7.725  -7.473  -1.233  1.00  0.00     0.194 HD
HETATM   15  C19 UNL     1      10.792  -7.914  -2.197  1.00  0.00     0.215 C 
BRANCH  13  16
HETATM   16  C3  UNL     1       8.974  -9.792  -2.063  1.00  0.00     0.235 C 
HETATM   17  O1  UNL     1       8.638 -10.418  -1.040  1.00  0.00    -0.278 OA
BRANCH  16  18
HETATM   18  S1  UNL     1       8.956 -10.473  -3.706  1.00  0.00    -0.086 SA
BRANCH  18  19
HETATM   19  C2  UNL     1      10.645 -10.842  -4.242  1.00  0.00     0.078 C 
HETATM   20  C1  UNL     1      11.369 -11.505  -3.098  1.00  0.00     0.016 C 
ENDBRANCH  18  19
ENDBRANCH  16  18
ENDBRANCH  13  16
BRANCH  15  21
HETATM   21  O7  UNL     1      11.698  -8.467  -1.291  1.00  0.00    -0.386 OA
ATOM     22  H7  UNL     1      11.729  -7.944  -0.498  1.00  0.00     0.210 HD
ENDBRANCH  15  21
ENDBRANCH   7  10
ENDBRANCH   1   6
BRANCH   5  23
HETATM   23  O6  UNL     1      11.398  -6.340   2.635  1.00  0.00    -0.389 OA
ATOM     24  H6  UNL     1      11.089  -6.979   2.004  1.00  0.00     0.210 HD
ENDBRANCH   5  23
BRANCH   3  25
HETATM   25  C9  UNL     1      10.984  -3.694   3.428  1.00  0.00     0.262 C 
HETATM   26  N3  UNL     1       9.768  -3.948   2.751  1.00  0.00    -0.060 NA
HETATM   27  O5  UNL     1      10.890  -3.469   4.676  1.00  0.00    -0.274 OA
ENDBRANCH   3  25
BRANCH   4  28
HETATM   28  N4  UNL     1      13.066  -5.144   4.575  1.00  0.00    -0.061 N 
ATOM     29  H42 UNL     1      13.475  -4.411   5.153  1.00  0.00     0.278 HD
ATOM     30  H41 UNL     1      12.097  -5.066   4.882  1.00  0.00     0.278 HD
BRANCH  28  31
HETATM   31  C11 UNL     1      13.626  -6.458   4.904  1.00  0.00     0.186 C 
HETATM   32  C12 UNL     1      12.871  -7.017   6.079  1.00  0.00     0.033 C 
HETATM   33  C13 UNL     1      13.218  -8.483   6.259  1.00  0.00     0.002 C 
HETATM   34  C14 UNL     1      14.669  -8.602   6.584  1.00  0.00     0.000 C 
HETATM   35  C15 UNL     1      15.220  -7.483   7.425  1.00  0.00     0.000 C 
HETATM   36  C16 UNL     1      15.358  -6.183   6.692  1.00  0.00     0.002 C 
HETATM   37  C17 UNL     1      15.099  -6.308   5.212  1.00  0.00     0.033 C 
ENDBRANCH  28  31
ENDBRANCH   4  28
TORSDOF 10
ENDMDL
MODEL 5
REMARK VINA RESULT: -7.792764460      8.688     10.875
REMARK  10 active torsions:
REMARK  status: ('A' for Active; 'I' for Inactive)
REMARK    1  A    between atoms: C2_2  and  S1_3 
REMARK    2  A    between atoms: S1_3  and  C3_4 
REMARK    3  A    between atoms: C3_4  and  C4_6 
REMARK    4  A    between atoms: C5_10  and  C6_11 
REMARK       I    between atoms: C6_11  and  N2_13 
REMARK    5  A    between atoms: N2_13  and  C7_15 
REMARK    6  A    between atoms: C8_17  and  C9_18 
REMARK    7  A    between atoms: C10_21  and  N4_22 
REMARK    8  A    between atoms: N4_22  and  C11_25 
REMARK    9  A    between atoms: C18_32  and  O6_33 
REMARK   10  A    between atoms: C19_35  and  O7_36 
ROOT
HETATM    1  C7  UNL     1       8.860 -11.464  -4.261  1.00  0.00     0.255 C 
HETATM    2  O4  UNL     1       8.051 -11.186  -5.305  1.00  0.00    -0.348 OA
HETATM    3  C8  UNL     1       6.704 -11.371  -4.999  1.00  0.00     0.246 C 
HETATM    4  C10 UNL     1       6.656 -11.434  -3.484  1.00  0.00     0.256 C 
HETATM    5  C18 UNL     1       7.961 -12.171  -3.240  1.00  0.00     0.200 C 
ENDROOT
BRANCH   1   6
HETATM    6  N2  UNL     1       9.961 -12.342  -4.639  1.00  0.00    -0.330 N 
HETATM    7  C6  UNL     1      11.102 -12.431  -3.804  1.00  0.00     0.254 C 
HETATM    8  O3  UNL     1      11.201 -11.772  -2.731  1.00  0.00    -0.270 OA
ATOM      9  H2  UNL     1       9.911 -12.888  -5.499  1.00  0.00     0.165 HD
BRANCH   7  10
HETATM   10  C5  UNL     1      12.218 -13.322  -4.188  1.00  0.00     0.278 C 
HETATM   11  O2  UNL     1      12.268 -13.390  -5.598  1.00  0.00    -0.262 OA
HETATM   12  N1  UNL     1      12.394 -14.671  -6.023  1.00  0.00    -0.263 N 
HETATM   13  C4  UNL     1      12.225 -15.503  -5.055  1.00  0.00     0.120 C 
ATOM     14  H1  UNL     1      12.596 -14.941  -6.986  1.00  0.00     0.194 HD
HETATM   15  C19 UNL     1      11.947 -14.743  -3.813  1.00  0.00     0.215 C 
BRANCH  13  16
HETATM   16  C3  UNL     1      12.287 -16.973  -5.140  1.00  0.00     0.235 C 
HETATM   17  O1  UNL     1      11.953 -17.632  -4.139  1.00  0.00    -0.278 OA
BRANCH  16  18
HETATM   18  S1  UNL     1      12.842 -17.688  -6.672  1.00  0.00    -0.086 SA
BRANCH  18  19
HETATM   19  C2  UNL     1      14.644 -17.858  -6.658  1.00  0.00     0.078 C 
HETATM   20  C1  UNL     1      15.009 -18.943  -5.678  1.00  0.00     0.016 C 
ENDBRANCH  18  19
ENDBRANCH  16  18
ENDBRANCH  13  16
BRANCH  15  21
HETATM   21  O7  UNL     1      10.639 -14.977  -3.388  1.00  0.00    -0.386 OA
ATOM     22  H7  UNL     1      10.290 -15.751  -3.814  1.00  0.00     0.210 HD
ENDBRANCH  15  21
ENDBRANCH   7  10
ENDBRANCH   1   6
BRANCH   5  23
HETATM   23  O6  UNL     1       7.879 -13.501  -3.563  1.00  0.00    -0.389 OA
ATOM     24  H6  UNL     1       6.966 -13.761  -3.574  1.00  0.00     0.210 HD
ENDBRANCH   5  23
BRANCH   3  25
HETATM   25  C9  UNL     1       6.266 -12.611  -5.661  1.00  0.00     0.262 C 
HETATM   26  N3  UNL     1       4.921 -13.016  -5.835  1.00  0.00    -0.060 NA
HETATM   27  O5  UNL     1       7.149 -13.400  -6.125  1.00  0.00    -0.274 OA
ENDBRANCH   3  25
BRANCH   4  28
HETATM   28  N4  UNL     1       5.487 -12.094  -3.039  1.00  0.00    -0.061 N 
ATOM     29  H42 UNL     1       4.649 -11.687  -3.454  1.00  0.00     0.278 HD
ATOM     30  H41 UNL     1       5.418 -13.033  -3.430  1.00  0.00     0.278 HD
BRANCH  28  31
HETATM   31  C11 UNL     1       5.400 -12.118  -1.576  1.00  0.00     0.186 C 
HETATM   32  C12 UNL     1       3.968 -12.363  -1.187  1.00  0.00     0.033 C 
HETATM   33  C13 UNL     1       3.888 -12.687   0.292  1.00  0.00     0.002 C 
HETATM   34  C14 UNL     1       4.349 -11.503   1.074  1.00  0.00     0.000 C 
HETATM   35  C15 UNL     1       3.995 -10.171   0.470  1.00  0.00     0.000 C 
HETATM   36  C16 UNL     1       4.785  -9.832  -0.758  1.00  0.00     0.002 C 
HETATM   37  C17 UNL     1       5.906 -10.803  -1.026  1.00  0.00     0.033 C 
ENDBRANCH  28  31
ENDBRANCH   4  28
TORSDOF 10
ENDMDL
