MODEL 1
REMARK VINA RESULT: -8.272306270      0.000      0.000
REMARK  12 active torsions:
REMARK  status: ('A' for Active; 'I' for Inactive)
REMARK    1  A    between atoms: N1_2  and  C2_4 
REMARK    2  A    between atoms: C4_6  and  N2_7 
REMARK    3  A    between atoms: C5_11  and  O1_12 
REMARK    4  A    between atoms: C6_14  and  O2_15 
REMARK    5  A    between atoms: C7_17  and  O3_18 
REMARK    6  A    between atoms: O3_18  and  C8_19 
REMARK    7  A    between atoms: C11_22  and  O4_23 
REMARK    8  A    between atoms: O4_23  and  S1_24 
REMARK    9  A    between atoms: S1_24  and  N3_25 
REMARK   10  A    between atoms: S1_24  and  C12_29 
REMARK   11  A    between atoms: C15_32  and  O6_33 
REMARK   12  A    between atoms: C20_38  and  N4_39 
ROOT
HETATM    1  C8  UNL     1      11.377  -7.309  -3.263  1.00  0.00     0.152 C 
HETATM    2  C9  UNL     1      12.653  -7.912  -2.593  1.00  0.00     0.036 C 
HETATM    3  C10 UNL     1      13.390  -6.852  -1.836  1.00  0.00     0.036 C 
HETATM    4  C11 UNL     1      12.567  -6.142  -0.817  1.00  0.00     0.143 C 
HETATM    5  C19 UNL     1      11.331  -5.600  -1.503  1.00  0.00     0.068 C 
HETATM    6  C20 UNL     1      10.606  -6.805  -2.075  1.00  0.00     0.214 C 
ENDROOT
BRANCH   1   7
HETATM    7  O3  UNL     1      10.672  -8.276  -3.886  1.00  0.00    -0.374 OA
BRANCH   7   8
HETATM    8  C7  UNL     1      10.735  -9.556  -3.372  1.00  0.00     0.175 C 
HETATM    9  C2  UNL     1       9.410 -10.121  -2.981  1.00  0.00     0.109 C 
HETATM   10  C3  UNL     1       8.962 -11.355  -3.675  1.00  0.00     0.062 C 
HETATM   11  C4  UNL     1      10.029 -12.225  -4.249  1.00  0.00     0.216 C 
HETATM   12  C5  UNL     1      10.823 -11.293  -5.179  1.00  0.00     0.179 C 
HETATM   13  C6  UNL     1      11.596 -10.416  -4.209  1.00  0.00     0.179 C 
BRANCH   9  14
HETATM   14  N1  UNL     1       9.210 -10.277  -1.571  1.00  0.00    -0.419 N 
HETATM   15  C1  UNL     1      10.346 -10.098  -0.748  1.00  0.00     0.140 C 
ATOM     16  H1  UNL     1       8.296 -10.504  -1.181  1.00  0.00     0.153 HD
ENDBRANCH   9  14
BRANCH  11  17
HETATM   17  N2  UNL     1       9.425 -13.224  -5.092  1.00  0.00    -0.072 N 
ATOM     18  H23 UNL     1       8.734 -13.785  -4.593  1.00  0.00     0.274 HD
ATOM     19  H22 UNL     1       8.803 -12.817  -5.790  1.00  0.00     0.274 HD
ATOM     20  H21 UNL     1      10.157 -13.796  -5.513  1.00  0.00     0.274 HD
ENDBRANCH  11  17
BRANCH  12  21
HETATM   21  O1  UNL     1      11.706 -12.059  -5.896  1.00  0.00    -0.391 OA
ATOM     22  H1  UNL     1      12.120 -11.503  -6.546  1.00  0.00     0.210 HD
ENDBRANCH  12  21
BRANCH  13  23
HETATM   23  O2  UNL     1      12.337 -11.351  -3.431  1.00  0.00    -0.390 OA
ATOM     24  H2  UNL     1      13.095 -10.854  -3.147  1.00  0.00     0.210 HD
ENDBRANCH  13  23
ENDBRANCH   7   8
ENDBRANCH   1   7
BRANCH   6  25
HETATM   25  N4  UNL     1       9.218  -6.585  -2.258  1.00  0.00    -0.072 N 
ATOM     26  H43 UNL     1       9.072  -6.000  -3.081  1.00  0.00     0.274 HD
ATOM     27  H42 UNL     1       8.773  -7.451  -2.562  1.00  0.00     0.274 HD
ATOM     28  H41 UNL     1       8.705  -6.197  -1.466  1.00  0.00     0.274 HD
ENDBRANCH   6  25
BRANCH   4  29
HETATM   29  O4  UNL     1      12.098  -6.992   0.198  1.00  0.00    -0.282 OA
BRANCH  29  30
HETATM   30  S1  UNL     1      12.653  -6.566   1.704  1.00  0.00     0.172 S 
HETATM   31  O5  UNL     1      14.160  -6.585   1.779  1.00  0.00    -0.216 OA
BRANCH  30  32
HETATM   32  N3  UNL     1      12.215  -5.107   2.026  1.00  0.00    -0.336 N 
ATOM     33  H32 UNL     1      12.768  -4.447   2.572  1.00  0.00     0.168 HD
ATOM     34  H31 UNL     1      11.303  -4.924   1.608  1.00  0.00     0.168 HD
ENDBRANCH  30  32
BRANCH  30  35
HETATM   35  C12 UNL     1      11.979  -7.603   2.931  1.00  0.00     0.064 A 
HETATM   36  C13 UNL     1      11.202  -8.682   2.578  1.00  0.00     0.027 A 
HETATM   37  C14 UNL     1      10.655  -9.522   3.550  1.00  0.00     0.038 A 
HETATM   38  C15 UNL     1      10.894  -9.268   4.892  1.00  0.00     0.068 A 
HETATM   39  C17 UNL     1      11.675  -8.182   5.227  1.00  0.00     0.038 A 
HETATM   40  C18 UNL     1      12.221  -7.344   4.258  1.00  0.00     0.027 A 
BRANCH  38  41
HETATM   41  O6  UNL     1      10.359 -10.092   5.879  1.00  0.00    -0.356 OA
HETATM   42  C16 UNL     1       9.437 -11.096   5.503  1.00  0.00     0.210 C 
ENDBRANCH  38  41
ENDBRANCH  30  35
ENDBRANCH  29  30
ENDBRANCH   4  29
TORSDOF 12
ENDMDL
MODEL 2
REMARK VINA RESULT: -8.165083953      3.640      8.165
REMARK  12 active torsions:
REMARK  status: ('A' for Active; 'I' for Inactive)
REMARK    1  A    between atoms: N1_2  and  C2_4 
REMARK    2  A    between atoms: C4_6  and  N2_7 
REMARK    3  A    between atoms: C5_11  and  O1_12 
REMARK    4  A    between atoms: C6_14  and  O2_15 
REMARK    5  A    between atoms: C7_17  and  O3_18 
REMARK    6  A    between atoms: O3_18  and  C8_19 
REMARK    7  A    between atoms: C11_22  and  O4_23 
REMARK    8  A    between atoms: O4_23  and  S1_24 
REMARK    9  A    between atoms: S1_24  and  N3_25 
REMARK   10  A    between atoms: S1_24  and  C12_29 
REMARK   11  A    between atoms: C15_32  and  O6_33 
REMARK   12  A    between atoms: C20_38  and  N4_39 
ROOT
HETATM    1  C8  UNL     1      11.556  -8.521   1.700  1.00  0.00     0.152 C 
HETATM    2  C9  UNL     1      11.472  -7.327   0.696  1.00  0.00     0.036 C 
HETATM    3  C10 UNL     1      11.564  -7.827  -0.712  1.00  0.00     0.036 C 
HETATM    4  C11 UNL     1      10.549  -8.860  -1.063  1.00  0.00     0.143 C 
HETATM    5  C19 UNL     1      10.648  -9.981  -0.050  1.00  0.00     0.068 C 
HETATM    6  C20 UNL     1      10.368  -9.350   1.302  1.00  0.00     0.214 C 
ENDROOT
BRANCH   1   7
HETATM    7  O3  UNL     1      11.401  -8.082   2.966  1.00  0.00    -0.374 OA
BRANCH   7   8
HETATM    8  C7  UNL     1      12.497  -7.525   3.596  1.00  0.00     0.175 C 
HETATM    9  C2  UNL     1      12.157  -6.436   4.558  1.00  0.00     0.109 C 
HETATM   10  C3  UNL     1      12.532  -6.639   5.981  1.00  0.00     0.062 C 
HETATM   11  C4  UNL     1      13.663  -7.574   6.247  1.00  0.00     0.216 C 
HETATM   12  C5  UNL     1      13.243  -8.887   5.566  1.00  0.00     0.179 C 
HETATM   13  C6  UNL     1      13.410  -8.577   4.088  1.00  0.00     0.179 C 
BRANCH   9  14
HETATM   14  N1  UNL     1      12.556  -5.122   4.151  1.00  0.00    -0.419 N 
HETATM   15  C1  UNL     1      13.409  -5.040   3.026  1.00  0.00     0.140 C 
ATOM     16  H1  UNL     1      12.241  -4.288   4.646  1.00  0.00     0.153 HD
ENDBRANCH   9  14
BRANCH  11  17
HETATM   17  N2  UNL     1      13.729  -7.851   7.659  1.00  0.00    -0.072 N 
ATOM     18  H23 UNL     1      14.033  -7.040   8.198  1.00  0.00     0.274 HD
ATOM     19  H22 UNL     1      12.804  -7.961   8.075  1.00  0.00     0.274 HD
ATOM     20  H21 UNL     1      14.323  -8.665   7.815  1.00  0.00     0.274 HD
ENDBRANCH  11  17
BRANCH  12  21
HETATM   21  O1  UNL     1      14.140  -9.860   5.927  1.00  0.00    -0.391 OA
ATOM     22  H1  UNL     1      13.834 -10.258   6.734  1.00  0.00     0.210 HD
ENDBRANCH  12  21
BRANCH  13  23
HETATM   23  O2  UNL     1      14.777  -8.192   3.980  1.00  0.00    -0.390 OA
ATOM     24  H2  UNL     1      14.804  -7.688   3.175  1.00  0.00     0.210 HD
ENDBRANCH  13  23
ENDBRANCH   7   8
ENDBRANCH   1   7
BRANCH   6  25
HETATM   25  N4  UNL     1       9.884 -10.277   2.259  1.00  0.00    -0.072 N 
ATOM     26  H43 UNL     1       9.319 -10.986   1.792  1.00  0.00     0.274 HD
ATOM     27  H42 UNL     1      10.656 -10.848   2.601  1.00  0.00     0.274 HD
ATOM     28  H41 UNL     1       9.366  -9.894   3.051  1.00  0.00     0.274 HD
ENDBRANCH   6  25
BRANCH   4  29
HETATM   29  O4  UNL     1       9.230  -8.384  -0.978  1.00  0.00    -0.282 OA
BRANCH  29  30
HETATM   30  S1  UNL     1       8.310  -8.794  -2.298  1.00  0.00     0.172 S 
HETATM   31  O5  UNL     1       7.797  -7.579  -3.031  1.00  0.00    -0.216 OA
BRANCH  30  32
HETATM   32  N3  UNL     1       9.184  -9.585  -3.315  1.00  0.00    -0.336 N 
ATOM     33  H32 UNL     1      10.000 -10.143  -3.063  1.00  0.00     0.168 HD
ATOM     34  H31 UNL     1       8.812  -9.456  -4.257  1.00  0.00     0.168 HD
ENDBRANCH  30  32
BRANCH  30  35
HETATM   35  C12 UNL     1       6.980  -9.819  -1.834  1.00  0.00     0.064 A 
HETATM   36  C13 UNL     1       5.858  -9.279  -1.250  1.00  0.00     0.027 A 
HETATM   37  C14 UNL     1       4.783 -10.087  -0.873  1.00  0.00     0.038 A 
HETATM   38  C15 UNL     1       4.845 -11.456  -1.088  1.00  0.00     0.068 A 
HETATM   39  C17 UNL     1       5.977 -11.980  -1.674  1.00  0.00     0.038 A 
HETATM   40  C18 UNL     1       7.049 -11.174  -2.051  1.00  0.00     0.027 A 
BRANCH  38  41
HETATM   41  O6  UNL     1       3.786 -12.282  -0.719  1.00  0.00    -0.356 OA
HETATM   42  C16 UNL     1       3.610 -12.597   0.648  1.00  0.00     0.210 C 
ENDBRANCH  38  41
ENDBRANCH  30  35
ENDBRANCH  29  30
ENDBRANCH   4  29
TORSDOF 12
ENDMDL
MODEL 3
REMARK VINA RESULT: -8.147041527      3.215      8.809
REMARK  12 active torsions:
REMARK  status: ('A' for Active; 'I' for Inactive)
REMARK    1  A    between atoms: N1_2  and  C2_4 
REMARK    2  A    between atoms: C4_6  and  N2_7 
REMARK    3  A    between atoms: C5_11  and  O1_12 
REMARK    4  A    between atoms: C6_14  and  O2_15 
REMARK    5  A    between atoms: C7_17  and  O3_18 
REMARK    6  A    between atoms: O3_18  and  C8_19 
REMARK    7  A    between atoms: C11_22  and  O4_23 
REMARK    8  A    between atoms: O4_23  and  S1_24 
REMARK    9  A    between atoms: S1_24  and  N3_25 
REMARK   10  A    between atoms: S1_24  and  C12_29 
REMARK   11  A    between atoms: C15_32  and  O6_33 
REMARK   12  A    between atoms: C20_38  and  N4_39 
ROOT
HETATM    1  C8  UNL     1      11.650  -8.562   1.946  1.00  0.00     0.152 C 
HETATM    2  C9  UNL     1      11.587  -7.345   0.968  1.00  0.00     0.036 C 
HETATM    3  C10 UNL     1      11.709  -7.813  -0.448  1.00  0.00     0.036 C 
HETATM    4  C11 UNL     1      10.703  -8.838  -0.845  1.00  0.00     0.143 C 
HETATM    5  C19 UNL     1      10.781  -9.982   0.144  1.00  0.00     0.068 C 
HETATM    6  C20 UNL     1      10.471  -9.383   1.504  1.00  0.00     0.214 C 
ENDROOT
BRANCH   1   7
HETATM    7  O3  UNL     1      11.468  -8.152   3.219  1.00  0.00    -0.374 OA
BRANCH   7   8
HETATM    8  C7  UNL     1      12.500  -7.470   3.832  1.00  0.00     0.175 C 
HETATM    9  C2  UNL     1      12.051  -6.471   4.847  1.00  0.00     0.109 C 
HETATM   10  C3  UNL     1      12.505  -6.668   6.247  1.00  0.00     0.062 C 
HETATM   11  C4  UNL     1      13.764  -7.445   6.439  1.00  0.00     0.216 C 
HETATM   12  C5  UNL     1      13.503  -8.780   5.722  1.00  0.00     0.179 C 
HETATM   13  C6  UNL     1      13.568  -8.400   4.252  1.00  0.00     0.179 C 
BRANCH   9  14
HETATM   14  N1  UNL     1      12.248  -5.102   4.477  1.00  0.00    -0.419 N 
HETATM   15  C1  UNL     1      11.327  -4.557   3.552  1.00  0.00     0.140 C 
ATOM     16  H1  UNL     1      13.013  -4.548   4.861  1.00  0.00     0.153 HD
ENDBRANCH   9  14
BRANCH  11  17
HETATM   17  N2  UNL     1      13.921  -7.757   7.836  1.00  0.00    -0.072 N 
ATOM     18  H23 UNL     1      13.639  -6.984   8.439  1.00  0.00     0.274 HD
ATOM     19  H22 UNL     1      13.242  -8.447   8.157  1.00  0.00     0.274 HD
ATOM     20  H21 UNL     1      14.882  -8.052   8.009  1.00  0.00     0.274 HD
ENDBRANCH  11  17
BRANCH  12  21
HETATM   21  O1  UNL     1      14.538  -9.630   6.014  1.00  0.00    -0.391 OA
ATOM     22  H1  UNL     1      15.096  -9.206   6.656  1.00  0.00     0.210 HD
ENDBRANCH  12  21
BRANCH  13  23
HETATM   23  O2  UNL     1      14.864  -7.825   4.113  1.00  0.00    -0.390 OA
ATOM     24  H2  UNL     1      15.351  -8.197   4.839  1.00  0.00     0.210 HD
ENDBRANCH  13  23
ENDBRANCH   7   8
ENDBRANCH   1   7
BRANCH   6  25
HETATM   25  N4  UNL     1       9.968 -10.331   2.429  1.00  0.00    -0.072 N 
ATOM     26  H43 UNL     1      10.718 -10.630   3.052  1.00  0.00     0.274 HD
ATOM     27  H42 UNL     1       9.349  -9.865   3.092  1.00  0.00     0.274 HD
ATOM     28  H41 UNL     1       9.499 -11.150   2.041  1.00  0.00     0.274 HD
ENDBRANCH   6  25
BRANCH   4  29
HETATM   29  O4  UNL     1       9.383  -8.365  -0.777  1.00  0.00    -0.282 OA
BRANCH  29  30
HETATM   30  S1  UNL     1       8.596  -8.437  -2.238  1.00  0.00     0.172 S 
HETATM   31  O5  UNL     1       8.806  -9.761  -2.930  1.00  0.00    -0.216 OA
BRANCH  30  32
HETATM   32  N3  UNL     1       7.062  -8.297  -2.010  1.00  0.00    -0.336 N 
ATOM     33  H32 UNL     1       6.602  -7.446  -1.688  1.00  0.00     0.168 HD
ATOM     34  H31 UNL     1       6.603  -9.181  -2.232  1.00  0.00     0.168 HD
ENDBRANCH  30  32
BRANCH  30  35
HETATM   35  C12 UNL     1       9.097  -7.132  -3.278  1.00  0.00     0.064 A 
HETATM   36  C13 UNL     1       8.277  -6.045  -3.472  1.00  0.00     0.027 A 
HETATM   37  C14 UNL     1       8.664  -4.991  -4.303  1.00  0.00     0.038 A 
HETATM   38  C15 UNL     1       9.892  -5.038  -4.945  1.00  0.00     0.068 A 
HETATM   39  C17 UNL     1      10.701  -6.135  -4.739  1.00  0.00     0.038 A 
HETATM   40  C18 UNL     1      10.315  -7.187  -3.910  1.00  0.00     0.027 A 
BRANCH  38  41
HETATM   41  O6  UNL     1      10.300  -4.000  -5.779  1.00  0.00    -0.356 OA
HETATM   42  C16 UNL     1       9.388  -2.957  -6.064  1.00  0.00     0.210 C 
ENDBRANCH  38  41
ENDBRANCH  30  35
ENDBRANCH  29  30
ENDBRANCH   4  29
TORSDOF 12
ENDMDL
MODEL 4
REMARK VINA RESULT: -8.130764272      3.704      8.994
REMARK  12 active torsions:
REMARK  status: ('A' for Active; 'I' for Inactive)
REMARK    1  A    between atoms: N1_2  and  C2_4 
REMARK    2  A    between atoms: C4_6  and  N2_7 
REMARK    3  A    between atoms: C5_11  and  O1_12 
REMARK    4  A    between atoms: C6_14  and  O2_15 
REMARK    5  A    between atoms: C7_17  and  O3_18 
REMARK    6  A    between atoms: O3_18  and  C8_19 
REMARK    7  A    between atoms: C11_22  and  O4_23 
REMARK    8  A    between atoms: O4_23  and  S1_24 
REMARK    9  A    between atoms: S1_24  and  N3_25 
REMARK   10  A    between atoms: S1_24  and  C12_29 
REMARK   11  A    between atoms: C15_32  and  O6_33 
REMARK   12  A    between atoms: C20_38  and  N4_39 
ROOT
HETATM    1  C8  UNL     1      12.241  -6.997   0.613  1.00  0.00     0.152 C 
HETATM    2  C9  UNL     1      12.435  -5.600  -0.061  1.00  0.00     0.036 C 
HETATM    3  C10 UNL     1      12.904  -5.766  -1.472  1.00  0.00     0.036 C 
HETATM    4  C11 UNL     1      12.019  -6.621  -2.315  1.00  0.00     0.143 C 
HETATM    5  C19 UNL     1      11.838  -7.949  -1.612  1.00  0.00     0.068 C 
HETATM    6  C20 UNL     1      11.203  -7.630  -0.270  1.00  0.00     0.214 C 
ENDROOT
BRANCH   1   7
HETATM    7  O3  UNL     1      11.750  -6.852   1.861  1.00  0.00    -0.374 OA
BRANCH   7   8
HETATM    8  C7  UNL     1      12.622  -6.456   2.857  1.00  0.00     0.175 C 
HETATM    9  C2  UNL     1      11.966  -5.733   3.987  1.00  0.00     0.109 C 
HETATM   10  C3  UNL     1      12.069  -6.341   5.338  1.00  0.00     0.062 C 
HETATM   11  C4  UNL     1      13.227  -7.250   5.577  1.00  0.00     0.216 C 
HETATM   12  C5  UNL     1      13.114  -8.312   4.471  1.00  0.00     0.179 C 
HETATM   13  C6  UNL     1      13.537  -7.557   3.223  1.00  0.00     0.179 C 
BRANCH   9  14
HETATM   14  N1  UNL     1      12.277  -4.338   4.075  1.00  0.00    -0.419 N 
HETATM   15  C1  UNL     1      13.448  -3.908   3.408  1.00  0.00     0.140 C 
ATOM     16  H1  UNL     1      11.685  -3.688   4.591  1.00  0.00     0.153 HD
ENDBRANCH   9  14
BRANCH  11  17
HETATM   17  N2  UNL     1      13.039  -7.941   6.826  1.00  0.00    -0.072 N 
ATOM     18  H23 UNL     1      13.727  -8.682   6.965  1.00  0.00     0.274 HD
ATOM     19  H22 UNL     1      13.286  -7.363   7.629  1.00  0.00     0.274 HD
ATOM     20  H21 UNL     1      12.081  -8.286   6.879  1.00  0.00     0.274 HD
ENDBRANCH  11  17
BRANCH  12  21
HETATM   21  O1  UNL     1      14.030  -9.299   4.733  1.00  0.00    -0.391 OA
ATOM     22  H1  UNL     1      14.876  -9.008   4.413  1.00  0.00     0.210 HD
ENDBRANCH  12  21
BRANCH  13  23
HETATM   23  O2  UNL     1      14.841  -7.083   3.545  1.00  0.00    -0.390 OA
ATOM     24  H2  UNL     1      14.959  -7.353   4.448  1.00  0.00     0.210 HD
ENDBRANCH  13  23
ENDBRANCH   7   8
ENDBRANCH   1   7
BRANCH   6  25
HETATM   25  N4  UNL     1      10.477  -8.718   0.275  1.00  0.00    -0.072 N 
ATOM     26  H43 UNL     1       9.481  -8.496   0.276  1.00  0.00     0.274 HD
ATOM     27  H42 UNL     1      10.494  -9.501  -0.378  1.00  0.00     0.274 HD
ATOM     28  H41 UNL     1      10.756  -9.040   1.202  1.00  0.00     0.274 HD
ENDBRANCH   6  25
BRANCH   4  29
HETATM   29  O4  UNL     1      10.728  -6.090  -2.467  1.00  0.00    -0.282 OA
BRANCH  29  30
HETATM   30  S1  UNL     1      10.251  -5.998  -4.055  1.00  0.00     0.172 S 
HETATM   31  O5  UNL     1      11.225  -6.688  -4.980  1.00  0.00    -0.216 OA
BRANCH  30  32
HETATM   32  N3  UNL     1       8.887  -6.727  -4.231  1.00  0.00    -0.336 N 
ATOM     33  H32 UNL     1       8.776  -7.649  -4.652  1.00  0.00     0.168 HD
ATOM     34  H31 UNL     1       8.137  -6.140  -3.863  1.00  0.00     0.168 HD
ENDBRANCH  30  32
BRANCH  30  35
HETATM   35  C12 UNL     1      10.033  -4.340  -4.544  1.00  0.00     0.064 A 
HETATM   36  C13 UNL     1       9.382  -4.043  -5.718  1.00  0.00     0.027 A 
HETATM   37  C14 UNL     1       9.200  -2.719  -6.123  1.00  0.00     0.038 A 
HETATM   38  C15 UNL     1       9.681  -1.686  -5.334  1.00  0.00     0.068 A 
HETATM   39  C17 UNL     1      10.331  -2.003  -4.160  1.00  0.00     0.038 A 
HETATM   40  C18 UNL     1      10.513  -3.324  -3.755  1.00  0.00     0.027 A 
BRANCH  38  41
HETATM   41  O6  UNL     1       9.511  -0.358  -5.717  1.00  0.00    -0.356 OA
HETATM   42  C16 UNL     1       8.946  -0.081  -6.983  1.00  0.00     0.210 C 
ENDBRANCH  38  41
ENDBRANCH  30  35
ENDBRANCH  29  30
ENDBRANCH   4  29
TORSDOF 12
ENDMDL
MODEL 5
REMARK VINA RESULT: -8.114499431      1.145      1.466
REMARK  12 active torsions:
REMARK  status: ('A' for Active; 'I' for Inactive)
REMARK    1  A    between atoms: N1_2  and  C2_4 
REMARK    2  A    between atoms: C4_6  and  N2_7 
REMARK    3  A    between atoms: C5_11  and  O1_12 
REMARK    4  A    between atoms: C6_14  and  O2_15 
REMARK    5  A    between atoms: C7_17  and  O3_18 
REMARK    6  A    between atoms: O3_18  and  C8_19 
REMARK    7  A    between atoms: C11_22  and  O4_23 
REMARK    8  A    between atoms: O4_23  and  S1_24 
REMARK    9  A    between atoms: S1_24  and  N3_25 
REMARK   10  A    between atoms: S1_24  and  C12_29 
REMARK   11  A    between atoms: C15_32  and  O6_33 
REMARK   12  A    between atoms: C20_38  and  N4_39 
ROOT
HETATM    1  C8  UNL     1      12.244  -7.497  -3.874  1.00  0.00     0.152 C 
HETATM    2  C9  UNL     1      12.994  -8.071  -2.629  1.00  0.00     0.036 C 
HETATM    3  C10 UNL     1      13.722  -6.976  -1.914  1.00  0.00     0.036 C 
HETATM    4  C11 UNL     1      12.860  -5.831  -1.507  1.00  0.00     0.143 C 
HETATM    5  C19 UNL     1      12.134  -5.327  -2.736  1.00  0.00     0.068 C 
HETATM    6  C20 UNL     1      11.313  -6.498  -3.248  1.00  0.00     0.214 C 
ENDROOT
BRANCH   1   7
HETATM    7  O3  UNL     1      11.528  -8.468  -4.480  1.00  0.00    -0.374 OA
BRANCH   7   8
HETATM    8  C7  UNL     1      11.320  -9.645  -3.788  1.00  0.00     0.175 C 
HETATM    9  C2  UNL     1       9.911  -9.844  -3.336  1.00  0.00     0.109 C 
HETATM   10  C3  UNL     1       9.189 -11.034  -3.853  1.00  0.00     0.062 C 
HETATM   11  C4  UNL     1      10.027 -12.190  -4.284  1.00  0.00     0.216 C 
HETATM   12  C5  UNL     1      10.988 -11.597  -5.329  1.00  0.00     0.179 C 
HETATM   13  C6  UNL     1      11.954 -10.783  -4.485  1.00  0.00     0.179 C 
BRANCH   9  14
HETATM   14  N1  UNL     1       9.711  -9.751  -1.920  1.00  0.00    -0.419 N 
HETATM   15  C1  UNL     1       8.989  -8.628  -1.456  1.00  0.00     0.140 C 
ATOM     16  H1  UNL     1      10.071 -10.458  -1.281  1.00  0.00     0.153 HD
ENDBRANCH   9  14
BRANCH  11  17
HETATM   17  N2  UNL     1       9.201 -13.140  -4.984  1.00  0.00    -0.072 N 
ATOM     18  H23 UNL     1       9.298 -14.085  -4.611  1.00  0.00     0.274 HD
ATOM     19  H22 UNL     1       8.209 -13.009  -4.788  1.00  0.00     0.274 HD
ATOM     20  H21 UNL     1       9.408 -13.095  -5.982  1.00  0.00     0.274 HD
ENDBRANCH  11  17
BRANCH  12  21
HETATM   21  O1  UNL     1      11.666 -12.632  -5.920  1.00  0.00    -0.391 OA
ATOM     22  H1  UNL     1      12.573 -12.590  -5.637  1.00  0.00     0.210 HD
ENDBRANCH  12  21
BRANCH  13  23
HETATM   23  O2  UNL     1      12.487 -11.739  -3.573  1.00  0.00    -0.390 OA
ATOM     24  H2  UNL     1      12.580 -11.247  -2.765  1.00  0.00     0.210 HD
ENDBRANCH  13  23
ENDBRANCH   7   8
ENDBRANCH   1   7
BRANCH   6  25
HETATM   25  N4  UNL     1      10.191  -6.098  -4.016  1.00  0.00    -0.072 N 
ATOM     26  H43 UNL     1      10.492  -5.458  -4.751  1.00  0.00     0.274 HD
ATOM     27  H42 UNL     1       9.864  -6.885  -4.576  1.00  0.00     0.274 HD
ATOM     28  H41 UNL     1       9.406  -5.691  -3.508  1.00  0.00     0.274 HD
ENDBRANCH   6  25
BRANCH   4  29
HETATM   29  O4  UNL     1      11.857  -6.197  -0.595  1.00  0.00    -0.282 OA
BRANCH  29  30
HETATM   30  S1  UNL     1      11.987  -5.405   0.859  1.00  0.00     0.172 S 
HETATM   31  O5  UNL     1      13.298  -4.668   0.988  1.00  0.00    -0.216 OA
BRANCH  30  32
HETATM   32  N3  UNL     1      10.866  -4.330   0.967  1.00  0.00    -0.336 N 
ATOM     33  H32 UNL     1       9.880  -4.503   0.770  1.00  0.00     0.168 HD
ATOM     34  H31 UNL     1      11.272  -3.442   1.263  1.00  0.00     0.168 HD
ENDBRANCH  30  32
BRANCH  30  35
HETATM   35  C12 UNL     1      11.788  -6.511   2.190  1.00  0.00     0.064 A 
HETATM   36  C13 UNL     1      11.800  -6.049   3.485  1.00  0.00     0.027 A 
HETATM   37  C14 UNL     1      11.642  -6.923   4.562  1.00  0.00     0.038 A 
HETATM   38  C15 UNL     1      11.473  -8.279   4.327  1.00  0.00     0.068 A 
HETATM   39  C17 UNL     1      11.464  -8.726   3.023  1.00  0.00     0.038 A 
HETATM   40  C18 UNL     1      11.621  -7.853   1.947  1.00  0.00     0.027 A 
BRANCH  38  41
HETATM   41  O6  UNL     1      11.314  -9.171   5.385  1.00  0.00    -0.356 OA
HETATM   42  C16 UNL     1      10.234 -10.083   5.352  1.00  0.00     0.210 C 
ENDBRANCH  38  41
ENDBRANCH  30  35
ENDBRANCH  29  30
ENDBRANCH   4  29
TORSDOF 12
ENDMDL
