MODEL 1
REMARK VINA RESULT: -6.153557847      0.000      0.000
REMARK  6 active torsions:
REMARK  status: ('A' for Active; 'I' for Inactive)
REMARK    1  A    between atoms: C2_2  and  N1_3 
REMARK       I    between atoms: N1_3  and  C4_5 
REMARK    2  A    between atoms: C4_5  and  O2_7 
REMARK    3  A    between atoms: O2_7  and  C5_8 
REMARK    4  A    between atoms: C8_11  and  C9_12 
REMARK    5  A    between atoms: C9_12  and  N2_13 
REMARK       I    between atoms: N2_13  and  C10_15 
REMARK       I    between atoms: C10_15  and  N4_19 
REMARK    6  A    between atoms: N4_19  and  C11_21 
ROOT
HETATM    1  C5  UNL     1       6.794  11.856   2.179  1.00  0.00     0.138 C 
HETATM    2  C6  UNL     1       7.652  10.624   2.194  1.00  0.00     0.034 C 
HETATM    3  C7  UNL     1       6.869   9.348   2.050  1.00  0.00     0.014 C 
HETATM    4  C8  UNL     1       5.680   9.583   1.182  1.00  0.00    -0.023 C 
HETATM    5  C14 UNL     1       5.900  10.658   0.173  1.00  0.00     0.018 C 
HETATM    6  C15 UNL     1       5.601  11.667   1.292  1.00  0.00     0.017 C 
HETATM    7  C16 UNL     1       4.757  10.552   1.925  1.00  0.00     0.018 C 
ENDROOT
BRANCH   4   8
HETATM    8  C9  UNL     1       5.015   8.332   0.716  1.00  0.00     0.147 C 
BRANCH   8   9
HETATM    9  N2  UNL     1       4.158   7.718   1.669  1.00  0.00    -0.226 N 
HETATM   10  C10 UNL     1       3.583   6.459   1.392  1.00  0.00     0.667 C 
HETATM   11  N3  UNL     1       2.419   6.188   1.874  1.00  0.00    -0.235 N 
HETATM   12  N4  UNL     1       4.218   5.462   0.608  1.00  0.00    -0.222 N 
ATOM     13  H32 UNL     1       1.962   6.904   2.438  1.00  0.00     0.174 HD
ATOM     14  H31 UNL     1       2.004   5.277   1.675  1.00  0.00     0.174 HD
ATOM     15  H4  UNL     1       4.910   5.751  -0.083  1.00  0.00     0.178 HD
ATOM     16  H2  UNL     1       3.957   8.187   2.552  1.00  0.00     0.177 HD
BRANCH  12  17
HETATM   17  C11 UNL     1       3.924   4.054   0.749  1.00  0.00     0.099 A 
HETATM   18  C12 UNL     1       4.712   3.057  -0.005  1.00  0.00     0.028 A 
HETATM   19  C13 UNL     1       4.967   3.177   1.467  1.00  0.00     0.028 A 
ENDBRANCH  12  17
ENDBRANCH   8   9
ENDBRANCH   4   8
BRANCH   1  20
HETATM   20  O2  UNL     1       7.579  12.944   1.731  1.00  0.00    -0.298 OA
BRANCH  20  21
HETATM   21  C4  UNL     1       8.943  13.027   1.917  1.00  0.00     0.362 C 
HETATM   22  N1  UNL     1       9.798  12.927   0.799  1.00  0.00    -0.333 N 
HETATM   23  C3  UNL     1      11.226  13.014   1.014  1.00  0.00     0.155 C 
HETATM   24  O1  UNL     1       9.390  13.186   3.072  1.00  0.00    -0.238 OA
BRANCH  22  25
HETATM   25  C2  UNL     1       9.325  12.741  -0.556  1.00  0.00     0.123 C 
HETATM   26  C1  UNL     1       9.331  11.267  -0.890  1.00  0.00     0.026 C 
ENDBRANCH  22  25
ENDBRANCH  20  21
ENDBRANCH   1  20
TORSDOF 6
ENDMDL
MODEL 2
REMARK VINA RESULT: -6.107303797      2.462      3.501
REMARK  6 active torsions:
REMARK  status: ('A' for Active; 'I' for Inactive)
REMARK    1  A    between atoms: C2_2  and  N1_3 
REMARK       I    between atoms: N1_3  and  C4_5 
REMARK    2  A    between atoms: C4_5  and  O2_7 
REMARK    3  A    between atoms: O2_7  and  C5_8 
REMARK    4  A    between atoms: C8_11  and  C9_12 
REMARK    5  A    between atoms: C9_12  and  N2_13 
REMARK       I    between atoms: N2_13  and  C10_15 
REMARK       I    between atoms: C10_15  and  N4_19 
REMARK    6  A    between atoms: N4_19  and  C11_21 
ROOT
HETATM    1  C5  UNL     1      10.445  11.586   1.301  1.00  0.00     0.138 C 
HETATM    2  C6  UNL     1      10.355  10.304   0.524  1.00  0.00     0.034 C 
HETATM    3  C7  UNL     1       9.389   9.314   1.115  1.00  0.00     0.014 C 
HETATM    4  C8  UNL     1       8.254  10.038   1.753  1.00  0.00    -0.023 C 
HETATM    5  C14 UNL     1       7.963  11.348   1.105  1.00  0.00     0.018 C 
HETATM    6  C15 UNL     1       9.126  11.928   1.923  1.00  0.00     0.017 C 
HETATM    7  C16 UNL     1       8.822  10.820   2.941  1.00  0.00     0.018 C 
ENDROOT
BRANCH   4   8
HETATM    8  C9  UNL     1       7.092   9.166   2.087  1.00  0.00     0.147 C 
BRANCH   8   9
HETATM    9  N2  UNL     1       6.628   8.351   1.018  1.00  0.00    -0.226 N 
HETATM   10  C10 UNL     1       5.386   7.689   1.124  1.00  0.00     0.667 C 
HETATM   11  N3  UNL     1       5.235   6.553   0.536  1.00  0.00    -0.235 N 
HETATM   12  N4  UNL     1       4.280   8.209   1.845  1.00  0.00    -0.222 N 
ATOM     13  H32 UNL     1       6.030   6.179   0.018  1.00  0.00     0.174 HD
ATOM     14  H31 UNL     1       4.336   6.075   0.612  1.00  0.00     0.174 HD
ATOM     15  H4  UNL     1       4.456   8.861   2.609  1.00  0.00     0.178 HD
ATOM     16  H2  UNL     1       7.192   8.244   0.176  1.00  0.00     0.177 HD
BRANCH  12  17
HETATM   17  C11 UNL     1       2.913   7.851   1.540  1.00  0.00     0.099 A 
HETATM   18  C12 UNL     1       1.880   7.919   2.595  1.00  0.00     0.028 A 
HETATM   19  C13 UNL     1       1.865   8.979   1.535  1.00  0.00     0.028 A 
ENDBRANCH  12  17
ENDBRANCH   8   9
ENDBRANCH   4   8
BRANCH   1  20
HETATM   20  O2  UNL     1      10.861  12.614   0.423  1.00  0.00    -0.298 OA
BRANCH  20  21
HETATM   21  C4  UNL     1      10.938  13.943   0.787  1.00  0.00     0.362 C 
HETATM   22  N1  UNL     1      10.052  14.870   0.200  1.00  0.00    -0.333 N 
HETATM   23  C3  UNL     1      10.148  16.258   0.594  1.00  0.00     0.155 C 
HETATM   24  O1  UNL     1      11.792  14.293   1.628  1.00  0.00    -0.238 OA
BRANCH  22  25
HETATM   25  C2  UNL     1       9.047  14.509  -0.777  1.00  0.00     0.123 C 
HETATM   26  C1  UNL     1       9.661  14.536  -2.158  1.00  0.00     0.026 C 
ENDBRANCH  22  25
ENDBRANCH  20  21
ENDBRANCH   1  20
TORSDOF 6
ENDMDL
MODEL 3
REMARK VINA RESULT: -6.022011850      1.201      1.494
REMARK  6 active torsions:
REMARK  status: ('A' for Active; 'I' for Inactive)
REMARK    1  A    between atoms: C2_2  and  N1_3 
REMARK       I    between atoms: N1_3  and  C4_5 
REMARK    2  A    between atoms: C4_5  and  O2_7 
REMARK    3  A    between atoms: O2_7  and  C5_8 
REMARK    4  A    between atoms: C8_11  and  C9_12 
REMARK    5  A    between atoms: C9_12  and  N2_13 
REMARK       I    between atoms: N2_13  and  C10_15 
REMARK       I    between atoms: C10_15  and  N4_19 
REMARK    6  A    between atoms: N4_19  and  C11_21 
ROOT
HETATM    1  C5  UNL     1       7.647  11.438   2.587  1.00  0.00     0.138 C 
HETATM    2  C6  UNL     1       8.096  10.006   2.644  1.00  0.00     0.034 C 
HETATM    3  C7  UNL     1       6.997   9.023   2.345  1.00  0.00     0.014 C 
HETATM    4  C8  UNL     1       6.052   9.611   1.354  1.00  0.00    -0.023 C 
HETATM    5  C14 UNL     1       6.706  10.582   0.433  1.00  0.00     0.018 C 
HETATM    6  C15 UNL     1       6.576  11.622   1.555  1.00  0.00     0.017 C 
HETATM    7  C16 UNL     1       5.368  10.803   2.029  1.00  0.00     0.018 C 
ENDROOT
BRANCH   4   8
HETATM    8  C9  UNL     1       5.115   8.620   0.752  1.00  0.00     0.147 C 
BRANCH   8   9
HETATM    9  N2  UNL     1       4.184   8.045   1.660  1.00  0.00    -0.226 N 
HETATM   10  C10 UNL     1       3.603   6.791   1.376  1.00  0.00     0.667 C 
HETATM   11  N3  UNL     1       2.405   6.554   1.786  1.00  0.00    -0.235 N 
HETATM   12  N4  UNL     1       4.267   5.764   0.658  1.00  0.00    -0.222 N 
ATOM     13  H32 UNL     1       1.927   7.292   2.302  1.00  0.00     0.174 HD
ATOM     14  H31 UNL     1       1.985   5.647   1.581  1.00  0.00     0.174 HD
ATOM     15  H4  UNL     1       5.009   6.023   0.007  1.00  0.00     0.178 HD
ATOM     16  H2  UNL     1       3.937   8.539   2.518  1.00  0.00     0.177 HD
BRANCH  12  17
HETATM   17  C11 UNL     1       3.936   4.365   0.811  1.00  0.00     0.099 A 
HETATM   18  C12 UNL     1       4.590   3.354  -0.045  1.00  0.00     0.028 A 
HETATM   19  C13 UNL     1       5.020   3.436   1.389  1.00  0.00     0.028 A 
ENDBRANCH  12  17
ENDBRANCH   8   9
ENDBRANCH   4   8
BRANCH   1  20
HETATM   20  O2  UNL     1       8.768  12.247   2.289  1.00  0.00    -0.298 OA
BRANCH  20  21
HETATM   21  C4  UNL     1       9.213  13.264   3.109  1.00  0.00     0.362 C 
HETATM   22  N1  UNL     1       9.944  14.332   2.547  1.00  0.00    -0.333 N 
HETATM   23  C3  UNL     1      10.402  15.389   3.423  1.00  0.00     0.155 C 
HETATM   24  O1  UNL     1       8.959  13.214   4.331  1.00  0.00    -0.238 OA
BRANCH  22  25
HETATM   25  C2  UNL     1      10.260  14.432   1.138  1.00  0.00     0.123 C 
HETATM   26  C1  UNL     1      11.598  13.777   0.881  1.00  0.00     0.026 C 
ENDBRANCH  22  25
ENDBRANCH  20  21
ENDBRANCH   1  20
TORSDOF 6
ENDMDL
MODEL 4
REMARK VINA RESULT: -5.978784843      2.611      8.844
REMARK  6 active torsions:
REMARK  status: ('A' for Active; 'I' for Inactive)
REMARK    1  A    between atoms: C2_2  and  N1_3 
REMARK       I    between atoms: N1_3  and  C4_5 
REMARK    2  A    between atoms: C4_5  and  O2_7 
REMARK    3  A    between atoms: O2_7  and  C5_8 
REMARK    4  A    between atoms: C8_11  and  C9_12 
REMARK    5  A    between atoms: C9_12  and  N2_13 
REMARK       I    between atoms: N2_13  and  C10_15 
REMARK       I    between atoms: C10_15  and  N4_19 
REMARK    6  A    between atoms: N4_19  and  C11_21 
ROOT
HETATM    1  C5  UNL     1       7.030   9.271   1.204  1.00  0.00     0.138 C 
HETATM    2  C6  UNL     1       7.589   9.155   2.593  1.00  0.00     0.034 C 
HETATM    3  C7  UNL     1       8.822   9.989   2.813  1.00  0.00     0.014 C 
HETATM    4  C8  UNL     1       8.740  11.233   1.997  1.00  0.00    -0.023 C 
HETATM    5  C14 UNL     1       7.339  11.688   1.771  1.00  0.00     0.018 C 
HETATM    6  C15 UNL     1       7.259  10.643   0.648  1.00  0.00     0.017 C 
HETATM    7  C16 UNL     1       8.779  10.817   0.524  1.00  0.00     0.018 C 
ENDROOT
BRANCH   4   8
HETATM    8  C9  UNL     1       9.744  12.269   2.373  1.00  0.00     0.147 C 
BRANCH   8   9
HETATM    9  N2  UNL     1      10.883  12.336   1.526  1.00  0.00    -0.226 N 
HETATM   10  C10 UNL     1      11.423  13.590   1.166  1.00  0.00     0.667 C 
HETATM   11  N3  UNL     1      11.983  13.718   0.013  1.00  0.00    -0.235 N 
HETATM   12  N4  UNL     1      11.387  14.729   2.010  1.00  0.00    -0.222 N 
ATOM     13  H32 UNL     1      12.009  12.899  -0.593  1.00  0.00     0.174 HD
ATOM     14  H31 UNL     1      12.374  14.624  -0.246  1.00  0.00     0.174 HD
ATOM     15  H4  UNL     1      10.654  14.793   2.716  1.00  0.00     0.178 HD
ATOM     16  H2  UNL     1      11.311  11.478   1.177  1.00  0.00     0.177 HD
BRANCH  12  17
HETATM   17  C11 UNL     1      12.347  15.805   1.910  1.00  0.00     0.099 A 
HETATM   18  C12 UNL     1      11.902  17.158   1.517  1.00  0.00     0.028 A 
HETATM   19  C13 UNL     1      12.265  16.934   2.954  1.00  0.00     0.028 A 
ENDBRANCH  12  17
ENDBRANCH   8   9
ENDBRANCH   4   8
BRANCH   1  20
HETATM   20  O2  UNL     1       5.647   8.979   1.252  1.00  0.00    -0.298 OA
BRANCH  20  21
HETATM   21  C4  UNL     1       5.133   7.705   1.117  1.00  0.00     0.362 C 
HETATM   22  N1  UNL     1       3.782   7.470   1.449  1.00  0.00    -0.333 N 
HETATM   23  C3  UNL     1       3.261   6.129   1.302  1.00  0.00     0.155 C 
HETATM   24  O1  UNL     1       5.876   6.791   0.704  1.00  0.00    -0.238 OA
BRANCH  22  25
HETATM   25  C2  UNL     1       2.885   8.499   1.930  1.00  0.00     0.123 C 
HETATM   26  C1  UNL     1       1.806   7.864   2.777  1.00  0.00     0.026 C 
ENDBRANCH  22  25
ENDBRANCH  20  21
ENDBRANCH   1  20
TORSDOF 6
ENDMDL
MODEL 5
REMARK VINA RESULT: -5.974896643      2.653      8.713
REMARK  6 active torsions:
REMARK  status: ('A' for Active; 'I' for Inactive)
REMARK    1  A    between atoms: C2_2  and  N1_3 
REMARK       I    between atoms: N1_3  and  C4_5 
REMARK    2  A    between atoms: C4_5  and  O2_7 
REMARK    3  A    between atoms: O2_7  and  C5_8 
REMARK    4  A    between atoms: C8_11  and  C9_12 
REMARK    5  A    between atoms: C9_12  and  N2_13 
REMARK       I    between atoms: N2_13  and  C10_15 
REMARK       I    between atoms: C10_15  and  N4_19 
REMARK    6  A    between atoms: N4_19  and  C11_21 
ROOT
HETATM    1  C5  UNL     1       7.613   9.342   1.319  1.00  0.00     0.138 C 
HETATM    2  C6  UNL     1       8.062   9.469   2.745  1.00  0.00     0.034 C 
HETATM    3  C7  UNL     1       9.456  10.016   2.887  1.00  0.00     0.014 C 
HETATM    4  C8  UNL     1       9.731  10.984   1.787  1.00  0.00    -0.023 C 
HETATM    5  C14 UNL     1       8.505  11.679   1.306  1.00  0.00     0.018 C 
HETATM    6  C15 UNL     1       8.209  10.424   0.471  1.00  0.00     0.017 C 
HETATM    7  C16 UNL     1       9.727  10.195   0.475  1.00  0.00     0.018 C 
ENDROOT
BRANCH   4   8
HETATM    8  C9  UNL     1      10.949  11.815   2.005  1.00  0.00     0.147 C 
BRANCH   8   9
HETATM    9  N2  UNL     1      11.481  12.419   0.833  1.00  0.00    -0.226 N 
HETATM   10  C10 UNL     1      11.275  13.794   0.591  1.00  0.00     0.667 C 
HETATM   11  N3  UNL     1      11.179  14.204  -0.626  1.00  0.00    -0.235 N 
HETATM   12  N4  UNL     1      11.168  14.763   1.622  1.00  0.00    -0.222 N 
ATOM     13  H32 UNL     1      11.256  13.507  -1.367  1.00  0.00     0.174 HD
ATOM     14  H31 UNL     1      11.031  15.198  -0.800  1.00  0.00     0.174 HD
ATOM     15  H4  UNL     1      10.854  14.463   2.545  1.00  0.00     0.178 HD
ATOM     16  H2  UNL     1      12.011  11.858   0.166  1.00  0.00     0.177 HD
BRANCH  12  17
HETATM   17  C11 UNL     1      11.485  16.158   1.416  1.00  0.00     0.099 A 
HETATM   18  C12 UNL     1      11.474  17.094   2.560  1.00  0.00     0.028 A 
HETATM   19  C13 UNL     1      12.806  16.683   2.009  1.00  0.00     0.028 A 
ENDBRANCH  12  17
ENDBRANCH   8   9
ENDBRANCH   4   8
BRANCH   1  20
HETATM   20  O2  UNL     1       6.200   9.407   1.286  1.00  0.00    -0.298 OA
BRANCH  20  21
HETATM   21  C4  UNL     1       5.386   8.293   1.263  1.00  0.00     0.362 C 
HETATM   22  N1  UNL     1       4.008   8.442   1.523  1.00  0.00    -0.333 N 
HETATM   23  C3  UNL     1       3.171   7.263   1.496  1.00  0.00     0.155 C 
HETATM   24  O1  UNL     1       5.890   7.178   1.013  1.00  0.00    -0.238 OA
BRANCH  22  25
HETATM   25  C2  UNL     1       3.381   9.714   1.817  1.00  0.00     0.123 C 
HETATM   26  C1  UNL     1       1.896   9.611   1.554  1.00  0.00     0.026 C 
ENDBRANCH  22  25
ENDBRANCH  20  21
ENDBRANCH   1  20
TORSDOF 6
ENDMDL
