MODEL 1
REMARK VINA RESULT: -6.636925673      0.000      0.000
REMARK  6 active torsions:
REMARK  status: ('A' for Active; 'I' for Inactive)
REMARK       I    between atoms: N1_2  and  C2_4 
REMARK       I    between atoms: C2_4  and  N2_5 
REMARK    1  A    between atoms: C3_7  and  N3_8 
REMARK    2  A    between atoms: N4_14  and  C9_16 
REMARK    3  A    between atoms: C9_16  and  C10_17 
REMARK    4  A    between atoms: C10_17  and  C11_18 
REMARK    5  A    between atoms: C11_18  and  C12_19 
REMARK    6  A    between atoms: C14_23  and  N6_24 
ROOT
HETATM    1  C1  UNL     1       2.267  11.214   1.601  1.00  0.00     0.165 C 
HETATM    2  N1  UNL     1       3.320  10.466   2.270  1.00  0.00    -0.231 N 
ATOM      3  H1  UNL     1       3.363  10.491   3.289  1.00  0.00     0.177 HD
HETATM    4  C2  UNL     1       4.290   9.703   1.573  1.00  0.00     0.674 C 
HETATM    5  N2  UNL     1       5.517  10.284   1.159  1.00  0.00    -0.188 N 
ATOM      6  H2  UNL     1       5.530  11.207   0.724  1.00  0.00     0.185 HD
HETATM    7  C3  UNL     1       6.616   9.632   1.339  1.00  0.00     0.196 C 
HETATM    8  N4  UNL     1       4.087   8.463   1.294  1.00  0.00    -0.226 N 
ATOM      9  H4  UNL     1       4.814   7.955   0.790  1.00  0.00     0.177 HD
ENDROOT
BRANCH   8  10
HETATM   10  C9  UNL     1       2.887   7.757   1.657  1.00  0.00     0.138 C 
BRANCH  10  11
HETATM   11  C10 UNL     1       3.132   6.275   1.668  1.00  0.00     0.025 C 
BRANCH  11  12
HETATM   12  C11 UNL     1       4.600   5.951   1.449  1.00  0.00     0.049 C 
BRANCH  12  13
HETATM   13  C12 UNL     1       4.724   4.524   0.978  1.00  0.00     0.002 A 
HETATM   14  C13 UNL     1       4.966   3.407   1.733  1.00  0.00     0.104 A 
HETATM   15  N5  UNL     1       5.034   2.261   1.121  1.00  0.00    -0.346 N 
HETATM   16  C14 UNL     1       4.870   2.222  -0.198  1.00  0.00     0.142 A 
ATOM     17  H5  UNL     1       5.212   1.405   1.646  1.00  0.00     0.167 HD
HETATM   18  S1  UNL     1       4.605   3.871  -0.593  1.00  0.00    -0.058 SA
BRANCH  16  19
HETATM   19  N6  UNL     1       4.900   1.180  -1.002  1.00  0.00    -0.380 N 
ATOM     20  H62 UNL     1       4.403   0.294  -0.914  1.00  0.00     0.158 HD
ATOM     21  H61 UNL     1       5.428   1.056  -1.867  1.00  0.00     0.158 HD
ENDBRANCH  16  19
ENDBRANCH  12  13
ENDBRANCH  11  12
ENDBRANCH  10  11
ENDBRANCH   8  10
BRANCH   7  22
HETATM   22  N3  UNL     1       7.866  10.178   0.939  1.00  0.00    -0.377 N 
HETATM   23  C4  UNL     1       9.102   9.442   0.936  1.00  0.00     0.123 C 
HETATM   24  C5  UNL     1      10.250  10.422   1.041  1.00  0.00     0.020 C 
HETATM   25  C6  UNL     1       9.887  11.514   2.021  1.00  0.00     0.003 C 
HETATM   26  C7  UNL     1       8.702  12.319   1.560  1.00  0.00     0.020 C 
HETATM   27  C8  UNL     1       7.908  11.565   0.503  1.00  0.00     0.123 C 
ENDBRANCH   7  22
TORSDOF 6
ENDMDL
MODEL 2
REMARK VINA RESULT: -6.478266612      3.781      7.098
REMARK  6 active torsions:
REMARK  status: ('A' for Active; 'I' for Inactive)
REMARK       I    between atoms: N1_2  and  C2_4 
REMARK       I    between atoms: C2_4  and  N2_5 
REMARK    1  A    between atoms: C3_7  and  N3_8 
REMARK    2  A    between atoms: N4_14  and  C9_16 
REMARK    3  A    between atoms: C9_16  and  C10_17 
REMARK    4  A    between atoms: C10_17  and  C11_18 
REMARK    5  A    between atoms: C11_18  and  C12_19 
REMARK    6  A    between atoms: C14_23  and  N6_24 
ROOT
HETATM    1  C1  UNL     1       3.014  10.993   2.075  1.00  0.00     0.165 C 
HETATM    2  N1  UNL     1       1.969  10.090   1.617  1.00  0.00    -0.231 N 
ATOM      3  H1  UNL     1       1.573  10.235   0.688  1.00  0.00     0.177 HD
HETATM    4  C2  UNL     1       1.473   9.019   2.402  1.00  0.00     0.674 C 
HETATM    5  N2  UNL     1       0.374   9.204   3.281  1.00  0.00    -0.188 N 
ATOM      6  H2  UNL     1       0.326  10.028   3.881  1.00  0.00     0.185 HD
HETATM    7  C3  UNL     1      -0.565   8.319   3.312  1.00  0.00     0.196 C 
HETATM    8  N4  UNL     1       2.005   7.849   2.342  1.00  0.00    -0.226 N 
ATOM      9  H4  UNL     1       1.615   7.109   2.926  1.00  0.00     0.177 HD
ENDROOT
BRANCH   8  10
HETATM   10  C9  UNL     1       3.122   7.530   1.493  1.00  0.00     0.138 C 
BRANCH  10  11
HETATM   11  C10 UNL     1       3.262   6.042   1.345  1.00  0.00     0.025 C 
BRANCH  11  12
HETATM   12  C11 UNL     1       4.720   5.625   1.257  1.00  0.00     0.049 C 
BRANCH  12  13
HETATM   13  C12 UNL     1       4.806   4.269   0.603  1.00  0.00     0.002 A 
HETATM   14  C13 UNL     1       4.805   3.979  -0.735  1.00  0.00     0.104 A 
HETATM   15  N5  UNL     1       4.888   2.729  -1.087  1.00  0.00    -0.346 N 
HETATM   16  C14 UNL     1       4.970   1.796  -0.144  1.00  0.00     0.142 A 
ATOM     17  H5  UNL     1       4.891   2.470  -2.074  1.00  0.00     0.167 HD
HETATM   18  S1  UNL     1       4.929   2.718   1.303  1.00  0.00    -0.058 SA
BRANCH  16  19
HETATM   19  N6  UNL     1       5.061   0.490  -0.282  1.00  0.00    -0.380 N 
ATOM     20  H62 UNL     1       5.808  -0.054  -0.715  1.00  0.00     0.158 HD
ATOM     21  H61 UNL     1       4.403  -0.232   0.015  1.00  0.00     0.158 HD
ENDBRANCH  16  19
ENDBRANCH  12  13
ENDBRANCH  11  12
ENDBRANCH  10  11
ENDBRANCH   8  10
BRANCH   7  22
HETATM   22  N3  UNL     1      -1.683   8.466   4.177  1.00  0.00    -0.377 N 
HETATM   23  C4  UNL     1      -2.081   9.713   4.773  1.00  0.00     0.123 C 
HETATM   24  C5  UNL     1      -2.872   9.419   6.029  1.00  0.00     0.020 C 
HETATM   25  C6  UNL     1      -2.229   8.267   6.767  1.00  0.00     0.003 C 
HETATM   26  C7  UNL     1      -2.252   6.995   5.962  1.00  0.00     0.020 C 
HETATM   27  C8  UNL     1      -2.479   7.289   4.485  1.00  0.00     0.123 C 
ENDBRANCH   7  22
TORSDOF 6
ENDMDL
MODEL 3
REMARK VINA RESULT: -6.365632326      3.179      8.242
REMARK  6 active torsions:
REMARK  status: ('A' for Active; 'I' for Inactive)
REMARK       I    between atoms: N1_2  and  C2_4 
REMARK       I    between atoms: C2_4  and  N2_5 
REMARK    1  A    between atoms: C3_7  and  N3_8 
REMARK    2  A    between atoms: N4_14  and  C9_16 
REMARK    3  A    between atoms: C9_16  and  C10_17 
REMARK    4  A    between atoms: C10_17  and  C11_18 
REMARK    5  A    between atoms: C11_18  and  C12_19 
REMARK    6  A    between atoms: C14_23  and  N6_24 
ROOT
HETATM    1  C1  UNL     1       3.929  10.412   1.599  1.00  0.00     0.165 C 
HETATM    2  N1  UNL     1       4.638   9.530   0.684  1.00  0.00    -0.231 N 
ATOM      3  H1  UNL     1       4.601   9.734  -0.315  1.00  0.00     0.177 HD
HETATM    4  C2  UNL     1       5.377   8.400   1.115  1.00  0.00     0.674 C 
HETATM    5  N2  UNL     1       4.762   7.126   1.233  1.00  0.00    -0.188 N 
ATOM      6  H2  UNL     1       3.844   7.035   1.667  1.00  0.00     0.185 HD
HETATM    7  C3  UNL     1       5.378   6.085   0.783  1.00  0.00     0.196 C 
HETATM    8  N4  UNL     1       6.625   8.496   1.413  1.00  0.00    -0.226 N 
ATOM      9  H4  UNL     1       7.115   7.656   1.719  1.00  0.00     0.177 HD
ENDROOT
BRANCH   8  10
HETATM   10  C9  UNL     1       7.365   9.728   1.336  1.00  0.00     0.138 C 
BRANCH  10  11
HETATM   11  C10 UNL     1       8.025  10.028   2.652  1.00  0.00     0.025 C 
BRANCH  11  12
HETATM   12  C11 UNL     1       8.188  11.523   2.866  1.00  0.00     0.049 C 
BRANCH  12  13
HETATM   13  C12 UNL     1       9.412  11.995   2.122  1.00  0.00     0.002 A 
HETATM   14  C13 UNL     1      10.565  11.298   1.871  1.00  0.00     0.104 A 
HETATM   15  N5  UNL     1      11.506  11.899   1.205  1.00  0.00    -0.346 N 
HETATM   16  C14 UNL     1      11.313  13.151   0.799  1.00  0.00     0.142 A 
ATOM     17  H5  UNL     1      12.380  11.417   0.996  1.00  0.00     0.167 HD
HETATM   18  S1  UNL     1       9.736  13.496   1.381  1.00  0.00    -0.058 SA
BRANCH  16  19
HETATM   19  N6  UNL     1      12.126  13.932   0.119  1.00  0.00    -0.380 N 
ATOM     20  H62 UNL     1      11.925  14.495  -0.708  1.00  0.00     0.158 HD
ATOM     21  H61 UNL     1      13.114  14.126   0.287  1.00  0.00     0.158 HD
ENDBRANCH  16  19
ENDBRANCH  12  13
ENDBRANCH  11  12
ENDBRANCH  10  11
ENDBRANCH   8  10
BRANCH   7  22
HETATM   22  N3  UNL     1       4.798   4.791   0.881  1.00  0.00    -0.377 N 
HETATM   23  C4  UNL     1       5.293   3.750   1.741  1.00  0.00     0.123 C 
HETATM   24  C5  UNL     1       4.858   2.413   1.182  1.00  0.00     0.020 C 
HETATM   25  C6  UNL     1       4.987   2.434  -0.323  1.00  0.00     0.003 C 
HETATM   26  C7  UNL     1       4.080   3.455  -0.955  1.00  0.00     0.020 C 
HETATM   27  C8  UNL     1       3.631   4.492   0.065  1.00  0.00     0.123 C 
ENDBRANCH   7  22
TORSDOF 6
ENDMDL
MODEL 4
REMARK VINA RESULT: -6.309591994      4.353      7.715
REMARK  6 active torsions:
REMARK  status: ('A' for Active; 'I' for Inactive)
REMARK       I    between atoms: N1_2  and  C2_4 
REMARK       I    between atoms: C2_4  and  N2_5 
REMARK    1  A    between atoms: C3_7  and  N3_8 
REMARK    2  A    between atoms: N4_14  and  C9_16 
REMARK    3  A    between atoms: C9_16  and  C10_17 
REMARK    4  A    between atoms: C10_17  and  C11_18 
REMARK    5  A    between atoms: C11_18  and  C12_19 
REMARK    6  A    between atoms: C14_23  and  N6_24 
ROOT
HETATM    1  C1  UNL     1      -0.432  11.456   0.339  1.00  0.00     0.165 C 
HETATM    2  N1  UNL     1      -0.221  10.047   0.634  1.00  0.00    -0.231 N 
ATOM      3  H1  UNL     1      -0.252   9.379  -0.136  1.00  0.00     0.177 HD
HETATM    4  C2  UNL     1       0.026   9.560   1.941  1.00  0.00     0.674 C 
HETATM    5  N2  UNL     1      -1.043   9.165   2.788  1.00  0.00    -0.188 N 
ATOM      6  H2  UNL     1      -1.880   9.742   2.865  1.00  0.00     0.185 HD
HETATM    7  C3  UNL     1      -0.943   8.067   3.459  1.00  0.00     0.196 C 
HETATM    8  N4  UNL     1       1.225   9.460   2.399  1.00  0.00    -0.226 N 
ATOM      9  H4  UNL     1       1.353   9.104   3.346  1.00  0.00     0.177 HD
ENDROOT
BRANCH   8  10
HETATM   10  C9  UNL     1       2.393   9.826   1.643  1.00  0.00     0.138 C 
BRANCH  10  11
HETATM   11  C10 UNL     1       3.412   8.723   1.684  1.00  0.00     0.025 C 
BRANCH  11  12
HETATM   12  C11 UNL     1       2.771   7.383   2.000  1.00  0.00     0.049 C 
BRANCH  12  13
HETATM   13  C12 UNL     1       3.605   6.283   1.393  1.00  0.00     0.002 A 
HETATM   14  C13 UNL     1       4.897   6.358   0.944  1.00  0.00     0.104 A 
HETATM   15  N5  UNL     1       5.433   5.280   0.453  1.00  0.00    -0.346 N 
HETATM   16  C14 UNL     1       4.713   4.162   0.406  1.00  0.00     0.142 A 
ATOM     17  H5  UNL     1       6.393   5.291   0.108  1.00  0.00     0.167 HD
HETATM   18  S1  UNL     1       3.216   4.652   1.086  1.00  0.00    -0.058 SA
BRANCH  16  19
HETATM   19  N6  UNL     1       5.061   2.976  -0.047  1.00  0.00    -0.380 N 
ATOM     20  H62 UNL     1       5.113   2.654  -1.014  1.00  0.00     0.158 HD
ATOM     21  H61 UNL     1       5.344   2.149   0.479  1.00  0.00     0.158 HD
ENDBRANCH  16  19
ENDBRANCH  12  13
ENDBRANCH  11  12
ENDBRANCH  10  11
ENDBRANCH   8  10
BRANCH   7  22
HETATM   22  N3  UNL     1      -1.990   7.635   4.318  1.00  0.00    -0.377 N 
HETATM   23  C4  UNL     1      -3.292   7.231   3.860  1.00  0.00     0.123 C 
HETATM   24  C5  UNL     1      -4.282   7.414   4.991  1.00  0.00     0.020 C 
HETATM   25  C6  UNL     1      -3.975   8.702   5.720  1.00  0.00     0.003 C 
HETATM   26  C7  UNL     1      -2.616   8.678   6.366  1.00  0.00     0.020 C 
HETATM   27  C8  UNL     1      -1.738   7.597   5.750  1.00  0.00     0.123 C 
ENDBRANCH   7  22
TORSDOF 6
ENDMDL
MODEL 5
REMARK VINA RESULT: -6.291486137      3.041      6.362
REMARK  6 active torsions:
REMARK  status: ('A' for Active; 'I' for Inactive)
REMARK       I    between atoms: N1_2  and  C2_4 
REMARK       I    between atoms: C2_4  and  N2_5 
REMARK    1  A    between atoms: C3_7  and  N3_8 
REMARK    2  A    between atoms: N4_14  and  C9_16 
REMARK    3  A    between atoms: C9_16  and  C10_17 
REMARK    4  A    between atoms: C10_17  and  C11_18 
REMARK    5  A    between atoms: C11_18  and  C12_19 
REMARK    6  A    between atoms: C14_23  and  N6_24 
ROOT
HETATM    1  C1  UNL     1       4.528  11.344   1.800  1.00  0.00     0.165 C 
HETATM    2  N1  UNL     1       3.439  10.584   1.206  1.00  0.00    -0.231 N 
ATOM      3  H1  UNL     1       3.104  10.855   0.282  1.00  0.00     0.177 HD
HETATM    4  C2  UNL     1       2.820   9.485   1.853  1.00  0.00     0.674 C 
HETATM    5  N2  UNL     1       1.696   9.672   2.699  1.00  0.00    -0.188 N 
ATOM      6  H2  UNL     1       1.683  10.432   3.379  1.00  0.00     0.185 HD
HETATM    7  C3  UNL     1       0.690   8.870   2.596  1.00  0.00     0.196 C 
HETATM    8  N4  UNL     1       3.260   8.286   1.692  1.00  0.00    -0.226 N 
ATOM      9  H4  UNL     1       2.783   7.526   2.178  1.00  0.00     0.177 HD
ENDROOT
BRANCH   8  10
HETATM   10  C9  UNL     1       4.390   7.962   0.863  1.00  0.00     0.138 C 
BRANCH  10  11
HETATM   11  C10 UNL     1       4.994   6.653   1.286  1.00  0.00     0.025 C 
BRANCH  11  12
HETATM   12  C11 UNL     1       3.928   5.599   1.530  1.00  0.00     0.049 C 
BRANCH  12  13
HETATM   13  C12 UNL     1       4.308   4.336   0.799  1.00  0.00     0.002 A 
HETATM   14  C13 UNL     1       4.505   4.170  -0.546  1.00  0.00     0.104 A 
HETATM   15  N5  UNL     1       4.831   2.985  -0.972  1.00  0.00    -0.346 N 
HETATM   16  C14 UNL     1       4.959   1.995  -0.093  1.00  0.00     0.142 A 
ATOM     17  H5  UNL     1       4.988   2.818  -1.966  1.00  0.00     0.167 HD
HETATM   18  S1  UNL     1       4.605   2.768   1.398  1.00  0.00    -0.058 SA
BRANCH  16  19
HETATM   19  N6  UNL     1       5.278   0.736  -0.310  1.00  0.00    -0.380 N 
ATOM     20  H62 UNL     1       4.996   0.132  -1.082  1.00  0.00     0.158 HD
ATOM     21  H61 UNL     1       5.868   0.121   0.252  1.00  0.00     0.158 HD
ENDBRANCH  16  19
ENDBRANCH  12  13
ENDBRANCH  11  12
ENDBRANCH  10  11
ENDBRANCH   8  10
BRANCH   7  22
HETATM   22  N3  UNL     1      -0.456   9.023   3.424  1.00  0.00    -0.377 N 
HETATM   23  C4  UNL     1      -0.429   9.615   4.734  1.00  0.00     0.123 C 
HETATM   24  C5  UNL     1      -1.610   9.095   5.525  1.00  0.00     0.020 C 
HETATM   25  C6  UNL     1      -1.795   7.623   5.238  1.00  0.00     0.003 C 
HETATM   26  C7  UNL     1      -2.125   7.364   3.793  1.00  0.00     0.020 C 
HETATM   27  C8  UNL     1      -1.739   8.553   2.923  1.00  0.00     0.123 C 
ENDBRANCH   7  22
TORSDOF 6
ENDMDL
