MODEL 1
REMARK VINA RESULT: -7.036553653      0.000      0.000
REMARK  9 active torsions:
REMARK  status: ('A' for Active; 'I' for Inactive)
REMARK    1  A    between atoms: C2_2  and  C3_5 
REMARK    2  A    between atoms: C3_5  and  N1_6 
REMARK       I    between atoms: N1_6  and  C4_8 
REMARK    3  A    between atoms: C4_8  and  C5_10 
REMARK    4  A    between atoms: C12_17  and  C13_18 
REMARK    5  A    between atoms: C13_18  and  O3_20 
REMARK    6  A    between atoms: O3_20  and  C14_21 
REMARK    7  A    between atoms: C14_21  and  C15_22 
REMARK    8  A    between atoms: C15_22  and  O4_23 
REMARK    9  A    between atoms: O4_23  and  C16_24 
REMARK       I    between atoms: C16_24  and  N2_26 
ROOT
HETATM    1  C5  UNL     1       0.496 -10.310   9.711  1.00  0.00     0.043 C 
HETATM    2  C6  UNL     1       0.437 -11.378   8.670  1.00  0.00     0.024 C 
HETATM    3  C7  UNL     1      -0.722 -11.129   7.724  1.00  0.00    -0.012 C 
HETATM    4  C8  UNL     1      -2.033 -11.055   8.441  1.00  0.00     0.009 C 
HETATM    5  C9  UNL     1      -1.940  -9.987   9.507  1.00  0.00    -0.012 C 
HETATM    6  C10 UNL     1      -0.814 -10.233  10.468  1.00  0.00     0.024 C 
HETATM    7  C11 UNL     1      -1.707  -8.676   8.823  1.00  0.00     0.024 C 
HETATM    8  C12 UNL     1      -0.365  -8.694   8.109  1.00  0.00     0.050 C 
HETATM    9  C21 UNL     1      -0.467  -9.796   7.056  1.00  0.00     0.024 C 
HETATM   10  C22 UNL     1       0.760  -8.969   9.054  1.00  0.00     0.039 C 
ENDROOT
BRANCH   8  11
HETATM   11  C13 UNL     1      -0.165  -7.427   7.354  1.00  0.00     0.267 C 
HETATM   12  O2  UNL     1       0.369  -6.452   7.930  1.00  0.00    -0.264 OA
BRANCH  11  13
HETATM   13  O3  UNL     1      -0.513  -7.221   6.066  1.00  0.00    -0.319 OA
BRANCH  13  14
HETATM   14  C14 UNL     1      -0.099  -6.188   5.274  1.00  0.00     0.205 C 
BRANCH  14  15
HETATM   15  C15 UNL     1       0.462  -6.453   3.949  1.00  0.00     0.207 C 
BRANCH  15  16
HETATM   16  O4  UNL     1       1.571  -7.242   3.833  1.00  0.00    -0.302 OA
BRANCH  16  17
HETATM   17  C16 UNL     1       1.614  -8.548   3.460  1.00  0.00     0.362 C 
HETATM   18  O5  UNL     1       0.597  -9.223   3.737  1.00  0.00    -0.238 OA
HETATM   19  N2  UNL     1       2.691  -9.180   2.805  1.00  0.00    -0.324 N 
HETATM   20  C17 UNL     1       2.623 -10.563   2.463  1.00  0.00     0.154 C 
HETATM   21  C20 UNL     1       3.860  -8.388   2.491  1.00  0.00     0.154 C 
HETATM   22  C18 UNL     1       3.302 -10.766   1.127  1.00  0.00     0.187 C 
HETATM   23  O6  UNL     1       4.618 -10.319   1.270  1.00  0.00    -0.388 OA
HETATM   24  C19 UNL     1       4.678  -8.950   1.370  1.00  0.00     0.187 C 
ENDBRANCH  16  17
ENDBRANCH  15  16
ENDBRANCH  14  15
ENDBRANCH  13  14
ENDBRANCH  11  13
ENDBRANCH   8  11
BRANCH   1  25
HETATM   25  C4  UNL     1       1.603 -10.559  10.655  1.00  0.00     0.226 C 
HETATM   26  N1  UNL     1       2.839  -9.825  10.538  1.00  0.00    -0.357 N 
ATOM     27  H1  UNL     1       2.950  -9.131   9.799  1.00  0.00     0.162 HD
HETATM   28  O1  UNL     1       1.467 -11.404  11.552  1.00  0.00    -0.273 OA
BRANCH  26  29
HETATM   29  C3  UNL     1       3.919 -10.071  11.461  1.00  0.00     0.164 C 
BRANCH  29  30
HETATM   30  C2  UNL     1       5.114 -10.549  10.700  1.00  0.00     0.125 C 
HETATM   31  C1  UNL     1       5.629  -9.513   9.726  1.00  0.00     0.052 C 
HETATM   32 CL1  UNL     1       6.417 -10.888  11.860  1.00  0.00    -0.100 Cl
HETATM   33 CL2  UNL     1       4.692 -12.063   9.857  1.00  0.00    -0.100 Cl
ENDBRANCH  29  30
ENDBRANCH  26  29
ENDBRANCH   1  25
TORSDOF 9
ENDMDL
MODEL 2
REMARK VINA RESULT: -7.011514991      0.980      1.091
REMARK  9 active torsions:
REMARK  status: ('A' for Active; 'I' for Inactive)
REMARK    1  A    between atoms: C2_2  and  C3_5 
REMARK    2  A    between atoms: C3_5  and  N1_6 
REMARK       I    between atoms: N1_6  and  C4_8 
REMARK    3  A    between atoms: C4_8  and  C5_10 
REMARK    4  A    between atoms: C12_17  and  C13_18 
REMARK    5  A    between atoms: C13_18  and  O3_20 
REMARK    6  A    between atoms: O3_20  and  C14_21 
REMARK    7  A    between atoms: C14_21  and  C15_22 
REMARK    8  A    between atoms: C15_22  and  O4_23 
REMARK    9  A    between atoms: O4_23  and  C16_24 
REMARK       I    between atoms: C16_24  and  N2_26 
ROOT
HETATM    1  C5  UNL     1       1.073 -10.762  10.321  1.00  0.00     0.043 C 
HETATM    2  C6  UNL     1       0.959 -11.942   9.416  1.00  0.00     0.024 C 
HETATM    3  C7  UNL     1      -0.307 -11.851   8.586  1.00  0.00    -0.012 C 
HETATM    4  C8  UNL     1      -1.535 -11.750   9.434  1.00  0.00     0.009 C 
HETATM    5  C9  UNL     1      -1.384 -10.564  10.360  1.00  0.00    -0.012 C 
HETATM    6  C10 UNL     1      -0.150 -10.653  11.209  1.00  0.00     0.024 C 
HETATM    7  C11 UNL     1      -1.297  -9.331   9.517  1.00  0.00     0.024 C 
HETATM    8  C12 UNL     1      -0.041  -9.375   8.661  1.00  0.00     0.050 C 
HETATM    9  C21 UNL     1      -0.197 -10.593   7.752  1.00  0.00     0.024 C 
HETATM   10  C22 UNL     1       1.192  -9.495   9.498  1.00  0.00     0.039 C 
ENDROOT
BRANCH   8  11
HETATM   11  C13 UNL     1       0.009  -8.195   7.755  1.00  0.00     0.267 C 
HETATM   12  O2  UNL     1       0.389  -7.093   8.211  1.00  0.00    -0.264 OA
BRANCH  11  13
HETATM   13  O3  UNL     1      -0.327  -8.198   6.448  1.00  0.00    -0.319 OA
BRANCH  13  14
HETATM   14  C14 UNL     1      -0.352  -7.113   5.619  1.00  0.00     0.205 C 
BRANCH  14  15
HETATM   15  C15 UNL     1       0.508  -7.068   4.436  1.00  0.00     0.207 C 
BRANCH  15  16
HETATM   16  O4  UNL     1       0.437  -8.073   3.513  1.00  0.00    -0.302 OA
BRANCH  16  17
HETATM   17  C16 UNL     1       1.241  -9.164   3.424  1.00  0.00     0.362 C 
HETATM   18  O5  UNL     1       0.879 -10.158   4.094  1.00  0.00    -0.238 OA
HETATM   19  N2  UNL     1       2.419  -9.257   2.655  1.00  0.00    -0.324 N 
HETATM   20  C17 UNL     1       3.185 -10.460   2.640  1.00  0.00     0.154 C 
HETATM   21  C20 UNL     1       2.825  -8.101   1.886  1.00  0.00     0.154 C 
HETATM   22  C18 UNL     1       3.731 -10.670   1.247  1.00  0.00     0.187 C 
HETATM   23  O6  UNL     1       4.503  -9.546   0.940  1.00  0.00    -0.388 OA
HETATM   24  C19 UNL     1       3.718  -8.437   0.732  1.00  0.00     0.187 C 
ENDBRANCH  16  17
ENDBRANCH  15  16
ENDBRANCH  14  15
ENDBRANCH  13  14
ENDBRANCH  11  13
ENDBRANCH   8  11
BRANCH   1  25
HETATM   25  C4  UNL     1       2.287 -10.856  11.156  1.00  0.00     0.226 C 
HETATM   26  N1  UNL     1       3.308  -9.841  11.073  1.00  0.00    -0.357 N 
ATOM     27  H1  UNL     1       3.192  -9.053  10.435  1.00  0.00     0.162 HD
HETATM   28  O1  UNL     1       2.427 -11.813  11.931  1.00  0.00    -0.273 OA
BRANCH  26  29
HETATM   29  C3  UNL     1       4.493  -9.936  11.889  1.00  0.00     0.164 C 
BRANCH  29  30
HETATM   30  C2  UNL     1       5.698  -9.938  11.003  1.00  0.00     0.125 C 
HETATM   31  C1  UNL     1       5.357  -9.617   9.565  1.00  0.00     0.052 C 
HETATM   32 CL1  UNL     1       6.819  -8.685  11.580  1.00  0.00    -0.100 Cl
HETATM   33 CL2  UNL     1       6.502 -11.525  11.130  1.00  0.00    -0.100 Cl
ENDBRANCH  29  30
ENDBRANCH  26  29
ENDBRANCH   1  25
TORSDOF 9
ENDMDL
MODEL 3
REMARK VINA RESULT: -6.975809370      3.431      6.681
REMARK  9 active torsions:
REMARK  status: ('A' for Active; 'I' for Inactive)
REMARK    1  A    between atoms: C2_2  and  C3_5 
REMARK    2  A    between atoms: C3_5  and  N1_6 
REMARK       I    between atoms: N1_6  and  C4_8 
REMARK    3  A    between atoms: C4_8  and  C5_10 
REMARK    4  A    between atoms: C12_17  and  C13_18 
REMARK    5  A    between atoms: C13_18  and  O3_20 
REMARK    6  A    between atoms: O3_20  and  C14_21 
REMARK    7  A    between atoms: C14_21  and  C15_22 
REMARK    8  A    between atoms: C15_22  and  O4_23 
REMARK    9  A    between atoms: O4_23  and  C16_24 
REMARK       I    between atoms: C16_24  and  N2_26 
ROOT
HETATM    1  C5  UNL     1       6.386 -11.430  11.968  1.00  0.00     0.043 C 
HETATM    2  C6  UNL     1       6.376  -9.938  11.960  1.00  0.00     0.024 C 
HETATM    3  C7  UNL     1       5.468  -9.423  10.860  1.00  0.00    -0.012 C 
HETATM    4  C8  UNL     1       5.868  -9.928   9.510  1.00  0.00     0.009 C 
HETATM    5  C9  UNL     1       5.898 -11.439   9.552  1.00  0.00    -0.012 C 
HETATM    6  C10 UNL     1       6.814 -11.966  10.617  1.00  0.00     0.024 C 
HETATM    7  C11 UNL     1       4.508 -11.918   9.836  1.00  0.00     0.024 C 
HETATM    8  C12 UNL     1       4.073 -11.455  11.217  1.00  0.00     0.050 C 
HETATM    9  C21 UNL     1       4.075  -9.929  11.166  1.00  0.00     0.024 C 
HETATM   10  C22 UNL     1       4.997 -11.950  12.282  1.00  0.00     0.039 C 
ENDROOT
BRANCH   8  11
HETATM   11  C13 UNL     1       2.660 -11.851  11.473  1.00  0.00     0.267 C 
HETATM   12  O2  UNL     1       2.419 -13.000  11.909  1.00  0.00    -0.264 OA
BRANCH  11  13
HETATM   13  O3  UNL     1       1.580 -11.066  11.275  1.00  0.00    -0.319 OA
BRANCH  13  14
HETATM   14  C14 UNL     1       0.620 -11.241  10.319  1.00  0.00     0.205 C 
BRANCH  14  15
HETATM   15  C15 UNL     1       0.779 -10.638   8.996  1.00  0.00     0.207 C 
BRANCH  15  16
HETATM   16  O4  UNL     1      -0.326 -10.234   8.303  1.00  0.00    -0.302 OA
BRANCH  16  17
HETATM   17  C16 UNL     1      -0.759  -8.960   8.119  1.00  0.00     0.362 C 
HETATM   18  O5  UNL     1      -1.271  -8.412   9.122  1.00  0.00    -0.238 OA
HETATM   19  N2  UNL     1      -0.679  -8.230   6.915  1.00  0.00    -0.324 N 
HETATM   20  C17 UNL     1      -1.170  -6.893   6.841  1.00  0.00     0.154 C 
HETATM   21  C20 UNL     1      -0.086  -8.874   5.764  1.00  0.00     0.154 C 
HETATM   22  C18 UNL     1      -0.252  -6.088   5.950  1.00  0.00     0.187 C 
HETATM   23  O6  UNL     1      -0.242  -6.718   4.703  1.00  0.00    -0.388 OA
HETATM   24  C19 UNL     1       0.442  -7.910   4.747  1.00  0.00     0.187 C 
ENDBRANCH  16  17
ENDBRANCH  15  16
ENDBRANCH  14  15
ENDBRANCH  13  14
ENDBRANCH  11  13
ENDBRANCH   8  11
BRANCH   1  25
HETATM   25  C4  UNL     1       7.292 -11.943  13.016  1.00  0.00     0.226 C 
HETATM   26  N1  UNL     1       7.921 -11.033  13.942  1.00  0.00    -0.357 N 
ATOM     27  H1  UNL     1       7.740 -10.032  13.874  1.00  0.00     0.162 HD
HETATM   28  O1  UNL     1       7.511 -13.160  13.097  1.00  0.00    -0.273 OA
BRANCH  26  29
HETATM   29  C3  UNL     1       8.806 -11.536  14.963  1.00  0.00     0.164 C 
BRANCH  29  30
HETATM   30  C2  UNL     1       9.859 -10.513  15.245  1.00  0.00     0.125 C 
HETATM   31  C1  UNL     1       9.971 -10.192  16.719  1.00  0.00     0.052 C 
HETATM   32 CL1  UNL     1      11.426 -11.162  14.717  1.00  0.00    -0.100 Cl
HETATM   33 CL2  UNL     1       9.502  -9.044  14.298  1.00  0.00    -0.100 Cl
ENDBRANCH  29  30
ENDBRANCH  26  29
ENDBRANCH   1  25
TORSDOF 9
ENDMDL
MODEL 4
REMARK VINA RESULT: -6.874014912      4.113      6.133
REMARK  9 active torsions:
REMARK  status: ('A' for Active; 'I' for Inactive)
REMARK    1  A    between atoms: C2_2  and  C3_5 
REMARK    2  A    between atoms: C3_5  and  N1_6 
REMARK       I    between atoms: N1_6  and  C4_8 
REMARK    3  A    between atoms: C4_8  and  C5_10 
REMARK    4  A    between atoms: C12_17  and  C13_18 
REMARK    5  A    between atoms: C13_18  and  O3_20 
REMARK    6  A    between atoms: O3_20  and  C14_21 
REMARK    7  A    between atoms: C14_21  and  C15_22 
REMARK    8  A    between atoms: C15_22  and  O4_23 
REMARK    9  A    between atoms: O4_23  and  C16_24 
REMARK       I    between atoms: C16_24  and  N2_26 
ROOT
HETATM    1  C5  UNL     1      -2.543 -11.162   8.048  1.00  0.00     0.043 C 
HETATM    2  C6  UNL     1      -3.275 -10.942   9.330  1.00  0.00     0.024 C 
HETATM    3  C7  UNL     1      -2.301 -10.882  10.490  1.00  0.00    -0.012 C 
HETATM    4  C8  UNL     1      -1.468 -12.120  10.597  1.00  0.00     0.009 C 
HETATM    5  C9  UNL     1      -0.759 -12.337   9.279  1.00  0.00    -0.012 C 
HETATM    6  C10 UNL     1      -1.711 -12.426   8.123  1.00  0.00     0.024 C 
HETATM    7  C11 UNL     1       0.158 -11.176   9.055  1.00  0.00     0.024 C 
HETATM    8  C12 UNL     1      -0.651  -9.897   8.906  1.00  0.00     0.050 C 
HETATM    9  C21 UNL     1      -1.382  -9.708  10.234  1.00  0.00     0.024 C 
HETATM   10  C22 UNL     1      -1.624  -9.988   7.775  1.00  0.00     0.039 C 
ENDROOT
BRANCH   8  11
HETATM   11  C13 UNL     1       0.257  -8.724   8.771  1.00  0.00     0.267 C 
HETATM   12  O2  UNL     1       0.867  -8.307   9.782  1.00  0.00    -0.264 OA
BRANCH  11  13
HETATM   13  O3  UNL     1       0.494  -8.046   7.628  1.00  0.00    -0.319 OA
BRANCH  13  14
HETATM   14  C14 UNL     1      -0.035  -6.835   7.285  1.00  0.00     0.205 C 
BRANCH  14  15
HETATM   15  C15 UNL     1      -0.625  -6.636   5.961  1.00  0.00     0.207 C 
BRANCH  15  16
HETATM   16  O4  UNL     1      -0.236  -7.434   4.923  1.00  0.00    -0.302 OA
BRANCH  16  17
HETATM   17  C16 UNL     1       0.812  -7.234   4.081  1.00  0.00     0.362 C 
HETATM   18  O5  UNL     1       1.220  -6.053   3.999  1.00  0.00    -0.238 OA
HETATM   19  N2  UNL     1       1.453  -8.229   3.315  1.00  0.00    -0.324 N 
HETATM   20  C17 UNL     1       2.547  -7.898   2.462  1.00  0.00     0.154 C 
HETATM   21  C20 UNL     1       0.971  -9.589   3.420  1.00  0.00     0.154 C 
HETATM   22  C18 UNL     1       3.553  -9.025   2.504  1.00  0.00     0.187 C 
HETATM   23  O6  UNL     1       2.886 -10.180   2.086  1.00  0.00    -0.388 OA
HETATM   24  C19 UNL     1       1.990 -10.615   3.034  1.00  0.00     0.187 C 
ENDBRANCH  16  17
ENDBRANCH  15  16
ENDBRANCH  14  15
ENDBRANCH  13  14
ENDBRANCH  11  13
ENDBRANCH   8  11
BRANCH   1  25
HETATM   25  C4  UNL     1      -3.484 -11.253   6.915  1.00  0.00     0.226 C 
HETATM   26  N1  UNL     1      -4.483 -12.293   6.880  1.00  0.00    -0.357 N 
ATOM     27  H1  UNL     1      -4.540 -12.969   7.642  1.00  0.00     0.162 HD
HETATM   28  O1  UNL     1      -3.414 -10.431   5.990  1.00  0.00    -0.273 OA
BRANCH  26  29
HETATM   29  C3  UNL     1      -5.401 -12.380   5.772  1.00  0.00     0.164 C 
BRANCH  29  30
HETATM   30  C2  UNL     1      -6.777 -12.039   6.248  1.00  0.00     0.125 C 
HETATM   31  C1  UNL     1      -7.092 -10.568   6.095  1.00  0.00     0.052 C 
HETATM   32 CL1  UNL     1      -7.949 -12.944   5.266  1.00  0.00    -0.100 Cl
HETATM   33 CL2  UNL     1      -6.940 -12.554   7.948  1.00  0.00    -0.100 Cl
ENDBRANCH  29  30
ENDBRANCH  26  29
ENDBRANCH   1  25
TORSDOF 9
ENDMDL
MODEL 5
REMARK VINA RESULT: -6.871985277      4.193      6.118
REMARK  9 active torsions:
REMARK  status: ('A' for Active; 'I' for Inactive)
REMARK    1  A    between atoms: C2_2  and  C3_5 
REMARK    2  A    between atoms: C3_5  and  N1_6 
REMARK       I    between atoms: N1_6  and  C4_8 
REMARK    3  A    between atoms: C4_8  and  C5_10 
REMARK    4  A    between atoms: C12_17  and  C13_18 
REMARK    5  A    between atoms: C13_18  and  O3_20 
REMARK    6  A    between atoms: O3_20  and  C14_21 
REMARK    7  A    between atoms: C14_21  and  C15_22 
REMARK    8  A    between atoms: C15_22  and  O4_23 
REMARK    9  A    between atoms: O4_23  and  C16_24 
REMARK       I    between atoms: C16_24  and  N2_26 
ROOT
HETATM    1  C5  UNL     1      -2.884 -11.130   7.621  1.00  0.00     0.043 C 
HETATM    2  C6  UNL     1      -3.446 -11.014   8.999  1.00  0.00     0.024 C 
HETATM    3  C7  UNL     1      -2.347 -10.696   9.993  1.00  0.00    -0.012 C 
HETATM    4  C8  UNL     1      -1.258 -11.722   9.983  1.00  0.00     0.009 C 
HETATM    5  C9  UNL     1      -0.724 -11.842   8.573  1.00  0.00    -0.012 C 
HETATM    6  C10 UNL     1      -1.795 -12.183   7.580  1.00  0.00     0.024 C 
HETATM    7  C11 UNL     1      -0.125 -10.523   8.197  1.00  0.00     0.024 C 
HETATM    8  C12 UNL     1      -1.205  -9.454   8.161  1.00  0.00     0.050 C 
HETATM    9  C21 UNL     1      -1.753  -9.366   9.583  1.00  0.00     0.024 C 
HETATM   10  C22 UNL     1      -2.293  -9.801   7.196  1.00  0.00     0.039 C 
ENDROOT
BRANCH   8  11
HETATM   11  C13 UNL     1      -0.605  -8.122   7.873  1.00  0.00     0.267 C 
HETATM   12  O2  UNL     1       0.518  -7.844   8.354  1.00  0.00    -0.264 OA
BRANCH  11  13
HETATM   13  O3  UNL     1      -1.170  -7.155   7.121  1.00  0.00    -0.319 OA
BRANCH  13  14
HETATM   14  C14 UNL     1      -0.508  -6.209   6.391  1.00  0.00     0.205 C 
BRANCH  14  15
HETATM   15  C15 UNL     1      -0.188  -6.453   4.985  1.00  0.00     0.207 C 
BRANCH  15  16
HETATM   16  O4  UNL     1       0.894  -7.222   4.663  1.00  0.00    -0.302 OA
BRANCH  16  17
HETATM   17  C16 UNL     1       0.884  -8.485   4.163  1.00  0.00     0.362 C 
HETATM   18  O5  UNL     1       0.025  -9.253   4.652  1.00  0.00    -0.238 OA
HETATM   19  N2  UNL     1       1.748  -8.981   3.164  1.00  0.00    -0.324 N 
HETATM   20  C17 UNL     1       1.644 -10.331   2.718  1.00  0.00     0.154 C 
HETATM   21  C20 UNL     1       2.736  -8.083   2.609  1.00  0.00     0.154 C 
HETATM   22  C18 UNL     1       1.908 -10.372   1.231  1.00  0.00     0.187 C 
HETATM   23  O6  UNL     1       3.187  -9.845   1.032  1.00  0.00    -0.388 OA
HETATM   24  C19 UNL     1       3.212  -8.488   1.249  1.00  0.00     0.187 C 
ENDBRANCH  16  17
ENDBRANCH  15  16
ENDBRANCH  14  15
ENDBRANCH  13  14
ENDBRANCH  11  13
ENDBRANCH   8  11
BRANCH   1  25
HETATM   25  C4  UNL     1      -3.941 -11.469   6.649  1.00  0.00     0.226 C 
HETATM   26  N1  UNL     1      -4.797 -12.609   6.873  1.00  0.00    -0.357 N 
ATOM     27  H1  UNL     1      -4.671 -13.183   7.707  1.00  0.00     0.162 HD
HETATM   28  O1  UNL     1      -4.093 -10.771   5.637  1.00  0.00    -0.273 OA
BRANCH  26  29
HETATM   29  C3  UNL     1      -5.828 -12.939   5.922  1.00  0.00     0.164 C 
BRANCH  29  30
HETATM   30  C2  UNL     1      -7.159 -12.576   6.498  1.00  0.00     0.125 C 
HETATM   31  C1  UNL     1      -8.267 -13.479   6.003  1.00  0.00     0.052 C 
HETATM   32 CL1  UNL     1      -7.071 -12.755   8.264  1.00  0.00    -0.100 Cl
HETATM   33 CL2  UNL     1      -7.507 -10.870   6.114  1.00  0.00    -0.100 Cl
ENDBRANCH  29  30
ENDBRANCH  26  29
ENDBRANCH   1  25
TORSDOF 9
ENDMDL
