MODEL 1
REMARK VINA RESULT: -6.647547478      0.000      0.000
REMARK  8 active torsions:
REMARK  status: ('A' for Active; 'I' for Inactive)
REMARK    1  A    between atoms: C2_2  and  N1_3 
REMARK    2  A    between atoms: N1_3  and  C3_4 
REMARK    3  A    between atoms: N1_3  and  C5_9 
REMARK    4  A    between atoms: C3_4  and  O1_5 
REMARK    5  A    between atoms: C10_14  and  N2_15 
REMARK    6  A    between atoms: N2_15  and  C11_17 
REMARK    7  A    between atoms: C12_22  and  O2_23 
REMARK    8  A    between atoms: N5_26  and  C14_28 
ROOT
HETATM    1  C11 UNL     1      -1.433  -8.354   7.256  1.00  0.00     0.695 A 
HETATM    2  N3  UNL     1      -1.440  -7.004   7.428  1.00  0.00    -0.130 N 
ATOM      3  H3  UNL     1      -1.941  -6.598   8.218  1.00  0.00     0.205 HD
HETATM    4  N4  UNL     1      -0.809  -6.221   6.584  1.00  0.00    -0.262 N 
ATOM      5  H4  UNL     1      -0.819  -5.210   6.722  1.00  0.00     0.189 HD
HETATM    6  C12 UNL     1      -0.139  -6.756   5.526  1.00  0.00     0.215 A 
HETATM    7  C13 UNL     1      -0.089  -8.101   5.295  1.00  0.00     0.172 A 
HETATM    8  N5  UNL     1       0.510  -8.681   4.402  1.00  0.00    -0.346 N 
ATOM      9  H5  UNL     1       0.321  -9.674   4.537  1.00  0.00     0.163 HD
HETATM   10  N6  UNL     1      -0.774  -8.872   6.217  1.00  0.00    -0.171 N 
ATOM     11  H6  UNL     1      -0.776  -9.885   6.098  1.00  0.00     0.186 HD
ENDROOT
BRANCH   1  12
HETATM   12  N2  UNL     1      -2.075  -9.031   8.132  1.00  0.00    -0.215 N 
ATOM     13  H2  UNL     1      -3.085  -8.891   8.148  1.00  0.00     0.178 HD
BRANCH  12  14
HETATM   14  C10 UNL     1      -1.566  -9.954   9.088  1.00  0.00     0.145 C 
HETATM   15  C5  UNL     1      -1.895 -11.348   8.761  1.00  0.00     0.014 C 
HETATM   16  C6  UNL     1      -1.666 -12.340   9.851  1.00  0.00     0.055 C 
HETATM   17  C7  UNL     1      -1.954 -11.935  11.240  1.00  0.00     0.006 C 
HETATM   18  C8  UNL     1      -1.542 -10.542  11.518  1.00  0.00     0.003 C 
HETATM   19  C9  UNL     1      -1.917  -9.519  10.480  1.00  0.00     0.032 C 
BRANCH  15  20
HETATM   20  N1  UNL     1      -3.166 -11.586   8.032  1.00  0.00    -0.333 N 
BRANCH  20  21
HETATM   21  C2  UNL     1      -4.422 -11.584   8.741  1.00  0.00     0.126 C 
HETATM   22  C1  UNL     1      -5.077 -12.931   8.773  1.00  0.00     0.027 C 
ENDBRANCH  20  21
BRANCH  20  23
HETATM   23  C3  UNL     1      -3.153 -11.905   6.663  1.00  0.00     0.153 C 
HETATM   24  C4  UNL     1      -2.896 -13.110   5.920  1.00  0.00     0.140 C 
HETATM   25 CL1  UNL     1      -2.482 -14.587   6.750  1.00  0.00    -0.092 Cl
BRANCH  23  26
HETATM   26  O1  UNL     1      -3.443 -10.853   5.910  1.00  0.00    -0.345 OA
ATOM     27  H1  UNL     1      -4.354 -10.852   5.642  1.00  0.00     0.219 HD
ENDBRANCH  23  26
ENDBRANCH  20  23
ENDBRANCH  15  20
ENDBRANCH  12  14
ENDBRANCH   1  12
BRANCH   6  28
HETATM   28  O2  UNL     1       0.485  -5.844   4.707  1.00  0.00    -0.247 OA
HETATM   29 BR1  UNL     1       0.118  -4.005   4.779  1.00  0.00     0.107 Br
ENDBRANCH   6  28
BRANCH   8  30
HETATM   30  C14 UNL     1       1.319  -8.601   3.303  1.00  0.00     0.222 C 
HETATM   31  C15 UNL     1       2.212  -9.864   3.258  1.00  0.00     0.054 C 
HETATM   32  C16 UNL     1       3.226  -9.735   2.142  1.00  0.00     0.006 C 
HETATM   33  C17 UNL     1       2.610  -8.914   1.030  1.00  0.00     0.026 C 
HETATM   34  C18 UNL     1       1.125  -9.191   1.059  1.00  0.00     0.170 C 
HETATM   35  O3  UNL     1       0.510  -8.612   2.135  1.00  0.00    -0.367 OA
ENDBRANCH   8  30
TORSDOF 8
ENDMDL
MODEL 2
REMARK VINA RESULT: -6.585831897      1.056      1.141
REMARK  8 active torsions:
REMARK  status: ('A' for Active; 'I' for Inactive)
REMARK    1  A    between atoms: C2_2  and  N1_3 
REMARK    2  A    between atoms: N1_3  and  C3_4 
REMARK    3  A    between atoms: N1_3  and  C5_9 
REMARK    4  A    between atoms: C3_4  and  O1_5 
REMARK    5  A    between atoms: C10_14  and  N2_15 
REMARK    6  A    between atoms: N2_15  and  C11_17 
REMARK    7  A    between atoms: C12_22  and  O2_23 
REMARK    8  A    between atoms: N5_26  and  C14_28 
ROOT
HETATM    1  C11 UNL     1      -1.386  -8.485   6.784  1.00  0.00     0.695 A 
HETATM    2  N3  UNL     1      -1.545  -7.161   7.055  1.00  0.00    -0.130 N 
ATOM      3  H3  UNL     1      -2.102  -6.873   7.861  1.00  0.00     0.205 HD
HETATM    4  N4  UNL     1      -0.988  -6.252   6.289  1.00  0.00    -0.262 N 
ATOM      5  H4  UNL     1      -1.113  -5.262   6.501  1.00  0.00     0.189 HD
HETATM    6  C12 UNL     1      -0.245  -6.629   5.212  1.00  0.00     0.215 A 
HETATM    7  C13 UNL     1      -0.043  -7.939   4.883  1.00  0.00     0.172 A 
HETATM    8  N5  UNL     1       0.633  -8.380   3.966  1.00  0.00    -0.346 N 
ATOM      9  H5  UNL     1       0.552  -9.395   4.023  1.00  0.00     0.163 HD
HETATM   10  N6  UNL     1      -0.655  -8.848   5.728  1.00  0.00    -0.171 N 
ATOM     11  H6  UNL     1      -0.543  -9.843   5.534  1.00  0.00     0.186 HD
ENDROOT
BRANCH   1  12
HETATM   12  N2  UNL     1      -1.965  -9.293   7.591  1.00  0.00    -0.215 N 
ATOM     13  H2  UNL     1      -2.906  -9.585   7.326  1.00  0.00     0.178 HD
BRANCH  12  14
HETATM   14  C10 UNL     1      -1.470  -9.837   8.809  1.00  0.00     0.145 C 
HETATM   15  C5  UNL     1      -1.101 -11.254   8.687  1.00  0.00     0.014 C 
HETATM   16  C6  UNL     1      -0.864 -11.973   9.972  1.00  0.00     0.055 C 
HETATM   17  C7  UNL     1      -1.718 -11.643  11.130  1.00  0.00     0.006 C 
HETATM   18  C8  UNL     1      -1.999 -10.194  11.226  1.00  0.00     0.003 C 
HETATM   19  C9  UNL     1      -2.392  -9.507   9.946  1.00  0.00     0.032 C 
BRANCH  15  20
HETATM   20  N1  UNL     1      -1.868 -12.068   7.712  1.00  0.00    -0.333 N 
BRANCH  20  21
HETATM   21  C2  UNL     1      -3.255 -12.380   7.957  1.00  0.00     0.126 C 
HETATM   22  C1  UNL     1      -4.151 -11.998   6.818  1.00  0.00     0.027 C 
ENDBRANCH  20  21
BRANCH  20  23
HETATM   23  C3  UNL     1      -1.231 -12.618   6.587  1.00  0.00     0.153 C 
HETATM   24  C4  UNL     1      -0.975 -13.962   6.140  1.00  0.00     0.140 C 
HETATM   25 CL1  UNL     1      -1.493 -15.324   7.100  1.00  0.00    -0.092 Cl
BRANCH  23  26
HETATM   26  O1  UNL     1      -0.774 -11.679   5.771  1.00  0.00    -0.345 OA
ATOM     27  H1  UNL     1      -1.000 -11.857   4.866  1.00  0.00     0.219 HD
ENDBRANCH  23  26
ENDBRANCH  20  23
ENDBRANCH  15  20
ENDBRANCH  12  14
ENDBRANCH   1  12
BRANCH   6  28
HETATM   28  O2  UNL     1       0.289  -5.594   4.480  1.00  0.00    -0.247 OA
HETATM   29 BR1  UNL     1       0.042  -3.793   4.945  1.00  0.00     0.107 Br
ENDBRANCH   6  28
BRANCH   8  30
HETATM   30  C14 UNL     1       1.448  -8.129   2.898  1.00  0.00     0.222 C 
HETATM   31  C15 UNL     1       2.767  -8.914   3.092  1.00  0.00     0.054 C 
HETATM   32  C16 UNL     1       3.751  -8.539   2.006  1.00  0.00     0.006 C 
HETATM   33  C17 UNL     1       2.973  -8.198   0.753  1.00  0.00     0.026 C 
HETATM   34  C18 UNL     1       1.724  -9.047   0.776  1.00  0.00     0.170 C 
HETATM   35  O3  UNL     1       0.828  -8.626   1.720  1.00  0.00    -0.367 OA
ENDBRANCH   8  30
TORSDOF 8
ENDMDL
MODEL 3
REMARK VINA RESULT: -6.509338560      1.007      1.607
REMARK  8 active torsions:
REMARK  status: ('A' for Active; 'I' for Inactive)
REMARK    1  A    between atoms: C2_2  and  N1_3 
REMARK    2  A    between atoms: N1_3  and  C3_4 
REMARK    3  A    between atoms: N1_3  and  C5_9 
REMARK    4  A    between atoms: C3_4  and  O1_5 
REMARK    5  A    between atoms: C10_14  and  N2_15 
REMARK    6  A    between atoms: N2_15  and  C11_17 
REMARK    7  A    between atoms: C12_22  and  O2_23 
REMARK    8  A    between atoms: N5_26  and  C14_28 
ROOT
HETATM    1  C11 UNL     1      -1.485  -8.639   6.745  1.00  0.00     0.695 A 
HETATM    2  N3  UNL     1      -1.593  -7.314   7.036  1.00  0.00    -0.130 N 
ATOM      3  H3  UNL     1      -2.147  -7.016   7.839  1.00  0.00     0.205 HD
HETATM    4  N4  UNL     1      -0.988  -6.417   6.292  1.00  0.00    -0.262 N 
ATOM      5  H4  UNL     1      -1.074  -5.426   6.519  1.00  0.00     0.189 HD
HETATM    6  C12 UNL     1      -0.248  -6.807   5.219  1.00  0.00     0.215 A 
HETATM    7  C13 UNL     1      -0.096  -8.119   4.870  1.00  0.00     0.172 A 
HETATM    8  N5  UNL     1       0.572  -8.573   3.954  1.00  0.00    -0.346 N 
ATOM      9  H5  UNL     1       0.448  -9.584   3.993  1.00  0.00     0.163 HD
HETATM   10  N6  UNL     1      -0.757  -9.015   5.692  1.00  0.00    -0.171 N 
ATOM     11  H6  UNL     1      -0.684 -10.010   5.482  1.00  0.00     0.186 HD
ENDROOT
BRANCH   1  12
HETATM   12  N2  UNL     1      -2.109  -9.435   7.531  1.00  0.00    -0.215 N 
ATOM     13  H2  UNL     1      -3.079  -9.630   7.285  1.00  0.00     0.178 HD
BRANCH  12  14
HETATM   14  C10 UNL     1      -1.626 -10.083   8.702  1.00  0.00     0.145 C 
HETATM   15  C5  UNL     1      -1.742 -11.546   8.628  1.00  0.00     0.014 C 
HETATM   16  C6  UNL     1      -1.545 -12.276   9.913  1.00  0.00     0.055 C 
HETATM   17  C7  UNL     1      -2.062 -11.666  11.154  1.00  0.00     0.006 C 
HETATM   18  C8  UNL     1      -1.858 -10.202  11.189  1.00  0.00     0.003 C 
HETATM   19  C9  UNL     1      -2.209  -9.452   9.931  1.00  0.00     0.032 C 
BRANCH  15  20
HETATM   20  N1  UNL     1      -2.867 -12.092   7.829  1.00  0.00    -0.333 N 
BRANCH  20  21
HETATM   21  C2  UNL     1      -2.620 -12.679   6.534  1.00  0.00     0.126 C 
HETATM   22  C1  UNL     1      -1.162 -12.759   6.197  1.00  0.00     0.027 C 
ENDBRANCH  20  21
BRANCH  20  23
HETATM   23  C3  UNL     1      -4.191 -11.962   8.281  1.00  0.00     0.153 C 
HETATM   24  C4  UNL     1      -5.051 -12.771   9.103  1.00  0.00     0.140 C 
HETATM   25 CL1  UNL     1      -4.481 -14.287   9.751  1.00  0.00    -0.092 Cl
BRANCH  23  26
HETATM   26  O1  UNL     1      -4.753 -10.843   7.844  1.00  0.00    -0.345 OA
ATOM     27  H1  UNL     1      -5.699 -10.914   7.807  1.00  0.00     0.219 HD
ENDBRANCH  23  26
ENDBRANCH  20  23
ENDBRANCH  15  20
ENDBRANCH  12  14
ENDBRANCH   1  12
BRANCH   6  28
HETATM   28  O2  UNL     1       0.339  -5.784   4.510  1.00  0.00    -0.247 OA
HETATM   29 BR1  UNL     1       0.040  -3.975   4.912  1.00  0.00     0.107 Br
ENDBRANCH   6  28
BRANCH   8  30
HETATM   30  C14 UNL     1       1.411  -8.339   2.900  1.00  0.00     0.222 C 
HETATM   31  C15 UNL     1       2.655  -9.246   3.053  1.00  0.00     0.054 C 
HETATM   32  C16 UNL     1       3.673  -8.902   1.987  1.00  0.00     0.006 C 
HETATM   33  C17 UNL     1       2.933  -8.430   0.755  1.00  0.00     0.026 C 
HETATM   34  C18 UNL     1       1.615  -9.166   0.733  1.00  0.00     0.170 C 
HETATM   35  O3  UNL     1       0.755  -8.718   1.698  1.00  0.00    -0.367 OA
ENDBRANCH   8  30
TORSDOF 8
ENDMDL
MODEL 4
REMARK VINA RESULT: -6.433693255      1.613      2.143
REMARK  8 active torsions:
REMARK  status: ('A' for Active; 'I' for Inactive)
REMARK    1  A    between atoms: C2_2  and  N1_3 
REMARK    2  A    between atoms: N1_3  and  C3_4 
REMARK    3  A    between atoms: N1_3  and  C5_9 
REMARK    4  A    between atoms: C3_4  and  O1_5 
REMARK    5  A    between atoms: C10_14  and  N2_15 
REMARK    6  A    between atoms: N2_15  and  C11_17 
REMARK    7  A    between atoms: C12_22  and  O2_23 
REMARK    8  A    between atoms: N5_26  and  C14_28 
ROOT
HETATM    1  C11 UNL     1      -0.833  -9.159   6.597  1.00  0.00     0.695 A 
HETATM    2  N3  UNL     1      -1.342  -7.913   6.794  1.00  0.00    -0.130 N 
ATOM      3  H3  UNL     1      -1.959  -7.737   7.587  1.00  0.00     0.205 HD
HETATM    4  N4  UNL     1      -1.044  -6.934   5.970  1.00  0.00    -0.262 N 
ATOM      5  H4  UNL     1      -1.429  -6.003   6.126  1.00  0.00     0.189 HD
HETATM    6  C12 UNL     1      -0.222  -7.162   4.909  1.00  0.00     0.215 A 
HETATM    7  C13 UNL     1       0.324  -8.387   4.654  1.00  0.00     0.172 A 
HETATM    8  N5  UNL     1       1.097  -8.685   3.756  1.00  0.00    -0.346 N 
ATOM      9  H5  UNL     1       1.290  -9.680   3.872  1.00  0.00     0.163 HD
HETATM   10  N6  UNL     1      -0.027  -9.376   5.556  1.00  0.00    -0.171 N 
ATOM     11  H6  UNL     1       0.347 -10.314   5.418  1.00  0.00     0.186 HD
ENDROOT
BRANCH   1  12
HETATM   12  N2  UNL     1      -1.180 -10.045   7.456  1.00  0.00    -0.215 N 
ATOM     13  H2  UNL     1      -2.184 -10.165   7.587  1.00  0.00     0.178 HD
BRANCH  12  14
HETATM   14  C10 UNL     1      -0.349 -10.882   8.251  1.00  0.00     0.145 C 
HETATM   15  C5  UNL     1      -1.118 -11.773   9.130  1.00  0.00     0.014 C 
HETATM   16  C6  UNL     1      -0.337 -12.458  10.200  1.00  0.00     0.055 C 
HETATM   17  C7  UNL     1       0.755 -11.714  10.858  1.00  0.00     0.006 C 
HETATM   18  C8  UNL     1       1.526 -10.886   9.906  1.00  0.00     0.003 C 
HETATM   19  C9  UNL     1       0.719 -10.074   8.927  1.00  0.00     0.032 C 
BRANCH  15  20
HETATM   20  N1  UNL     1      -2.430 -11.274   9.612  1.00  0.00    -0.333 N 
BRANCH  20  21
HETATM   21  C2  UNL     1      -2.500 -10.421  10.773  1.00  0.00     0.126 C 
HETATM   22  C1  UNL     1      -2.628  -8.969  10.424  1.00  0.00     0.027 C 
ENDBRANCH  20  21
BRANCH  20  23
HETATM   23  C3  UNL     1      -3.621 -11.700   9.001  1.00  0.00     0.153 C 
HETATM   24  C4  UNL     1      -4.532 -12.789   9.236  1.00  0.00     0.140 C 
HETATM   25 CL1  UNL     1      -4.226 -13.934  10.516  1.00  0.00    -0.092 Cl
BRANCH  23  26
HETATM   26  O1  UNL     1      -3.965 -10.913   7.991  1.00  0.00    -0.345 OA
ATOM     27  H1  UNL     1      -3.934  -9.995   8.233  1.00  0.00     0.219 HD
ENDBRANCH  23  26
ENDBRANCH  20  23
ENDBRANCH  15  20
ENDBRANCH  12  14
ENDBRANCH   1  12
BRANCH   6  28
HETATM   28  O2  UNL     1       0.020  -6.067   4.112  1.00  0.00    -0.247 OA
HETATM   29 BR1  UNL     1       0.024  -4.312   4.779  1.00  0.00     0.107 Br
ENDBRANCH   6  28
BRANCH   8  30
HETATM   30  C14 UNL     1       1.821  -8.288   2.666  1.00  0.00     0.222 C 
HETATM   31  C15 UNL     1       3.242  -8.889   2.776  1.00  0.00     0.054 C 
HETATM   32  C16 UNL     1       4.115  -8.346   1.666  1.00  0.00     0.006 C 
HETATM   33  C17 UNL     1       3.242  -8.074   0.460  1.00  0.00     0.026 C 
HETATM   34  C18 UNL     1       2.123  -9.088   0.500  1.00  0.00     0.170 C 
HETATM   35  O3  UNL     1       1.222  -8.827   1.496  1.00  0.00    -0.367 OA
ENDBRANCH   8  30
TORSDOF 8
ENDMDL
MODEL 5
REMARK VINA RESULT: -6.395069226      1.801      3.048
REMARK  8 active torsions:
REMARK  status: ('A' for Active; 'I' for Inactive)
REMARK    1  A    between atoms: C2_2  and  N1_3 
REMARK    2  A    between atoms: N1_3  and  C3_4 
REMARK    3  A    between atoms: N1_3  and  C5_9 
REMARK    4  A    between atoms: C3_4  and  O1_5 
REMARK    5  A    between atoms: C10_14  and  N2_15 
REMARK    6  A    between atoms: N2_15  and  C11_17 
REMARK    7  A    between atoms: C12_22  and  O2_23 
REMARK    8  A    between atoms: N5_26  and  C14_28 
ROOT
HETATM    1  C11 UNL     1      -1.165  -9.678   6.536  1.00  0.00     0.695 A 
HETATM    2  N3  UNL     1      -1.563  -8.432   6.909  1.00  0.00    -0.130 N 
ATOM      3  H3  UNL     1      -2.199  -8.320   7.699  1.00  0.00     0.205 HD
HETATM    4  N4  UNL     1      -1.134  -7.373   6.261  1.00  0.00    -0.262 N 
ATOM      5  H4  UNL     1      -1.437  -6.443   6.549  1.00  0.00     0.189 HD
HETATM    6  C12 UNL     1      -0.286  -7.516   5.206  1.00  0.00     0.215 A 
HETATM    7  C13 UNL     1       0.154  -8.736   4.779  1.00  0.00     0.172 A 
HETATM    8  N5  UNL     1       0.939  -8.969   3.872  1.00  0.00    -0.346 N 
ATOM      9  H5  UNL     1       1.031  -9.984   3.836  1.00  0.00     0.163 HD
HETATM   10  N6  UNL     1      -0.333  -9.812   5.501  1.00  0.00    -0.171 N 
ATOM     11  H6  UNL     1      -0.042 -10.751   5.229  1.00  0.00     0.186 HD
ENDROOT
BRANCH   1  12
HETATM   12  N2  UNL     1      -1.635 -10.646   7.232  1.00  0.00    -0.215 N 
ATOM     13  H2  UNL     1      -1.013 -11.017   7.950  1.00  0.00     0.178 HD
BRANCH  12  14
HETATM   14  C10 UNL     1      -2.909 -11.271   7.134  1.00  0.00     0.145 C 
HETATM   15  C5  UNL     1      -3.685 -11.173   8.378  1.00  0.00     0.014 C 
HETATM   16  C6  UNL     1      -4.887 -12.050   8.461  1.00  0.00     0.055 C 
HETATM   17  C7  UNL     1      -4.814 -13.401   7.871  1.00  0.00     0.006 C 
HETATM   18  C8  UNL     1      -4.073 -13.416   6.591  1.00  0.00     0.003 C 
HETATM   19  C9  UNL     1      -2.776 -12.652   6.565  1.00  0.00     0.032 C 
BRANCH  15  20
HETATM   20  N1  UNL     1      -2.917 -11.135   9.648  1.00  0.00    -0.333 N 
BRANCH  20  21
HETATM   21  C2  UNL     1      -2.713 -12.343  10.409  1.00  0.00     0.126 C 
HETATM   22  C1  UNL     1      -1.580 -13.176   9.892  1.00  0.00     0.027 C 
ENDBRANCH  20  21
BRANCH  20  23
HETATM   23  C3  UNL     1      -2.461  -9.912  10.168  1.00  0.00     0.153 C 
HETATM   24  C4  UNL     1      -1.161  -9.387  10.494  1.00  0.00     0.140 C 
HETATM   25 CL1  UNL     1       0.267 -10.363  10.265  1.00  0.00    -0.092 Cl
BRANCH  23  26
HETATM   26  O1  UNL     1      -3.460  -9.073  10.402  1.00  0.00    -0.345 OA
ATOM     27  H1  UNL     1      -3.957  -9.323  11.171  1.00  0.00     0.219 HD
ENDBRANCH  23  26
ENDBRANCH  20  23
ENDBRANCH  15  20
ENDBRANCH  12  14
ENDBRANCH   1  12
BRANCH   6  28
HETATM   28  O2  UNL     1       0.096  -6.341   4.601  1.00  0.00    -0.247 OA
HETATM   29 BR1  UNL     1      -0.304  -4.656   5.322  1.00  0.00     0.107 Br
ENDBRANCH   6  28
BRANCH   8  30
HETATM   30  C14 UNL     1       1.749  -8.484   2.884  1.00  0.00     0.222 C 
HETATM   31  C15 UNL     1       3.108  -9.220   2.957  1.00  0.00     0.054 C 
HETATM   32  C16 UNL     1       4.080  -8.601   1.977  1.00  0.00     0.006 C 
HETATM   33  C17 UNL     1       3.296  -8.079   0.792  1.00  0.00     0.026 C 
HETATM   34  C18 UNL     1       2.096  -8.983   0.635  1.00  0.00     0.170 C 
HETATM   35  O3  UNL     1       1.169  -8.790   1.623  1.00  0.00    -0.367 OA
ENDBRANCH   8  30
TORSDOF 8
ENDMDL
