MODEL 1
REMARK VINA RESULT: -6.332097343      0.000      0.000
REMARK  3 active torsions:
REMARK  status: ('A' for Active; 'I' for Inactive)
REMARK    1  A    between atoms: N1_1  and  C1_4 
REMARK    2  A    between atoms: C2_7  and  N3_8 
REMARK    3  A    between atoms: C3_10  and  C4_11 
ROOT
HETATM    1  C1  UNL     1      -3.638  70.750  12.123  1.00  0.00     0.679 A 
HETATM    2  N2  UNL     1      -3.918  69.963  11.093  1.00  0.00    -0.174 N 
ATOM      3  H2  UNL     1      -3.549  70.231  10.181  1.00  0.00     0.186 HD
HETATM    4  C2  UNL     1      -4.669  68.812  11.165  1.00  0.00     0.151 A 
HETATM    5  C5  UNL     1      -5.144  68.502  12.439  1.00  0.00     0.125 A 
HETATM    6  N4  UNL     1      -5.896  67.393  12.637  1.00  0.00    -0.316 N 
ATOM      7  H4  UNL     1      -6.130  66.766  11.868  1.00  0.00     0.169 HD
HETATM    8  C6  UNL     1      -6.325  67.153  13.902  1.00  0.00     0.261 A 
HETATM    9  O2  UNL     1      -7.030  66.099  14.044  1.00  0.00    -0.267 OA
HETATM   10  C7  UNL     1      -6.043  67.958  14.976  1.00  0.00     0.164 A 
HETATM   11  N5  UNL     1      -5.299  69.043  14.738  1.00  0.00    -0.345 N 
ATOM     12  H5  UNL     1      -5.070  69.665  15.514  1.00  0.00     0.167 HD
HETATM   13  C8  UNL     1      -4.837  69.344  13.500  1.00  0.00     0.151 A 
HETATM   14  N6  UNL     1      -4.094  70.455  13.350  1.00  0.00    -0.174 N 
ATOM     15  H6  UNL     1      -3.883  71.056  14.146  1.00  0.00     0.186 HD
ENDROOT
BRANCH   4  16
HETATM   16  N3  UNL     1      -4.882  68.141  10.172  1.00  0.00    -0.347 N 
HETATM   17  C3  UNL     1      -4.766  67.060   9.378  1.00  0.00     0.131 C 
ATOM     18  H3  UNL     1      -5.503  68.744   9.631  1.00  0.00     0.167 HD
BRANCH  17  19
HETATM   19  C4  UNL     1      -5.468  67.121   8.053  1.00  0.00     0.275 C 
HETATM   20  O1  UNL     1      -5.319  68.086   7.335  1.00  0.00    -0.301 OA
ENDBRANCH  17  19
ENDBRANCH   4  16
BRANCH   1  21
HETATM   21  N1  UNL     1      -2.913  71.838  11.990  1.00  0.00    -0.234 N 
ATOM     22  H12 UNL     1      -3.324  72.719  12.299  1.00  0.00     0.174 HD
ATOM     23  H11 UNL     1      -1.975  71.815  11.593  1.00  0.00     0.174 HD
ENDBRANCH   1  21
TORSDOF 3
ENDMDL
MODEL 2
REMARK VINA RESULT: -6.274840535      1.703      4.713
REMARK  3 active torsions:
REMARK  status: ('A' for Active; 'I' for Inactive)
REMARK    1  A    between atoms: N1_1  and  C1_4 
REMARK    2  A    between atoms: C2_7  and  N3_8 
REMARK    3  A    between atoms: C3_10  and  C4_11 
ROOT
HETATM    1  C1  UNL     1      -4.118  69.583  11.532  1.00  0.00     0.679 A 
HETATM    2  N2  UNL     1      -4.820  68.919  12.440  1.00  0.00    -0.174 N 
ATOM      3  H2  UNL     1      -4.791  69.258  13.401  1.00  0.00     0.186 HD
HETATM    4  C2  UNL     1      -5.586  67.805  12.179  1.00  0.00     0.151 A 
HETATM    5  C5  UNL     1      -5.584  67.392  10.848  1.00  0.00     0.125 A 
HETATM    6  N4  UNL     1      -6.300  66.307  10.467  1.00  0.00    -0.316 N 
ATOM      7  H4  UNL     1      -6.852  65.773  11.138  1.00  0.00     0.169 HD
HETATM    8  C6  UNL     1      -6.251  65.961   9.155  1.00  0.00     0.261 A 
HETATM    9  O2  UNL     1      -6.940  64.934   8.841  1.00  0.00    -0.267 OA
HETATM   10  C7  UNL     1      -5.529  66.640   8.207  1.00  0.00     0.164 A 
HETATM   11  N5  UNL     1      -4.836  67.704   8.624  1.00  0.00    -0.345 N 
ATOM     12  H5  UNL     1      -4.287  68.232   7.945  1.00  0.00     0.167 HD
HETATM   13  C8  UNL     1      -4.838  68.105   9.918  1.00  0.00     0.151 A 
HETATM   14  N6  UNL     1      -4.113  69.188  10.251  1.00  0.00    -0.174 N 
ATOM     15  H6  UNL     1      -3.574  69.694   9.548  1.00  0.00     0.186 HD
ENDROOT
BRANCH   4  16
HETATM   16  N3  UNL     1      -6.204  67.249  13.069  1.00  0.00    -0.347 N 
HETATM   17  C3  UNL     1      -6.621  67.061  14.335  1.00  0.00     0.131 C 
ATOM     18  H3  UNL     1      -6.675  66.495  12.569  1.00  0.00     0.167 HD
BRANCH  17  19
HETATM   19  C4  UNL     1      -7.504  65.873  14.582  1.00  0.00     0.275 C 
HETATM   20  O1  UNL     1      -7.891  65.631  15.705  1.00  0.00    -0.301 OA
ENDBRANCH  17  19
ENDBRANCH   4  16
BRANCH   1  21
HETATM   21  N1  UNL     1      -3.405  70.642  11.844  1.00  0.00    -0.234 N 
ATOM     22  H12 UNL     1      -3.894  71.535  11.918  1.00  0.00     0.174 HD
ATOM     23  H11 UNL     1      -2.401  70.586  12.009  1.00  0.00     0.174 HD
ENDBRANCH   1  21
TORSDOF 3
ENDMDL
MODEL 3
REMARK VINA RESULT: -5.985898689      1.288      4.301
REMARK  3 active torsions:
REMARK  status: ('A' for Active; 'I' for Inactive)
REMARK    1  A    between atoms: N1_1  and  C1_4 
REMARK    2  A    between atoms: C2_7  and  N3_8 
REMARK    3  A    between atoms: C3_10  and  C4_11 
ROOT
HETATM    1  C1  UNL     1      -3.988  70.384  12.398  1.00  0.00     0.679 A 
HETATM    2  N2  UNL     1      -4.710  69.685  13.263  1.00  0.00    -0.174 N 
ATOM      3  H2  UNL     1      -4.769  70.033  14.220  1.00  0.00     0.186 HD
HETATM    4  C2  UNL     1      -5.385  68.523  12.965  1.00  0.00     0.151 A 
HETATM    5  C5  UNL     1      -5.265  68.100  11.642  1.00  0.00     0.125 A 
HETATM    6  N4  UNL     1      -5.884  66.969  11.226  1.00  0.00    -0.316 N 
ATOM      7  H4  UNL     1      -6.447  66.407  11.864  1.00  0.00     0.169 HD
HETATM    8  C6  UNL     1      -5.723  66.616   9.926  1.00  0.00     0.261 A 
HETATM    9  O2  UNL     1      -6.323  65.546   9.577  1.00  0.00    -0.267 OA
HETATM   10  C7  UNL     1      -4.980  67.331   9.021  1.00  0.00     0.164 A 
HETATM   11  N5  UNL     1      -4.384  68.440   9.471  1.00  0.00    -0.345 N 
ATOM     12  H5  UNL     1      -3.823  68.995   8.825  1.00  0.00     0.167 HD
HETATM   13  C8  UNL     1      -4.502  68.851  10.757  1.00  0.00     0.151 A 
HETATM   14  N6  UNL     1      -3.870  69.980  11.126  1.00  0.00    -0.174 N 
ATOM     15  H6  UNL     1      -3.316  70.513  10.455  1.00  0.00     0.186 HD
ENDROOT
BRANCH   4  16
HETATM   16  N3  UNL     1      -6.028  67.937  13.817  1.00  0.00    -0.347 N 
HETATM   17  C3  UNL     1      -6.393  67.626  15.074  1.00  0.00     0.131 C 
ATOM     18  H3  UNL     1      -6.639  67.342  13.258  1.00  0.00     0.167 HD
BRANCH  17  19
HETATM   19  C4  UNL     1      -7.434  66.555  15.226  1.00  0.00     0.275 C 
HETATM   20  O1  UNL     1      -7.509  65.666  14.405  1.00  0.00    -0.301 OA
ENDBRANCH  17  19
ENDBRANCH   4  16
BRANCH   1  21
HETATM   21  N1  UNL     1      -3.366  71.488  12.746  1.00  0.00    -0.234 N 
ATOM     22  H12 UNL     1      -3.902  72.356  12.732  1.00  0.00     0.174 HD
ATOM     23  H11 UNL     1      -2.384  71.490  13.020  1.00  0.00     0.174 HD
ENDBRANCH   1  21
TORSDOF 3
ENDMDL
MODEL 4
REMARK VINA RESULT: -5.882821872      1.984      3.630
REMARK  3 active torsions:
REMARK  status: ('A' for Active; 'I' for Inactive)
REMARK    1  A    between atoms: N1_1  and  C1_4 
REMARK    2  A    between atoms: C2_7  and  N3_8 
REMARK    3  A    between atoms: C3_10  and  C4_11 
ROOT
HETATM    1  C1  UNL     1      -6.225  67.193  13.611  1.00  0.00     0.679 A 
HETATM    2  N2  UNL     1      -5.942  67.058  12.323  1.00  0.00    -0.174 N 
ATOM      3  H2  UNL     1      -6.332  66.251  11.836  1.00  0.00     0.186 HD
HETATM    4  C2  UNL     1      -5.161  67.926  11.594  1.00  0.00     0.151 A 
HETATM    5  C5  UNL     1      -4.659  69.007  12.318  1.00  0.00     0.125 A 
HETATM    6  N4  UNL     1      -3.876  69.931  11.711  1.00  0.00    -0.316 N 
ATOM      7  H4  UNL     1      -3.639  69.859  10.722  1.00  0.00     0.169 HD
HETATM    8  C6  UNL     1      -3.421  70.957  12.475  1.00  0.00     0.261 A 
HETATM    9  O2  UNL     1      -2.689  71.803  11.864  1.00  0.00    -0.267 OA
HETATM   10  C7  UNL     1      -3.707  71.108  13.808  1.00  0.00     0.164 A 
HETATM   11  N5  UNL     1      -4.482  70.174  14.369  1.00  0.00    -0.345 N 
ATOM     12  H5  UNL     1      -4.714  70.256  15.359  1.00  0.00     0.167 HD
HETATM   13  C8  UNL     1      -4.970  69.124  13.666  1.00  0.00     0.151 A 
HETATM   14  N6  UNL     1      -5.743  68.231  14.309  1.00  0.00    -0.174 N 
ATOM     15  H6  UNL     1      -5.956  68.341  15.301  1.00  0.00     0.186 HD
ENDROOT
BRANCH   4  16
HETATM   16  N3  UNL     1      -4.947  67.733  10.412  1.00  0.00    -0.347 N 
HETATM   17  C3  UNL     1      -4.200  67.400   9.343  1.00  0.00     0.131 C 
ATOM     18  H3  UNL     1      -5.852  67.943   9.989  1.00  0.00     0.167 HD
BRANCH  17  19
HETATM   19  C4  UNL     1      -4.863  67.506   8.001  1.00  0.00     0.275 C 
HETATM   20  O1  UNL     1      -5.388  68.547   7.667  1.00  0.00    -0.301 OA
ENDBRANCH  17  19
ENDBRANCH   4  16
BRANCH   1  21
HETATM   21  N1  UNL     1      -6.979  66.327  14.251  1.00  0.00    -0.234 N 
ATOM     22  H12 UNL     1      -6.930  66.322  15.270  1.00  0.00     0.174 HD
ATOM     23  H11 UNL     1      -7.594  65.680  13.759  1.00  0.00     0.174 HD
ENDBRANCH   1  21
TORSDOF 3
ENDMDL
MODEL 5
REMARK VINA RESULT: -5.524039727      2.197      5.163
REMARK  3 active torsions:
REMARK  status: ('A' for Active; 'I' for Inactive)
REMARK    1  A    between atoms: N1_1  and  C1_4 
REMARK    2  A    between atoms: C2_7  and  N3_8 
REMARK    3  A    between atoms: C3_10  and  C4_11 
ROOT
HETATM    1  C1  UNL     1      -6.086  67.326  13.597  1.00  0.00     0.679 A 
HETATM    2  N2  UNL     1      -5.363  68.438  13.620  1.00  0.00    -0.174 N 
ATOM      3  H2  UNL     1      -5.316  68.952  14.500  1.00  0.00     0.186 HD
HETATM    4  C2  UNL     1      -4.673  68.949  12.545  1.00  0.00     0.151 A 
HETATM    5  C5  UNL     1      -4.778  68.201  11.373  1.00  0.00     0.125 A 
HETATM    6  N4  UNL     1      -4.144  68.602  10.246  1.00  0.00    -0.316 N 
ATOM      7  H4  UNL     1      -3.579  69.452  10.228  1.00  0.00     0.169 HD
HETATM    8  C6  UNL     1      -4.290  67.827   9.142  1.00  0.00     0.261 A 
HETATM    9  O2  UNL     1      -3.676  68.241   8.104  1.00  0.00    -0.267 OA
HETATM   10  C7  UNL     1      -5.034  66.675   9.104  1.00  0.00     0.164 A 
HETATM   11  N5  UNL     1      -5.645  66.314  10.237  1.00  0.00    -0.345 N 
ATOM     12  H5  UNL     1      -6.208  65.463  10.245  1.00  0.00     0.167 HD
HETATM   13  C8  UNL     1      -5.542  67.041  11.376  1.00  0.00     0.151 A 
HETATM   14  N6  UNL     1      -6.190  66.605  12.471  1.00  0.00    -0.174 N 
ATOM     15  H6  UNL     1      -6.744  65.749  12.446  1.00  0.00     0.186 HD
ENDROOT
BRANCH   4  16
HETATM   16  N3  UNL     1      -4.030  69.978  12.646  1.00  0.00    -0.347 N 
HETATM   17  C3  UNL     1      -3.694  71.245  12.341  1.00  0.00     0.131 C 
ATOM     18  H3  UNL     1      -3.367  69.749  13.387  1.00  0.00     0.167 HD
BRANCH  17  19
HETATM   19  C4  UNL     1      -2.520  71.824  13.073  1.00  0.00     0.275 C 
HETATM   20  O1  UNL     1      -2.368  71.588  14.253  1.00  0.00    -0.301 OA
ENDBRANCH  17  19
ENDBRANCH   4  16
BRANCH   1  21
HETATM   21  N1  UNL     1      -6.722  66.889  14.660  1.00  0.00    -0.234 N 
ATOM     22  H12 UNL     1      -7.355  66.098  14.539  1.00  0.00     0.174 HD
ATOM     23  H11 UNL     1      -6.598  67.317  15.577  1.00  0.00     0.174 HD
ENDBRANCH   1  21
TORSDOF 3
ENDMDL
