MODEL 1
REMARK VINA RESULT: -7.543049130      0.000      0.000
REMARK  2 active torsions:
REMARK  status: ('A' for Active; 'I' for Inactive)
REMARK    1  A    between atoms: N1_3  and  N2_5 
REMARK    2  A    between atoms: C3_7  and  C4_8 
ROOT
HETATM    1  C1  UNL     1      -4.408  69.815  14.115  1.00  0.00     0.038 C 
HETATM    2  C2  UNL     1      -4.040  69.901  12.956  1.00  0.00     0.015 C 
HETATM    3  N1  UNL     1      -3.601  70.016  11.631  1.00  0.00    -0.259 N 
ATOM      4  H1  UNL     1      -2.709  70.464  11.422  1.00  0.00     0.197 HD
ENDROOT
BRANCH   3   5
HETATM    5  N2  UNL     1      -4.392  69.513  10.605  1.00  0.00    -0.302 N 
HETATM    6  C3  UNL     1      -4.557  68.240  10.490  1.00  0.00     0.139 C 
ATOM      7  H2  UNL     1      -4.839  70.149   9.946  1.00  0.00     0.186 HD
BRANCH   6   8
HETATM    8  C4  UNL     1      -5.400  67.756   9.391  1.00  0.00     0.084 A 
HETATM    9  N3  UNL     1      -6.089  68.476   8.495  1.00  0.00    -0.297 N 
HETATM   10  N4  UNL     1      -6.735  67.697   7.652  1.00  0.00    -0.284 N 
ATOM     11  H3  UNL     1      -6.110  69.495   8.469  1.00  0.00     0.187 HD
HETATM   12  C5  UNL     1      -6.475  66.425   7.988  1.00  0.00     0.142 A 
ATOM     13  H4  UNL     1      -7.327  68.006   6.880  1.00  0.00     0.188 HD
HETATM   14  N5  UNL     1      -6.892  65.260   7.442  1.00  0.00    -0.292 N 
HETATM   15  C8  UNL     1      -5.632  66.435   9.086  1.00  0.00     0.107 A 
HETATM   16  C6  UNL     1      -6.483  64.095   7.974  1.00  0.00     0.328 A 
ATOM     17  H5  UNL     1      -7.513  65.265   6.633  1.00  0.00     0.172 HD
HETATM   18  O1  UNL     1      -6.869  63.009   7.470  1.00  0.00    -0.247 OA
HETATM   19  N6  UNL     1      -5.657  64.080   9.051  1.00  0.00    -0.275 N 
HETATM   20  C7  UNL     1      -5.224  65.218   9.617  1.00  0.00     0.265 A 
ATOM     21  H6  UNL     1      -5.359  63.185   9.439  1.00  0.00     0.173 HD
HETATM   22  O2  UNL     1      -4.459  65.202  10.614  1.00  0.00    -0.267 OA
ENDBRANCH   6   8
ENDBRANCH   3   5
TORSDOF 2
ENDMDL
MODEL 2
REMARK VINA RESULT: -7.367604920      2.614      6.166
REMARK  2 active torsions:
REMARK  status: ('A' for Active; 'I' for Inactive)
REMARK    1  A    between atoms: N1_3  and  N2_5 
REMARK    2  A    between atoms: C3_7  and  C4_8 
ROOT
HETATM    1  C1  UNL     1      -7.036  63.360   7.596  1.00  0.00     0.038 C 
HETATM    2  C2  UNL     1      -6.835  64.559   7.680  1.00  0.00     0.015 C 
HETATM    3  N1  UNL     1      -6.599  65.938   7.753  1.00  0.00    -0.259 N 
ATOM      4  H1  UNL     1      -6.496  66.488   6.901  1.00  0.00     0.197 HD
ENDROOT
BRANCH   3   5
HETATM    5  N2  UNL     1      -6.506  66.549   8.998  1.00  0.00    -0.302 N 
HETATM    6  C3  UNL     1      -5.837  65.978   9.941  1.00  0.00     0.139 C 
ATOM      7  H2  UNL     1      -6.965  67.444   9.164  1.00  0.00     0.186 HD
BRANCH   6   8
HETATM    8  C4  UNL     1      -5.768  66.661  11.238  1.00  0.00     0.084 A 
HETATM    9  N3  UNL     1      -6.312  66.287  12.404  1.00  0.00    -0.297 N 
HETATM   10  N4  UNL     1      -6.039  67.152  13.359  1.00  0.00    -0.284 N 
ATOM     11  H3  UNL     1      -6.867  65.441  12.534  1.00  0.00     0.187 HD
HETATM   12  C5  UNL     1      -5.294  68.130  12.824  1.00  0.00     0.142 A 
ATOM     13  H4  UNL     1      -6.340  67.089  14.331  1.00  0.00     0.188 HD
HETATM   14  N5  UNL     1      -4.761  69.243  13.377  1.00  0.00    -0.292 N 
HETATM   15  C8  UNL     1      -5.108  67.844  11.483  1.00  0.00     0.107 A 
HETATM   16  C6  UNL     1      -4.040  70.083  12.614  1.00  0.00     0.328 A 
ATOM     17  H5  UNL     1      -4.904  69.443  14.367  1.00  0.00     0.172 HD
HETATM   18  O1  UNL     1      -3.542  71.119  13.125  1.00  0.00    -0.247 OA
HETATM   19  N6  UNL     1      -3.845  69.823  11.296  1.00  0.00    -0.275 N 
HETATM   20  C7  UNL     1      -4.360  68.727  10.714  1.00  0.00     0.265 A 
ATOM     21  H6  UNL     1      -3.295  70.474  10.735  1.00  0.00     0.173 HD
HETATM   22  O2  UNL     1      -4.178  68.488   9.495  1.00  0.00    -0.267 OA
ENDBRANCH   6   8
ENDBRANCH   3   5
TORSDOF 2
ENDMDL
MODEL 3
REMARK VINA RESULT: -6.943397681      2.488      6.226
REMARK  2 active torsions:
REMARK  status: ('A' for Active; 'I' for Inactive)
REMARK    1  A    between atoms: N1_3  and  N2_5 
REMARK    2  A    between atoms: C3_7  and  C4_8 
ROOT
HETATM    1  C1  UNL     1      -6.711  63.481   7.410  1.00  0.00     0.038 C 
HETATM    2  C2  UNL     1      -7.095  64.389   8.127  1.00  0.00     0.015 C 
HETATM    3  N1  UNL     1      -7.560  65.424   8.948  1.00  0.00    -0.259 N 
ATOM      4  H1  UNL     1      -8.526  65.429   9.273  1.00  0.00     0.197 HD
ENDROOT
BRANCH   3   5
HETATM    5  N2  UNL     1      -6.691  66.445   9.314  1.00  0.00    -0.302 N 
HETATM    6  C3  UNL     1      -5.951  66.310  10.361  1.00  0.00     0.139 C 
ATOM      7  H2  UNL     1      -6.639  67.297   8.757  1.00  0.00     0.186 HD
BRANCH   6   8
HETATM    8  C4  UNL     1      -5.050  67.415  10.709  1.00  0.00     0.084 A 
HETATM    9  N3  UNL     1      -4.149  68.028   9.929  1.00  0.00    -0.297 N 
HETATM   10  N4  UNL     1      -3.519  68.981  10.585  1.00  0.00    -0.284 N 
ATOM     11  H3  UNL     1      -3.974  67.788   8.954  1.00  0.00     0.187 HD
HETATM   12  C5  UNL     1      -4.006  69.009  11.834  1.00  0.00     0.142 A 
ATOM     13  H4  UNL     1      -2.790  69.588  10.210  1.00  0.00     0.188 HD
HETATM   14  N5  UNL     1      -3.697  69.796  12.889  1.00  0.00    -0.292 N 
HETATM   15  C8  UNL     1      -4.977  68.028  11.938  1.00  0.00     0.107 A 
HETATM   16  C6  UNL     1      -4.341  69.623  14.057  1.00  0.00     0.328 A 
ATOM     17  H5  UNL     1      -2.980  70.516  12.800  1.00  0.00     0.172 HD
HETATM   18  O1  UNL     1      -4.057  70.352  15.041  1.00  0.00    -0.247 OA
HETATM   19  N6  UNL     1      -5.296  68.666  14.183  1.00  0.00    -0.275 N 
HETATM   20  C7  UNL     1      -5.628  67.868  13.155  1.00  0.00     0.265 A 
ATOM     21  H6  UNL     1      -5.772  68.551  15.078  1.00  0.00     0.173 HD
HETATM   22  O2  UNL     1      -6.512  66.983  13.274  1.00  0.00    -0.267 OA
ENDBRANCH   6   8
ENDBRANCH   3   5
TORSDOF 2
ENDMDL
MODEL 4
REMARK VINA RESULT: -6.901533029      3.117      6.634
REMARK  2 active torsions:
REMARK  status: ('A' for Active; 'I' for Inactive)
REMARK    1  A    between atoms: N1_3  and  N2_5 
REMARK    2  A    between atoms: C3_7  and  C4_8 
ROOT
HETATM    1  C1  UNL     1      -7.102  63.624   7.690  1.00  0.00     0.038 C 
HETATM    2  C2  UNL     1      -6.665  64.683   8.107  1.00  0.00     0.015 C 
HETATM    3  N1  UNL     1      -6.150  65.902   8.565  1.00  0.00    -0.259 N 
ATOM      4  H1  UNL     1      -5.620  66.505   7.937  1.00  0.00     0.197 HD
ENDROOT
BRANCH   3   5
HETATM    5  N2  UNL     1      -6.367  66.281   9.884  1.00  0.00    -0.302 N 
HETATM    6  C3  UNL     1      -5.374  66.664  10.612  1.00  0.00     0.139 C 
ATOM      7  H2  UNL     1      -7.309  66.254  10.275  1.00  0.00     0.186 HD
BRANCH   6   8
HETATM    8  C4  UNL     1      -5.654  67.054  11.999  1.00  0.00     0.084 A 
HETATM    9  N3  UNL     1      -6.458  66.451  12.885  1.00  0.00    -0.297 N 
HETATM   10  N4  UNL     1      -6.461  67.087  14.038  1.00  0.00    -0.284 N 
ATOM     11  H3  UNL     1      -6.998  65.608  12.691  1.00  0.00     0.187 HD
HETATM   12  C5  UNL     1      -5.640  68.142  13.925  1.00  0.00     0.142 A 
ATOM     13  H4  UNL     1      -6.992  66.825  14.868  1.00  0.00     0.188 HD
HETATM   14  N5  UNL     1      -5.300  69.100  14.817  1.00  0.00    -0.292 N 
HETATM   15  C8  UNL     1      -5.116  68.143  12.644  1.00  0.00     0.107 A 
HETATM   16  C6  UNL     1      -4.441  70.068  14.454  1.00  0.00     0.328 A 
ATOM     17  H5  UNL     1      -5.692  69.088  15.758  1.00  0.00     0.172 HD
HETATM   18  O1  UNL     1      -4.121  70.962  15.280  1.00  0.00    -0.247 OA
HETATM   19  N6  UNL     1      -3.915  70.091  13.203  1.00  0.00    -0.275 N 
HETATM   20  C7  UNL     1      -4.231  69.155  12.293  1.00  0.00     0.265 A 
ATOM     21  H6  UNL     1      -3.265  70.835  12.948  1.00  0.00     0.173 HD
HETATM   22  O2  UNL     1      -3.743  69.178  11.136  1.00  0.00    -0.267 OA
ENDBRANCH   6   8
ENDBRANCH   3   5
TORSDOF 2
ENDMDL
MODEL 5
REMARK VINA RESULT: -6.669959112      2.584      6.267
REMARK  2 active torsions:
REMARK  status: ('A' for Active; 'I' for Inactive)
REMARK    1  A    between atoms: N1_3  and  N2_5 
REMARK    2  A    between atoms: C3_7  and  C4_8 
ROOT
HETATM    1  C1  UNL     1      -5.988  64.418   8.671  1.00  0.00     0.038 C 
HETATM    2  C2  UNL     1      -6.339  65.583   8.598  1.00  0.00     0.015 C 
HETATM    3  N1  UNL     1      -6.756  66.916   8.493  1.00  0.00    -0.259 N 
ATOM      4  H1  UNL     1      -7.498  67.174   7.843  1.00  0.00     0.197 HD
ENDROOT
BRANCH   3   5
HETATM    5  N2  UNL     1      -6.148  67.884   9.283  1.00  0.00    -0.302 N 
HETATM    6  C3  UNL     1      -5.525  67.534  10.356  1.00  0.00     0.139 C 
ATOM      7  H2  UNL     1      -6.195  68.867   9.015  1.00  0.00     0.186 HD
BRANCH   6   8
HETATM    8  C4  UNL     1      -4.899  68.592  11.158  1.00  0.00     0.084 A 
HETATM    9  N3  UNL     1      -4.118  69.597  10.742  1.00  0.00    -0.297 N 
HETATM   10  N4  UNL     1      -3.737  70.356  11.750  1.00  0.00    -0.284 N 
ATOM     11  H3  UNL     1      -3.852  69.755   9.771  1.00  0.00     0.187 HD
HETATM   12  C5  UNL     1      -4.274  69.849  12.869  1.00  0.00     0.142 A 
ATOM     13  H4  UNL     1      -3.141  71.181  11.690  1.00  0.00     0.188 HD
HETATM   14  N5  UNL     1      -4.189  70.254  14.156  1.00  0.00    -0.292 N 
HETATM   15  C8  UNL     1      -5.015  68.732  12.522  1.00  0.00     0.107 A 
HETATM   16  C6  UNL     1      -4.832  69.562  15.113  1.00  0.00     0.328 A 
ATOM     17  H5  UNL     1      -3.641  71.079  14.400  1.00  0.00     0.172 HD
HETATM   18  O1  UNL     1      -4.756  69.935  16.312  1.00  0.00    -0.247 OA
HETATM   19  N6  UNL     1      -5.563  68.463  14.797  1.00  0.00    -0.275 N 
HETATM   20  C7  UNL     1      -5.669  68.033  13.529  1.00  0.00     0.265 A 
ATOM     21  H6  UNL     1      -6.043  67.952  15.539  1.00  0.00     0.173 HD
HETATM   22  O2  UNL     1      -6.347  67.016  13.239  1.00  0.00    -0.267 OA
ENDBRANCH   6   8
ENDBRANCH   3   5
TORSDOF 2
ENDMDL
