MODEL 1
REMARK VINA RESULT: -6.894907919      0.000      0.000
REMARK  3 active torsions:
REMARK  status: ('A' for Active; 'I' for Inactive)
REMARK    1  A    between atoms: N1_1  and  C1_5 
REMARK    2  A    between atoms: C1_5  and  C2_6 
REMARK    3  A    between atoms: C2_6  and  N2_7 
ROOT
HETATM    1  N2  UNL     1      -4.356  65.942   9.170  1.00  0.00    -0.337 N 
HETATM    2  C3  UNL     1      -3.480  65.554  10.299  1.00  0.00     0.253 C 
HETATM    3  N3  UNL     1      -2.194  66.168  10.227  1.00  0.00    -0.327 N 
ATOM      4  H3  UNL     1      -1.440  65.591   9.855  1.00  0.00     0.165 HD
HETATM    5  C4  UNL     1      -1.846  67.477  10.609  1.00  0.00     0.325 C 
HETATM    6  O1  UNL     1      -0.838  67.982   9.990  1.00  0.00    -0.247 OA
HETATM    7  N4  UNL     1      -2.478  68.283  11.585  1.00  0.00    -0.260 N 
ATOM      8  H4  UNL     1      -1.884  68.980  12.034  1.00  0.00     0.175 HD
HETATM    9  C5  UNL     1      -3.801  68.251  12.016  1.00  0.00     0.342 C 
HETATM   10  O2  UNL     1      -3.983  68.337  13.281  1.00  0.00    -0.245 OA
HETATM   11  N5  UNL     1      -4.961  68.132  11.186  1.00  0.00    -0.249 N 
ATOM     12  H5  UNL     1      -5.873  68.011  11.626  1.00  0.00     0.192 HD
HETATM   13  N6  UNL     1      -4.884  68.175   9.823  1.00  0.00    -0.270 N 
ATOM     14  H6  UNL     1      -5.064  69.106   9.447  1.00  0.00     0.189 HD
HETATM   15  C6  UNL     1      -4.641  67.321   8.921  1.00  0.00     0.206 C 
HETATM   16  N7  UNL     1      -4.653  67.740   7.551  1.00  0.00    -0.062 NA
ENDROOT
BRANCH   1  17
HETATM   17  C2  UNL     1      -4.871  64.844   8.402  1.00  0.00     0.154 C 
BRANCH  17  18
HETATM   18  C1  UNL     1      -6.295  64.499   8.546  1.00  0.00     0.249 C 
BRANCH  18  19
HETATM   19  N1  UNL     1      -6.569  63.335   7.665  1.00  0.00    -0.078 N 
ATOM     20  H13 UNL     1      -6.791  63.606   6.708  1.00  0.00     0.274 HD
ATOM     21  H12 UNL     1      -5.732  62.789   7.459  1.00  0.00     0.274 HD
ATOM     22  H11 UNL     1      -7.306  62.782   8.103  1.00  0.00     0.274 HD
ENDBRANCH  18  19
ENDBRANCH  17  18
ENDBRANCH   1  17
TORSDOF 3
ENDMDL
MODEL 2
REMARK VINA RESULT: -6.389467755      2.492      5.242
REMARK  3 active torsions:
REMARK  status: ('A' for Active; 'I' for Inactive)
REMARK    1  A    between atoms: N1_1  and  C1_5 
REMARK    2  A    between atoms: C1_5  and  C2_6 
REMARK    3  A    between atoms: C2_6  and  N2_7 
ROOT
HETATM    1  N2  UNL     1      -3.642  69.186  12.270  1.00  0.00    -0.337 N 
HETATM    2  C3  UNL     1      -2.642  69.418  11.202  1.00  0.00     0.253 C 
HETATM    3  N3  UNL     1      -1.752  68.315  11.041  1.00  0.00    -0.327 N 
ATOM      4  H3  UNL     1      -0.837  68.406  11.482  1.00  0.00     0.165 HD
HETATM    5  C4  UNL     1      -1.990  67.116  10.344  1.00  0.00     0.325 C 
HETATM    6  O1  UNL     1      -1.324  66.096  10.757  1.00  0.00    -0.247 OA
HETATM    7  N4  UNL     1      -2.871  66.917   9.254  1.00  0.00    -0.260 N 
ATOM      8  H4  UNL     1      -2.620  66.162   8.616  1.00  0.00     0.175 HD
HETATM    9  C5  UNL     1      -4.033  67.615   8.936  1.00  0.00     0.342 C 
HETATM   10  O2  UNL     1      -4.186  67.919   7.701  1.00  0.00    -0.245 OA
HETATM   11  N5  UNL     1      -5.057  68.017   9.850  1.00  0.00    -0.249 N 
ATOM     12  H5  UNL     1      -5.810  68.619   9.514  1.00  0.00     0.192 HD
HETATM   13  N6  UNL     1      -5.059  67.622  11.157  1.00  0.00    -0.270 N 
ATOM     14  H6  UNL     1      -5.638  66.798  11.319  1.00  0.00     0.189 HD
HETATM   15  C6  UNL     1      -4.505  68.047  12.213  1.00  0.00     0.206 C 
HETATM   16  N7  UNL     1      -4.749  67.361  13.446  1.00  0.00    -0.062 NA
ENDROOT
BRANCH   1  17
HETATM   17  C2  UNL     1      -3.660  70.182  13.305  1.00  0.00     0.154 C 
BRANCH  17  18
HETATM   18  C1  UNL     1      -2.376  70.747  13.751  1.00  0.00     0.249 C 
BRANCH  18  19
HETATM   19  N1  UNL     1      -2.437  72.217  13.549  1.00  0.00    -0.078 N 
ATOM     20  H13 UNL     1      -2.277  72.742  14.408  1.00  0.00     0.274 HD
ATOM     21  H12 UNL     1      -1.642  72.577  13.022  1.00  0.00     0.274 HD
ATOM     22  H11 UNL     1      -3.333  72.433  13.113  1.00  0.00     0.274 HD
ENDBRANCH  18  19
ENDBRANCH  17  18
ENDBRANCH   1  17
TORSDOF 3
ENDMDL
MODEL 3
REMARK VINA RESULT: -6.148789610      2.468      4.927
REMARK  3 active torsions:
REMARK  status: ('A' for Active; 'I' for Inactive)
REMARK    1  A    between atoms: N1_1  and  C1_5 
REMARK    2  A    between atoms: C1_5  and  C2_6 
REMARK    3  A    between atoms: C2_6  and  N2_7 
ROOT
HETATM    1  N2  UNL     1      -3.572  67.519  10.914  1.00  0.00    -0.337 N 
HETATM    2  C3  UNL     1      -4.982  67.761  10.529  1.00  0.00     0.253 C 
HETATM    3  N3  UNL     1      -5.106  68.248   9.194  1.00  0.00    -0.327 N 
ATOM      4  H3  UNL     1      -5.236  69.254   9.092  1.00  0.00     0.165 HD
HETATM    5  C4  UNL     1      -5.071  67.501   8.002  1.00  0.00     0.325 C 
HETATM    6  O1  UNL     1      -4.669  68.141   6.962  1.00  0.00    -0.247 OA
HETATM    7  N4  UNL     1      -5.426  66.142   7.830  1.00  0.00    -0.260 N 
ATOM      8  H4  UNL     1      -5.753  65.885   6.899  1.00  0.00     0.175 HD
HETATM    9  C5  UNL     1      -5.389  65.108   8.763  1.00  0.00     0.342 C 
HETATM   10  O2  UNL     1      -6.404  64.326   8.776  1.00  0.00    -0.245 OA
HETATM   11  N5  UNL     1      -4.336  64.844   9.694  1.00  0.00    -0.249 N 
ATOM     12  H5  UNL     1      -4.472  64.121  10.401  1.00  0.00     0.192 HD
HETATM   13  N6  UNL     1      -3.154  65.528   9.667  1.00  0.00    -0.270 N 
ATOM     14  H6  UNL     1      -2.428  65.039   9.145  1.00  0.00     0.189 HD
HETATM   15  C6  UNL     1      -2.758  66.633  10.142  1.00  0.00     0.206 C 
HETATM   16  N7  UNL     1      -1.404  67.039   9.909  1.00  0.00    -0.062 NA
ENDROOT
BRANCH   1  17
HETATM   17  C2  UNL     1      -3.140  68.221  12.089  1.00  0.00     0.154 C 
BRANCH  17  18
HETATM   18  C1  UNL     1      -3.493  69.644  12.221  1.00  0.00     0.249 C 
BRANCH  18  19
HETATM   19  N1  UNL     1      -2.463  70.433  11.499  1.00  0.00    -0.078 N 
ATOM     20  H13 UNL     1      -1.528  70.037  11.586  1.00  0.00     0.274 HD
ATOM     21  H12 UNL     1      -2.546  70.360  10.485  1.00  0.00     0.274 HD
ATOM     22  H11 UNL     1      -2.519  71.395  11.834  1.00  0.00     0.274 HD
ENDBRANCH  18  19
ENDBRANCH  17  18
ENDBRANCH   1  17
TORSDOF 3
ENDMDL
MODEL 4
REMARK VINA RESULT: -5.931718679      2.171      3.335
REMARK  3 active torsions:
REMARK  status: ('A' for Active; 'I' for Inactive)
REMARK    1  A    between atoms: N1_1  and  C1_5 
REMARK    2  A    between atoms: C1_5  and  C2_6 
REMARK    3  A    between atoms: C2_6  and  N2_7 
ROOT
HETATM    1  N2  UNL     1      -3.487  67.626   9.813  1.00  0.00    -0.337 N 
HETATM    2  C3  UNL     1      -4.646  68.389  10.330  1.00  0.00     0.253 C 
HETATM    3  N3  UNL     1      -5.083  67.920  11.605  1.00  0.00    -0.327 N 
ATOM      4  H3  UNL     1      -5.893  67.300  11.603  1.00  0.00     0.165 HD
HETATM    5  C4  UNL     1      -4.526  68.214  12.863  1.00  0.00     0.325 C 
HETATM    6  O1  UNL     1      -4.703  67.317  13.767  1.00  0.00    -0.247 OA
HETATM    7  N4  UNL     1      -3.803  69.373  13.232  1.00  0.00    -0.260 N 
ATOM      8  H4  UNL     1      -3.849  69.627  14.219  1.00  0.00     0.175 HD
HETATM    9  C5  UNL     1      -3.037  70.214  12.429  1.00  0.00     0.342 C 
HETATM   10  O2  UNL     1      -3.188  71.470  12.625  1.00  0.00    -0.245 OA
HETATM   11  N5  UNL     1      -2.110  69.807  11.417  1.00  0.00    -0.249 N 
ATOM     12  H5  UNL     1      -1.688  70.518  10.820  1.00  0.00     0.192 HD
HETATM   13  N6  UNL     1      -1.773  68.498  11.226  1.00  0.00    -0.270 N 
ATOM     14  H6  UNL     1      -0.916  68.237  11.713  1.00  0.00     0.189 HD
HETATM   15  C6  UNL     1      -2.285  67.535  10.582  1.00  0.00     0.206 C 
HETATM   16  N7  UNL     1      -1.628  66.262  10.606  1.00  0.00    -0.062 NA
ENDROOT
BRANCH   1  17
HETATM   17  C2  UNL     1      -3.684  67.030   8.522  1.00  0.00     0.154 C 
BRANCH  17  18
HETATM   18  C1  UNL     1      -4.937  67.320   7.805  1.00  0.00     0.249 C 
BRANCH  18  19
HETATM   19  N1  UNL     1      -5.758  66.082   7.814  1.00  0.00    -0.078 N 
ATOM     20  H13 UNL     1      -6.758  66.270   7.758  1.00  0.00     0.274 HD
ATOM     21  H12 UNL     1      -5.673  65.544   6.952  1.00  0.00     0.274 HD
ATOM     22  H11 UNL     1      -5.501  65.546   8.643  1.00  0.00     0.274 HD
ENDBRANCH  18  19
ENDBRANCH  17  18
ENDBRANCH   1  17
TORSDOF 3
ENDMDL
MODEL 5
REMARK VINA RESULT: -5.616854354      2.350      4.912
REMARK  3 active torsions:
REMARK  status: ('A' for Active; 'I' for Inactive)
REMARK    1  A    between atoms: N1_1  and  C1_5 
REMARK    2  A    between atoms: C1_5  and  C2_6 
REMARK    3  A    between atoms: C2_6  and  N2_7 
ROOT
HETATM    1  N2  UNL     1      -2.995  68.392  11.220  1.00  0.00    -0.337 N 
HETATM    2  C3  UNL     1      -2.305  67.945   9.988  1.00  0.00     0.253 C 
HETATM    3  N3  UNL     1      -2.412  66.537   9.784  1.00  0.00    -0.327 N 
ATOM      4  H3  UNL     1      -1.604  65.979  10.061  1.00  0.00     0.165 HD
HETATM    5  C4  UNL     1      -3.502  65.829   9.245  1.00  0.00     0.325 C 
HETATM    6  O1  UNL     1      -3.613  64.609   9.635  1.00  0.00    -0.247 OA
HETATM    7  N4  UNL     1      -4.472  66.310   8.335  1.00  0.00    -0.260 N 
ATOM      8  H4  UNL     1      -4.902  65.606   7.735  1.00  0.00     0.175 HD
HETATM    9  C5  UNL     1      -4.918  67.616   8.148  1.00  0.00     0.342 C 
HETATM   10  O2  UNL     1      -5.052  67.995   6.932  1.00  0.00    -0.245 OA
HETATM   11  N5  UNL     1      -5.235  68.559   9.176  1.00  0.00    -0.249 N 
ATOM     12  H5  UNL     1      -5.449  69.521   8.914  1.00  0.00     0.192 HD
HETATM   13  N6  UNL     1      -5.261  68.211  10.496  1.00  0.00    -0.270 N 
ATOM     14  H6  UNL     1      -6.197  67.974  10.823  1.00  0.00     0.189 HD
HETATM   15  C6  UNL     1      -4.386  68.117  11.406  1.00  0.00     0.206 C 
HETATM   16  N7  UNL     1      -4.794  67.716  12.719  1.00  0.00    -0.062 NA
ENDROOT
BRANCH   1  17
HETATM   17  C2  UNL     1      -2.165  69.105  12.150  1.00  0.00     0.154 C 
BRANCH  17  18
HETATM   18  C1  UNL     1      -2.619  70.424  12.621  1.00  0.00     0.249 C 
BRANCH  18  19
HETATM   19  N1  UNL     1      -2.485  71.376  11.489  1.00  0.00    -0.078 N 
ATOM     20  H13 UNL     1      -2.156  70.931  10.633  1.00  0.00     0.274 HD
ATOM     21  H12 UNL     1      -3.385  71.699  11.135  1.00  0.00     0.274 HD
ATOM     22  H11 UNL     1      -1.882  72.139  11.797  1.00  0.00     0.274 HD
ENDBRANCH  18  19
ENDBRANCH  17  18
ENDBRANCH   1  17
TORSDOF 3
ENDMDL
