MODEL 1
REMARK VINA RESULT: -6.195336737      0.000      0.000
REMARK  5 active torsions:
REMARK  status: ('A' for Active; 'I' for Inactive)
REMARK    1  A    between atoms: N1_1  and  C1_4 
REMARK    2  A    between atoms: N3_7  and  C2_8 
REMARK    3  A    between atoms: C2_8  and  O1_9 
REMARK    4  A    between atoms: O1_9  and  C3_10 
REMARK    5  A    between atoms: C3_10  and  N4_11 
ROOT
HETATM    1  C1  UNL     1      -5.487  67.430   6.912  1.00  0.00     0.143 A 
HETATM    2  N2  UNL     1      -4.701  68.192   7.674  1.00  0.00    -0.279 N 
ATOM      3  H2  UNL     1      -4.475  69.165   7.468  1.00  0.00     0.189 HD
HETATM    4  N3  UNL     1      -4.247  67.529   8.736  1.00  0.00    -0.259 N 
HETATM    5  C4  UNL     1      -4.768  66.275   8.654  1.00  0.00     0.152 A 
HETATM    6  C5  UNL     1      -4.639  65.179   9.467  1.00  0.00     0.280 A 
HETATM    7  O2  UNL     1      -3.934  65.262  10.490  1.00  0.00    -0.265 OA
HETATM    8  N5  UNL     1      -5.270  64.043   9.152  1.00  0.00    -0.273 N 
ATOM      9  H5  UNL     1      -5.176  63.226   9.755  1.00  0.00     0.173 HD
HETATM   10  C6  UNL     1      -6.038  63.973   8.027  1.00  0.00     0.327 A 
HETATM   11  O3  UNL     1      -6.627  62.874   7.753  1.00  0.00    -0.247 OA
HETATM   12  N6  UNL     1      -6.160  65.031   7.245  1.00  0.00    -0.303 N 
ATOM     13  H6  UNL     1      -6.740  64.956   6.409  1.00  0.00     0.171 HD
HETATM   14  C7  UNL     1      -5.557  66.193   7.504  1.00  0.00     0.116 A 
ENDROOT
BRANCH   4  15
HETATM   15  C2  UNL     1      -3.371  68.034   9.783  1.00  0.00     0.319 C 
BRANCH  15  16
HETATM   16  O1  UNL     1      -2.036  67.797   9.482  1.00  0.00    -0.344 OA
BRANCH  16  17
HETATM   17  C3  UNL     1      -1.267  67.540  10.588  1.00  0.00     0.398 C 
BRANCH  17  18
HETATM   18  N4  UNL     1      -1.020  66.105  10.631  1.00  0.00    -0.058 N 
ATOM     19  H43 UNL     1      -1.869  65.561  10.787  1.00  0.00     0.276 HD
ATOM     20  H42 UNL     1      -0.776  65.717   9.720  1.00  0.00     0.276 HD
ATOM     21  H41 UNL     1      -0.306  65.935  11.339  1.00  0.00     0.276 HD
ENDBRANCH  17  18
ENDBRANCH  16  17
ENDBRANCH  15  16
ENDBRANCH   4  15
BRANCH   1  22
HETATM   22  N1  UNL     1      -6.084  67.774   5.812  1.00  0.00    -0.383 N 
ATOM     23  H12 UNL     1      -6.010  68.684   5.356  1.00  0.00     0.157 HD
ATOM     24  H11 UNL     1      -6.707  67.200   5.245  1.00  0.00     0.157 HD
ENDBRANCH   1  22
TORSDOF 5
ENDMDL
MODEL 2
REMARK VINA RESULT: -6.062212920      3.479      5.394
REMARK  5 active torsions:
REMARK  status: ('A' for Active; 'I' for Inactive)
REMARK    1  A    between atoms: N1_1  and  C1_4 
REMARK    2  A    between atoms: N3_7  and  C2_8 
REMARK    3  A    between atoms: C2_8  and  O1_9 
REMARK    4  A    between atoms: O1_9  and  C3_10 
REMARK    5  A    between atoms: C3_10  and  N4_11 
ROOT
HETATM    1  C1  UNL     1      -2.937  69.858  12.366  1.00  0.00     0.143 A 
HETATM    2  N2  UNL     1      -2.619  69.560  11.105  1.00  0.00    -0.279 N 
ATOM      3  H2  UNL     1      -2.012  70.133  10.518  1.00  0.00     0.189 HD
HETATM    4  N3  UNL     1      -3.189  68.425  10.704  1.00  0.00    -0.259 N 
HETATM    5  C4  UNL     1      -3.912  67.968  11.763  1.00  0.00     0.152 A 
HETATM    6  C5  UNL     1      -4.695  66.854  11.920  1.00  0.00     0.280 A 
HETATM    7  O2  UNL     1      -4.820  66.061  10.967  1.00  0.00    -0.265 OA
HETATM    8  N5  UNL     1      -5.308  66.635  13.087  1.00  0.00    -0.273 N 
ATOM      9  H5  UNL     1      -5.891  65.806  13.207  1.00  0.00     0.173 HD
HETATM   10  C6  UNL     1      -5.158  67.515  14.119  1.00  0.00     0.327 A 
HETATM   11  O3  UNL     1      -5.757  67.277  15.221  1.00  0.00    -0.247 OA
HETATM   12  N6  UNL     1      -4.403  68.588  13.965  1.00  0.00    -0.303 N 
ATOM     13  H6  UNL     1      -4.304  69.232  14.749  1.00  0.00     0.171 HD
HETATM   14  C7  UNL     1      -3.764  68.864  12.825  1.00  0.00     0.116 A 
ENDROOT
BRANCH   4  15
HETATM   15  C2  UNL     1      -3.069  67.790   9.401  1.00  0.00     0.319 C 
BRANCH  15  16
HETATM   16  O1  UNL     1      -3.883  68.409   8.461  1.00  0.00    -0.344 OA
BRANCH  16  17
HETATM   17  C3  UNL     1      -4.585  67.524   7.683  1.00  0.00     0.398 C 
BRANCH  17  18
HETATM   18  N4  UNL     1      -5.782  67.141   8.420  1.00  0.00    -0.058 N 
ATOM     19  H43 UNL     1      -6.344  66.445   7.929  1.00  0.00     0.276 HD
ATOM     20  H42 UNL     1      -5.576  66.585   9.250  1.00  0.00     0.276 HD
ATOM     21  H41 UNL     1      -6.301  67.993   8.631  1.00  0.00     0.276 HD
ENDBRANCH  17  18
ENDBRANCH  16  17
ENDBRANCH  15  16
ENDBRANCH   4  15
BRANCH   1  22
HETATM   22  N1  UNL     1      -2.548  70.891  13.049  1.00  0.00    -0.383 N 
ATOM     23  H12 UNL     1      -2.501  71.849  12.701  1.00  0.00     0.157 HD
ATOM     24  H11 UNL     1      -2.234  70.904  14.019  1.00  0.00     0.157 HD
ENDBRANCH   1  22
TORSDOF 5
ENDMDL
MODEL 3
REMARK VINA RESULT: -5.692037953      2.863      5.825
REMARK  5 active torsions:
REMARK  status: ('A' for Active; 'I' for Inactive)
REMARK    1  A    between atoms: N1_1  and  C1_4 
REMARK    2  A    between atoms: N3_7  and  C2_8 
REMARK    3  A    between atoms: C2_8  and  O1_9 
REMARK    4  A    between atoms: O1_9  and  C3_10 
REMARK    5  A    between atoms: C3_10  and  N4_11 
ROOT
HETATM    1  C1  UNL     1      -5.093  66.698  12.602  1.00  0.00     0.143 A 
HETATM    2  N2  UNL     1      -5.157  65.863  11.564  1.00  0.00    -0.279 N 
ATOM      3  H2  UNL     1      -5.754  65.036  11.532  1.00  0.00     0.189 HD
HETATM    4  N3  UNL     1      -4.349  66.240  10.574  1.00  0.00    -0.259 N 
HETATM    5  C4  UNL     1      -3.733  67.377  10.998  1.00  0.00     0.152 A 
HETATM    6  C5  UNL     1      -2.808  68.191  10.397  1.00  0.00     0.280 A 
HETATM    7  O2  UNL     1      -2.405  67.910   9.253  1.00  0.00    -0.265 OA
HETATM    8  N5  UNL     1      -2.355  69.269  11.045  1.00  0.00    -0.273 N 
ATOM      9  H5  UNL     1      -1.667  69.876  10.600  1.00  0.00     0.173 HD
HETATM   10  C6  UNL     1      -2.810  69.560  12.298  1.00  0.00     0.327 A 
HETATM   11  O3  UNL     1      -2.358  70.596  12.890  1.00  0.00    -0.247 OA
HETATM   12  N6  UNL     1      -3.701  68.773  12.875  1.00  0.00    -0.303 N 
ATOM     13  H6  UNL     1      -4.027  69.010  13.812  1.00  0.00     0.171 HD
HETATM   14  C7  UNL     1      -4.192  67.682  12.282  1.00  0.00     0.116 A 
ENDROOT
BRANCH   4  15
HETATM   15  C2  UNL     1      -4.157  65.578   9.293  1.00  0.00     0.319 C 
BRANCH  15  16
HETATM   16  O1  UNL     1      -4.883  64.397   9.220  1.00  0.00    -0.344 OA
BRANCH  16  17
HETATM   17  C3  UNL     1      -6.011  64.499   8.448  1.00  0.00     0.398 C 
BRANCH  17  18
HETATM   18  N4  UNL     1      -6.144  63.261   7.692  1.00  0.00    -0.058 N 
ATOM     19  H43 UNL     1      -5.376  63.112   7.037  1.00  0.00     0.276 HD
ATOM     20  H42 UNL     1      -5.996  62.429   8.264  1.00  0.00     0.276 HD
ATOM     21  H41 UNL     1      -7.057  63.272   7.237  1.00  0.00     0.276 HD
ENDBRANCH  17  18
ENDBRANCH  16  17
ENDBRANCH  15  16
ENDBRANCH   4  15
BRANCH   1  22
HETATM   22  N1  UNL     1      -5.752  66.613  13.718  1.00  0.00    -0.383 N 
ATOM     23  H12 UNL     1      -5.660  65.865  14.406  1.00  0.00     0.157 HD
ATOM     24  H11 UNL     1      -6.450  67.267  14.071  1.00  0.00     0.157 HD
ENDBRANCH   1  22
TORSDOF 5
ENDMDL
MODEL 4
REMARK VINA RESULT: -5.663641065      3.385      6.157
REMARK  5 active torsions:
REMARK  status: ('A' for Active; 'I' for Inactive)
REMARK    1  A    between atoms: N1_1  and  C1_4 
REMARK    2  A    between atoms: N3_7  and  C2_8 
REMARK    3  A    between atoms: C2_8  and  O1_9 
REMARK    4  A    between atoms: O1_9  and  C3_10 
REMARK    5  A    between atoms: C3_10  and  N4_11 
ROOT
HETATM    1  C1  UNL     1      -5.030  67.599  13.609  1.00  0.00     0.143 A 
HETATM    2  N2  UNL     1      -5.202  66.553  12.799  1.00  0.00    -0.279 N 
ATOM      3  H2  UNL     1      -5.804  65.758  13.012  1.00  0.00     0.189 HD
HETATM    4  N3  UNL     1      -4.492  66.672  11.678  1.00  0.00    -0.259 N 
HETATM    5  C4  UNL     1      -3.828  67.857  11.772  1.00  0.00     0.152 A 
HETATM    6  C5  UNL     1      -2.961  68.486  10.918  1.00  0.00     0.280 A 
HETATM    7  O2  UNL     1      -2.674  67.942   9.835  1.00  0.00    -0.265 OA
HETATM    8  N5  UNL     1      -2.439  69.668  11.257  1.00  0.00    -0.273 N 
ATOM      9  H5  UNL     1      -1.793  70.139  10.623  1.00  0.00     0.173 HD
HETATM   10  C6  UNL     1      -2.766  70.248  12.448  1.00  0.00     0.327 A 
HETATM   11  O3  UNL     1      -2.250  71.378  12.743  1.00  0.00    -0.247 OA
HETATM   12  N6  UNL     1      -3.603  69.639  13.270  1.00  0.00    -0.303 N 
ATOM     13  H6  UNL     1      -3.833  70.091  14.155  1.00  0.00     0.171 HD
HETATM   14  C7  UNL     1      -4.158  68.458  12.990  1.00  0.00     0.116 A 
ENDROOT
BRANCH   4  15
HETATM   15  C2  UNL     1      -4.431  65.732  10.569  1.00  0.00     0.319 C 
BRANCH  15  16
HETATM   16  O1  UNL     1      -5.570  65.809   9.779  1.00  0.00    -0.344 OA
BRANCH  16  17
HETATM   17  C3  UNL     1      -5.304  66.111   8.468  1.00  0.00     0.398 C 
BRANCH  17  18
HETATM   18  N4  UNL     1      -5.373  67.558   8.324  1.00  0.00    -0.058 N 
ATOM     19  H43 UNL     1      -5.990  67.853   7.567  1.00  0.00     0.276 HD
ATOM     20  H42 UNL     1      -5.875  68.010   9.089  1.00  0.00     0.276 HD
ATOM     21  H41 UNL     1      -4.420  67.905   8.215  1.00  0.00     0.276 HD
ENDBRANCH  17  18
ENDBRANCH  16  17
ENDBRANCH  15  16
ENDBRANCH   4  15
BRANCH   1  22
HETATM   22  N1  UNL     1      -5.577  67.787  14.772  1.00  0.00    -0.383 N 
ATOM     23  H12 UNL     1      -5.075  67.957  15.643  1.00  0.00     0.157 HD
ATOM     24  H11 UNL     1      -6.574  67.795  14.988  1.00  0.00     0.157 HD
ENDBRANCH   1  22
TORSDOF 5
ENDMDL
MODEL 5
REMARK VINA RESULT: -5.477696448      4.268      6.506
REMARK  5 active torsions:
REMARK  status: ('A' for Active; 'I' for Inactive)
REMARK    1  A    between atoms: N1_1  and  C1_4 
REMARK    2  A    between atoms: N3_7  and  C2_8 
REMARK    3  A    between atoms: C2_8  and  O1_9 
REMARK    4  A    between atoms: O1_9  and  C3_10 
REMARK    5  A    between atoms: C3_10  and  N4_11 
ROOT
HETATM    1  C1  UNL     1      -5.234  67.178  13.551  1.00  0.00     0.143 A 
HETATM    2  N2  UNL     1      -4.991  66.961  12.257  1.00  0.00    -0.279 N 
ATOM      3  H2  UNL     1      -5.416  66.210  11.714  1.00  0.00     0.189 HD
HETATM    4  N3  UNL     1      -4.126  67.844  11.760  1.00  0.00    -0.259 N 
HETATM    5  C4  UNL     1      -3.795  68.672  12.788  1.00  0.00     0.152 A 
HETATM    6  C5  UNL     1      -2.954  69.752  12.855  1.00  0.00     0.280 A 
HETATM    7  O2  UNL     1      -2.341  70.108  11.830  1.00  0.00    -0.265 OA
HETATM    8  N5  UNL     1      -2.804  70.405  14.011  1.00  0.00    -0.273 N 
ATOM      9  H5  UNL     1      -2.179  71.209  14.063  1.00  0.00     0.173 HD
HETATM   10  C6  UNL     1      -3.485  70.000  15.122  1.00  0.00     0.327 A 
HETATM   11  O3  UNL     1      -3.320  70.645  16.212  1.00  0.00    -0.247 OA
HETATM   12  N6  UNL     1      -4.295  68.959  15.055  1.00  0.00    -0.303 N 
ATOM     13  H6  UNL     1      -4.794  68.674  15.898  1.00  0.00     0.171 HD
HETATM   14  C7  UNL     1      -4.488  68.265  13.931  1.00  0.00     0.116 A 
ENDROOT
BRANCH   4  15
HETATM   15  C2  UNL     1      -3.629  67.919  10.395  1.00  0.00     0.319 C 
BRANCH  15  16
HETATM   16  O1  UNL     1      -2.980  66.747  10.028  1.00  0.00    -0.344 OA
BRANCH  16  17
HETATM   17  C3  UNL     1      -1.669  66.704  10.428  1.00  0.00     0.398 C 
BRANCH  17  18
HETATM   18  N4  UNL     1      -1.012  67.901   9.921  1.00  0.00    -0.058 N 
ATOM     19  H43 UNL     1      -1.580  68.742  10.031  1.00  0.00     0.276 HD
ATOM     20  H42 UNL     1      -0.223  68.195  10.498  1.00  0.00     0.276 HD
ATOM     21  H41 UNL     1      -0.751  67.724   8.952  1.00  0.00     0.276 HD
ENDBRANCH  17  18
ENDBRANCH  16  17
ENDBRANCH  15  16
ENDBRANCH   4  15
BRANCH   1  22
HETATM   22  N1  UNL     1      -6.025  66.497  14.324  1.00  0.00    -0.383 N 
ATOM     23  H12 UNL     1      -6.525  66.866  15.134  1.00  0.00     0.157 HD
ATOM     24  H11 UNL     1      -6.264  65.509  14.243  1.00  0.00     0.157 HD
ENDBRANCH   1  22
TORSDOF 5
ENDMDL
