MODEL 1
REMARK VINA RESULT: -5.820197175      0.000      0.000
REMARK  5 active torsions:
REMARK  status: ('A' for Active; 'I' for Inactive)
REMARK    1  A    between atoms: N1_1  and  C1_4 
REMARK    2  A    between atoms: N3_9  and  C3_10 
REMARK    3  A    between atoms: C3_10  and  C4_11 
REMARK    4  A    between atoms: C4_11  and  C5_12 
REMARK    5  A    between atoms: C5_12  and  N4_13 
ROOT
HETATM    1  C1  UNL     1      -4.976  66.967   9.306  1.00  0.00     0.173 A 
HETATM    2  N2  UNL     1      -5.091  66.727  10.625  1.00  0.00    -0.289 N 
ATOM      3  H2  UNL     1      -5.756  66.026  10.950  1.00  0.00     0.172 HD
HETATM    4  C2  UNL     1      -4.334  67.406  11.536  1.00  0.00     0.342 A 
HETATM    5  O1  UNL     1      -4.547  67.083  12.734  1.00  0.00    -0.245 OA
HETATM    6  N3  UNL     1      -3.448  68.336  11.149  1.00  0.00    -0.237 N 
HETATM    7  N6  UNL     1      -3.355  68.556   9.834  1.00  0.00    -0.257 N 
ATOM      8  H6  UNL     1      -2.689  69.260   9.515  1.00  0.00     0.190 HD
HETATM    9  C7  UNL     1      -4.067  67.922   8.919  1.00  0.00     0.303 A 
HETATM   10  O2  UNL     1      -3.949  68.158   7.696  1.00  0.00    -0.263 OA
ENDROOT
BRANCH   6  11
HETATM   11  C3  UNL     1      -2.635  69.021  12.084  1.00  0.00     0.196 C 
BRANCH  11  12
HETATM   12  C4  UNL     1      -3.178  70.142  12.876  1.00  0.00     0.190 A 
HETATM   13  C6  UNL     1      -3.051  69.891  14.390  1.00  0.00     0.275 A 
HETATM   14  N5  UNL     1      -4.310  70.029  13.730  1.00  0.00    -0.059 N 
ATOM     15  H52 UNL     1      -5.104  70.648  13.897  1.00  0.00     0.278 HD
ATOM     16  H51 UNL     1      -5.133  69.426  13.696  1.00  0.00     0.278 HD
BRANCH  12  17
HETATM   17  C5  UNL     1      -2.848  71.576  12.540  1.00  0.00     0.271 C 
BRANCH  17  18
HETATM   18  N4  UNL     1      -1.698  71.811  11.766  1.00  0.00    -0.077 N 
ATOM     19  H43 UNL     1      -0.966  72.201  12.360  1.00  0.00     0.274 HD
ATOM     20  H42 UNL     1      -1.278  70.919  11.507  1.00  0.00     0.274 HD
ATOM     21  H41 UNL     1      -1.803  72.390  10.934  1.00  0.00     0.274 HD
ENDBRANCH  17  18
ENDBRANCH  12  17
ENDBRANCH  11  12
ENDBRANCH   6  11
BRANCH   1  22
HETATM   22  N1  UNL     1      -5.700  66.318   8.432  1.00  0.00    -0.381 N 
ATOM     23  H12 UNL     1      -6.524  66.739   8.003  1.00  0.00     0.157 HD
ATOM     24  H11 UNL     1      -5.465  65.366   8.151  1.00  0.00     0.157 HD
ENDBRANCH   1  22
TORSDOF 5
ENDMDL
MODEL 2
REMARK VINA RESULT: -5.666455596      1.647      2.311
REMARK  5 active torsions:
REMARK  status: ('A' for Active; 'I' for Inactive)
REMARK    1  A    between atoms: N1_1  and  C1_4 
REMARK    2  A    between atoms: N3_9  and  C3_10 
REMARK    3  A    between atoms: C3_10  and  C4_11 
REMARK    4  A    between atoms: C4_11  and  C5_12 
REMARK    5  A    between atoms: C5_12  and  N4_13 
ROOT
HETATM    1  C1  UNL     1      -5.528  65.939   8.283  1.00  0.00     0.173 A 
HETATM    2  N2  UNL     1      -5.345  65.495   9.540  1.00  0.00    -0.289 N 
ATOM      3  H2  UNL     1      -5.508  64.511   9.752  1.00  0.00     0.172 HD
HETATM    4  C2  UNL     1      -4.945  66.337  10.537  1.00  0.00     0.342 A 
HETATM    5  O1  UNL     1      -4.817  65.788  11.662  1.00  0.00    -0.245 OA
HETATM    6  N3  UNL     1      -4.720  67.639  10.300  1.00  0.00    -0.237 N 
HETATM    7  N6  UNL     1      -4.911  68.054   9.044  1.00  0.00    -0.257 N 
ATOM      8  H6  UNL     1      -4.747  69.040   8.839  1.00  0.00     0.190 HD
HETATM    9  C7  UNL     1      -5.296  67.274   8.050  1.00  0.00     0.303 A 
HETATM   10  O2  UNL     1      -5.464  67.703   6.886  1.00  0.00    -0.263 OA
ENDROOT
BRANCH   6  11
HETATM   11  C3  UNL     1      -4.274  68.513  11.319  1.00  0.00     0.196 C 
BRANCH  11  12
HETATM   12  C4  UNL     1      -2.855  68.907  11.406  1.00  0.00     0.190 A 
HETATM   13  C6  UNL     1      -2.533  69.609  12.739  1.00  0.00     0.275 A 
HETATM   14  N5  UNL     1      -2.414  70.259  11.473  1.00  0.00    -0.059 N 
ATOM     15  H52 UNL     1      -1.637  70.746  11.027  1.00  0.00     0.278 HD
ATOM     16  H51 UNL     1      -2.813  71.125  11.110  1.00  0.00     0.278 HD
BRANCH  12  17
HETATM   17  C5  UNL     1      -1.748  67.957  11.020  1.00  0.00     0.271 C 
BRANCH  17  18
HETATM   18  N4  UNL     1      -1.311  67.982   9.684  1.00  0.00    -0.077 N 
ATOM     19  H43 UNL     1      -2.110  67.847   9.065  1.00  0.00     0.274 HD
ATOM     20  H42 UNL     1      -1.037  68.933   9.436  1.00  0.00     0.274 HD
ATOM     21  H41 UNL     1      -0.567  67.337   9.421  1.00  0.00     0.274 HD
ENDBRANCH  17  18
ENDBRANCH  12  17
ENDBRANCH  11  12
ENDBRANCH   6  11
BRANCH   1  22
HETATM   22  N1  UNL     1      -5.911  65.134   7.327  1.00  0.00    -0.381 N 
ATOM     23  H12 UNL     1      -6.866  64.778   7.279  1.00  0.00     0.157 HD
ATOM     24  H11 UNL     1      -5.266  64.833   6.597  1.00  0.00     0.157 HD
ENDBRANCH   1  22
TORSDOF 5
ENDMDL
MODEL 3
REMARK VINA RESULT: -5.567047193      1.884      5.446
REMARK  5 active torsions:
REMARK  status: ('A' for Active; 'I' for Inactive)
REMARK    1  A    between atoms: N1_1  and  C1_4 
REMARK    2  A    between atoms: N3_9  and  C3_10 
REMARK    3  A    between atoms: C3_10  and  C4_11 
REMARK    4  A    between atoms: C4_11  and  C5_12 
REMARK    5  A    between atoms: C5_12  and  N4_13 
ROOT
HETATM    1  C1  UNL     1      -3.718  69.196  13.408  1.00  0.00     0.173 A 
HETATM    2  N2  UNL     1      -2.762  69.172  12.460  1.00  0.00    -0.289 N 
ATOM      3  H2  UNL     1      -2.016  69.867  12.484  1.00  0.00     0.172 HD
HETATM    4  C2  UNL     1      -2.773  68.236  11.466  1.00  0.00     0.342 A 
HETATM    5  O1  UNL     1      -1.823  68.335  10.648  1.00  0.00    -0.245 OA
HETATM    6  N3  UNL     1      -3.737  67.305  11.399  1.00  0.00    -0.237 N 
HETATM    7  N6  UNL     1      -4.675  67.352  12.351  1.00  0.00    -0.257 N 
ATOM      8  H6  UNL     1      -5.419  66.655  12.321  1.00  0.00     0.190 HD
HETATM    9  C7  UNL     1      -4.701  68.239  13.329  1.00  0.00     0.303 A 
HETATM   10  O2  UNL     1      -5.598  68.248  14.202  1.00  0.00    -0.263 OA
ENDROOT
BRANCH   6  11
HETATM   11  C3  UNL     1      -3.739  66.310  10.393  1.00  0.00     0.196 C 
BRANCH  11  12
HETATM   12  C4  UNL     1      -4.687  66.382   9.264  1.00  0.00     0.190 A 
HETATM   13  C6  UNL     1      -4.138  67.232   8.104  1.00  0.00     0.275 A 
HETATM   14  N5  UNL     1      -5.314  67.585   8.835  1.00  0.00    -0.059 N 
ATOM     15  H52 UNL     1      -6.267  67.789   8.535  1.00  0.00     0.278 HD
ATOM     16  H51 UNL     1      -5.577  68.434   9.336  1.00  0.00     0.278 HD
BRANCH  12  17
HETATM   17  C5  UNL     1      -5.384  65.149   8.742  1.00  0.00     0.271 C 
BRANCH  17  18
HETATM   18  N4  UNL     1      -6.785  65.104   8.849  1.00  0.00    -0.077 N 
ATOM     19  H43 UNL     1      -7.200  65.607   8.065  1.00  0.00     0.274 HD
ATOM     20  H42 UNL     1      -7.108  64.155   8.658  1.00  0.00     0.274 HD
ATOM     21  H41 UNL     1      -7.201  65.433   9.720  1.00  0.00     0.274 HD
ENDBRANCH  17  18
ENDBRANCH  12  17
ENDBRANCH  11  12
ENDBRANCH   6  11
BRANCH   1  22
HETATM   22  N1  UNL     1      -3.708  70.092  14.359  1.00  0.00    -0.381 N 
ATOM     23  H12 UNL     1      -2.932  70.165  15.016  1.00  0.00     0.157 HD
ATOM     24  H11 UNL     1      -4.479  70.749  14.476  1.00  0.00     0.157 HD
ENDBRANCH   1  22
TORSDOF 5
ENDMDL
MODEL 4
REMARK VINA RESULT: -5.473876326      2.159      5.384
REMARK  5 active torsions:
REMARK  status: ('A' for Active; 'I' for Inactive)
REMARK    1  A    between atoms: N1_1  and  C1_4 
REMARK    2  A    between atoms: N3_9  and  C3_10 
REMARK    3  A    between atoms: C3_10  and  C4_11 
REMARK    4  A    between atoms: C4_11  and  C5_12 
REMARK    5  A    between atoms: C5_12  and  N4_13 
ROOT
HETATM    1  C1  UNL     1      -4.679  68.535  14.273  1.00  0.00     0.173 A 
HETATM    2  N2  UNL     1      -3.820  69.203  13.480  1.00  0.00    -0.289 N 
ATOM      3  H2  UNL     1      -3.426  70.087  13.802  1.00  0.00     0.172 HD
HETATM    4  C2  UNL     1      -3.466  68.720  12.253  1.00  0.00     0.342 A 
HETATM    5  O1  UNL     1      -2.659  69.448  11.620  1.00  0.00    -0.245 OA
HETATM    6  N3  UNL     1      -3.962  67.561  11.793  1.00  0.00    -0.237 N 
HETATM    7  N6  UNL     1      -4.815  66.919  12.598  1.00  0.00    -0.257 N 
ATOM      8  H6  UNL     1      -5.207  66.036  12.270  1.00  0.00     0.190 HD
HETATM    9  C7  UNL     1      -5.183  67.351  13.791  1.00  0.00     0.303 A 
HETATM   10  O2  UNL     1      -5.984  66.718  14.515  1.00  0.00    -0.263 OA
ENDROOT
BRANCH   6  11
HETATM   11  C3  UNL     1      -3.577  67.036  10.537  1.00  0.00     0.196 C 
BRANCH  11  12
HETATM   12  C4  UNL     1      -4.561  66.887   9.448  1.00  0.00     0.190 A 
HETATM   13  C6  UNL     1      -4.102  67.592   8.158  1.00  0.00     0.275 A 
HETATM   14  N5  UNL     1      -5.276  67.976   8.876  1.00  0.00    -0.059 N 
ATOM     15  H52 UNL     1      -6.249  68.077   8.588  1.00  0.00     0.278 HD
ATOM     16  H51 UNL     1      -5.579  68.871   9.262  1.00  0.00     0.278 HD
BRANCH  12  17
HETATM   17  C5  UNL     1      -5.192  65.552   9.134  1.00  0.00     0.271 C 
BRANCH  17  18
HETATM   18  N4  UNL     1      -6.596  65.483   9.141  1.00  0.00    -0.077 N 
ATOM     19  H43 UNL     1      -6.897  64.682   8.586  1.00  0.00     0.274 HD
ATOM     20  H42 UNL     1      -6.916  65.204  10.068  1.00  0.00     0.274 HD
ATOM     21  H41 UNL     1      -7.109  66.312   8.842  1.00  0.00     0.274 HD
ENDBRANCH  17  18
ENDBRANCH  12  17
ENDBRANCH  11  12
ENDBRANCH   6  11
BRANCH   1  22
HETATM   22  N1  UNL     1      -5.018  68.997  15.447  1.00  0.00    -0.381 N 
ATOM     23  H12 UNL     1      -5.833  69.598  15.569  1.00  0.00     0.157 HD
ATOM     24  H11 UNL     1      -4.478  68.772  16.282  1.00  0.00     0.157 HD
ENDBRANCH   1  22
TORSDOF 5
ENDMDL
MODEL 5
REMARK VINA RESULT: -5.470726886      2.175      3.609
REMARK  5 active torsions:
REMARK  status: ('A' for Active; 'I' for Inactive)
REMARK    1  A    between atoms: N1_1  and  C1_4 
REMARK    2  A    between atoms: N3_9  and  C3_10 
REMARK    3  A    between atoms: C3_10  and  C4_11 
REMARK    4  A    between atoms: C4_11  and  C5_12 
REMARK    5  A    between atoms: C5_12  and  N4_13 
ROOT
HETATM    1  C1  UNL     1      -5.665  64.988   8.062  1.00  0.00     0.173 A 
HETATM    2  N2  UNL     1      -5.776  66.120   7.342  1.00  0.00    -0.289 N 
ATOM      3  H2  UNL     1      -6.302  66.108   6.469  1.00  0.00     0.172 HD
HETATM    4  C2  UNL     1      -5.197  67.284   7.759  1.00  0.00     0.342 A 
HETATM    5  O1  UNL     1      -5.379  68.261   6.988  1.00  0.00    -0.245 OA
HETATM    6  N3  UNL     1      -4.496  67.341   8.902  1.00  0.00    -0.237 N 
HETATM    7  N6  UNL     1      -4.399  66.203   9.596  1.00  0.00    -0.257 N 
ATOM      8  H6  UNL     1      -3.869  66.221  10.468  1.00  0.00     0.190 HD
HETATM    9  C7  UNL     1      -4.943  65.056   9.230  1.00  0.00     0.303 A 
HETATM   10  O2  UNL     1      -4.829  64.012   9.910  1.00  0.00    -0.263 OA
ENDROOT
BRANCH   6  11
HETATM   11  C3  UNL     1      -3.919  68.550   9.359  1.00  0.00     0.196 C 
BRANCH  11  12
HETATM   12  C4  UNL     1      -2.977  68.554  10.494  1.00  0.00     0.190 A 
HETATM   13  C6  UNL     1      -3.704  68.686  11.845  1.00  0.00     0.275 A 
HETATM   14  N5  UNL     1      -2.788  69.668  11.359  1.00  0.00    -0.059 N 
ATOM     15  H52 UNL     1      -1.949  70.080  11.768  1.00  0.00     0.278 HD
ATOM     16  H51 UNL     1      -2.881  70.673  11.208  1.00  0.00     0.278 HD
BRANCH  12  17
HETATM   17  C5  UNL     1      -1.851  67.553  10.586  1.00  0.00     0.271 C 
BRANCH  17  18
HETATM   18  N4  UNL     1      -0.658  67.857   9.907  1.00  0.00    -0.077 N 
ATOM     19  H43 UNL     1      -0.874  68.405   9.075  1.00  0.00     0.274 HD
ATOM     20  H42 UNL     1      -0.125  68.536  10.450  1.00  0.00     0.274 HD
ATOM     21  H41 UNL     1      -0.052  67.078   9.651  1.00  0.00     0.274 HD
ENDBRANCH  17  18
ENDBRANCH  12  17
ENDBRANCH  11  12
ENDBRANCH   6  11
BRANCH   1  22
HETATM   22  N1  UNL     1      -6.218  63.873   7.663  1.00  0.00    -0.381 N 
ATOM     23  H12 UNL     1      -5.658  63.071   7.376  1.00  0.00     0.157 HD
ATOM     24  H11 UNL     1      -7.232  63.768   7.627  1.00  0.00     0.157 HD
ENDBRANCH   1  22
TORSDOF 5
ENDMDL
