MODEL 1
REMARK VINA RESULT: -6.801432883      0.000      0.000
REMARK  5 active torsions:
REMARK  status: ('A' for Active; 'I' for Inactive)
REMARK    1  A    between atoms: C5_5  and  O1_6 
REMARK    2  A    between atoms: C10_12  and  C11_13 
REMARK    3  A    between atoms: C12_14  and  C13_15 
REMARK    4  A    between atoms: C13_15  and  C14_17 
REMARK    5  A    between atoms: C14_17  and  O3_18 
ROOT
HETATM    1  C1  UNL     1      -4.937   3.676  12.258  1.00  0.00     0.016 C 
HETATM    2  C2  UNL     1      -5.267   4.630  13.381  1.00  0.00    -0.033 C 
HETATM    3  C3  UNL     1      -6.680   5.087  13.318  1.00  0.00     0.012 C 
HETATM    4  C4  UNL     1      -6.806   6.561  12.967  1.00  0.00     0.032 C 
HETATM    5  C5  UNL     1      -5.997   6.855  11.710  1.00  0.00     0.118 C 
HETATM    6  C6  UNL     1      -4.539   6.590  11.954  1.00  0.00     0.037 C 
HETATM    7  C7  UNL     1      -4.366   5.887  13.242  1.00  0.00    -0.003 C 
HETATM    8  C8  UNL     1      -3.024   5.277  13.464  1.00  0.00     0.006 C 
HETATM    9  C9  UNL     1      -3.260   4.366  14.648  1.00  0.00     0.010 C 
HETATM   10  C10 UNL     1      -4.790   4.201  14.727  1.00  0.00     0.017 C 
ENDROOT
BRANCH  10  11
HETATM   11  C11 UNL     1      -5.081   2.862  15.179  1.00  0.00    -0.018 C 
HETATM   12  C12 UNL     1      -4.300   1.902  15.575  1.00  0.00     0.049 C 
BRANCH  12  13
HETATM   13  C13 UNL     1      -4.895   0.618  15.986  1.00  0.00     0.172 C 
HETATM   14  O2  UNL     1      -4.624  -0.450  15.354  1.00  0.00    -0.291 OA
BRANCH  13  15
HETATM   15  C14 UNL     1      -5.819   0.500  17.129  1.00  0.00     0.246 C 
BRANCH  15  16
HETATM   16  O3  UNL     1      -7.135   0.423  16.751  1.00  0.00    -0.393 OA
ATOM     17  H3  UNL     1      -7.247   0.175  15.841  1.00  0.00     0.209 HD
ENDBRANCH  15  16
ENDBRANCH  13  15
ENDBRANCH  12  13
ENDBRANCH  10  11
BRANCH   5  18
HETATM   18  O1  UNL     1      -6.251   8.174  11.327  1.00  0.00    -0.396 OA
ATOM     19  H1  UNL     1      -5.420   8.630  11.265  1.00  0.00     0.210 HD
ENDBRANCH   5  18
TORSDOF 5
ENDMDL
MODEL 2
REMARK VINA RESULT: -6.553147243      1.412      2.451
REMARK  5 active torsions:
REMARK  status: ('A' for Active; 'I' for Inactive)
REMARK    1  A    between atoms: C5_5  and  O1_6 
REMARK    2  A    between atoms: C10_12  and  C11_13 
REMARK    3  A    between atoms: C12_14  and  C13_15 
REMARK    4  A    between atoms: C13_15  and  C14_17 
REMARK    5  A    between atoms: C14_17  and  O3_18 
ROOT
HETATM    1  C1  UNL     1      -4.108   5.897  14.426  1.00  0.00     0.016 C 
HETATM    2  C2  UNL     1      -4.451   5.078  13.204  1.00  0.00    -0.033 C 
HETATM    3  C3  UNL     1      -3.235   4.698  12.438  1.00  0.00     0.012 C 
HETATM    4  C4  UNL     1      -3.152   5.391  11.087  1.00  0.00     0.032 C 
HETATM    5  C5  UNL     1      -3.329   6.893  11.275  1.00  0.00     0.118 C 
HETATM    6  C6  UNL     1      -4.692   7.192  11.833  1.00  0.00     0.037 C 
HETATM    7  C7  UNL     1      -5.341   5.937  12.268  1.00  0.00    -0.003 C 
HETATM    8  C8  UNL     1      -6.547   6.105  13.128  1.00  0.00     0.006 C 
HETATM    9  C9  UNL     1      -6.763   4.714  13.680  1.00  0.00     0.010 C 
HETATM   10  C10 UNL     1      -5.430   3.978  13.443  1.00  0.00     0.017 C 
ENDROOT
BRANCH  10  11
HETATM   11  C11 UNL     1      -5.209   3.070  14.541  1.00  0.00    -0.018 C 
HETATM   12  C12 UNL     1      -4.582   1.933  14.601  1.00  0.00     0.049 C 
BRANCH  12  13
HETATM   13  C13 UNL     1      -4.517   1.219  15.888  1.00  0.00     0.172 C 
HETATM   14  O2  UNL     1      -3.400   0.839  16.359  1.00  0.00    -0.291 OA
BRANCH  13  15
HETATM   15  C14 UNL     1      -5.717   0.909  16.688  1.00  0.00     0.246 C 
BRANCH  15  16
HETATM   16  O3  UNL     1      -5.649  -0.312  17.309  1.00  0.00    -0.393 OA
ATOM     17  H3  UNL     1      -6.499  -0.645  17.568  1.00  0.00     0.209 HD
ENDBRANCH  15  16
ENDBRANCH  13  15
ENDBRANCH  12  13
ENDBRANCH  10  11
BRANCH   5  18
HETATM   18  O1  UNL     1      -3.099   7.516  10.046  1.00  0.00    -0.396 OA
ATOM     19  H1  UNL     1      -2.517   8.253  10.192  1.00  0.00     0.210 HD
ENDBRANCH   5  18
TORSDOF 5
ENDMDL
MODEL 3
REMARK VINA RESULT: -6.416067969      1.964      2.961
REMARK  5 active torsions:
REMARK  status: ('A' for Active; 'I' for Inactive)
REMARK    1  A    between atoms: C5_5  and  O1_6 
REMARK    2  A    between atoms: C10_12  and  C11_13 
REMARK    3  A    between atoms: C12_14  and  C13_15 
REMARK    4  A    between atoms: C13_15  and  C14_17 
REMARK    5  A    between atoms: C14_17  and  O3_18 
ROOT
HETATM    1  C1  UNL     1      -3.301   3.877  14.082  1.00  0.00     0.016 C 
HETATM    2  C2  UNL     1      -4.610   3.506  13.428  1.00  0.00    -0.033 C 
HETATM    3  C3  UNL     1      -4.479   2.285  12.589  1.00  0.00     0.012 C 
HETATM    4  C4  UNL     1      -4.624   2.575  11.103  1.00  0.00     0.032 C 
HETATM    5  C5  UNL     1      -3.681   3.707  10.713  1.00  0.00     0.118 C 
HETATM    6  C6  UNL     1      -4.052   4.969  11.439  1.00  0.00     0.037 C 
HETATM    7  C7  UNL     1      -5.043   4.667  12.494  1.00  0.00    -0.003 C 
HETATM    8  C8  UNL     1      -5.259   5.748  13.497  1.00  0.00     0.006 C 
HETATM    9  C9  UNL     1      -6.019   5.039  14.597  1.00  0.00     0.010 C 
HETATM   10  C10 UNL     1      -5.794   3.538  14.334  1.00  0.00     0.017 C 
ENDROOT
BRANCH  10  11
HETATM   11  C11 UNL     1      -5.722   2.859  15.605  1.00  0.00    -0.018 C 
HETATM   12  C12 UNL     1      -6.647   2.334  16.351  1.00  0.00     0.049 C 
BRANCH  12  13
HETATM   13  C13 UNL     1      -6.265   1.694  17.622  1.00  0.00     0.172 C 
HETATM   14  O2  UNL     1      -6.439   2.299  18.726  1.00  0.00    -0.291 OA
BRANCH  13  15
HETATM   15  C14 UNL     1      -5.671   0.346  17.687  1.00  0.00     0.246 C 
BRANCH  15  16
HETATM   16  O3  UNL     1      -5.605  -0.272  16.465  1.00  0.00    -0.393 OA
ATOM     17  H3  UNL     1      -5.780  -1.204  16.509  1.00  0.00     0.209 HD
ENDBRANCH  15  16
ENDBRANCH  13  15
ENDBRANCH  12  13
ENDBRANCH  10  11
BRANCH   5  18
HETATM   18  O1  UNL     1      -3.724   3.850   9.324  1.00  0.00    -0.396 OA
ATOM     19  H1  UNL     1      -2.836   3.786   8.992  1.00  0.00     0.210 HD
ENDBRANCH   5  18
TORSDOF 5
ENDMDL
MODEL 4
REMARK VINA RESULT: -6.364336553      0.602      1.245
REMARK  5 active torsions:
REMARK  status: ('A' for Active; 'I' for Inactive)
REMARK    1  A    between atoms: C5_5  and  O1_6 
REMARK    2  A    between atoms: C10_12  and  C11_13 
REMARK    3  A    between atoms: C12_14  and  C13_15 
REMARK    4  A    between atoms: C13_15  and  C14_17 
REMARK    5  A    between atoms: C14_17  and  O3_18 
ROOT
HETATM    1  C1  UNL     1      -4.912   3.983  12.203  1.00  0.00     0.016 C 
HETATM    2  C2  UNL     1      -5.339   4.920  13.307  1.00  0.00    -0.033 C 
HETATM    3  C3  UNL     1      -6.794   5.218  13.243  1.00  0.00     0.012 C 
HETATM    4  C4  UNL     1      -7.082   6.661  12.862  1.00  0.00     0.032 C 
HETATM    5  C5  UNL     1      -6.315   7.014  11.593  1.00  0.00     0.118 C 
HETATM    6  C6  UNL     1      -4.835   6.915  11.834  1.00  0.00     0.037 C 
HETATM    7  C7  UNL     1      -4.582   6.264  13.136  1.00  0.00    -0.003 C 
HETATM    8  C8  UNL     1      -3.181   5.809  13.363  1.00  0.00     0.006 C 
HETATM    9  C9  UNL     1      -3.311   4.904  14.568  1.00  0.00     0.010 C 
HETATM   10  C10 UNL     1      -4.813   4.575  14.660  1.00  0.00     0.017 C 
ENDROOT
BRANCH  10  11
HETATM   11  C11 UNL     1      -4.954   3.222  15.142  1.00  0.00    -0.018 C 
HETATM   12  C12 UNL     1      -5.926   2.634  15.772  1.00  0.00     0.049 C 
BRANCH  12  13
HETATM   13  C13 UNL     1      -5.784   1.214  16.142  1.00  0.00     0.172 C 
HETATM   14  O2  UNL     1      -6.772   0.570  16.614  1.00  0.00    -0.291 OA
BRANCH  13  15
HETATM   15  C14 UNL     1      -4.518   0.475  15.987  1.00  0.00     0.246 C 
BRANCH  15  16
HETATM   16  O3  UNL     1      -4.646  -0.657  15.225  1.00  0.00    -0.393 OA
ATOM     17  H3  UNL     1      -5.467  -1.112  15.368  1.00  0.00     0.209 HD
ENDBRANCH  15  16
ENDBRANCH  13  15
ENDBRANCH  12  13
ENDBRANCH  10  11
BRANCH   5  18
HETATM   18  O1  UNL     1      -6.713   8.288  11.183  1.00  0.00    -0.396 OA
ATOM     19  H1  UNL     1      -6.669   8.322  10.235  1.00  0.00     0.210 HD
ENDBRANCH   5  18
TORSDOF 5
ENDMDL
MODEL 5
REMARK VINA RESULT: -6.152414090      1.505      2.203
REMARK  5 active torsions:
REMARK  status: ('A' for Active; 'I' for Inactive)
REMARK    1  A    between atoms: C5_5  and  O1_6 
REMARK    2  A    between atoms: C10_12  and  C11_13 
REMARK    3  A    between atoms: C12_14  and  C13_15 
REMARK    4  A    between atoms: C13_15  and  C14_17 
REMARK    5  A    between atoms: C14_17  and  O3_18 
ROOT
HETATM    1  C1  UNL     1      -6.178   4.458  13.649  1.00  0.00     0.016 C 
HETATM    2  C2  UNL     1      -4.685   4.381  13.864  1.00  0.00    -0.033 C 
HETATM    3  C3  UNL     1      -4.179   5.548  14.634  1.00  0.00     0.012 C 
HETATM    4  C4  UNL     1      -3.305   6.470  13.799  1.00  0.00     0.032 C 
HETATM    5  C5  UNL     1      -4.038   6.838  12.515  1.00  0.00     0.118 C 
HETATM    6  C6  UNL     1      -4.290   5.609  11.687  1.00  0.00     0.037 C 
HETATM    7  C7  UNL     1      -3.985   4.400  12.480  1.00  0.00    -0.003 C 
HETATM    8  C8  UNL     1      -4.488   3.118  11.910  1.00  0.00     0.006 C 
HETATM    9  C9  UNL     1      -4.343   2.155  13.069  1.00  0.00     0.010 C 
HETATM   10  C10 UNL     1      -4.185   3.050  14.314  1.00  0.00     0.017 C 
ENDROOT
BRANCH  10  11
HETATM   11  C11 UNL     1      -4.830   2.398  15.427  1.00  0.00    -0.018 C 
HETATM   12  C12 UNL     1      -4.869   1.150  15.785  1.00  0.00     0.049 C 
BRANCH  12  13
HETATM   13  C13 UNL     1      -5.623   0.776  16.995  1.00  0.00     0.172 C 
HETATM   14  O2  UNL     1      -5.605  -0.422  17.420  1.00  0.00    -0.291 OA
BRANCH  13  15
HETATM   15  C14 UNL     1      -6.422   1.745  17.767  1.00  0.00     0.246 C 
BRANCH  15  16
HETATM   16  O3  UNL     1      -5.978   1.903  19.055  1.00  0.00    -0.393 OA
ATOM     17  H3  UNL     1      -5.335   2.596  19.144  1.00  0.00     0.209 HD
ENDBRANCH  15  16
ENDBRANCH  13  15
ENDBRANCH  12  13
ENDBRANCH  10  11
BRANCH   5  18
HETATM   18  O1  UNL     1      -3.281   7.799  11.841  1.00  0.00    -0.396 OA
ATOM     19  H1  UNL     1      -3.554   7.807  10.931  1.00  0.00     0.210 HD
ENDBRANCH   5  18
TORSDOF 5
ENDMDL
