MODEL 1
REMARK VINA RESULT: -7.008024197      0.000      0.000
REMARK  6 active torsions:
REMARK  status: ('A' for Active; 'I' for Inactive)
REMARK    1  A    between atoms: C3_3  and  O1_4 
REMARK    2  A    between atoms: C3_3  and  C4_6 
REMARK    3  A    between atoms: C5_7  and  C6_8 
REMARK    4  A    between atoms: C6_8  and  C7_9 
REMARK    5  A    between atoms: C6_8  and  C11_16 
REMARK       I    between atoms: C7_9  and  N1_11 
REMARK    6  A    between atoms: N1_11  and  C8_13 
ROOT
HETATM    1  C1  UNL     1      -6.708   1.485  17.190  1.00  0.00     0.015 C 
HETATM    2  C2  UNL     1      -5.689   1.181  16.616  1.00  0.00    -0.073 C 
HETATM    3  C3  UNL     1      -4.457   0.829  15.906  1.00  0.00     0.276 C 
ENDROOT
BRANCH   3   4
HETATM    4  O1  UNL     1      -3.337   1.296  16.579  1.00  0.00    -0.372 OA
ATOM      5  H1  UNL     1      -2.587   1.353  16.000  1.00  0.00     0.212 HD
ENDBRANCH   3   4
BRANCH   3   6
HETATM    6  C4  UNL     1      -4.568   1.436  14.567  1.00  0.00    -0.061 C 
HETATM    7  C5  UNL     1      -4.652   1.924  13.463  1.00  0.00    -0.086 C 
BRANCH   7   8
HETATM    8  C6  UNL     1      -4.749   2.498  12.118  1.00  0.00     0.187 C 
BRANCH   8   9
HETATM    9  C7  UNL     1      -4.308   3.915  12.226  1.00  0.00     0.236 C 
HETATM   10  O2  UNL     1      -5.032   4.797  11.665  1.00  0.00    -0.272 OA
HETATM   11  N1  UNL     1      -3.123   4.271  12.928  1.00  0.00    -0.356 N 
ATOM     12  H1  UNL     1      -2.547   3.558  13.375  1.00  0.00     0.162 HD
BRANCH  11  13
HETATM   13  C8  UNL     1      -2.757   5.664  12.992  1.00  0.00     0.076 C 
HETATM   14  C9  UNL     1      -1.256   5.858  13.006  1.00  0.00     0.032 C 
HETATM   15  C10 UNL     1      -3.315   6.231  14.280  1.00  0.00     0.032 C 
ENDBRANCH  11  13
ENDBRANCH   8   9
BRANCH   8  16
HETATM   16  C11 UNL     1      -3.903   1.736  11.167  1.00  0.00     0.174 C 
HETATM   17  C12 UNL     1      -4.536   0.547  10.551  1.00  0.00     0.305 C 
HETATM   18  N2  UNL     1      -3.640  -0.591  10.475  1.00  0.00     0.088 N 
HETATM   19  C13 UNL     1      -3.607  -1.377  11.666  1.00  0.00     0.310 C 
HETATM   20  C14 UNL     1      -2.355  -0.135  10.030  1.00  0.00     0.298 C 
HETATM   21  C15 UNL     1      -1.761   0.873  10.983  1.00  0.00     0.198 C 
HETATM   22  O3  UNL     1      -2.687   1.444  11.819  1.00  0.00    -0.381 OA
ENDBRANCH   8  16
ENDBRANCH   7   8
ENDBRANCH   3   6
TORSDOF 6
ENDMDL
MODEL 2
REMARK VINA RESULT: -6.683990873      1.301      1.641
REMARK  6 active torsions:
REMARK  status: ('A' for Active; 'I' for Inactive)
REMARK    1  A    between atoms: C3_3  and  O1_4 
REMARK    2  A    between atoms: C3_3  and  C4_6 
REMARK    3  A    between atoms: C5_7  and  C6_8 
REMARK    4  A    between atoms: C6_8  and  C7_9 
REMARK    5  A    between atoms: C6_8  and  C11_16 
REMARK       I    between atoms: C7_9  and  N1_11 
REMARK    6  A    between atoms: N1_11  and  C8_13 
ROOT
HETATM    1  C1  UNL     1      -6.776   2.242  17.025  1.00  0.00     0.015 C 
HETATM    2  C2  UNL     1      -5.908   1.601  16.480  1.00  0.00    -0.073 C 
HETATM    3  C3  UNL     1      -4.851   0.842  15.808  1.00  0.00     0.276 C 
ENDROOT
BRANCH   3   4
HETATM    4  O1  UNL     1      -3.739   0.697  16.626  1.00  0.00    -0.372 OA
ATOM      5  H1  UNL     1      -3.267  -0.102  16.426  1.00  0.00     0.212 HD
ENDBRANCH   3   4
BRANCH   3   6
HETATM    6  C4  UNL     1      -4.520   1.595  14.584  1.00  0.00    -0.061 C 
HETATM    7  C5  UNL     1      -4.240   2.203  13.577  1.00  0.00    -0.086 C 
BRANCH   7   8
HETATM    8  C6  UNL     1      -3.890   2.925  12.349  1.00  0.00     0.187 C 
BRANCH   8   9
HETATM    9  C7  UNL     1      -2.753   3.822  12.692  1.00  0.00     0.236 C 
HETATM   10  O2  UNL     1      -2.609   4.142  13.914  1.00  0.00    -0.272 OA
HETATM   11  N1  UNL     1      -1.863   4.304  11.693  1.00  0.00    -0.356 N 
ATOM     12  H1  UNL     1      -1.985   4.044  10.714  1.00  0.00     0.162 HD
BRANCH  11  13
HETATM   13  C8  UNL     1      -0.783   5.170  12.098  1.00  0.00     0.076 C 
HETATM   14  C9  UNL     1      -1.068   6.622  11.779  1.00  0.00     0.032 C 
HETATM   15  C10 UNL     1       0.455   4.755  11.333  1.00  0.00     0.032 C 
ENDBRANCH  11  13
ENDBRANCH   8   9
BRANCH   8  16
HETATM   16  C11 UNL     1      -3.525   1.970  11.274  1.00  0.00     0.174 C 
HETATM   17  C12 UNL     1      -4.589   1.025  10.863  1.00  0.00     0.305 C 
HETATM   18  N2  UNL     1      -4.093  -0.320  10.646  1.00  0.00     0.088 N 
HETATM   19  C13 UNL     1      -4.024  -1.106  11.835  1.00  0.00     0.310 C 
HETATM   20  C14 UNL     1      -2.862  -0.244   9.914  1.00  0.00     0.298 C 
HETATM   21  C15 UNL     1      -1.812   0.532  10.671  1.00  0.00     0.198 C 
HETATM   22  O3  UNL     1      -2.330   1.329  11.661  1.00  0.00    -0.381 OA
ENDBRANCH   8  16
ENDBRANCH   7   8
ENDBRANCH   3   6
TORSDOF 6
ENDMDL
MODEL 3
REMARK VINA RESULT: -6.333604692      2.470      4.728
REMARK  6 active torsions:
REMARK  status: ('A' for Active; 'I' for Inactive)
REMARK    1  A    between atoms: C3_3  and  O1_4 
REMARK    2  A    between atoms: C3_3  and  C4_6 
REMARK    3  A    between atoms: C5_7  and  C6_8 
REMARK    4  A    between atoms: C6_8  and  C7_9 
REMARK    5  A    between atoms: C6_8  and  C11_16 
REMARK       I    between atoms: C7_9  and  N1_11 
REMARK    6  A    between atoms: N1_11  and  C8_13 
ROOT
HETATM    1  C1  UNL     1      -7.015   7.688  11.624  1.00  0.00     0.015 C 
HETATM    2  C2  UNL     1      -6.385   7.201  10.714  1.00  0.00    -0.073 C 
HETATM    3  C3  UNL     1      -5.615   6.595   9.625  1.00  0.00     0.276 C 
ENDROOT
BRANCH   3   4
HETATM    4  O1  UNL     1      -6.437   5.881   8.765  1.00  0.00    -0.372 OA
ATOM      5  H1  UNL     1      -5.972   5.629   7.976  1.00  0.00     0.212 HD
ENDBRANCH   3   4
BRANCH   3   6
HETATM    6  C4  UNL     1      -4.620   5.716  10.266  1.00  0.00    -0.061 C 
HETATM    7  C5  UNL     1      -3.806   4.999  10.803  1.00  0.00    -0.086 C 
BRANCH   7   8
HETATM    8  C6  UNL     1      -2.829   4.135  11.471  1.00  0.00     0.187 C 
BRANCH   8   9
HETATM    9  C7  UNL     1      -3.206   4.099  12.911  1.00  0.00     0.236 C 
HETATM   10  O2  UNL     1      -2.266   3.979  13.758  1.00  0.00    -0.272 OA
HETATM   11  N1  UNL     1      -4.564   4.195  13.324  1.00  0.00    -0.356 N 
ATOM     12  H1  UNL     1      -5.313   4.291  12.638  1.00  0.00     0.162 HD
BRANCH  11  13
HETATM   13  C8  UNL     1      -4.855   4.153  14.735  1.00  0.00     0.076 C 
HETATM   14  C9  UNL     1      -5.455   2.828  15.153  1.00  0.00     0.032 C 
HETATM   15  C10 UNL     1      -5.865   5.240  15.032  1.00  0.00     0.032 C 
ENDBRANCH  11  13
ENDBRANCH   8   9
BRANCH   8  16
HETATM   16  C11 UNL     1      -2.842   2.778  10.871  1.00  0.00     0.174 C 
HETATM   17  C12 UNL     1      -4.164   2.114  10.807  1.00  0.00     0.305 C 
HETATM   18  N2  UNL     1      -4.105   0.708  11.155  1.00  0.00     0.088 N 
HETATM   19  C13 UNL     1      -4.185   0.460  12.559  1.00  0.00     0.310 C 
HETATM   20  C14 UNL     1      -2.962   0.124  10.514  1.00  0.00     0.298 C 
HETATM   21  C15 UNL     1      -1.678   0.777  10.961  1.00  0.00     0.198 C 
HETATM   22  O3  UNL     1      -1.864   2.009  11.537  1.00  0.00    -0.381 OA
ENDBRANCH   8  16
ENDBRANCH   7   8
ENDBRANCH   3   6
TORSDOF 6
ENDMDL
MODEL 4
REMARK VINA RESULT: -6.309761550      2.700      3.721
REMARK  6 active torsions:
REMARK  status: ('A' for Active; 'I' for Inactive)
REMARK    1  A    between atoms: C3_3  and  O1_4 
REMARK    2  A    between atoms: C3_3  and  C4_6 
REMARK    3  A    between atoms: C5_7  and  C6_8 
REMARK    4  A    between atoms: C6_8  and  C7_9 
REMARK    5  A    between atoms: C6_8  and  C11_16 
REMARK       I    between atoms: C7_9  and  N1_11 
REMARK    6  A    between atoms: N1_11  and  C8_13 
ROOT
HETATM    1  C1  UNL     1      -6.747   1.269  17.274  1.00  0.00     0.015 C 
HETATM    2  C2  UNL     1      -5.775   1.247  16.556  1.00  0.00    -0.073 C 
HETATM    3  C3  UNL     1      -4.597   1.243  15.686  1.00  0.00     0.276 C 
ENDROOT
BRANCH   3   4
HETATM    4  O1  UNL     1      -3.445   0.945  16.401  1.00  0.00    -0.372 OA
ATOM      5  H1  UNL     1      -3.024   1.735  16.720  1.00  0.00     0.212 HD
ENDBRANCH   3   4
BRANCH   3   6
HETATM    6  C4  UNL     1      -4.522   2.589  15.089  1.00  0.00    -0.061 C 
HETATM    7  C5  UNL     1      -4.473   3.694  14.599  1.00  0.00    -0.086 C 
BRANCH   7   8
HETATM    8  C6  UNL     1      -4.434   5.035  14.008  1.00  0.00     0.187 C 
BRANCH   8   9
HETATM    9  C7  UNL     1      -3.085   5.591  14.302  1.00  0.00     0.236 C 
HETATM   10  O2  UNL     1      -2.149   4.761  14.530  1.00  0.00    -0.272 OA
HETATM   11  N1  UNL     1      -2.850   6.993  14.327  1.00  0.00    -0.356 N 
ATOM     12  H1  UNL     1      -3.606   7.653  14.143  1.00  0.00     0.162 HD
BRANCH  11  13
HETATM   13  C8  UNL     1      -1.517   7.460  14.617  1.00  0.00     0.076 C 
HETATM   14  C9  UNL     1      -1.524   8.661  15.538  1.00  0.00     0.032 C 
HETATM   15  C10 UNL     1      -0.875   7.873  13.311  1.00  0.00     0.032 C 
ENDBRANCH  11  13
ENDBRANCH   8   9
BRANCH   8  16
HETATM   16  C11 UNL     1      -4.688   4.965  12.548  1.00  0.00     0.174 C 
HETATM   17  C12 UNL     1      -3.936   3.923  11.813  1.00  0.00     0.305 C 
HETATM   18  N2  UNL     1      -3.426   4.391  10.538  1.00  0.00     0.088 N 
HETATM   19  C13 UNL     1      -2.169   5.059  10.633  1.00  0.00     0.310 C 
HETATM   20  C14 UNL     1      -4.452   5.150   9.884  1.00  0.00     0.298 C 
HETATM   21  C15 UNL     1      -4.863   6.351  10.700  1.00  0.00     0.198 C 
HETATM   22  O3  UNL     1      -4.505   6.260  12.022  1.00  0.00    -0.381 OA
ENDBRANCH   8  16
ENDBRANCH   7   8
ENDBRANCH   3   6
TORSDOF 6
ENDMDL
MODEL 5
REMARK VINA RESULT: -6.201998168      1.282      1.565
REMARK  6 active torsions:
REMARK  status: ('A' for Active; 'I' for Inactive)
REMARK    1  A    between atoms: C3_3  and  O1_4 
REMARK    2  A    between atoms: C3_3  and  C4_6 
REMARK    3  A    between atoms: C5_7  and  C6_8 
REMARK    4  A    between atoms: C6_8  and  C7_9 
REMARK    5  A    between atoms: C6_8  and  C11_16 
REMARK       I    between atoms: C7_9  and  N1_11 
REMARK    6  A    between atoms: N1_11  and  C8_13 
ROOT
HETATM    1  C1  UNL     1      -6.593   2.315  17.354  1.00  0.00     0.015 C 
HETATM    2  C2  UNL     1      -5.857   1.659  16.655  1.00  0.00    -0.073 C 
HETATM    3  C3  UNL     1      -4.957   0.884  15.799  1.00  0.00     0.276 C 
ENDROOT
BRANCH   3   4
HETATM    4  O1  UNL     1      -3.835   0.462  16.499  1.00  0.00    -0.372 OA
ATOM      5  H1  UNL     1      -3.891  -0.462  16.713  1.00  0.00     0.212 HD
ENDBRANCH   3   4
BRANCH   3   6
HETATM    6  C4  UNL     1      -4.586   1.771  14.681  1.00  0.00    -0.061 C 
HETATM    7  C5  UNL     1      -4.270   2.500  13.769  1.00  0.00    -0.086 C 
BRANCH   7   8
HETATM    8  C6  UNL     1      -3.868   3.379  12.667  1.00  0.00     0.187 C 
BRANCH   8   9
HETATM    9  C7  UNL     1      -2.846   4.311  13.216  1.00  0.00     0.236 C 
HETATM   10  O2  UNL     1      -2.100   3.874  14.149  1.00  0.00    -0.272 OA
HETATM   11  N1  UNL     1      -2.708   5.636  12.720  1.00  0.00    -0.356 N 
ATOM     12  H1  UNL     1      -3.310   5.979  11.972  1.00  0.00     0.162 HD
BRANCH  11  13
HETATM   13  C8  UNL     1      -1.695   6.483  13.300  1.00  0.00     0.076 C 
HETATM   14  C9  UNL     1      -2.272   7.446  14.315  1.00  0.00     0.032 C 
HETATM   15  C10 UNL     1      -1.074   7.294  12.184  1.00  0.00     0.032 C 
ENDBRANCH  11  13
ENDBRANCH   8   9
BRANCH   8  16
HETATM   16  C11 UNL     1      -3.327   2.581  11.539  1.00  0.00     0.174 C 
HETATM   17  C12 UNL     1      -4.289   1.674  10.872  1.00  0.00     0.305 C 
HETATM   18  N2  UNL     1      -3.715   0.380  10.556  1.00  0.00     0.088 N 
HETATM   19  C13 UNL     1      -3.771  -0.552  11.635  1.00  0.00     0.310 C 
HETATM   20  C14 UNL     1      -2.402   0.580  10.014  1.00  0.00     0.298 C 
HETATM   21  C15 UNL     1      -1.493   1.275  10.997  1.00  0.00     0.198 C 
HETATM   22  O3  UNL     1      -2.168   1.923  12.000  1.00  0.00    -0.381 OA
ENDBRANCH   8  16
ENDBRANCH   7   8
ENDBRANCH   3   6
TORSDOF 6
ENDMDL
