MODEL 1
REMARK VINA RESULT: -7.031279513      0.000      0.000
REMARK  5 active torsions:
REMARK  status: ('A' for Active; 'I' for Inactive)
REMARK    1  A    between atoms: C2_2  and  C3_3 
REMARK    2  A    between atoms: C3_3  and  C4_4 
REMARK    3  A    between atoms: C3_3  and  N2_15 
REMARK       I    between atoms: C4_4  and  N1_6 
REMARK    4  A    between atoms: C6_8  and  O2_9 
REMARK    5  A    between atoms: C7_11  and  O3_12 
ROOT
HETATM    1  C4  UNL     1      -5.428   3.390  13.932  1.00  0.00     0.242 C 
HETATM    2  O1  UNL     1      -6.544   3.989  13.683  1.00  0.00    -0.271 OA
HETATM    3  N1  UNL     1      -5.374   2.675  15.142  1.00  0.00    -0.345 N 
HETATM    4  C5  UNL     1      -4.367   1.864  15.776  1.00  0.00     0.160 C 
HETATM    5  C6  UNL     1      -5.152   0.788  16.535  1.00  0.00     0.166 C 
HETATM    6  C7  UNL     1      -6.609   1.149  16.325  1.00  0.00     0.166 C 
HETATM    7  C8  UNL     1      -6.488   2.639  16.105  1.00  0.00     0.160 C 
ENDROOT
BRANCH   1   8
HETATM    8  C3  UNL     1      -4.414   3.557  12.910  1.00  0.00     0.171 C 
BRANCH   8   9
HETATM    9  C2  UNL     1      -3.221   4.308  13.487  1.00  0.00     0.030 C 
HETATM   10  C1  UNL     1      -3.561   5.677  13.969  1.00  0.00     0.007 C 
ENDBRANCH   8   9
BRANCH   8  11
HETATM   11  N2  UNL     1      -4.014   2.530  12.085  1.00  0.00    -0.400 N 
HETATM   12  C9  UNL     1      -4.029   1.187  12.457  1.00  0.00     0.118 C 
HETATM   13  C10 UNL     1      -3.908   0.344  11.175  1.00  0.00     0.020 C 
HETATM   14  C11 UNL     1      -2.493   0.511  10.649  1.00  0.00     0.007 C 
HETATM   15  C12 UNL     1      -2.150   1.986  10.615  1.00  0.00    -0.001 C 
HETATM   16  C13 UNL     1      -0.964   2.303  11.475  1.00  0.00     0.011 C 
HETATM   17  C14 UNL     1      -3.344   2.855  10.869  1.00  0.00     0.122 C 
ENDBRANCH   8  11
ENDBRANCH   1   8
BRANCH   5  18
HETATM   18  O2  UNL     1      -4.843  -0.442  15.964  1.00  0.00    -0.391 OA
ATOM     19  H2  UNL     1      -5.584  -1.019  16.105  1.00  0.00     0.210 HD
ENDBRANCH   5  18
BRANCH   6  20
HETATM   20  O3  UNL     1      -7.377   0.847  17.445  1.00  0.00    -0.391 OA
ATOM     21  H3  UNL     1      -7.965   0.120  17.278  1.00  0.00     0.210 HD
ENDBRANCH   6  20
TORSDOF 5
ENDMDL
MODEL 2
REMARK VINA RESULT: -6.559426942      1.334      2.767
REMARK  5 active torsions:
REMARK  status: ('A' for Active; 'I' for Inactive)
REMARK    1  A    between atoms: C2_2  and  C3_3 
REMARK    2  A    between atoms: C3_3  and  C4_4 
REMARK    3  A    between atoms: C3_3  and  N2_15 
REMARK       I    between atoms: C4_4  and  N1_6 
REMARK    4  A    between atoms: C6_8  and  O2_9 
REMARK    5  A    between atoms: C7_11  and  O3_12 
ROOT
HETATM    1  C4  UNL     1      -4.670   2.205  13.023  1.00  0.00     0.242 C 
HETATM    2  O1  UNL     1      -5.574   2.887  12.401  1.00  0.00    -0.271 OA
HETATM    3  N1  UNL     1      -4.734   2.244  14.427  1.00  0.00    -0.345 N 
HETATM    4  C5  UNL     1      -3.965   1.624  15.476  1.00  0.00     0.160 C 
HETATM    5  C6  UNL     1      -4.971   1.387  16.609  1.00  0.00     0.166 C 
HETATM    6  C7  UNL     1      -6.266   1.998  16.113  1.00  0.00     0.166 C 
HETATM    7  C8  UNL     1      -5.726   3.044  15.166  1.00  0.00     0.160 C 
ENDROOT
BRANCH   1   8
HETATM    8  C3  UNL     1      -3.739   1.511  12.156  1.00  0.00     0.171 C 
BRANCH   8   9
HETATM    9  C2  UNL     1      -4.499   0.547  11.253  1.00  0.00     0.030 C 
HETATM   10  C1  UNL     1      -4.118  -0.879  11.457  1.00  0.00     0.007 C 
ENDBRANCH   8   9
BRANCH   8  11
HETATM   11  N2  UNL     1      -2.735   2.159  11.473  1.00  0.00    -0.400 N 
HETATM   12  C9  UNL     1      -1.484   1.601  11.221  1.00  0.00     0.118 C 
HETATM   13  C10 UNL     1      -0.811   2.437  10.118  1.00  0.00     0.020 C 
HETATM   14  C11 UNL     1      -0.442   3.781  10.723  1.00  0.00     0.007 C 
HETATM   15  C12 UNL     1      -1.642   4.335  11.461  1.00  0.00    -0.001 C 
HETATM   16  C13 UNL     1      -1.351   4.553  12.915  1.00  0.00     0.011 C 
HETATM   17  C14 UNL     1      -2.889   3.549  11.194  1.00  0.00     0.122 C 
ENDBRANCH   8  11
ENDBRANCH   1   8
BRANCH   5  18
HETATM   18  O2  UNL     1      -5.089   0.012  16.787  1.00  0.00    -0.391 OA
ATOM     19  H2  UNL     1      -5.309  -0.143  17.698  1.00  0.00     0.210 HD
ENDBRANCH   5  18
BRANCH   6  20
HETATM   20  O3  UNL     1      -6.996   2.563  17.154  1.00  0.00    -0.391 OA
ATOM     21  H3  UNL     1      -7.931   2.481  17.008  1.00  0.00     0.210 HD
ENDBRANCH   6  20
TORSDOF 5
ENDMDL
MODEL 3
REMARK VINA RESULT: -6.515566494      1.294      2.561
REMARK  5 active torsions:
REMARK  status: ('A' for Active; 'I' for Inactive)
REMARK    1  A    between atoms: C2_2  and  C3_3 
REMARK    2  A    between atoms: C3_3  and  C4_4 
REMARK    3  A    between atoms: C3_3  and  N2_15 
REMARK       I    between atoms: C4_4  and  N1_6 
REMARK    4  A    between atoms: C6_8  and  O2_9 
REMARK    5  A    between atoms: C7_11  and  O3_12 
ROOT
HETATM    1  C4  UNL     1      -5.101   2.832  13.399  1.00  0.00     0.242 C 
HETATM    2  O1  UNL     1      -6.053   3.626  13.035  1.00  0.00    -0.271 OA
HETATM    3  N1  UNL     1      -5.086   2.478  14.760  1.00  0.00    -0.345 N 
HETATM    4  C5  UNL     1      -4.246   1.620  15.556  1.00  0.00     0.160 C 
HETATM    5  C6  UNL     1      -5.181   1.042  16.625  1.00  0.00     0.166 C 
HETATM    6  C7  UNL     1      -6.515   1.718  16.382  1.00  0.00     0.166 C 
HETATM    7  C8  UNL     1      -6.052   3.005  15.738  1.00  0.00     0.160 C 
ENDROOT
BRANCH   1   8
HETATM    8  C3  UNL     1      -4.205   2.439  12.329  1.00  0.00     0.171 C 
BRANCH   8   9
HETATM    9  C2  UNL     1      -4.910   1.456  11.404  1.00  0.00     0.030 C 
HETATM   10  C1  UNL     1      -4.216   0.141  11.298  1.00  0.00     0.007 C 
ENDBRANCH   8   9
BRANCH   8  11
HETATM   11  N2  UNL     1      -3.450   3.348  11.622  1.00  0.00    -0.400 N 
HETATM   12  C9  UNL     1      -3.859   3.928  10.423  1.00  0.00     0.118 C 
HETATM   13  C10 UNL     1      -2.961   5.151  10.164  1.00  0.00     0.020 C 
HETATM   14  C11 UNL     1      -1.576   4.636   9.809  1.00  0.00     0.007 C 
HETATM   15  C12 UNL     1      -1.160   3.599  10.831  1.00  0.00    -0.001 C 
HETATM   16  C13 UNL     1      -0.894   2.267  10.198  1.00  0.00     0.011 C 
HETATM   17  C14 UNL     1      -2.091   3.548  12.004  1.00  0.00     0.122 C 
ENDBRANCH   8  11
ENDBRANCH   1   8
BRANCH   5  18
HETATM   18  O2  UNL     1      -5.259  -0.331  16.418  1.00  0.00    -0.391 OA
ATOM     19  H2  UNL     1      -5.034  -0.499  15.511  1.00  0.00     0.210 HD
ENDBRANCH   5  18
BRANCH   6  20
HETATM   20  O3  UNL     1      -7.198   1.946  17.572  1.00  0.00    -0.391 OA
ATOM     21  H3  UNL     1      -8.139   1.901  17.449  1.00  0.00     0.210 HD
ENDBRANCH   6  20
TORSDOF 5
ENDMDL
MODEL 4
REMARK VINA RESULT: -6.514634142      1.673      3.620
REMARK  5 active torsions:
REMARK  status: ('A' for Active; 'I' for Inactive)
REMARK    1  A    between atoms: C2_2  and  C3_3 
REMARK    2  A    between atoms: C3_3  and  C4_4 
REMARK    3  A    between atoms: C3_3  and  N2_15 
REMARK       I    between atoms: C4_4  and  N1_6 
REMARK    4  A    between atoms: C6_8  and  O2_9 
REMARK    5  A    between atoms: C7_11  and  O3_12 
ROOT
HETATM    1  C4  UNL     1      -5.414   3.444  13.929  1.00  0.00     0.242 C 
HETATM    2  O1  UNL     1      -6.535   4.048  13.713  1.00  0.00    -0.271 OA
HETATM    3  N1  UNL     1      -5.340   2.701  15.121  1.00  0.00    -0.345 N 
HETATM    4  C5  UNL     1      -4.321   1.877  15.719  1.00  0.00     0.160 C 
HETATM    5  C6  UNL     1      -5.093   0.782  16.465  1.00  0.00     0.166 C 
HETATM    6  C7  UNL     1      -6.553   1.146  16.287  1.00  0.00     0.166 C 
HETATM    7  C8  UNL     1      -6.438   2.641  16.101  1.00  0.00     0.160 C 
ENDROOT
BRANCH   1   8
HETATM    8  C3  UNL     1      -4.417   3.638  12.895  1.00  0.00     0.171 C 
BRANCH   8   9
HETATM    9  C2  UNL     1      -4.704   2.706  11.725  1.00  0.00     0.030 C 
HETATM   10  C1  UNL     1      -4.393   1.278  12.017  1.00  0.00     0.007 C 
ENDBRANCH   8   9
BRANCH   8  11
HETATM   11  N2  UNL     1      -4.028   4.886  12.464  1.00  0.00    -0.400 N 
HETATM   12  C9  UNL     1      -3.417   5.833  13.284  1.00  0.00     0.118 C 
HETATM   13  C10 UNL     1      -2.783   6.901  12.375  1.00  0.00     0.020 C 
HETATM   14  C11 UNL     1      -3.914   7.703  11.753  1.00  0.00     0.007 C 
HETATM   15  C12 UNL     1      -4.942   6.747  11.186  1.00  0.00    -0.001 C 
HETATM   16  C13 UNL     1      -6.288   6.937  11.819  1.00  0.00     0.011 C 
HETATM   17  C14 UNL     1      -4.460   5.329  11.180  1.00  0.00     0.122 C 
ENDBRANCH   8  11
ENDBRANCH   1   8
BRANCH   5  18
HETATM   18  O2  UNL     1      -4.791  -0.434  15.860  1.00  0.00    -0.391 OA
ATOM     19  H2  UNL     1      -4.648  -0.267  14.936  1.00  0.00     0.210 HD
ENDBRANCH   5  18
BRANCH   6  20
HETATM   20  O3  UNL     1      -7.303   0.815  17.411  1.00  0.00    -0.391 OA
ATOM     21  H3  UNL     1      -8.017   1.428  17.547  1.00  0.00     0.210 HD
ENDBRANCH   6  20
TORSDOF 5
ENDMDL
MODEL 5
REMARK VINA RESULT: -6.471035918      2.298      5.552
REMARK  5 active torsions:
REMARK  status: ('A' for Active; 'I' for Inactive)
REMARK    1  A    between atoms: C2_2  and  C3_3 
REMARK    2  A    between atoms: C3_3  and  C4_4 
REMARK    3  A    between atoms: C3_3  and  N2_15 
REMARK       I    between atoms: C4_4  and  N1_6 
REMARK    4  A    between atoms: C6_8  and  O2_9 
REMARK    5  A    between atoms: C7_11  and  O3_12 
ROOT
HETATM    1  C4  UNL     1      -4.300   0.791  13.868  1.00  0.00     0.242 C 
HETATM    2  O1  UNL     1      -4.591  -0.408  14.248  1.00  0.00    -0.271 OA
HETATM    3  N1  UNL     1      -3.644   0.897  12.628  1.00  0.00    -0.345 N 
HETATM    4  C5  UNL     1      -3.180   2.010  11.840  1.00  0.00     0.160 C 
HETATM    5  C6  UNL     1      -3.344   1.553  10.385  1.00  0.00     0.166 C 
HETATM    6  C7  UNL     1      -3.833   0.121  10.481  1.00  0.00     0.166 C 
HETATM    7  C8  UNL     1      -3.256  -0.272  11.821  1.00  0.00     0.160 C 
ENDROOT
BRANCH   1   8
HETATM    8  C3  UNL     1      -4.707   1.830  14.793  1.00  0.00     0.171 C 
BRANCH   8   9
HETATM    9  C2  UNL     1      -4.320   1.434  16.212  1.00  0.00     0.030 C 
HETATM   10  C1  UNL     1      -5.477   1.395  17.151  1.00  0.00     0.007 C 
ENDBRANCH   8   9
BRANCH   8  11
HETATM   11  N2  UNL     1      -4.473   3.166  14.559  1.00  0.00    -0.400 N 
HETATM   12  C9  UNL     1      -3.352   3.850  15.027  1.00  0.00     0.118 C 
HETATM   13  C10 UNL     1      -3.247   5.169  14.241  1.00  0.00     0.020 C 
HETATM   14  C11 UNL     1      -4.381   6.069  14.701  1.00  0.00     0.007 C 
HETATM   15  C12 UNL     1      -5.674   5.282  14.679  1.00  0.00    -0.001 C 
HETATM   16  C13 UNL     1      -6.307   5.211  16.036  1.00  0.00     0.011 C 
HETATM   17  C14 UNL     1      -5.522   3.954  14.001  1.00  0.00     0.122 C 
ENDBRANCH   8  11
ENDBRANCH   1   8
BRANCH   5  18
HETATM   18  O2  UNL     1      -4.293   2.377   9.789  1.00  0.00    -0.391 OA
ATOM     19  H2  UNL     1      -4.049   2.484   8.877  1.00  0.00     0.210 HD
ENDBRANCH   5  18
BRANCH   6  20
HETATM   20  O3  UNL     1      -3.329  -0.661   9.446  1.00  0.00    -0.391 OA
ATOM     21  H3  UNL     1      -4.026  -1.043   8.927  1.00  0.00     0.210 HD
ENDBRANCH   6  20
TORSDOF 5
ENDMDL
