MODEL 1
REMARK VINA RESULT: -7.485889983      0.000      0.000
REMARK  8 active torsions:
REMARK  status: ('A' for Active; 'I' for Inactive)
REMARK    1  A    between atoms: C2_2  and  C3_3 
REMARK    2  A    between atoms: C5_5  and  C6_6 
REMARK    3  A    between atoms: C6_6  and  N1_7 
REMARK    4  A    between atoms: N1_7  and  S1_9 
REMARK    5  A    between atoms: S1_9  and  C7_12 
REMARK    6  A    between atoms: C8_15  and  C9_16 
REMARK    7  A    between atoms: C10_17  and  C11_18 
REMARK    8  A    between atoms: C16_23  and  O3_24 
ROOT
HETATM    1  C7  UNL     1      -0.878   8.968  76.235  1.00  0.00     0.267 A 
HETATM    2  N2  UNL     1      -1.181   7.940  77.043  1.00  0.00    -0.324 N 
ATOM      3  H2  UNL     1      -1.481   7.014  76.738  1.00  0.00     0.169 HD
HETATM    4  C8  UNL     1      -1.024   8.325  78.311  1.00  0.00     0.057 A 
HETATM    5  C19 UNL     1      -0.604   9.659  78.217  1.00  0.00     0.174 A 
HETATM    6  O4  UNL     1      -0.529  10.003  76.959  1.00  0.00    -0.293 OA
ENDROOT
BRANCH   4   7
HETATM    7  C9  UNL     1      -1.204   7.644  79.574  1.00  0.00     0.028 C 
HETATM    8  C10 UNL     1      -2.240   7.691  80.350  1.00  0.00    -0.015 C 
BRANCH   8   9
HETATM    9  C11 UNL     1      -3.505   8.401  80.233  1.00  0.00     0.042 C 
HETATM   10  C12 UNL     1      -3.965   9.036  81.479  1.00  0.00    -0.079 C 
HETATM   11  C13 UNL     1      -3.012   9.506  82.539  1.00  0.00     0.044 C 
HETATM   12  C14 UNL     1      -5.261   9.201  81.675  1.00  0.00    -0.021 C 
HETATM   13  C15 UNL     1      -6.350   8.812  80.766  1.00  0.00     0.059 C 
HETATM   14  C16 UNL     1      -5.798   8.272  79.498  1.00  0.00     0.126 C 
HETATM   15  C17 UNL     1      -4.588   7.398  79.856  1.00  0.00     0.022 C 
HETATM   16  C18 UNL     1      -4.252   6.605  78.642  1.00  0.00     0.014 C 
BRANCH  14  17
HETATM   17  O3  UNL     1      -6.757   7.469  78.894  1.00  0.00    -0.395 OA
ATOM     18  H3  UNL     1      -6.447   7.211  78.033  1.00  0.00     0.210 HD
ENDBRANCH  14  17
ENDBRANCH   8   9
ENDBRANCH   4   7
BRANCH   1  19
HETATM   19  S1  UNL     1      -0.917   8.999  74.481  1.00  0.00     0.298 S 
HETATM   20  O1  UNL     1       0.476   8.672  74.013  1.00  0.00    -0.197 OA
HETATM   21  O2  UNL     1      -1.882   7.954  74.013  1.00  0.00    -0.197 OA
BRANCH  19  22
HETATM   22  N1  UNL     1      -1.408  10.563  73.996  1.00  0.00    -0.312 N 
ATOM     23  H1  UNL     1      -2.347  10.932  74.147  1.00  0.00     0.172 HD
BRANCH  22  24
HETATM   24  C6  UNL     1      -0.361  11.301  73.355  1.00  0.00     0.137 C 
BRANCH  24  25
HETATM   25  C5  UNL     1      -0.863  12.163  72.229  1.00  0.00     0.012 A 
HETATM   26  C3  UNL     1      -0.526  13.626  72.186  1.00  0.00     0.013 A 
HETATM   27  C4  UNL     1      -1.907  13.173  72.491  1.00  0.00     0.015 A 
BRANCH  26  28
HETATM   28  C2  UNL     1       0.214  14.252  73.320  1.00  0.00    -0.032 C 
HETATM   29  C1  UNL     1       0.700  15.485  73.237  1.00  0.00     0.007 C 
ENDBRANCH  26  28
ENDBRANCH  24  25
ENDBRANCH  22  24
ENDBRANCH  19  22
ENDBRANCH   1  19
TORSDOF 8
ENDMDL
MODEL 2
REMARK VINA RESULT: -7.386702909      1.146      1.661
REMARK  8 active torsions:
REMARK  status: ('A' for Active; 'I' for Inactive)
REMARK    1  A    between atoms: C2_2  and  C3_3 
REMARK    2  A    between atoms: C5_5  and  C6_6 
REMARK    3  A    between atoms: C6_6  and  N1_7 
REMARK    4  A    between atoms: N1_7  and  S1_9 
REMARK    5  A    between atoms: S1_9  and  C7_12 
REMARK    6  A    between atoms: C8_15  and  C9_16 
REMARK    7  A    between atoms: C10_17  and  C11_18 
REMARK    8  A    between atoms: C16_23  and  O3_24 
ROOT
HETATM    1  C7  UNL     1      -1.080   8.708  76.280  1.00  0.00     0.267 A 
HETATM    2  N2  UNL     1      -1.458   7.702  77.084  1.00  0.00    -0.324 N 
ATOM      3  H2  UNL     1      -1.870   6.821  76.778  1.00  0.00     0.169 HD
HETATM    4  C8  UNL     1      -1.208   8.043  78.350  1.00  0.00     0.057 A 
HETATM    5  C19 UNL     1      -0.649   9.325  78.258  1.00  0.00     0.174 A 
HETATM    6  O4  UNL     1      -0.591   9.684  77.004  1.00  0.00    -0.293 OA
ENDROOT
BRANCH   4   7
HETATM    7  C9  UNL     1      -1.407   7.359  79.609  1.00  0.00     0.028 C 
HETATM    8  C10 UNL     1      -2.418   7.470  80.410  1.00  0.00    -0.015 C 
BRANCH   8   9
HETATM    9  C11 UNL     1      -3.632   8.269  80.331  1.00  0.00     0.042 C 
HETATM   10  C12 UNL     1      -3.969   8.989  81.570  1.00  0.00    -0.079 C 
HETATM   11  C13 UNL     1      -2.924   9.428  82.553  1.00  0.00     0.044 C 
HETATM   12  C14 UNL     1      -5.236   9.261  81.830  1.00  0.00    -0.021 C 
HETATM   13  C15 UNL     1      -6.403   8.919  81.001  1.00  0.00     0.059 C 
HETATM   14  C16 UNL     1      -5.968   8.286  79.731  1.00  0.00     0.126 C 
HETATM   15  C17 UNL     1      -4.807   7.337  80.061  1.00  0.00     0.022 C 
HETATM   16  C18 UNL     1      -4.604   6.471  78.868  1.00  0.00     0.014 C 
BRANCH  14  17
HETATM   17  O3  UNL     1      -7.018   7.535  79.219  1.00  0.00    -0.395 OA
ATOM     18  H3  UNL     1      -6.958   7.526  78.271  1.00  0.00     0.210 HD
ENDBRANCH  14  17
ENDBRANCH   8   9
ENDBRANCH   4   7
BRANCH   1  19
HETATM   19  S1  UNL     1      -1.190   8.778  74.530  1.00  0.00     0.298 S 
HETATM   20  O1  UNL     1      -1.714   7.441  74.076  1.00  0.00    -0.197 OA
HETATM   21  O2  UNL     1      -2.150   9.866  74.161  1.00  0.00    -0.197 OA
BRANCH  19  22
HETATM   22  N1  UNL     1       0.377   9.094  73.920  1.00  0.00    -0.312 N 
ATOM     23  H1  UNL     1       1.215   9.111  74.501  1.00  0.00     0.172 HD
BRANCH  22  24
HETATM   24  C6  UNL     1       0.386   9.332  72.508  1.00  0.00     0.137 C 
BRANCH  24  25
HETATM   25  C5  UNL     1       1.286  10.472  72.118  1.00  0.00     0.012 A 
HETATM   26  C3  UNL     1       0.708  11.828  71.824  1.00  0.00     0.013 A 
HETATM   27  C4  UNL     1       1.260  10.984  70.734  1.00  0.00     0.015 A 
BRANCH  26  28
HETATM   28  C2  UNL     1      -0.772  12.017  71.809  1.00  0.00    -0.032 C 
HETATM   29  C1  UNL     1      -1.355  12.986  72.506  1.00  0.00     0.007 C 
ENDBRANCH  26  28
ENDBRANCH  24  25
ENDBRANCH  22  24
ENDBRANCH  19  22
ENDBRANCH   1  19
TORSDOF 8
ENDMDL
MODEL 3
REMARK VINA RESULT: -7.344991315      0.835      1.202
REMARK  8 active torsions:
REMARK  status: ('A' for Active; 'I' for Inactive)
REMARK    1  A    between atoms: C2_2  and  C3_3 
REMARK    2  A    between atoms: C5_5  and  C6_6 
REMARK    3  A    between atoms: C6_6  and  N1_7 
REMARK    4  A    between atoms: N1_7  and  S1_9 
REMARK    5  A    between atoms: S1_9  and  C7_12 
REMARK    6  A    between atoms: C8_15  and  C9_16 
REMARK    7  A    between atoms: C10_17  and  C11_18 
REMARK    8  A    between atoms: C16_23  and  O3_24 
ROOT
HETATM    1  C7  UNL     1      -0.795   8.980  76.121  1.00  0.00     0.267 A 
HETATM    2  N2  UNL     1      -1.317   8.025  76.906  1.00  0.00    -0.324 N 
ATOM      3  H2  UNL     1      -1.760   7.166  76.580  1.00  0.00     0.169 HD
HETATM    4  C8  UNL     1      -1.163   8.381  78.182  1.00  0.00     0.057 A 
HETATM    5  C19 UNL     1      -0.509   9.619  78.119  1.00  0.00     0.174 A 
HETATM    6  O4  UNL     1      -0.307   9.939  76.868  1.00  0.00    -0.293 OA
ENDROOT
BRANCH   4   7
HETATM    7  C9  UNL     1      -1.529   7.747  79.430  1.00  0.00     0.028 C 
HETATM    8  C10 UNL     1      -2.722   7.462  79.845  1.00  0.00    -0.015 C 
BRANCH   8   9
HETATM    9  C11 UNL     1      -4.031   7.667  79.242  1.00  0.00     0.042 C 
HETATM   10  C12 UNL     1      -5.014   8.316  80.125  1.00  0.00    -0.079 C 
HETATM   11  C13 UNL     1      -4.610   9.260  81.219  1.00  0.00     0.044 C 
HETATM   12  C14 UNL     1      -6.299   8.061  79.951  1.00  0.00    -0.021 C 
HETATM   13  C15 UNL     1      -6.897   7.171  78.943  1.00  0.00     0.059 C 
HETATM   14  C16 UNL     1      -5.849   6.637  78.037  1.00  0.00     0.126 C 
HETATM   15  C17 UNL     1      -4.621   6.305  78.896  1.00  0.00     0.022 C 
HETATM   16  C18 UNL     1      -3.717   5.474  78.055  1.00  0.00     0.014 C 
BRANCH  14  17
HETATM   17  O3  UNL     1      -6.310   5.464  77.456  1.00  0.00    -0.395 OA
ATOM     18  H3  UNL     1      -7.073   5.160  77.936  1.00  0.00     0.210 HD
ENDBRANCH  14  17
ENDBRANCH   8   9
ENDBRANCH   4   7
BRANCH   1  19
HETATM   19  S1  UNL     1      -0.733   9.009  74.368  1.00  0.00     0.298 S 
HETATM   20  O1  UNL     1       0.705   8.783  73.982  1.00  0.00    -0.197 OA
HETATM   21  O2  UNL     1      -1.592   7.899  73.847  1.00  0.00    -0.197 OA
BRANCH  19  22
HETATM   22  N1  UNL     1      -1.305  10.535  73.850  1.00  0.00    -0.312 N 
ATOM     23  H1  UNL     1      -2.278  10.829  73.928  1.00  0.00     0.172 HD
BRANCH  22  24
HETATM   24  C6  UNL     1      -0.272  11.358  73.295  1.00  0.00     0.137 C 
BRANCH  24  25
HETATM   25  C5  UNL     1      -0.763  12.226  72.169  1.00  0.00     0.012 A 
HETATM   26  C3  UNL     1      -0.502  13.706  72.184  1.00  0.00     0.013 A 
HETATM   27  C4  UNL     1      -1.871  13.171  72.404  1.00  0.00     0.015 A 
BRANCH  26  28
HETATM   28  C2  UNL     1       0.145  14.334  73.371  1.00  0.00    -0.032 C 
HETATM   29  C1  UNL     1       0.743  15.518  73.291  1.00  0.00     0.007 C 
ENDBRANCH  26  28
ENDBRANCH  24  25
ENDBRANCH  22  24
ENDBRANCH  19  22
ENDBRANCH   1  19
TORSDOF 8
ENDMDL
MODEL 4
REMARK VINA RESULT: -7.331641842      2.639      3.616
REMARK  8 active torsions:
REMARK  status: ('A' for Active; 'I' for Inactive)
REMARK    1  A    between atoms: C2_2  and  C3_3 
REMARK    2  A    between atoms: C5_5  and  C6_6 
REMARK    3  A    between atoms: C6_6  and  N1_7 
REMARK    4  A    between atoms: N1_7  and  S1_9 
REMARK    5  A    between atoms: S1_9  and  C7_12 
REMARK    6  A    between atoms: C8_15  and  C9_16 
REMARK    7  A    between atoms: C10_17  and  C11_18 
REMARK    8  A    between atoms: C16_23  and  O3_24 
ROOT
HETATM    1  C7  UNL     1      -0.320   8.764  73.638  1.00  0.00     0.267 A 
HETATM    2  N2  UNL     1      -1.583   8.516  74.017  1.00  0.00    -0.324 N 
ATOM      3  H2  UNL     1      -2.279   8.010  73.468  1.00  0.00     0.169 HD
HETATM    4  C8  UNL     1      -1.782   9.037  75.229  1.00  0.00     0.057 A 
HETATM    5  C19 UNL     1      -0.551   9.618  75.561  1.00  0.00     0.174 A 
HETATM    6  O4  UNL     1       0.295   9.432  74.583  1.00  0.00    -0.293 OA
ENDROOT
BRANCH   4   7
HETATM    7  C9  UNL     1      -2.930   9.070  76.108  1.00  0.00     0.028 C 
HETATM    8  C10 UNL     1      -3.068   8.458  77.242  1.00  0.00    -0.015 C 
BRANCH   8   9
HETATM    9  C11 UNL     1      -2.174   7.580  77.982  1.00  0.00     0.042 C 
HETATM   10  C12 UNL     1      -2.693   6.219  78.192  1.00  0.00    -0.079 C 
HETATM   11  C13 UNL     1      -3.655   5.571  77.240  1.00  0.00     0.044 C 
HETATM   12  C14 UNL     1      -2.302   5.539  79.256  1.00  0.00    -0.021 C 
HETATM   13  C15 UNL     1      -1.372   5.992  80.302  1.00  0.00     0.059 C 
HETATM   14  C16 UNL     1      -0.822   7.329  79.964  1.00  0.00     0.126 C 
HETATM   15  C17 UNL     1      -1.968   8.164  79.375  1.00  0.00     0.022 C 
HETATM   16  C18 UNL     1      -1.505   9.578  79.352  1.00  0.00     0.014 C 
BRANCH  14  17
HETATM   17  O3  UNL     1      -0.383   7.945  81.129  1.00  0.00    -0.395 OA
ATOM     18  H3  UNL     1      -1.031   8.584  81.403  1.00  0.00     0.210 HD
ENDBRANCH  14  17
ENDBRANCH   8   9
ENDBRANCH   4   7
BRANCH   1  19
HETATM   19  S1  UNL     1       0.458   8.300  72.136  1.00  0.00     0.298 S 
HETATM   20  O1  UNL     1       1.880   7.945  72.477  1.00  0.00    -0.197 OA
HETATM   21  O2  UNL     1      -0.259   7.107  71.583  1.00  0.00    -0.197 OA
BRANCH  19  22
HETATM   22  N1  UNL     1       0.367   9.632  71.067  1.00  0.00    -0.312 N 
ATOM     23  H1  UNL     1       0.208   9.540  70.063  1.00  0.00     0.172 HD
BRANCH  22  24
HETATM   24  C6  UNL     1       0.537  10.890  71.729  1.00  0.00     0.137 C 
BRANCH  24  25
HETATM   25  C5  UNL     1      -0.689  11.758  71.651  1.00  0.00     0.012 A 
HETATM   26  C3  UNL     1      -0.592  13.233  71.919  1.00  0.00     0.013 A 
HETATM   27  C4  UNL     1      -1.263  12.326  72.886  1.00  0.00     0.015 A 
BRANCH  26  28
HETATM   28  C2  UNL     1       0.700  13.822  72.375  1.00  0.00    -0.032 C 
HETATM   29  C1  UNL     1       0.742  14.961  73.058  1.00  0.00     0.007 C 
ENDBRANCH  26  28
ENDBRANCH  24  25
ENDBRANCH  22  24
ENDBRANCH  19  22
ENDBRANCH   1  19
TORSDOF 8
ENDMDL
MODEL 5
REMARK VINA RESULT: -7.313415542      1.894      3.025
REMARK  8 active torsions:
REMARK  status: ('A' for Active; 'I' for Inactive)
REMARK    1  A    between atoms: C2_2  and  C3_3 
REMARK    2  A    between atoms: C5_5  and  C6_6 
REMARK    3  A    between atoms: C6_6  and  N1_7 
REMARK    4  A    between atoms: N1_7  and  S1_9 
REMARK    5  A    between atoms: S1_9  and  C7_12 
REMARK    6  A    between atoms: C8_15  and  C9_16 
REMARK    7  A    between atoms: C10_17  and  C11_18 
REMARK    8  A    between atoms: C16_23  and  O3_24 
ROOT
HETATM    1  C7  UNL     1      -1.480   8.878  75.738  1.00  0.00     0.267 A 
HETATM    2  N2  UNL     1      -1.418   7.940  76.696  1.00  0.00    -0.324 N 
ATOM      3  H2  UNL     1      -0.568   7.627  77.165  1.00  0.00     0.169 HD
HETATM    4  C8  UNL     1      -2.649   7.485  76.937  1.00  0.00     0.057 A 
HETATM    5  C19 UNL     1      -3.464   8.212  76.058  1.00  0.00     0.174 A 
HETATM    6  O4  UNL     1      -2.725   9.034  75.361  1.00  0.00    -0.293 OA
ENDROOT
BRANCH   4   7
HETATM    7  C9  UNL     1      -3.168   6.491  77.850  1.00  0.00     0.028 C 
HETATM    8  C10 UNL     1      -3.519   6.667  79.084  1.00  0.00    -0.015 C 
BRANCH   8   9
HETATM    9  C11 UNL     1      -3.515   7.850  79.932  1.00  0.00     0.042 C 
HETATM   10  C12 UNL     1      -2.571   7.790  81.060  1.00  0.00    -0.079 C 
HETATM   11  C13 UNL     1      -1.307   6.983  81.006  1.00  0.00     0.044 C 
HETATM   12  C14 UNL     1      -2.843   8.467  82.161  1.00  0.00    -0.021 C 
HETATM   13  C15 UNL     1      -4.021   9.312  82.413  1.00  0.00     0.059 C 
HETATM   14  C16 UNL     1      -4.868   9.396  81.196  1.00  0.00     0.126 C 
HETATM   15  C17 UNL     1      -4.897   8.001  80.556  1.00  0.00     0.022 C 
HETATM   16  C18 UNL     1      -5.994   8.010  79.550  1.00  0.00     0.014 C 
BRANCH  14  17
HETATM   17  O3  UNL     1      -6.161   9.736  81.569  1.00  0.00    -0.395 OA
ATOM     18  H3  UNL     1      -6.553   9.003  82.028  1.00  0.00     0.210 HD
ENDBRANCH  14  17
ENDBRANCH   8   9
ENDBRANCH   4   7
BRANCH   1  19
HETATM   19  S1  UNL     1      -0.151   9.794  75.049  1.00  0.00     0.298 S 
HETATM   20  O1  UNL     1       0.637  10.348  76.206  1.00  0.00    -0.197 OA
HETATM   21  O2  UNL     1       0.697   8.860  74.242  1.00  0.00    -0.197 OA
BRANCH  19  22
HETATM   22  N1  UNL     1      -0.818  11.031  74.075  1.00  0.00    -0.312 N 
ATOM     23  H1  UNL     1      -1.034  11.966  74.420  1.00  0.00     0.172 HD
BRANCH  22  24
HETATM   24  C6  UNL     1      -1.042  10.615  72.723  1.00  0.00     0.137 C 
BRANCH  24  25
HETATM   25  C5  UNL     1      -0.199  11.375  71.735  1.00  0.00     0.012 A 
HETATM   26  C3  UNL     1       0.642  10.639  70.731  1.00  0.00     0.013 A 
HETATM   27  C4  UNL     1       1.271  11.363  71.866  1.00  0.00     0.015 A 
BRANCH  26  28
HETATM   28  C2  UNL     1       0.730   9.151  70.785  1.00  0.00    -0.032 C 
HETATM   29  C1  UNL     1       1.089   8.437  69.723  1.00  0.00     0.007 C 
ENDBRANCH  26  28
ENDBRANCH  24  25
ENDBRANCH  22  24
ENDBRANCH  19  22
ENDBRANCH   1  19
TORSDOF 8
ENDMDL
