MODEL 1
REMARK VINA RESULT: -7.797674692      0.000      0.000
REMARK  9 active torsions:
REMARK  status: ('A' for Active; 'I' for Inactive)
REMARK    1  A    between atoms: C3_3  and  C4_4 
REMARK    2  A    between atoms: C4_4  and  O1_5 
REMARK    3  A    between atoms: C4_4  and  C5_7 
REMARK    4  A    between atoms: C7_11  and  C8_12 
REMARK    5  A    between atoms: C12_19  and  C13_20 
REMARK    6  A    between atoms: C13_20  and  C14_21 
REMARK    7  A    between atoms: C15_22  and  C17_24 
REMARK    8  A    between atoms: C17_24  and  C18_25 
REMARK    9  A    between atoms: C18_25  and  C19_26 
ROOT
HETATM    1  C8  UNL     1      -0.433   9.195  73.286  1.00  0.00     0.015 C 
HETATM    2  C9  UNL     1      -0.079   8.198  72.244  1.00  0.00     0.021 C 
HETATM    3  C10 UNL     1       0.608   9.281  74.395  1.00  0.00     0.116 C 
HETATM    4  C11 UNL     1      -0.197   9.820  75.521  1.00  0.00     0.218 C 
HETATM    5  O4  UNL     1       0.228  10.190  76.657  1.00  0.00    -0.274 OA
HETATM    6  N1  UNL     1      -1.572   9.872  75.147  1.00  0.00    -0.355 N 
ATOM      7  H1  UNL     1      -2.308  10.464  75.531  1.00  0.00     0.162 HD
HETATM    8  C12 UNL     1      -1.676   8.869  74.071  1.00  0.00     0.099 C 
ENDROOT
BRANCH   1   9
HETATM    9  C7  UNL     1      -0.499  10.559  72.670  1.00  0.00     0.164 C 
HETATM   10  C2  UNL     1       0.737  10.956  71.984  1.00  0.00    -0.028 C 
HETATM   11  C1  UNL     1       1.638  10.570  71.102  1.00  0.00     0.020 C 
HETATM   12  C3  UNL     1       0.642  12.244  72.778  1.00  0.00     0.189 C 
HETATM   13  O3  UNL     1      -0.307  11.620  73.552  1.00  0.00    -0.368 OA
BRANCH  12  14
HETATM   14  C4  UNL     1       0.142  13.392  71.931  1.00  0.00     0.220 C 
BRANCH  14  15
HETATM   15  O1  UNL     1      -1.234  13.617  72.152  1.00  0.00    -0.385 OA
ATOM     16  H1  UNL     1      -1.761  13.041  71.610  1.00  0.00     0.210 HD
ENDBRANCH  14  15
BRANCH  14  17
HETATM   17  C5  UNL     1       0.927  14.624  72.146  1.00  0.00     0.154 C 
HETATM   18  C6  UNL     1       0.642  15.458  73.331  1.00  0.00     0.094 C 
HETATM   19  O2  UNL     1       1.786  14.935  71.360  1.00  0.00    -0.295 OA
ENDBRANCH  14  17
ENDBRANCH  12  14
ENDBRANCH   1   9
BRANCH   8  20
HETATM   20  C13 UNL     1      -1.545   7.542  74.770  1.00  0.00     0.053 C 
BRANCH  20  21
HETATM   21  C14 UNL     1      -2.809   7.154  75.435  1.00  0.00    -0.022 C 
HETATM   22  C15 UNL     1      -3.035   7.121  76.731  1.00  0.00    -0.087 C 
HETATM   23  C16 UNL     1      -4.413   6.690  77.187  1.00  0.00     0.043 C 
BRANCH  22  24
HETATM   24  C17 UNL     1      -2.074   7.463  77.799  1.00  0.00     0.037 C 
BRANCH  24  25
HETATM   25  C18 UNL     1      -2.467   8.785  78.478  1.00  0.00     0.031 C 
BRANCH  25  26
HETATM   26  C19 UNL     1      -2.051   8.739  79.922  1.00  0.00    -0.024 C 
HETATM   27  C20 UNL     1      -2.962   8.643  80.868  1.00  0.00    -0.091 C 
HETATM   28  C21 UNL     1      -2.551   8.598  82.289  1.00  0.00     0.042 C 
HETATM   29  C22 UNL     1      -4.397   8.578  80.517  1.00  0.00     0.042 C 
ENDBRANCH  25  26
ENDBRANCH  24  25
ENDBRANCH  22  24
ENDBRANCH  20  21
ENDBRANCH   8  20
TORSDOF 9
ENDMDL
MODEL 2
REMARK VINA RESULT: -7.772724334      3.331      8.368
REMARK  9 active torsions:
REMARK  status: ('A' for Active; 'I' for Inactive)
REMARK    1  A    between atoms: C3_3  and  C4_4 
REMARK    2  A    between atoms: C4_4  and  O1_5 
REMARK    3  A    between atoms: C4_4  and  C5_7 
REMARK    4  A    between atoms: C7_11  and  C8_12 
REMARK    5  A    between atoms: C12_19  and  C13_20 
REMARK    6  A    between atoms: C13_20  and  C14_21 
REMARK    7  A    between atoms: C15_22  and  C17_24 
REMARK    8  A    between atoms: C17_24  and  C18_25 
REMARK    9  A    between atoms: C18_25  and  C19_26 
ROOT
HETATM    1  C8  UNL     1      -2.601   8.383  76.302  1.00  0.00     0.015 C 
HETATM    2  C9  UNL     1      -3.369   8.803  75.102  1.00  0.00     0.021 C 
HETATM    3  C10 UNL     1      -2.742   9.360  77.463  1.00  0.00     0.116 C 
HETATM    4  C11 UNL     1      -1.506   9.085  78.239  1.00  0.00     0.218 C 
HETATM    5  O4  UNL     1      -1.195   9.558  79.374  1.00  0.00    -0.274 OA
HETATM    6  N1  UNL     1      -0.676   8.181  77.515  1.00  0.00    -0.355 N 
ATOM      7  H1  UNL     1       0.045   7.558  77.878  1.00  0.00     0.162 HD
HETATM    8  C12 UNL     1      -1.107   8.359  76.116  1.00  0.00     0.099 C 
ENDROOT
BRANCH   1   9
HETATM    9  C7  UNL     1      -3.126   7.070  76.797  1.00  0.00     0.164 C 
HETATM   10  C2  UNL     1      -3.260   6.054  75.746  1.00  0.00    -0.028 C 
HETATM   11  C1  UNL     1      -2.631   5.459  74.751  1.00  0.00     0.020 C 
HETATM   12  C3  UNL     1      -4.668   5.845  76.272  1.00  0.00     0.189 C 
HETATM   13  O3  UNL     1      -4.506   7.012  76.979  1.00  0.00    -0.368 OA
BRANCH  12  14
HETATM   14  C4  UNL     1      -4.776   4.586  77.102  1.00  0.00     0.220 C 
BRANCH  14  15
HETATM   15  O1  UNL     1      -5.394   4.856  78.342  1.00  0.00    -0.385 OA
ATOM     16  H1  UNL     1      -5.752   4.061  78.721  1.00  0.00     0.210 HD
ENDBRANCH  14  15
BRANCH  14  17
HETATM   17  C5  UNL     1      -5.475   3.504  76.380  1.00  0.00     0.154 C 
HETATM   18  C6  UNL     1      -6.279   3.839  75.188  1.00  0.00     0.094 C 
HETATM   19  O2  UNL     1      -5.382   2.366  76.767  1.00  0.00    -0.295 OA
ENDBRANCH  14  17
ENDBRANCH  12  14
ENDBRANCH   1   9
BRANCH   8  20
HETATM   20  C13 UNL     1      -0.586   9.716  75.724  1.00  0.00     0.053 C 
BRANCH  20  21
HETATM   21  C14 UNL     1       0.160   9.661  74.448  1.00  0.00    -0.022 C 
HETATM   22  C15 UNL     1      -0.191  10.219  73.309  1.00  0.00    -0.087 C 
HETATM   23  C16 UNL     1       0.734  10.029  72.126  1.00  0.00     0.043 C 
BRANCH  22  24
HETATM   24  C17 UNL     1      -1.408  11.018  73.061  1.00  0.00     0.037 C 
BRANCH  24  25
HETATM   25  C18 UNL     1      -1.097  12.205  72.136  1.00  0.00     0.031 C 
BRANCH  25  26
HETATM   26  C19 UNL     1      -0.801  13.418  72.974  1.00  0.00    -0.024 C 
HETATM   27  C20 UNL     1       0.242  14.172  72.699  1.00  0.00    -0.091 C 
HETATM   28  C21 UNL     1       0.531  15.365  73.524  1.00  0.00     0.042 C 
HETATM   29  C22 UNL     1       1.130  13.831  71.565  1.00  0.00     0.042 C 
ENDBRANCH  25  26
ENDBRANCH  24  25
ENDBRANCH  22  24
ENDBRANCH  20  21
ENDBRANCH   8  20
TORSDOF 9
ENDMDL
MODEL 3
REMARK VINA RESULT: -7.671910925      2.507      8.134
REMARK  9 active torsions:
REMARK  status: ('A' for Active; 'I' for Inactive)
REMARK    1  A    between atoms: C3_3  and  C4_4 
REMARK    2  A    between atoms: C4_4  and  O1_5 
REMARK    3  A    between atoms: C4_4  and  C5_7 
REMARK    4  A    between atoms: C7_11  and  C8_12 
REMARK    5  A    between atoms: C12_19  and  C13_20 
REMARK    6  A    between atoms: C13_20  and  C14_21 
REMARK    7  A    between atoms: C15_22  and  C17_24 
REMARK    8  A    between atoms: C17_24  and  C18_25 
REMARK    9  A    between atoms: C18_25  and  C19_26 
ROOT
HETATM    1  C8  UNL     1      -2.158   8.494  75.940  1.00  0.00     0.015 C 
HETATM    2  C9  UNL     1      -3.604   8.428  75.609  1.00  0.00     0.021 C 
HETATM    3  C10 UNL     1      -1.792   9.745  76.730  1.00  0.00     0.116 C 
HETATM    4  C11 UNL     1      -0.347   9.885  76.419  1.00  0.00     0.218 C 
HETATM    5  O4  UNL     1       0.469  10.712  76.927  1.00  0.00    -0.274 OA
HETATM    6  N1  UNL     1       0.027   8.926  75.432  1.00  0.00    -0.355 N 
ATOM      7  H1  UNL     1       0.953   8.544  75.242  1.00  0.00     0.162 HD
HETATM    8  C12 UNL     1      -1.244   8.618  74.750  1.00  0.00     0.099 C 
ENDROOT
BRANCH   1   9
HETATM    9  C7  UNL     1      -1.792   7.331  76.811  1.00  0.00     0.164 C 
HETATM   10  C2  UNL     1      -2.868   6.912  77.718  1.00  0.00    -0.028 C 
HETATM   11  C1  UNL     1      -4.146   6.594  77.782  1.00  0.00     0.020 C 
HETATM   12  C3  UNL     1      -1.822   6.966  78.816  1.00  0.00     0.189 C 
HETATM   13  O3  UNL     1      -1.020   7.643  77.928  1.00  0.00    -0.368 OA
BRANCH  12  14
HETATM   14  C4  UNL     1      -1.345   5.586  79.207  1.00  0.00     0.220 C 
BRANCH  14  15
HETATM   15  O1  UNL     1       0.027   5.429  78.917  1.00  0.00    -0.385 OA
ATOM     16  H1  UNL     1       0.148   4.996  78.080  1.00  0.00     0.210 HD
ENDBRANCH  14  15
BRANCH  14  17
HETATM   17  C5  UNL     1      -1.631   5.281  80.624  1.00  0.00     0.154 C 
HETATM   18  C6  UNL     1      -2.985   4.826  80.999  1.00  0.00     0.094 C 
HETATM   19  O2  UNL     1      -0.766   5.405  81.452  1.00  0.00    -0.295 OA
ENDBRANCH  14  17
ENDBRANCH  12  14
ENDBRANCH   1   9
BRANCH   8  20
HETATM   20  C13 UNL     1      -1.560   9.853  73.949  1.00  0.00     0.053 C 
BRANCH  20  21
HETATM   21  C14 UNL     1      -0.527  10.109  72.921  1.00  0.00    -0.022 C 
HETATM   22  C15 UNL     1      -0.415  11.185  72.173  1.00  0.00    -0.087 C 
HETATM   23  C16 UNL     1       0.728  11.229  71.181  1.00  0.00     0.043 C 
BRANCH  22  24
HETATM   24  C17 UNL     1      -1.298  12.369  72.198  1.00  0.00     0.037 C 
BRANCH  24  25
HETATM   25  C18 UNL     1      -0.478  13.652  72.401  1.00  0.00     0.031 C 
BRANCH  25  26
HETATM   26  C19 UNL     1      -0.213  13.841  73.869  1.00  0.00    -0.024 C 
HETATM   27  C20 UNL     1       0.446  14.900  74.290  1.00  0.00    -0.091 C 
HETATM   28  C21 UNL     1       0.706  15.084  75.735  1.00  0.00     0.042 C 
HETATM   29  C22 UNL     1       0.930  15.910  73.323  1.00  0.00     0.042 C 
ENDBRANCH  25  26
ENDBRANCH  24  25
ENDBRANCH  22  24
ENDBRANCH  20  21
ENDBRANCH   8  20
TORSDOF 9
ENDMDL
MODEL 4
REMARK VINA RESULT: -7.639413572      1.143      1.475
REMARK  9 active torsions:
REMARK  status: ('A' for Active; 'I' for Inactive)
REMARK    1  A    between atoms: C3_3  and  C4_4 
REMARK    2  A    between atoms: C4_4  and  O1_5 
REMARK    3  A    between atoms: C4_4  and  C5_7 
REMARK    4  A    between atoms: C7_11  and  C8_12 
REMARK    5  A    between atoms: C12_19  and  C13_20 
REMARK    6  A    between atoms: C13_20  and  C14_21 
REMARK    7  A    between atoms: C15_22  and  C17_24 
REMARK    8  A    between atoms: C17_24  and  C18_25 
REMARK    9  A    between atoms: C18_25  and  C19_26 
ROOT
HETATM    1  C8  UNL     1      -0.509   9.003  73.492  1.00  0.00     0.015 C 
HETATM    2  C9  UNL     1      -0.165   7.934  72.519  1.00  0.00     0.021 C 
HETATM    3  C10 UNL     1       0.556   9.185  74.566  1.00  0.00     0.116 C 
HETATM    4  C11 UNL     1      -0.230   9.798  75.667  1.00  0.00     0.218 C 
HETATM    5  O4  UNL     1       0.217  10.259  76.761  1.00  0.00    -0.274 OA
HETATM    6  N1  UNL     1      -1.613   9.805  75.323  1.00  0.00    -0.355 N 
ATOM      7  H1  UNL     1      -2.349  10.415  75.680  1.00  0.00     0.162 HD
HETATM    8  C12 UNL     1      -1.729   8.722  74.329  1.00  0.00     0.099 C 
ENDROOT
BRANCH   1   9
HETATM    9  C7  UNL     1      -0.608  10.315  72.777  1.00  0.00     0.164 C 
HETATM   10  C2  UNL     1       0.646  10.736  72.141  1.00  0.00    -0.028 C 
HETATM   11  C1  UNL     1       1.623  10.345  71.346  1.00  0.00     0.020 C 
HETATM   12  C3  UNL     1       0.429  12.068  72.833  1.00  0.00     0.189 C 
HETATM   13  O3  UNL     1      -0.533  11.443  73.591  1.00  0.00    -0.368 OA
BRANCH  12  14
HETATM   14  C4  UNL     1      -0.076  13.124  71.876  1.00  0.00     0.220 C 
BRANCH  14  15
HETATM   15  O1  UNL     1      -1.360  13.571  72.255  1.00  0.00    -0.385 OA
ATOM     16  H1  UNL     1      -1.724  14.149  71.594  1.00  0.00     0.210 HD
ENDBRANCH  14  15
BRANCH  14  17
HETATM   17  C5  UNL     1       0.868  14.253  71.747  1.00  0.00     0.154 C 
HETATM   18  C6  UNL     1       0.898  15.286  72.802  1.00  0.00     0.094 C 
HETATM   19  O2  UNL     1       1.597  14.320  70.791  1.00  0.00    -0.295 OA
ENDBRANCH  14  17
ENDBRANCH  12  14
ENDBRANCH   1   9
BRANCH   8  20
HETATM   20  C13 UNL     1      -1.563   7.453  75.123  1.00  0.00     0.053 C 
BRANCH  20  21
HETATM   21  C14 UNL     1      -2.784   6.620  75.073  1.00  0.00    -0.022 C 
HETATM   22  C15 UNL     1      -3.836   6.722  75.856  1.00  0.00    -0.087 C 
HETATM   23  C16 UNL     1      -4.977   5.756  75.619  1.00  0.00     0.043 C 
BRANCH  22  24
HETATM   24  C17 UNL     1      -4.023   7.691  76.955  1.00  0.00     0.037 C 
BRANCH  24  25
HETATM   25  C18 UNL     1      -3.416   7.153  78.260  1.00  0.00     0.031 C 
BRANCH  25  26
HETATM   26  C19 UNL     1      -2.330   8.087  78.720  1.00  0.00    -0.024 C 
HETATM   27  C20 UNL     1      -1.176   7.605  79.129  1.00  0.00    -0.091 C 
HETATM   28  C21 UNL     1      -0.109   8.525  79.581  1.00  0.00     0.042 C 
HETATM   29  C22 UNL     1      -0.938   6.145  79.138  1.00  0.00     0.042 C 
ENDBRANCH  25  26
ENDBRANCH  24  25
ENDBRANCH  22  24
ENDBRANCH  20  21
ENDBRANCH   8  20
TORSDOF 9
ENDMDL
MODEL 5
REMARK VINA RESULT: -7.611205975      2.881      8.207
REMARK  9 active torsions:
REMARK  status: ('A' for Active; 'I' for Inactive)
REMARK    1  A    between atoms: C3_3  and  C4_4 
REMARK    2  A    between atoms: C4_4  and  O1_5 
REMARK    3  A    between atoms: C4_4  and  C5_7 
REMARK    4  A    between atoms: C7_11  and  C8_12 
REMARK    5  A    between atoms: C12_19  and  C13_20 
REMARK    6  A    between atoms: C13_20  and  C14_21 
REMARK    7  A    between atoms: C15_22  and  C17_24 
REMARK    8  A    between atoms: C17_24  and  C18_25 
REMARK    9  A    between atoms: C18_25  and  C19_26 
ROOT
HETATM    1  C8  UNL     1      -2.191   8.469  75.475  1.00  0.00     0.015 C 
HETATM    2  C9  UNL     1      -3.619   8.575  75.080  1.00  0.00     0.021 C 
HETATM    3  C10 UNL     1      -1.771   9.556  76.458  1.00  0.00     0.116 C 
HETATM    4  C11 UNL     1      -0.305   9.617  76.229  1.00  0.00     0.218 C 
HETATM    5  O4  UNL     1       0.545  10.289  76.888  1.00  0.00    -0.274 OA
HETATM    6  N1  UNL     1       0.044   8.784  75.126  1.00  0.00    -0.355 N 
ATOM      7  H1  UNL     1       0.946   8.356  74.919  1.00  0.00     0.162 HD
HETATM    8  C12 UNL     1      -1.210   8.688  74.355  1.00  0.00     0.099 C 
ENDROOT
BRANCH   1   9
HETATM    9  C7  UNL     1      -1.963   7.165  76.176  1.00  0.00     0.164 C 
HETATM   10  C2  UNL     1      -2.962   6.139  75.851  1.00  0.00    -0.028 C 
HETATM   11  C1  UNL     1      -3.582   5.530  74.859  1.00  0.00     0.020 C 
HETATM   12  C3  UNL     1      -3.096   5.942  77.350  1.00  0.00     0.189 C 
HETATM   13  O3  UNL     1      -2.396   7.116  77.499  1.00  0.00    -0.368 OA
BRANCH  12  14
HETATM   14  C4  UNL     1      -2.385   4.693  77.819  1.00  0.00     0.220 C 
BRANCH  14  15
HETATM   15  O1  UNL     1      -1.323   5.018  78.690  1.00  0.00    -0.385 OA
ATOM     16  H1  UNL     1      -0.508   4.635  78.386  1.00  0.00     0.210 HD
ENDBRANCH  14  15
BRANCH  14  17
HETATM   17  C5  UNL     1      -3.313   3.728  78.443  1.00  0.00     0.154 C 
HETATM   18  C6  UNL     1      -4.766   3.980  78.367  1.00  0.00     0.094 C 
HETATM   19  O2  UNL     1      -2.880   2.754  79.003  1.00  0.00    -0.295 OA
ENDBRANCH  14  17
ENDBRANCH  12  14
ENDBRANCH   1   9
BRANCH   8  20
HETATM   20  C13 UNL     1      -1.385  10.049  73.736  1.00  0.00     0.053 C 
BRANCH  20  21
HETATM   21  C14 UNL     1      -0.313  10.341  72.759  1.00  0.00    -0.022 C 
HETATM   22  C15 UNL     1      -0.191  11.430  72.031  1.00  0.00    -0.087 C 
HETATM   23  C16 UNL     1       0.994  11.511  71.092  1.00  0.00     0.043 C 
BRANCH  22  24
HETATM   24  C17 UNL     1      -1.099  12.594  72.033  1.00  0.00     0.037 C 
BRANCH  24  25
HETATM   25  C18 UNL     1      -0.327  13.883  72.356  1.00  0.00     0.031 C 
BRANCH  25  26
HETATM   26  C19 UNL     1      -0.112  13.969  73.842  1.00  0.00    -0.024 C 
HETATM   27  C20 UNL     1       0.501  15.013  74.361  1.00  0.00    -0.091 C 
HETATM   28  C21 UNL     1       0.711  15.095  75.823  1.00  0.00     0.042 C 
HETATM   29  C22 UNL     1       0.980  16.106  73.487  1.00  0.00     0.042 C 
ENDBRANCH  25  26
ENDBRANCH  24  25
ENDBRANCH  22  24
ENDBRANCH  20  21
ENDBRANCH   8  20
TORSDOF 9
ENDMDL
