MODEL 1
REMARK VINA RESULT: -7.713799566      0.000      0.000
REMARK  7 active torsions:
REMARK  status: ('A' for Active; 'I' for Inactive)
REMARK    1  A    between atoms: C2_2  and  C4_4 
REMARK    2  A    between atoms: C4_4  and  C5_5 
REMARK    3  A    between atoms: N2_8  and  C6_9 
REMARK    4  A    between atoms: C6_9  and  C7_10 
REMARK    5  A    between atoms: C7_10  and  C8_11 
REMARK    6  A    between atoms: C13_16  and  N3_17 
REMARK       I    between atoms: N3_17  and  C14_19 
REMARK    7  A    between atoms: C14_19  and  C15_21 
ROOT
HETATM    1  C15 UNL     1       0.343  14.750  73.753  1.00  0.00     0.129 A 
HETATM    2  C16 UNL     1       0.524  14.640  75.221  1.00  0.00     0.079 C 
HETATM    3  N4  UNL     1       0.644  14.549  76.370  1.00  0.00    -0.196 NA
HETATM    4  C17 UNL     1       1.549  15.383  73.089  1.00  0.00     0.037 A 
HETATM    5  C18 UNL     1       0.246  16.138  73.250  1.00  0.00     0.037 A 
ENDROOT
BRANCH   1   6
HETATM    6  C14 UNL     1      -0.306  13.613  73.063  1.00  0.00     0.240 C 
HETATM    7  N3  UNL     1       0.243  12.315  73.026  1.00  0.00    -0.355 N 
ATOM      8  H3  UNL     1       1.132  12.180  73.506  1.00  0.00     0.162 HD
HETATM    9  O1  UNL     1      -1.399  13.828  72.486  1.00  0.00    -0.272 OA
BRANCH   7  10
HETATM   10  C13 UNL     1      -0.320  11.168  72.383  1.00  0.00     0.088 C 
HETATM   11  C8  UNL     1       0.708  10.126  72.020  1.00  0.00     0.010 C 
HETATM   12  C9  UNL     1       0.411   8.862  72.750  1.00  0.00     0.007 C 
HETATM   13  C10 UNL     1       0.409   9.195  74.251  1.00  0.00     0.001 C 
HETATM   14  C11 UNL     1      -0.848   9.985  74.525  1.00  0.00     0.002 C 
HETATM   15  C12 UNL     1      -1.404  10.549  73.238  1.00  0.00     0.025 C 
BRANCH  11  16
HETATM   16  C7  UNL     1       1.001  10.022  70.576  1.00  0.00     0.028 C 
BRANCH  16  17
HETATM   17  C6  UNL     1       1.354   8.696  70.025  1.00  0.00     0.142 C 
BRANCH  17  18
HETATM   18  N2  UNL     1       0.370   8.004  69.286  1.00  0.00    -0.331 N 
HETATM   19  N1  UNL     1       0.434   8.246  67.967  1.00  0.00    -0.327 N 
HETATM   20  C5  UNL     1       0.828   7.162  67.086  1.00  0.00     0.169 C 
ATOM     21  H1  UNL     1       0.212   9.170  67.593  1.00  0.00     0.180 HD
HETATM   22  C22 UNL     1      -0.127   6.070  67.307  1.00  0.00     0.156 C 
HETATM   23  C20 UNL     1      -0.656   5.877  68.685  1.00  0.00     0.073 C 
HETATM   24  O2  UNL     1      -0.524   5.305  66.435  1.00  0.00    -0.295 OA
HETATM   25  C19 UNL     1       0.139   6.658  69.701  1.00  0.00     0.153 C 
HETATM   26  C21 UNL     1      -0.752   4.418  68.987  1.00  0.00     0.020 C 
BRANCH  20  27
HETATM   27  C4  UNL     1       2.268   6.883  67.121  1.00  0.00     0.038 C 
BRANCH  27  28
HETATM   28  C2  UNL     1       3.054   6.916  65.851  1.00  0.00    -0.020 C 
HETATM   29  C1  UNL     1       2.911   5.485  65.255  1.00  0.00     0.009 C 
HETATM   30  C3  UNL     1       2.542   7.825  64.780  1.00  0.00     0.009 C 
ENDBRANCH  27  28
ENDBRANCH  20  27
ENDBRANCH  17  18
ENDBRANCH  16  17
ENDBRANCH  11  16
ENDBRANCH   7  10
ENDBRANCH   1   6
TORSDOF 7
ENDMDL
MODEL 2
REMARK VINA RESULT: -7.597875821      5.311      8.760
REMARK  7 active torsions:
REMARK  status: ('A' for Active; 'I' for Inactive)
REMARK    1  A    between atoms: C2_2  and  C4_4 
REMARK    2  A    between atoms: C4_4  and  C5_5 
REMARK    3  A    between atoms: N2_8  and  C6_9 
REMARK    4  A    between atoms: C6_9  and  C7_10 
REMARK    5  A    between atoms: C7_10  and  C8_11 
REMARK    6  A    between atoms: C13_16  and  N3_17 
REMARK       I    between atoms: N3_17  and  C14_19 
REMARK    7  A    between atoms: C14_19  and  C15_21 
ROOT
HETATM    1  C15 UNL     1      -5.862   6.307  78.761  1.00  0.00     0.129 A 
HETATM    2  C16 UNL     1      -5.769   5.353  79.894  1.00  0.00     0.079 C 
HETATM    3  N4  UNL     1      -5.685   4.596  80.767  1.00  0.00    -0.196 NA
HETATM    4  C17 UNL     1      -6.878   7.397  79.032  1.00  0.00     0.037 A 
HETATM    5  C18 UNL     1      -7.155   6.283  78.044  1.00  0.00     0.037 A 
ENDROOT
BRANCH   1   6
HETATM    6  C14 UNL     1      -4.597   6.691  78.095  1.00  0.00     0.240 C 
HETATM    7  N3  UNL     1      -3.519   7.296  78.772  1.00  0.00    -0.355 N 
ATOM      8  H3  UNL     1      -3.642   7.465  79.770  1.00  0.00     0.162 HD
HETATM    9  O1  UNL     1      -4.492   6.463  76.866  1.00  0.00    -0.272 OA
BRANCH   7  10
HETATM   10  C13 UNL     1      -2.269   7.697  78.202  1.00  0.00     0.088 C 
HETATM   11  C8  UNL     1      -2.311   9.073  77.586  1.00  0.00     0.010 C 
HETATM   12  C9  UNL     1      -1.353   9.963  78.299  1.00  0.00     0.007 C 
HETATM   13  C10 UNL     1      -1.755   9.967  79.782  1.00  0.00     0.001 C 
HETATM   14  C11 UNL     1      -1.366   8.621  80.346  1.00  0.00     0.002 C 
HETATM   15  C12 UNL     1      -1.161   7.624  79.229  1.00  0.00     0.025 C 
BRANCH  11  16
HETATM   16  C7  UNL     1      -2.284   9.090  76.109  1.00  0.00     0.028 C 
BRANCH  16  17
HETATM   17  C6  UNL     1      -1.044   9.533  75.435  1.00  0.00     0.142 C 
BRANCH  17  18
HETATM   18  N2  UNL     1      -1.036   9.577  74.024  1.00  0.00    -0.331 N 
HETATM   19  N1  UNL     1      -1.719  10.621  73.526  1.00  0.00    -0.327 N 
HETATM   20  C5  UNL     1      -0.977  11.664  72.844  1.00  0.00     0.169 C 
ATOM     21  H1  UNL     1      -2.733  10.678  73.626  1.00  0.00     0.180 HD
HETATM   22  C22 UNL     1      -0.256  11.019  71.742  1.00  0.00     0.156 C 
HETATM   23  C20 UNL     1       0.255   9.638  71.959  1.00  0.00     0.073 C 
HETATM   24  O2  UNL     1      -0.045  11.536  70.650  1.00  0.00    -0.295 OA
HETATM   25  C19 UNL     1       0.213   9.252  73.417  1.00  0.00     0.153 C 
HETATM   26  C21 UNL     1       1.605   9.497  71.336  1.00  0.00     0.020 C 
BRANCH  20  27
HETATM   27  C4  UNL     1      -0.255  12.554  73.760  1.00  0.00     0.038 C 
BRANCH  27  28
HETATM   28  C2  UNL     1      -0.163  14.013  73.449  1.00  0.00    -0.020 C 
HETATM   29  C1  UNL     1       0.378  14.666  74.753  1.00  0.00     0.009 C 
HETATM   30  C3  UNL     1       0.822  14.402  72.393  1.00  0.00     0.009 C 
ENDBRANCH  27  28
ENDBRANCH  20  27
ENDBRANCH  17  18
ENDBRANCH  16  17
ENDBRANCH  11  16
ENDBRANCH   7  10
ENDBRANCH   1   6
TORSDOF 7
ENDMDL
MODEL 3
REMARK VINA RESULT: -7.591104969      5.146      8.776
REMARK  7 active torsions:
REMARK  status: ('A' for Active; 'I' for Inactive)
REMARK    1  A    between atoms: C2_2  and  C4_4 
REMARK    2  A    between atoms: C4_4  and  C5_5 
REMARK    3  A    between atoms: N2_8  and  C6_9 
REMARK    4  A    between atoms: C6_9  and  C7_10 
REMARK    5  A    between atoms: C7_10  and  C8_11 
REMARK    6  A    between atoms: C13_16  and  N3_17 
REMARK       I    between atoms: N3_17  and  C14_19 
REMARK    7  A    between atoms: C14_19  and  C15_21 
ROOT
HETATM    1  C15 UNL     1      -5.847   6.367  78.130  1.00  0.00     0.129 A 
HETATM    2  C16 UNL     1      -6.584   5.705  77.025  1.00  0.00     0.079 C 
HETATM    3  N4  UNL     1      -7.150   5.201  76.149  1.00  0.00    -0.196 NA
HETATM    4  C17 UNL     1      -6.374   5.942  79.484  1.00  0.00     0.037 A 
HETATM    5  C18 UNL     1      -6.655   7.319  78.921  1.00  0.00     0.037 A 
ENDROOT
BRANCH   1   6
HETATM    6  C14 UNL     1      -4.382   6.513  77.974  1.00  0.00     0.240 C 
HETATM    7  N3  UNL     1      -3.632   7.520  78.612  1.00  0.00    -0.355 N 
ATOM      8  H3  UNL     1      -4.148   8.168  79.207  1.00  0.00     0.162 HD
HETATM    9  O1  UNL     1      -3.790   5.692  77.232  1.00  0.00    -0.272 OA
BRANCH   7  10
HETATM   10  C13 UNL     1      -2.220   7.728  78.512  1.00  0.00     0.088 C 
HETATM   11  C8  UNL     1      -1.853   8.901  77.639  1.00  0.00     0.010 C 
HETATM   12  C9  UNL     1      -1.131   9.917  78.454  1.00  0.00     0.007 C 
HETATM   13  C10 UNL     1      -2.059  10.311  79.614  1.00  0.00     0.001 C 
HETATM   14  C11 UNL     1      -2.085   9.144  80.572  1.00  0.00     0.002 C 
HETATM   15  C12 UNL     1      -1.601   7.889  79.883  1.00  0.00     0.025 C 
BRANCH  11  16
HETATM   16  C7  UNL     1      -1.267   8.540  76.331  1.00  0.00     0.028 C 
BRANCH  16  17
HETATM   17  C6  UNL     1      -0.550   9.586  75.570  1.00  0.00     0.142 C 
BRANCH  17  18
HETATM   18  N2  UNL     1      -0.725   9.624  74.170  1.00  0.00    -0.331 N 
HETATM   19  N1  UNL     1      -1.527  10.623  73.767  1.00  0.00    -0.327 N 
HETATM   20  C5  UNL     1      -0.943  11.707  72.999  1.00  0.00     0.169 C 
ATOM     21  H1  UNL     1      -2.522  10.621  73.996  1.00  0.00     0.180 HD
HETATM   22  C22 UNL     1      -0.331  11.101  71.812  1.00  0.00     0.156 C 
HETATM   23  C20 UNL     1       0.285   9.754  71.957  1.00  0.00     0.073 C 
HETATM   24  O2  UNL     1      -0.292  11.625  70.703  1.00  0.00    -0.295 OA
HETATM   25  C19 UNL     1       0.454   9.372  73.406  1.00  0.00     0.153 C 
HETATM   26  C21 UNL     1       1.550   9.691  71.166  1.00  0.00     0.020 C 
BRANCH  20  27
HETATM   27  C4  UNL     1      -0.163  12.642  73.818  1.00  0.00     0.038 C 
BRANCH  27  28
HETATM   28  C2  UNL     1      -0.138  14.091  73.457  1.00  0.00    -0.020 C 
HETATM   29  C1  UNL     1       0.375  14.813  74.737  1.00  0.00     0.009 C 
HETATM   30  C3  UNL     1       0.825  14.489  72.386  1.00  0.00     0.009 C 
ENDBRANCH  27  28
ENDBRANCH  20  27
ENDBRANCH  17  18
ENDBRANCH  16  17
ENDBRANCH  11  16
ENDBRANCH   7  10
ENDBRANCH   1   6
TORSDOF 7
ENDMDL
MODEL 4
REMARK VINA RESULT: -7.567071888      4.994      7.819
REMARK  7 active torsions:
REMARK  status: ('A' for Active; 'I' for Inactive)
REMARK    1  A    between atoms: C2_2  and  C4_4 
REMARK    2  A    between atoms: C4_4  and  C5_5 
REMARK    3  A    between atoms: N2_8  and  C6_9 
REMARK    4  A    between atoms: C6_9  and  C7_10 
REMARK    5  A    between atoms: C7_10  and  C8_11 
REMARK    6  A    between atoms: C13_16  and  N3_17 
REMARK       I    between atoms: N3_17  and  C14_19 
REMARK    7  A    between atoms: C14_19  and  C15_21 
ROOT
HETATM    1  C15 UNL     1      -5.941   7.536  79.575  1.00  0.00     0.129 A 
HETATM    2  C16 UNL     1      -5.843   8.705  80.483  1.00  0.00     0.079 C 
HETATM    3  N4  UNL     1      -5.749   9.610  81.200  1.00  0.00    -0.196 NA
HETATM    4  C17 UNL     1      -7.284   7.483  78.877  1.00  0.00     0.037 A 
HETATM    5  C18 UNL     1      -6.931   6.519  79.989  1.00  0.00     0.037 A 
ENDROOT
BRANCH   1   6
HETATM    6  C14 UNL     1      -4.738   7.191  78.784  1.00  0.00     0.240 C 
HETATM    7  N3  UNL     1      -3.884   8.156  78.214  1.00  0.00    -0.355 N 
ATOM      8  H3  UNL     1      -4.129   9.133  78.370  1.00  0.00     0.162 HD
HETATM    9  O1  UNL     1      -4.478   5.975  78.619  1.00  0.00    -0.272 OA
BRANCH   7  10
HETATM   10  C13 UNL     1      -2.707   7.905  77.439  1.00  0.00     0.088 C 
HETATM   11  C8  UNL     1      -2.295   9.079  76.587  1.00  0.00     0.010 C 
HETATM   12  C9  UNL     1      -0.944   9.543  77.006  1.00  0.00     0.007 C 
HETATM   13  C10 UNL     1      -1.028   9.897  78.499  1.00  0.00     0.001 C 
HETATM   14  C11 UNL     1      -1.128   8.593  79.255  1.00  0.00     0.002 C 
HETATM   15  C12 UNL     1      -1.558   7.481  78.326  1.00  0.00     0.025 C 
BRANCH  11  16
HETATM   16  C7  UNL     1      -2.536   8.907  75.140  1.00  0.00     0.028 C 
BRANCH  16  17
HETATM   17  C6  UNL     1      -1.367   8.857  74.235  1.00  0.00     0.142 C 
BRANCH  17  18
HETATM   18  N2  UNL     1      -0.688  10.064  73.962  1.00  0.00    -0.331 N 
HETATM   19  N1  UNL     1       0.562   9.874  73.508  1.00  0.00    -0.327 N 
HETATM   20  C5  UNL     1       0.858  10.237  72.135  1.00  0.00     0.169 C 
ATOM     21  H1  UNL     1       1.285   9.484  74.114  1.00  0.00     0.180 HD
HETATM   22  C22 UNL     1       0.529  11.659  71.993  1.00  0.00     0.156 C 
HETATM   23  C20 UNL     1      -0.631  12.185  72.764  1.00  0.00     0.073 C 
HETATM   24  O2  UNL     1       1.144  12.449  71.285  1.00  0.00    -0.295 OA
HETATM   25  C19 UNL     1      -1.476  11.070  73.328  1.00  0.00     0.153 C 
HETATM   26  C21 UNL     1      -1.394  13.155  71.925  1.00  0.00     0.020 C 
BRANCH  20  27
HETATM   27  C4  UNL     1       0.340   9.272  71.157  1.00  0.00     0.038 C 
BRANCH  27  28
HETATM   28  C2  UNL     1       1.079   7.995  70.922  1.00  0.00    -0.020 C 
HETATM   29  C1  UNL     1       0.221   6.902  71.622  1.00  0.00     0.009 C 
HETATM   30  C3  UNL     1       1.182   7.544  69.500  1.00  0.00     0.009 C 
ENDBRANCH  27  28
ENDBRANCH  20  27
ENDBRANCH  17  18
ENDBRANCH  16  17
ENDBRANCH  11  16
ENDBRANCH   7  10
ENDBRANCH   1   6
TORSDOF 7
ENDMDL
MODEL 5
REMARK VINA RESULT: -7.516748616      1.060      2.322
REMARK  7 active torsions:
REMARK  status: ('A' for Active; 'I' for Inactive)
REMARK    1  A    between atoms: C2_2  and  C4_4 
REMARK    2  A    between atoms: C4_4  and  C5_5 
REMARK    3  A    between atoms: N2_8  and  C6_9 
REMARK    4  A    between atoms: C6_9  and  C7_10 
REMARK    5  A    between atoms: C7_10  and  C8_11 
REMARK    6  A    between atoms: C13_16  and  N3_17 
REMARK       I    between atoms: N3_17  and  C14_19 
REMARK    7  A    between atoms: C14_19  and  C15_21 
ROOT
HETATM    1  C15 UNL     1       0.352  14.732  73.756  1.00  0.00     0.129 A 
HETATM    2  C16 UNL     1       0.492  14.640  75.230  1.00  0.00     0.079 C 
HETATM    3  N4  UNL     1       0.582  14.562  76.383  1.00  0.00    -0.196 NA
HETATM    4  C17 UNL     1       1.565  15.380  73.121  1.00  0.00     0.037 A 
HETATM    5  C18 UNL     1       0.245  16.112  73.236  1.00  0.00     0.037 A 
ENDROOT
BRANCH   1   6
HETATM    6  C14 UNL     1      -0.257  13.576  73.061  1.00  0.00     0.240 C 
HETATM    7  N3  UNL     1       0.313  12.287  73.057  1.00  0.00    -0.355 N 
ATOM      8  H3  UNL     1       1.188  12.172  73.568  1.00  0.00     0.162 HD
HETATM    9  O1  UNL     1      -1.333  13.766  72.446  1.00  0.00    -0.272 OA
BRANCH   7  10
HETATM   10  C13 UNL     1      -0.211  11.123  72.411  1.00  0.00     0.088 C 
HETATM   11  C8  UNL     1       0.833  10.065  72.156  1.00  0.00     0.010 C 
HETATM   12  C9  UNL     1       0.474   8.826  72.901  1.00  0.00     0.007 C 
HETATM   13  C10 UNL     1       0.367   9.205  74.387  1.00  0.00     0.001 C 
HETATM   14  C11 UNL     1      -0.901  10.010  74.545  1.00  0.00     0.002 C 
HETATM   15  C12 UNL     1      -1.358  10.537  73.204  1.00  0.00     0.025 C 
BRANCH  11  16
HETATM   16  C7  UNL     1       1.228   9.914  70.741  1.00  0.00     0.028 C 
BRANCH  16  17
HETATM   17  C6  UNL     1       0.546   8.885  69.927  1.00  0.00     0.142 C 
BRANCH  17  18
HETATM   18  N2  UNL     1       1.300   7.772  69.498  1.00  0.00    -0.331 N 
HETATM   19  N1  UNL     1       0.807   6.602  69.936  1.00  0.00    -0.327 N 
HETATM   20  C5  UNL     1       0.245   5.685  68.962  1.00  0.00     0.169 C 
ATOM     21  H1  UNL     1       0.826   6.364  70.928  1.00  0.00     0.180 HD
HETATM   22  C22 UNL     1       1.304   5.401  67.988  1.00  0.00     0.156 C 
HETATM   23  C20 UNL     1       2.252   6.499  67.651  1.00  0.00     0.073 C 
HETATM   24  O2  UNL     1       1.467   4.321  67.431  1.00  0.00    -0.295 OA
HETATM   25  C19 UNL     1       1.756   7.834  68.147  1.00  0.00     0.153 C 
HETATM   26  C21 UNL     1       2.553   6.473  66.190  1.00  0.00     0.020 C 
BRANCH  20  27
HETATM   27  C4  UNL     1      -1.085   6.087  68.490  1.00  0.00     0.038 C 
BRANCH  27  28
HETATM   28  C2  UNL     1      -1.332   6.231  67.023  1.00  0.00    -0.020 C 
HETATM   29  C1  UNL     1      -2.710   5.550  66.781  1.00  0.00     0.009 C 
HETATM   30  C3  UNL     1      -1.504   7.627  66.516  1.00  0.00     0.009 C 
ENDBRANCH  27  28
ENDBRANCH  20  27
ENDBRANCH  17  18
ENDBRANCH  16  17
ENDBRANCH  11  16
ENDBRANCH   7  10
ENDBRANCH   1   6
TORSDOF 7
ENDMDL
