MODEL 1
REMARK VINA RESULT: -3.742410351      0.000      0.000
REMARK  1 active torsions:
REMARK  status: ('A' for Active; 'I' for Inactive)
REMARK    1  A    between atoms: C5_8  and  N2_10 
ROOT
HETATM    1  C1  UNL     1       2.122   8.105  35.409  1.00  0.00     0.041 C 
HETATM    2  C2  UNL     1       0.819   8.796  35.408  1.00  0.00     0.068 C 
HETATM    3  C3  UNL     1       0.586   9.631  36.624  1.00  0.00     0.041 C 
HETATM    4  N1  UNL     1      -0.206   7.749  35.205  1.00  0.00    -0.347 N 
ATOM      5  H1  UNL     1      -0.799   7.158  35.789  1.00  0.00     0.163 HD
HETATM    6  C4  UNL     1       0.024   7.951  33.812  1.00  0.00     0.257 C 
HETATM    7  O1  UNL     1       0.021   7.214  32.798  1.00  0.00    -0.271 OA
HETATM    8  C5  UNL     1       0.246   9.375  34.185  1.00  0.00     0.228 C 
HETATM    9  C6  UNL     1      -1.137   9.969  34.512  1.00  0.00     0.060 C 
ENDROOT
BRANCH   8  10
HETATM   10  N2  UNL     1       0.942  10.194  33.310  1.00  0.00    -0.059 N 
HETATM   11  C7  UNL     1       2.236   9.799  32.875  1.00  0.00     0.273 C 
HETATM   12  C8  UNL     1       0.122  10.422  32.108  1.00  0.00     0.273 C 
HETATM   13  C9  UNL     1       1.135  11.541  33.882  1.00  0.00     0.273 C 
ENDBRANCH   8  10
TORSDOF 1
ENDMDL
MODEL 2
REMARK VINA RESULT: -3.597408386      1.496      2.050
REMARK  1 active torsions:
REMARK  status: ('A' for Active; 'I' for Inactive)
REMARK    1  A    between atoms: C5_8  and  N2_10 
ROOT
HETATM    1  C1  UNL     1       0.710   9.344  36.869  1.00  0.00     0.041 C 
HETATM    2  C2  UNL     1       0.128  10.012  35.689  1.00  0.00     0.068 C 
HETATM    3  C3  UNL     1       0.465  11.464  35.599  1.00  0.00     0.041 C 
HETATM    4  N1  UNL     1      -1.325   9.744  35.735  1.00  0.00    -0.347 N 
ATOM      5  H1  UNL     1      -2.160  10.204  36.098  1.00  0.00     0.163 HD
HETATM    6  C4  UNL     1      -1.013   8.541  35.034  1.00  0.00     0.257 C 
HETATM    7  O1  UNL     1      -1.473   7.375  35.029  1.00  0.00    -0.271 OA
HETATM    8  C5  UNL     1       0.052   9.349  34.379  1.00  0.00     0.228 C 
HETATM    9  C6  UNL     1      -0.655  10.289  33.383  1.00  0.00     0.060 C 
ENDROOT
BRANCH   8  10
HETATM   10  N2  UNL     1       1.112   8.692  33.774  1.00  0.00    -0.059 N 
HETATM   11  C7  UNL     1       1.911   7.810  34.549  1.00  0.00     0.273 C 
HETATM   12  C8  UNL     1       0.610   7.934  32.616  1.00  0.00     0.273 C 
HETATM   13  C9  UNL     1       2.071   9.654  33.194  1.00  0.00     0.273 C 
ENDBRANCH   8  10
TORSDOF 1
ENDMDL
MODEL 3
REMARK VINA RESULT: -3.492262224      5.009      6.551
REMARK  1 active torsions:
REMARK  status: ('A' for Active; 'I' for Inactive)
REMARK    1  A    between atoms: C5_8  and  N2_10 
ROOT
HETATM    1  C1  UNL     1       1.013   8.909  40.575  1.00  0.00     0.041 C 
HETATM    2  C2  UNL     1       0.276   8.976  39.299  1.00  0.00     0.068 C 
HETATM    3  C3  UNL     1       1.018   8.379  38.150  1.00  0.00     0.041 C 
HETATM    4  N1  UNL     1      -0.079  10.398  39.100  1.00  0.00    -0.347 N 
ATOM      5  H1  UNL     1       0.319  11.209  38.627  1.00  0.00     0.163 HD
HETATM    6  C4  UNL     1      -1.238  10.102  39.877  1.00  0.00     0.257 C 
HETATM    7  O1  UNL     1      -1.932  10.736  40.707  1.00  0.00    -0.271 OA
HETATM    8  C5  UNL     1      -1.177   8.764  39.228  1.00  0.00     0.228 C 
HETATM    9  C6  UNL     1      -1.640   8.957  37.771  1.00  0.00     0.060 C 
ENDROOT
BRANCH   8  10
HETATM   10  N2  UNL     1      -1.841   7.702  39.822  1.00  0.00    -0.059 N 
HETATM   11  C7  UNL     1      -1.115   6.819  40.665  1.00  0.00     0.273 C 
HETATM   12  C8  UNL     1      -2.979   8.220  40.600  1.00  0.00     0.273 C 
HETATM   13  C9  UNL     1      -2.459   6.827  38.807  1.00  0.00     0.273 C 
ENDBRANCH   8  10
TORSDOF 1
ENDMDL
MODEL 4
REMARK VINA RESULT: -3.322127089      1.794      2.941
REMARK  1 active torsions:
REMARK  status: ('A' for Active; 'I' for Inactive)
REMARK    1  A    between atoms: C5_8  and  N2_10 
ROOT
HETATM    1  C1  UNL     1      -1.291   8.105  35.153  1.00  0.00     0.041 C 
HETATM    2  C2  UNL     1       0.058   8.250  34.574  1.00  0.00     0.068 C 
HETATM    3  C3  UNL     1       0.337   7.291  33.465  1.00  0.00     0.041 C 
HETATM    4  N1  UNL     1       1.007   8.142  35.703  1.00  0.00    -0.347 N 
ATOM      5  H1  UNL     1       1.550   7.407  36.156  1.00  0.00     0.163 HD
HETATM    6  C4  UNL     1       0.807   9.545  35.861  1.00  0.00     0.257 C 
HETATM    7  O1  UNL     1       0.768  10.330  36.839  1.00  0.00    -0.271 OA
HETATM    8  C5  UNL     1       0.683   9.566  34.378  1.00  0.00     0.228 C 
HETATM    9  C6  UNL     1       2.102   9.367  33.811  1.00  0.00     0.060 C 
ENDROOT
BRANCH   8  10
HETATM   10  N2  UNL     1       0.056  10.646  33.775  1.00  0.00    -0.059 N 
HETATM   11  C7  UNL     1      -1.211  11.068  34.260  1.00  0.00     0.273 C 
HETATM   12  C8  UNL     1       0.956  11.810  33.816  1.00  0.00     0.273 C 
HETATM   13  C9  UNL     1      -0.159  10.399  32.335  1.00  0.00     0.273 C 
ENDBRANCH   8  10
TORSDOF 1
ENDMDL
MODEL 5
REMARK VINA RESULT: -3.270723221      1.357      3.168
REMARK  1 active torsions:
REMARK  status: ('A' for Active; 'I' for Inactive)
REMARK    1  A    between atoms: C5_8  and  N2_10 
ROOT
HETATM    1  C1  UNL     1       0.289   9.194  31.847  1.00  0.00     0.041 C 
HETATM    2  C2  UNL     1       1.275   8.806  32.873  1.00  0.00     0.068 C 
HETATM    3  C3  UNL     1       2.470   9.700  32.921  1.00  0.00     0.041 C 
HETATM    4  N1  UNL     1       1.607   7.389  32.615  1.00  0.00    -0.347 N 
ATOM      5  H1  UNL     1       2.314   6.868  32.095  1.00  0.00     0.163 HD
HETATM    6  C4  UNL     1       0.478   7.090  33.434  1.00  0.00     0.257 C 
HETATM    7  O1  UNL     1      -0.397   6.192  33.442  1.00  0.00    -0.271 OA
HETATM    8  C5  UNL     1       0.867   8.308  34.195  1.00  0.00     0.228 C 
HETATM    9  C6  UNL     1       2.128   7.942  35.003  1.00  0.00     0.060 C 
ENDROOT
BRANCH   8  10
HETATM   10  N2  UNL     1      -0.077   8.922  35.003  1.00  0.00    -0.059 N 
HETATM   11  C7  UNL     1      -1.262   8.214  35.340  1.00  0.00     0.273 C 
HETATM   12  C8  UNL     1       0.563   9.339  36.261  1.00  0.00     0.273 C 
HETATM   13  C9  UNL     1      -0.554  10.182  34.399  1.00  0.00     0.273 C 
ENDBRANCH   8  10
TORSDOF 1
ENDMDL
