MODEL 1
REMARK VINA RESULT: -4.924187057      0.000      0.000
REMARK  3 active torsions:
REMARK  status: ('A' for Active; 'I' for Inactive)
REMARK    1  A    between atoms: C2_2  and  C3_3 
REMARK    2  A    between atoms: C4_4  and  C5_5 
REMARK    3  A    between atoms: C5_5  and  N1_6 
ROOT
HETATM    1  C3  UNL     1       0.633  14.198  34.944  1.00  0.00    -0.063 C 
HETATM    2  C4  UNL     1       0.237  13.457  34.073  1.00  0.00    -0.075 C 
ENDROOT
BRANCH   1   3
HETATM    3  C2  UNL     1       1.136  15.087  36.012  1.00  0.00     0.174 A 
HETATM    4  C1  UNL     1       0.915  14.627  37.456  1.00  0.00     0.064 C 
HETATM    5  N2  UNL     1       0.926  16.524  35.763  1.00  0.00    -0.330 N 
HETATM    6  C9  UNL     1       2.268  15.880  35.688  1.00  0.00     0.260 A 
ATOM      7  H2  UNL     1       0.320  17.342  35.694  1.00  0.00     0.164 HD
HETATM    8  O1  UNL     1       3.463  16.158  35.455  1.00  0.00    -0.270 OA
ENDBRANCH   1   3
BRANCH   2   9
HETATM    9  C5  UNL     1      -0.224  12.543  33.026  1.00  0.00     0.329 C 
BRANCH   9  10
HETATM   10  N1  UNL     1       0.384  11.271  33.246  1.00  0.00    -0.069 N 
HETATM   11  C6  UNL     1      -0.032  10.395  32.143  1.00  0.00     0.272 C 
HETATM   12  C7  UNL     1       0.058  10.650  34.489  1.00  0.00     0.272 C 
HETATM   13  C8  UNL     1       1.846  11.362  33.128  1.00  0.00     0.272 C 
ENDBRANCH   9  10
ENDBRANCH   2   9
TORSDOF 3
ENDMDL
MODEL 2
REMARK VINA RESULT: -4.552925248      3.526      5.642
REMARK  3 active torsions:
REMARK  status: ('A' for Active; 'I' for Inactive)
REMARK    1  A    between atoms: C2_2  and  C3_3 
REMARK    2  A    between atoms: C4_4  and  C5_5 
REMARK    3  A    between atoms: C5_5  and  N1_6 
ROOT
HETATM    1  C3  UNL     1      -0.941  10.363  34.665  1.00  0.00    -0.063 C 
HETATM    2  C4  UNL     1      -0.920  11.467  34.171  1.00  0.00    -0.075 C 
ENDROOT
BRANCH   1   3
HETATM    3  C2  UNL     1      -0.968   9.024  35.291  1.00  0.00     0.174 A 
HETATM    4  C1  UNL     1      -2.173   8.699  36.178  1.00  0.00     0.064 C 
HETATM    5  N2  UNL     1       0.336   8.557  35.794  1.00  0.00    -0.330 N 
HETATM    6  C9  UNL     1      -0.312   7.985  34.580  1.00  0.00     0.260 A 
ATOM      7  H2  UNL     1       1.104   8.595  36.465  1.00  0.00     0.164 HD
HETATM    8  O1  UNL     1      -0.124   7.121  33.697  1.00  0.00    -0.270 OA
ENDBRANCH   1   3
BRANCH   2   9
HETATM    9  C5  UNL     1      -0.894  12.814  33.597  1.00  0.00     0.329 C 
BRANCH   9  10
HETATM   10  N1  UNL     1       0.284  13.472  34.062  1.00  0.00    -0.069 N 
HETATM   11  C6  UNL     1       1.431  12.794  33.445  1.00  0.00     0.272 C 
HETATM   12  C7  UNL     1       0.453  13.486  35.479  1.00  0.00     0.272 C 
HETATM   13  C8  UNL     1       0.345  14.853  33.562  1.00  0.00     0.272 C 
ENDBRANCH   9  10
ENDBRANCH   2   9
TORSDOF 3
ENDMDL
MODEL 3
REMARK VINA RESULT: -4.482870566      5.183      6.519
REMARK  3 active torsions:
REMARK  status: ('A' for Active; 'I' for Inactive)
REMARK    1  A    between atoms: C2_2  and  C3_3 
REMARK    2  A    between atoms: C4_4  and  C5_5 
REMARK    3  A    between atoms: C5_5  and  N1_6 
ROOT
HETATM    1  C3  UNL     1      -1.642   8.549  38.161  1.00  0.00    -0.063 C 
HETATM    2  C4  UNL     1      -1.645   8.564  36.951  1.00  0.00    -0.075 C 
ENDROOT
BRANCH   1   3
HETATM    3  C2  UNL     1      -1.619   8.547  39.639  1.00  0.00     0.174 A 
HETATM    4  C1  UNL     1      -0.749   7.485  40.317  1.00  0.00     0.064 C 
HETATM    5  N2  UNL     1      -2.927   8.796  40.272  1.00  0.00    -0.330 N 
HETATM    6  C9  UNL     1      -1.826   9.801  40.271  1.00  0.00     0.260 A 
ATOM      7  H2  UNL     1      -3.871   8.502  40.522  1.00  0.00     0.164 HD
HETATM    8  O1  UNL     1      -1.569  10.955  40.674  1.00  0.00    -0.270 OA
ENDBRANCH   1   3
BRANCH   2   9
HETATM    9  C5  UNL     1      -1.628   8.597  35.487  1.00  0.00     0.329 C 
BRANCH   9  10
HETATM   10  N1  UNL     1      -0.430   9.251  35.071  1.00  0.00    -0.069 N 
HETATM   11  C6  UNL     1       0.070   8.532  33.893  1.00  0.00     0.272 C 
HETATM   12  C7  UNL     1       0.601   9.313  36.057  1.00  0.00     0.272 C 
HETATM   13  C8  UNL     1      -0.714  10.611  34.593  1.00  0.00     0.272 C 
ENDBRANCH   9  10
ENDBRANCH   2   9
TORSDOF 3
ENDMDL
MODEL 4
REMARK VINA RESULT: -4.465674842      4.541      5.323
REMARK  3 active torsions:
REMARK  status: ('A' for Active; 'I' for Inactive)
REMARK    1  A    between atoms: C2_2  and  C3_3 
REMARK    2  A    between atoms: C4_4  and  C5_5 
REMARK    3  A    between atoms: C5_5  and  N1_6 
ROOT
HETATM    1  C3  UNL     1       0.330   9.155  36.219  1.00  0.00    -0.063 C 
HETATM    2  C4  UNL     1       0.780   9.047  35.101  1.00  0.00    -0.075 C 
ENDROOT
BRANCH   1   3
HETATM    3  C2  UNL     1      -0.203   9.270  37.594  1.00  0.00     0.174 A 
HETATM    4  C1  UNL     1      -1.691   8.968  37.786  1.00  0.00     0.064 C 
HETATM    5  N2  UNL     1       0.317  10.418  38.358  1.00  0.00    -0.330 N 
HETATM    6  C9  UNL     1       0.714   9.011  38.646  1.00  0.00     0.260 A 
ATOM      7  H2  UNL     1       0.368  11.419  38.547  1.00  0.00     0.164 HD
HETATM    8  O1  UNL     1       1.437   8.347  39.418  1.00  0.00    -0.270 OA
ENDBRANCH   1   3
BRANCH   2   9
HETATM    9  C5  UNL     1       1.340   8.897  33.756  1.00  0.00     0.329 C 
BRANCH   9  10
HETATM   10  N1  UNL     1       0.819   9.944  32.938  1.00  0.00    -0.069 N 
HETATM   11  C6  UNL     1       1.803  11.035  32.952  1.00  0.00     0.272 C 
HETATM   12  C7  UNL     1      -0.452  10.453  33.341  1.00  0.00     0.272 C 
HETATM   13  C8  UNL     1       0.740   9.522  31.533  1.00  0.00     0.272 C 
ENDBRANCH   9  10
ENDBRANCH   2   9
TORSDOF 3
ENDMDL
MODEL 5
REMARK VINA RESULT: -4.457891046      4.933      6.000
REMARK  3 active torsions:
REMARK  status: ('A' for Active; 'I' for Inactive)
REMARK    1  A    between atoms: C2_2  and  C3_3 
REMARK    2  A    between atoms: C4_4  and  C5_5 
REMARK    3  A    between atoms: C5_5  and  N1_6 
ROOT
HETATM    1  C3  UNL     1       0.003   9.345  37.974  1.00  0.00    -0.063 C 
HETATM    2  C4  UNL     1       0.310   9.631  36.840  1.00  0.00    -0.075 C 
ENDROOT
BRANCH   1   3
HETATM    3  C2  UNL     1      -0.387   8.978  39.353  1.00  0.00     0.174 A 
HETATM    4  C1  UNL     1       0.618   8.150  40.158  1.00  0.00     0.064 C 
HETATM    5  N2  UNL     1      -1.800   8.590  39.507  1.00  0.00    -0.330 N 
HETATM    6  C9  UNL     1      -1.257   9.880  40.020  1.00  0.00     0.260 A 
ATOM      7  H2  UNL     1      -2.569   7.934  39.367  1.00  0.00     0.164 HD
HETATM    8  O1  UNL     1      -1.619  10.910  40.627  1.00  0.00    -0.270 OA
ENDBRANCH   1   3
BRANCH   2   9
HETATM    9  C5  UNL     1       0.664   9.960  35.457  1.00  0.00     0.329 C 
BRANCH   9  10
HETATM   10  N1  UNL     1       0.269   8.869  34.626  1.00  0.00    -0.069 N 
HETATM   11  C6  UNL     1       0.040   9.411  33.280  1.00  0.00     0.272 C 
HETATM   12  C7  UNL     1      -0.900   8.171  35.055  1.00  0.00     0.272 C 
HETATM   13  C8  UNL     1       1.368   7.907  34.466  1.00  0.00     0.272 C 
ENDBRANCH   9  10
ENDBRANCH   2   9
TORSDOF 3
ENDMDL
