MODEL 1
REMARK VINA RESULT: -5.408600981      0.000      0.000
REMARK  5 active torsions:
REMARK  status: ('A' for Active; 'I' for Inactive)
REMARK    1  A    between atoms: C3_3  and  C4_4 
REMARK    2  A    between atoms: C5_5  and  C6_6 
REMARK    3  A    between atoms: C7_7  and  C8_8 
REMARK    4  A    between atoms: C9_9  and  C10_10 
REMARK    5  A    between atoms: C10_10  and  N1_11 
ROOT
HETATM    1  C1  UNL     1       1.055  16.156  35.291  1.00  0.00     0.113 C 
HETATM    2  C2  UNL     1       1.087  14.905  34.544  1.00  0.00    -0.097 C 
HETATM    3  C3  UNL     1       1.134  13.870  33.920  1.00  0.00    -0.015 C 
ENDROOT
BRANCH   3   4
HETATM    4  C4  UNL     1       1.186  12.645  33.196  1.00  0.00    -0.001 C 
HETATM    5  C5  UNL     1       1.251  11.606  32.585  1.00  0.00    -0.000 C 
BRANCH   5   6
HETATM    6  C6  UNL     1       1.350  10.376  31.874  1.00  0.00    -0.000 C 
HETATM    7  C7  UNL     1       1.442   9.335  31.274  1.00  0.00    -0.001 C 
BRANCH   7   8
HETATM    8  C8  UNL     1       1.547   8.111  30.561  1.00  0.00    -0.013 C 
HETATM    9  C9  UNL     1       1.648   7.080  29.940  1.00  0.00    -0.073 C 
BRANCH   9  10
HETATM   10  C10 UNL     1       1.779   5.844  29.168  1.00  0.00     0.215 C 
BRANCH  10  11
HETATM   11  N1  UNL     1       3.029   5.227  29.508  1.00  0.00    -0.378 N 
HETATM   12  C11 UNL     1       4.114   5.482  28.894  1.00  0.00     0.185 C 
HETATM   13  N2  UNL     1       4.226   6.394  27.812  1.00  0.00    -0.097 NA
ATOM     14  H1  UNL     1       3.048   4.555  30.274  1.00  0.00     0.160 HD
ENDBRANCH  10  11
ENDBRANCH   9  10
ENDBRANCH   7   8
ENDBRANCH   5   6
ENDBRANCH   3   4
TORSDOF 5
ENDMDL
MODEL 2
REMARK VINA RESULT: -5.359779687      4.816      8.989
REMARK  5 active torsions:
REMARK  status: ('A' for Active; 'I' for Inactive)
REMARK    1  A    between atoms: C3_3  and  C4_4 
REMARK    2  A    between atoms: C5_5  and  C6_6 
REMARK    3  A    between atoms: C7_7  and  C8_8 
REMARK    4  A    between atoms: C9_9  and  C10_10 
REMARK    5  A    between atoms: C10_10  and  N1_11 
ROOT
HETATM    1  C1  UNL     1       1.522   4.827  29.072  1.00  0.00     0.113 C 
HETATM    2  C2  UNL     1       1.483   6.114  29.755  1.00  0.00    -0.097 C 
HETATM    3  C3  UNL     1       1.451   7.191  30.304  1.00  0.00    -0.015 C 
ENDROOT
BRANCH   3   4
HETATM    4  C4  UNL     1       1.401   8.457  30.956  1.00  0.00    -0.001 C 
HETATM    5  C5  UNL     1       1.358   9.538  31.489  1.00  0.00    -0.000 C 
BRANCH   5   6
HETATM    6  C6  UNL     1       1.299  10.824  32.098  1.00  0.00    -0.000 C 
HETATM    7  C7  UNL     1       1.243  11.916  32.606  1.00  0.00    -0.001 C 
BRANCH   7   8
HETATM    8  C8  UNL     1       1.186  13.202  33.207  1.00  0.00    -0.013 C 
HETATM    9  C9  UNL     1       1.157  14.292  33.726  1.00  0.00    -0.073 C 
BRANCH   9  10
HETATM   10  C10 UNL     1       1.141  15.605  34.369  1.00  0.00     0.215 C 
BRANCH  10  11
HETATM   11  N1  UNL     1       2.127  15.614  35.411  1.00  0.00    -0.378 N 
HETATM   12  C11 UNL     1       1.900  15.165  36.580  1.00  0.00     0.185 C 
HETATM   13  N2  UNL     1       0.663  14.607  36.997  1.00  0.00    -0.097 NA
ATOM     14  H1  UNL     1       3.050  15.996  35.205  1.00  0.00     0.160 HD
ENDBRANCH  10  11
ENDBRANCH   9  10
ENDBRANCH   7   8
ENDBRANCH   5   6
ENDBRANCH   3   4
TORSDOF 5
ENDMDL
MODEL 3
REMARK VINA RESULT: -5.268693496      6.552      9.072
REMARK  5 active torsions:
REMARK  status: ('A' for Active; 'I' for Inactive)
REMARK    1  A    between atoms: C3_3  and  C4_4 
REMARK    2  A    between atoms: C5_5  and  C6_6 
REMARK    3  A    between atoms: C7_7  and  C8_8 
REMARK    4  A    between atoms: C9_9  and  C10_10 
REMARK    5  A    between atoms: C10_10  and  N1_11 
ROOT
HETATM    1  C1  UNL     1      -3.742   4.257  37.056  1.00  0.00     0.113 C 
HETATM    2  C2  UNL     1      -3.151   5.514  36.614  1.00  0.00    -0.097 C 
HETATM    3  C3  UNL     1      -2.659   6.563  36.267  1.00  0.00    -0.015 C 
ENDROOT
BRANCH   3   4
HETATM    4  C4  UNL     1      -2.070   7.792  35.852  1.00  0.00    -0.001 C 
HETATM    5  C5  UNL     1      -1.576   8.828  35.481  1.00  0.00    -0.000 C 
BRANCH   5   6
HETATM    6  C6  UNL     1      -1.006  10.049  35.021  1.00  0.00    -0.000 C 
HETATM    7  C7  UNL     1      -0.517  11.078  34.626  1.00  0.00    -0.001 C 
BRANCH   7   8
HETATM    8  C8  UNL     1       0.059  12.293  34.169  1.00  0.00    -0.013 C 
HETATM    9  C9  UNL     1       0.568  13.321  33.790  1.00  0.00    -0.073 C 
BRANCH   9  10
HETATM   10  C10 UNL     1       1.201  14.562  33.346  1.00  0.00     0.215 C 
BRANCH  10  11
HETATM   11  N1  UNL     1       0.770  15.625  34.207  1.00  0.00    -0.378 N 
HETATM   12  C11 UNL     1       1.409  15.970  35.253  1.00  0.00     0.185 C 
HETATM   13  N2  UNL     1       2.611  15.357  35.694  1.00  0.00    -0.097 NA
ATOM     14  H1  UNL     1      -0.086  16.127  33.971  1.00  0.00     0.160 HD
ENDBRANCH  10  11
ENDBRANCH   9  10
ENDBRANCH   7   8
ENDBRANCH   5   6
ENDBRANCH   3   4
TORSDOF 5
ENDMDL
MODEL 4
REMARK VINA RESULT: -5.241906526      4.322      8.755
REMARK  5 active torsions:
REMARK  status: ('A' for Active; 'I' for Inactive)
REMARK    1  A    between atoms: C3_3  and  C4_4 
REMARK    2  A    between atoms: C5_5  and  C6_6 
REMARK    3  A    between atoms: C7_7  and  C8_8 
REMARK    4  A    between atoms: C9_9  and  C10_10 
REMARK    5  A    between atoms: C10_10  and  N1_11 
ROOT
HETATM    1  C1  UNL     1       4.272   3.939  27.684  1.00  0.00     0.113 C 
HETATM    2  C2  UNL     1       3.573   4.962  28.453  1.00  0.00    -0.097 C 
HETATM    3  C3  UNL     1       3.012   5.821  29.092  1.00  0.00    -0.015 C 
ENDROOT
BRANCH   3   4
HETATM    4  C4  UNL     1       2.341   6.835  29.835  1.00  0.00    -0.001 C 
HETATM    5  C5  UNL     1       1.792   7.705  30.466  1.00  0.00    -0.000 C 
BRANCH   5   6
HETATM    6  C6  UNL     1       1.162   8.747  31.204  1.00  0.00    -0.000 C 
HETATM    7  C7  UNL     1       0.623   9.631  31.822  1.00  0.00    -0.001 C 
BRANCH   7   8
HETATM    8  C8  UNL     1      -0.004  10.675  32.553  1.00  0.00    -0.013 C 
HETATM    9  C9  UNL     1      -0.517  11.569  33.183  1.00  0.00    -0.073 C 
BRANCH   9  10
HETATM   10  C10 UNL     1      -1.119  12.652  33.959  1.00  0.00     0.215 C 
BRANCH  10  11
HETATM   11  N1  UNL     1      -0.252  12.957  35.061  1.00  0.00    -0.378 N 
HETATM   12  C11 UNL     1       0.518  13.970  35.075  1.00  0.00     0.185 C 
HETATM   13  N2  UNL     1       0.617  14.913  34.019  1.00  0.00    -0.097 NA
ATOM     14  H1  UNL     1      -0.254  12.334  35.869  1.00  0.00     0.160 HD
ENDBRANCH  10  11
ENDBRANCH   9  10
ENDBRANCH   7   8
ENDBRANCH   5   6
ENDBRANCH   3   4
TORSDOF 5
ENDMDL
MODEL 5
REMARK VINA RESULT: -5.143036623      1.740      2.404
REMARK  5 active torsions:
REMARK  status: ('A' for Active; 'I' for Inactive)
REMARK    1  A    between atoms: C3_3  and  C4_4 
REMARK    2  A    between atoms: C5_5  and  C6_6 
REMARK    3  A    between atoms: C7_7  and  C8_8 
REMARK    4  A    between atoms: C9_9  and  C10_10 
REMARK    5  A    between atoms: C10_10  and  N1_11 
ROOT
HETATM    1  C1  UNL     1       1.176  16.187  35.199  1.00  0.00     0.113 C 
HETATM    2  C2  UNL     1       1.152  14.926  34.470  1.00  0.00    -0.097 C 
HETATM    3  C3  UNL     1       1.151  13.884  33.855  1.00  0.00    -0.015 C 
ENDROOT
BRANCH   3   4
HETATM    4  C4  UNL     1       1.148  12.651  33.143  1.00  0.00    -0.001 C 
HETATM    5  C5  UNL     1       1.149  11.595  32.558  1.00  0.00    -0.000 C 
BRANCH   5   6
HETATM    6  C6  UNL     1       1.145  10.338  31.888  1.00  0.00    -0.000 C 
HETATM    7  C7  UNL     1       1.135   9.277  31.317  1.00  0.00    -0.001 C 
BRANCH   7   8
HETATM    8  C8  UNL     1       1.125   8.023  30.650  1.00  0.00    -0.013 C 
HETATM    9  C9  UNL     1       1.094   6.954  30.087  1.00  0.00    -0.073 C 
BRANCH   9  10
HETATM   10  C10 UNL     1       1.036   5.657  29.415  1.00  0.00     0.215 C 
BRANCH  10  11
HETATM   11  N1  UNL     1       0.758   4.649  30.398  1.00  0.00    -0.378 N 
HETATM   12  C11 UNL     1      -0.419   4.382  30.800  1.00  0.00     0.185 C 
HETATM   13  N2  UNL     1      -1.591   5.036  30.336  1.00  0.00    -0.097 NA
ATOM     14  H1  UNL     1       1.539   4.123  30.791  1.00  0.00     0.160 HD
ENDBRANCH  10  11
ENDBRANCH   9  10
ENDBRANCH   7   8
ENDBRANCH   5   6
ENDBRANCH   3   4
TORSDOF 5
ENDMDL
