MODEL 1
REMARK VINA RESULT: -6.608283453      0.000      0.000
REMARK  3 active torsions:
REMARK  status: ('A' for Active; 'I' for Inactive)
REMARK    1  A    between atoms: C1_1  and  C6_14 
REMARK    2  A    between atoms: N1_2  and  N2_4 
REMARK    3  A    between atoms: N2_4  and  C2_6 
ROOT
HETATM    1  C1  UNL     1      -9.498  38.990  23.290  1.00  0.00     0.119 C 
HETATM    2  N1  UNL     1      -9.390  37.723  23.116  1.00  0.00    -0.309 N 
ATOM      3  H1  UNL     1     -10.070  37.105  23.560  1.00  0.00     0.186 HD
ENDROOT
BRANCH   2   4
HETATM    4  N2  UNL     1      -8.387  37.171  22.350  1.00  0.00    -0.285 N 
ATOM      5  H2  UNL     1      -8.619  36.871  21.403  1.00  0.00     0.188 HD
BRANCH   4   6
HETATM    6  C2  UNL     1      -7.172  37.009  22.753  1.00  0.00     0.135 A 
HETATM    7  C3  UNL     1      -6.947  36.502  24.016  1.00  0.00     0.137 A 
HETATM    8  N3  UNL     1      -5.696  36.315  24.479  1.00  0.00    -0.371 N 
HETATM    9  C4  UNL     1      -4.614  36.612  23.736  1.00  0.00     0.104 A 
ATOM     10  H3  UNL     1      -5.566  35.939  25.418  1.00  0.00     0.164 HD
HETATM   11  C5  UNL     1      -4.839  37.118  22.473  1.00  0.00     0.106 A 
HETATM   12  N4  UNL     1      -6.094  37.306  22.005  1.00  0.00    -0.349 N 
ATOM     13  H4  UNL     1      -6.226  37.682  21.066  1.00  0.00     0.167 HD
ENDBRANCH   4   6
ENDBRANCH   2   4
BRANCH   1  14
HETATM   14  C6  UNL     1     -10.602  39.505  24.126  1.00  0.00    -0.004 A 
HETATM   15  C7  UNL     1     -11.343  40.587  23.703  1.00  0.00     0.015 A 
HETATM   16  C8  UNL     1     -12.379  41.067  24.490  1.00  0.00     0.018 A 
HETATM   17  C9  UNL     1     -12.611  40.412  25.684  1.00  0.00     0.087 A 
HETATM   18  N5  UNL     1     -11.900  39.368  26.096  1.00  0.00    -0.374 N 
HETATM   19  C10 UNL     1     -10.899  38.907  25.332  1.00  0.00     0.100 A 
ATOM     20  H5  UNL     1     -12.114  38.921  26.988  1.00  0.00     0.164 HD
ENDBRANCH   1  14
TORSDOF 3
ENDMDL
MODEL 2
REMARK VINA RESULT: -6.587857248      1.572      1.950
REMARK  3 active torsions:
REMARK  status: ('A' for Active; 'I' for Inactive)
REMARK    1  A    between atoms: C1_1  and  C6_14 
REMARK    2  A    between atoms: N1_2  and  N2_4 
REMARK    3  A    between atoms: N2_4  and  C2_6 
ROOT
HETATM    1  C1  UNL     1      -9.353  39.011  22.153  1.00  0.00     0.119 C 
HETATM    2  N1  UNL     1      -9.498  37.777  22.471  1.00  0.00    -0.309 N 
ATOM      3  H1  UNL     1     -10.359  37.485  22.934  1.00  0.00     0.186 HD
ENDROOT
BRANCH   2   4
HETATM    4  N2  UNL     1      -8.529  36.833  22.208  1.00  0.00    -0.285 N 
ATOM      5  H2  UNL     1      -8.762  36.075  21.567  1.00  0.00     0.188 HD
BRANCH   4   6
HETATM    6  C2  UNL     1      -7.346  36.846  22.722  1.00  0.00     0.135 A 
HETATM    7  C3  UNL     1      -7.191  36.534  24.057  1.00  0.00     0.137 A 
HETATM    8  N3  UNL     1      -5.975  36.534  24.636  1.00  0.00    -0.371 N 
HETATM    9  C4  UNL     1      -4.860  36.836  23.944  1.00  0.00     0.104 A 
ATOM     10  H3  UNL     1      -5.897  36.299  25.625  1.00  0.00     0.164 HD
HETATM   11  C5  UNL     1      -5.016  37.147  22.609  1.00  0.00     0.106 A 
HETATM   12  N4  UNL     1      -6.236  37.148  22.025  1.00  0.00    -0.349 N 
ATOM     13  H4  UNL     1      -6.315  37.382  21.035  1.00  0.00     0.167 HD
ENDBRANCH   4   6
ENDBRANCH   2   4
BRANCH   1  14
HETATM   14  C6  UNL     1     -10.438  39.963  22.468  1.00  0.00    -0.004 A 
HETATM   15  C7  UNL     1     -10.833  40.154  23.775  1.00  0.00     0.015 A 
HETATM   16  C8  UNL     1     -11.852  41.048  24.066  1.00  0.00     0.018 A 
HETATM   17  C9  UNL     1     -12.425  41.711  22.998  1.00  0.00     0.087 A 
HETATM   18  N5  UNL     1     -12.048  41.531  21.737  1.00  0.00    -0.374 N 
HETATM   19  C10 UNL     1     -11.062  40.665  21.460  1.00  0.00     0.100 A 
ATOM     20  H5  UNL     1     -12.505  42.047  20.986  1.00  0.00     0.164 HD
ENDBRANCH   1  14
TORSDOF 3
ENDMDL
MODEL 3
REMARK VINA RESULT: -6.584221407      2.815      6.350
REMARK  3 active torsions:
REMARK  status: ('A' for Active; 'I' for Inactive)
REMARK    1  A    between atoms: C1_1  and  C6_14 
REMARK    2  A    between atoms: N1_2  and  N2_4 
REMARK    3  A    between atoms: N2_4  and  C2_6 
ROOT
HETATM    1  C1  UNL     1      -8.433  37.001  22.641  1.00  0.00     0.119 C 
HETATM    2  N1  UNL     1      -8.645  37.932  21.785  1.00  0.00    -0.309 N 
ATOM      3  H1  UNL     1      -7.868  38.528  21.500  1.00  0.00     0.186 HD
ENDROOT
BRANCH   2   4
HETATM    4  N2  UNL     1      -9.890  38.155  21.236  1.00  0.00    -0.285 N 
ATOM      5  H2  UNL     1     -10.619  37.464  21.412  1.00  0.00     0.188 HD
BRANCH   4   6
HETATM    6  C2  UNL     1     -10.192  39.180  20.515  1.00  0.00     0.135 A 
HETATM    7  C3  UNL     1     -10.722  40.298  21.127  1.00  0.00     0.137 A 
HETATM    8  N3  UNL     1     -11.052  41.392  20.414  1.00  0.00    -0.371 N 
HETATM    9  C4  UNL     1     -10.880  41.447  19.080  1.00  0.00     0.104 A 
ATOM     10  H3  UNL     1     -11.442  42.200  20.898  1.00  0.00     0.164 HD
HETATM   11  C5  UNL     1     -10.349  40.331  18.469  1.00  0.00     0.106 A 
HETATM   12  N4  UNL     1     -10.017  39.230  19.182  1.00  0.00    -0.349 N 
ATOM     13  H4  UNL     1      -9.626  38.421  18.699  1.00  0.00     0.167 HD
ENDBRANCH   4   6
ENDBRANCH   2   4
BRANCH   1  14
HETATM   14  C6  UNL     1      -7.069  36.826  23.182  1.00  0.00    -0.004 A 
HETATM   15  C7  UNL     1      -5.973  36.994  22.364  1.00  0.00     0.015 A 
HETATM   16  C8  UNL     1      -4.695  36.829  22.875  1.00  0.00     0.018 A 
HETATM   17  C9  UNL     1      -4.596  36.497  24.213  1.00  0.00     0.087 A 
HETATM   18  N5  UNL     1      -5.649  36.334  25.006  1.00  0.00    -0.374 N 
HETATM   19  C10 UNL     1      -6.884  36.495  24.507  1.00  0.00     0.100 A 
ATOM     20  H5  UNL     1      -5.520  36.088  25.987  1.00  0.00     0.164 HD
ENDBRANCH   1  14
TORSDOF 3
ENDMDL
MODEL 4
REMARK VINA RESULT: -6.504859565      1.189      1.958
REMARK  3 active torsions:
REMARK  status: ('A' for Active; 'I' for Inactive)
REMARK    1  A    between atoms: C1_1  and  C6_14 
REMARK    2  A    between atoms: N1_2  and  N2_4 
REMARK    3  A    between atoms: N2_4  and  C2_6 
ROOT
HETATM    1  C1  UNL     1      -9.404  38.542  25.299  1.00  0.00     0.119 C 
HETATM    2  N1  UNL     1      -9.239  37.523  24.538  1.00  0.00    -0.309 N 
ATOM      3  H1  UNL     1      -9.915  37.347  23.795  1.00  0.00     0.186 HD
ENDROOT
BRANCH   2   4
HETATM    4  N2  UNL     1      -8.177  36.658  24.691  1.00  0.00    -0.285 N 
ATOM      5  H2  UNL     1      -8.276  35.895  25.360  1.00  0.00     0.188 HD
BRANCH   4   6
HETATM    6  C2  UNL     1      -7.066  36.751  24.042  1.00  0.00     0.135 A 
HETATM    7  C3  UNL     1      -7.097  37.085  22.704  1.00  0.00     0.137 A 
HETATM    8  N3  UNL     1      -5.963  37.194  21.987  1.00  0.00    -0.371 N 
HETATM    9  C4  UNL     1      -4.752  36.985  22.538  1.00  0.00     0.104 A 
ATOM     10  H3  UNL     1      -6.022  37.442  21.000  1.00  0.00     0.164 HD
HETATM   11  C5  UNL     1      -4.721  36.652  23.876  1.00  0.00     0.106 A 
HETATM   12  N4  UNL     1      -5.859  36.541  24.599  1.00  0.00    -0.349 N 
ATOM     13  H4  UNL     1      -5.801  36.293  25.587  1.00  0.00     0.167 HD
ENDBRANCH   4   6
ENDBRANCH   2   4
BRANCH   1  14
HETATM   14  C6  UNL     1     -10.568  39.423  25.070  1.00  0.00    -0.004 A 
HETATM   15  C7  UNL     1     -11.565  39.513  26.017  1.00  0.00     0.015 A 
HETATM   16  C8  UNL     1     -12.655  40.341  25.798  1.00  0.00     0.018 A 
HETATM   17  C9  UNL     1     -12.676  41.046  24.610  1.00  0.00     0.087 A 
HETATM   18  N5  UNL     1     -11.717  40.963  23.694  1.00  0.00    -0.374 N 
HETATM   19  C10 UNL     1     -10.664  40.161  23.910  1.00  0.00     0.100 A 
ATOM     20  H5  UNL     1     -11.782  41.506  22.833  1.00  0.00     0.164 HD
ENDBRANCH   1  14
TORSDOF 3
ENDMDL
MODEL 5
REMARK VINA RESULT: -6.468248908      2.719      3.518
REMARK  3 active torsions:
REMARK  status: ('A' for Active; 'I' for Inactive)
REMARK    1  A    between atoms: C1_1  and  C6_14 
REMARK    2  A    between atoms: N1_2  and  N2_4 
REMARK    3  A    between atoms: N2_4  and  C2_6 
ROOT
HETATM    1  C1  UNL     1      -9.816  38.726  21.940  1.00  0.00     0.119 C 
HETATM    2  N1  UNL     1      -9.356  37.554  21.695  1.00  0.00    -0.309 N 
ATOM      3  H1  UNL     1      -9.434  37.181  20.749  1.00  0.00     0.186 HD
ENDROOT
BRANCH   2   4
HETATM    4  N2  UNL     1      -8.761  36.781  22.669  1.00  0.00    -0.285 N 
ATOM      5  H2  UNL     1      -9.351  36.134  23.192  1.00  0.00     0.188 HD
BRANCH   4   6
HETATM    6  C2  UNL     1      -7.505  36.823  22.961  1.00  0.00     0.135 A 
HETATM    7  C3  UNL     1      -7.103  36.493  24.238  1.00  0.00     0.137 A 
HETATM    8  N3  UNL     1      -5.802  36.522  24.588  1.00  0.00    -0.371 N 
HETATM    9  C4  UNL     1      -4.840  36.871  23.714  1.00  0.00     0.104 A 
ATOM     10  H3  UNL     1      -5.540  36.273  25.541  1.00  0.00     0.164 HD
HETATM   11  C5  UNL     1      -5.243  37.200  22.436  1.00  0.00     0.106 A 
HETATM   12  N4  UNL     1      -6.549  37.172  22.081  1.00  0.00    -0.349 N 
ATOM     13  H4  UNL     1      -6.813  37.421  21.128  1.00  0.00     0.167 HD
ENDBRANCH   4   6
ENDBRANCH   2   4
BRANCH   1  14
HETATM   14  C6  UNL     1     -10.439  39.493  20.841  1.00  0.00    -0.004 A 
HETATM   15  C7  UNL     1     -10.604  38.915  19.601  1.00  0.00     0.015 A 
HETATM   16  C8  UNL     1     -11.190  39.638  18.573  1.00  0.00     0.018 A 
HETATM   17  C9  UNL     1     -11.584  40.930  18.864  1.00  0.00     0.087 A 
HETATM   18  N5  UNL     1     -11.428  41.491  20.058  1.00  0.00    -0.374 N 
HETATM   19  C10 UNL     1     -10.861  40.788  21.050  1.00  0.00     0.100 A 
ATOM     20  H5  UNL     1     -11.737  42.450  20.219  1.00  0.00     0.164 HD
ENDBRANCH   1  14
TORSDOF 3
ENDMDL
