MODEL 1
REMARK VINA RESULT: -7.108066705      0.000      0.000
REMARK  3 active torsions:
REMARK  status: ('A' for Active; 'I' for Inactive)
REMARK    1  A    between atoms: C1_1  and  C5_15 
REMARK    2  A    between atoms: N1_2  and  N2_4 
REMARK    3  A    between atoms: N2_4  and  C2_6 
ROOT
HETATM    1  N2  UNL     1      -8.315  36.410  24.016  1.00  0.00    -0.131 N 
ATOM      2  H2  UNL     1      -8.458  35.492  24.438  1.00  0.00     0.205 HD
ENDROOT
BRANCH   1   3
HETATM    3  N1  UNL     1      -9.342  37.312  24.076  1.00  0.00    -0.297 N 
HETATM    4  C1  UNL     1      -9.380  38.352  24.833  1.00  0.00     0.119 C 
ATOM      5  H1  UNL     1     -10.146  37.146  23.471  1.00  0.00     0.186 HD
BRANCH   4   6
HETATM    6  C5  UNL     1     -10.511  39.264  24.838  1.00  0.00    -0.019 A 
HETATM    7  C6  UNL     1     -10.729  40.073  23.743  1.00  0.00     0.013 A 
HETATM    8  C7  UNL     1     -11.806  40.928  23.769  1.00  0.00     0.001 A 
HETATM    9  C8  UNL     1     -12.645  40.978  24.857  1.00  0.00     0.000 A 
HETATM   10  C9  UNL     1     -12.411  40.163  25.943  1.00  0.00     0.001 A 
HETATM   11  C10 UNL     1     -11.343  39.300  25.939  1.00  0.00     0.013 A 
ENDBRANCH   4   6
ENDBRANCH   1   3
BRANCH   1  12
HETATM   12  C2  UNL     1      -7.172  36.651  23.456  1.00  0.00     0.711 A 
HETATM   13  N3  UNL     1      -6.043  36.290  24.100  1.00  0.00    -0.198 N 
HETATM   14  C3  UNL     1      -4.835  36.526  23.544  1.00  0.00     0.124 A 
ATOM     15  H3  UNL     1      -6.102  35.836  25.012  1.00  0.00     0.183 HD
HETATM   16  C4  UNL     1      -4.749  37.142  22.310  1.00  0.00     0.125 A 
HETATM   17  N4  UNL     1      -5.895  37.489  21.696  1.00  0.00    -0.296 N 
HETATM   18  N5  UNL     1      -7.075  37.252  22.252  1.00  0.00    -0.131 N 
ATOM     19  H4  UNL     1      -5.855  37.944  20.785  1.00  0.00     0.186 HD
ATOM     20  H5  UNL     1      -7.924  37.528  21.760  1.00  0.00     0.205 HD
ENDBRANCH   1  12
TORSDOF 3
ENDMDL
MODEL 2
REMARK VINA RESULT: -7.098147247      4.511      5.795
REMARK  3 active torsions:
REMARK  status: ('A' for Active; 'I' for Inactive)
REMARK    1  A    between atoms: C1_1  and  C5_15 
REMARK    2  A    between atoms: N1_2  and  N2_4 
REMARK    3  A    between atoms: N2_4  and  C2_6 
ROOT
HETATM    1  N2  UNL     1      -7.645  40.913  19.808  1.00  0.00    -0.131 N 
ATOM      2  H2  UNL     1      -7.219  41.809  20.044  1.00  0.00     0.205 HD
ENDROOT
BRANCH   1   3
HETATM    3  N1  UNL     1      -7.880  40.026  20.823  1.00  0.00    -0.297 N 
HETATM    4  C1  UNL     1      -9.041  39.647  21.230  1.00  0.00     0.119 C 
ATOM      5  H1  UNL     1      -7.067  39.632  21.297  1.00  0.00     0.186 HD
BRANCH   4   6
HETATM    6  C5  UNL     1      -9.206  38.698  22.318  1.00  0.00    -0.019 A 
HETATM    7  C6  UNL     1      -9.631  39.152  23.549  1.00  0.00     0.013 A 
HETATM    8  C7  UNL     1      -9.781  38.236  24.564  1.00  0.00     0.001 A 
HETATM    9  C8  UNL     1      -9.515  36.903  24.361  1.00  0.00     0.000 A 
HETATM   10  C9  UNL     1      -9.091  36.467  23.124  1.00  0.00     0.001 A 
HETATM   11  C10 UNL     1      -8.935  37.363  22.095  1.00  0.00     0.013 A 
ENDBRANCH   4   6
ENDBRANCH   1   3
BRANCH   1  12
HETATM   12  C2  UNL     1      -7.930  40.684  18.566  1.00  0.00     0.711 A 
HETATM   13  N3  UNL     1      -8.817  41.486  17.943  1.00  0.00    -0.198 N 
HETATM   14  C3  UNL     1      -9.137  41.275  16.647  1.00  0.00     0.124 A 
ATOM     15  H3  UNL     1      -9.249  42.257  18.453  1.00  0.00     0.183 HD
HETATM   16  C4  UNL     1      -8.555  40.232  15.952  1.00  0.00     0.125 A 
HETATM   17  N4  UNL     1      -7.675  39.452  16.605  1.00  0.00    -0.296 N 
HETATM   18  N5  UNL     1      -7.369  39.669  17.875  1.00  0.00    -0.131 N 
ATOM     19  H4  UNL     1      -7.233  38.676  16.110  1.00  0.00     0.186 HD
ATOM     20  H5  UNL     1      -6.698  39.058  18.340  1.00  0.00     0.205 HD
ENDBRANCH   1  12
TORSDOF 3
ENDMDL
MODEL 3
REMARK VINA RESULT: -7.064526349      4.678      5.735
REMARK  3 active torsions:
REMARK  status: ('A' for Active; 'I' for Inactive)
REMARK    1  A    between atoms: C1_1  and  C5_15 
REMARK    2  A    between atoms: N1_2  and  N2_4 
REMARK    3  A    between atoms: N2_4  and  C2_6 
ROOT
HETATM    1  N2  UNL     1     -10.497  39.066  18.883  1.00  0.00    -0.131 N 
ATOM      2  H2  UNL     1     -11.481  39.314  18.779  1.00  0.00     0.205 HD
ENDROOT
BRANCH   1   3
HETATM    3  N1  UNL     1     -10.113  38.430  20.032  1.00  0.00    -0.297 N 
HETATM    4  C1  UNL     1     -10.114  38.951  21.210  1.00  0.00     0.119 C 
ATOM      5  H1  UNL     1      -9.800  37.464  19.949  1.00  0.00     0.186 HD
BRANCH   4   6
HETATM    6  C5  UNL     1      -9.690  38.207  22.383  1.00  0.00    -0.019 A 
HETATM    7  C6  UNL     1      -9.235  36.913  22.233  1.00  0.00     0.013 A 
HETATM    8  C7  UNL     1      -8.839  36.229  23.358  1.00  0.00     0.001 A 
HETATM    9  C8  UNL     1      -8.894  36.813  24.600  1.00  0.00     0.000 A 
HETATM   10  C9  UNL     1      -9.351  38.106  24.732  1.00  0.00     0.001 A 
HETATM   11  C10 UNL     1      -9.752  38.810  23.623  1.00  0.00     0.013 A 
ENDBRANCH   4   6
ENDBRANCH   1   3
BRANCH   1  12
HETATM   12  C2  UNL     1      -9.688  39.371  17.919  1.00  0.00     0.711 A 
HETATM   13  N3  UNL     1      -8.545  40.024  18.211  1.00  0.00    -0.198 N 
HETATM   14  C3  UNL     1      -7.679  40.357  17.229  1.00  0.00     0.124 A 
ATOM     15  H3  UNL     1      -8.333  40.268  19.179  1.00  0.00     0.183 HD
HETATM   16  C4  UNL     1      -7.961  40.030  15.917  1.00  0.00     0.125 A 
HETATM   17  N4  UNL     1      -9.110  39.379  15.662  1.00  0.00    -0.296 N 
HETATM   18  N5  UNL     1      -9.952  39.057  16.633  1.00  0.00    -0.131 N 
ATOM     19  H4  UNL     1      -9.339  39.127  14.700  1.00  0.00     0.186 HD
ATOM     20  H5  UNL     1     -10.815  38.563  16.405  1.00  0.00     0.205 HD
ENDBRANCH   1  12
TORSDOF 3
ENDMDL
MODEL 4
REMARK VINA RESULT: -6.980681951      0.972      1.511
REMARK  3 active torsions:
REMARK  status: ('A' for Active; 'I' for Inactive)
REMARK    1  A    between atoms: C1_1  and  C5_15 
REMARK    2  A    between atoms: N1_2  and  N2_4 
REMARK    3  A    between atoms: N2_4  and  C2_6 
ROOT
HETATM    1  N2  UNL     1      -7.476  36.533  24.981  1.00  0.00    -0.131 N 
ATOM      2  H2  UNL     1      -7.562  35.913  25.787  1.00  0.00     0.205 HD
ENDROOT
BRANCH   1   3
HETATM    3  N1  UNL     1      -8.527  37.360  24.691  1.00  0.00    -0.297 N 
HETATM    4  C1  UNL     1      -8.972  38.297  25.453  1.00  0.00     0.119 C 
ATOM      5  H1  UNL     1      -8.998  37.222  23.797  1.00  0.00     0.186 HD
BRANCH   4   6
HETATM    6  C5  UNL     1     -10.096  39.135  25.072  1.00  0.00    -0.019 A 
HETATM    7  C6  UNL     1     -10.109  39.718  23.822  1.00  0.00     0.013 A 
HETATM    8  C7  UNL     1     -11.183  40.506  23.482  1.00  0.00     0.001 A 
HETATM    9  C8  UNL     1     -12.218  40.711  24.362  1.00  0.00     0.000 A 
HETATM   10  C9  UNL     1     -12.189  40.121  25.607  1.00  0.00     0.001 A 
HETATM   11  C10 UNL     1     -11.127  39.329  25.969  1.00  0.00     0.013 A 
ENDBRANCH   4   6
ENDBRANCH   1   3
BRANCH   1  12
HETATM   12  C2  UNL     1      -6.379  36.489  24.294  1.00  0.00     0.711 A 
HETATM   13  N3  UNL     1      -6.387  36.947  23.025  1.00  0.00    -0.198 N 
HETATM   14  C3  UNL     1      -5.260  36.915  22.281  1.00  0.00     0.124 A 
ATOM     15  H3  UNL     1      -7.249  37.319  22.626  1.00  0.00     0.183 HD
HETATM   16  C4  UNL     1      -4.090  36.412  22.817  1.00  0.00     0.125 A 
HETATM   17  N4  UNL     1      -4.119  35.963  24.085  1.00  0.00    -0.296 N 
HETATM   18  N5  UNL     1      -5.230  35.999  24.805  1.00  0.00    -0.131 N 
ATOM     19  H4  UNL     1      -3.267  35.587  24.501  1.00  0.00     0.186 HD
ATOM     20  H5  UNL     1      -5.218  35.651  25.764  1.00  0.00     0.205 HD
ENDBRANCH   1  12
TORSDOF 3
ENDMDL
MODEL 5
REMARK VINA RESULT: -6.973130336      0.929      1.916
REMARK  3 active torsions:
REMARK  status: ('A' for Active; 'I' for Inactive)
REMARK    1  A    between atoms: C1_1  and  C5_15 
REMARK    2  A    between atoms: N1_2  and  N2_4 
REMARK    3  A    between atoms: N2_4  and  C2_6 
ROOT
HETATM    1  N2  UNL     1      -7.545  36.522  24.937  1.00  0.00    -0.131 N 
ATOM      2  H2  UNL     1      -7.634  35.878  25.723  1.00  0.00     0.205 HD
ENDROOT
BRANCH   1   3
HETATM    3  N1  UNL     1      -8.597  37.353  24.666  1.00  0.00    -0.297 N 
HETATM    4  C1  UNL     1      -8.988  38.330  25.408  1.00  0.00     0.119 C 
ATOM      5  H1  UNL     1      -9.116  37.186  23.804  1.00  0.00     0.186 HD
BRANCH   4   6
HETATM    6  C5  UNL     1     -10.118  39.169  25.049  1.00  0.00    -0.019 A 
HETATM    7  C6  UNL     1     -11.135  39.358  25.962  1.00  0.00     0.013 A 
HETATM    8  C7  UNL     1     -12.194  40.157  25.600  1.00  0.00     0.001 A 
HETATM    9  C8  UNL     1     -12.243  40.752  24.362  1.00  0.00     0.000 A 
HETATM   10  C9  UNL     1     -11.219  40.552  23.463  1.00  0.00     0.001 A 
HETATM   11  C10 UNL     1     -10.150  39.760  23.802  1.00  0.00     0.013 A 
ENDBRANCH   4   6
ENDBRANCH   1   3
BRANCH   1  12
HETATM   12  C2  UNL     1      -6.444  36.502  24.256  1.00  0.00     0.711 A 
HETATM   13  N3  UNL     1      -6.449  36.985  22.997  1.00  0.00    -0.198 N 
HETATM   14  C3  UNL     1      -5.316  36.979  22.260  1.00  0.00     0.124 A 
ATOM     15  H3  UNL     1      -7.312  37.355  22.599  1.00  0.00     0.183 HD
HETATM   16  C4  UNL     1      -4.145  36.478  22.793  1.00  0.00     0.125 A 
HETATM   17  N4  UNL     1      -4.177  36.005  24.052  1.00  0.00    -0.296 N 
HETATM   18  N5  UNL     1      -5.293  36.015  24.766  1.00  0.00    -0.131 N 
ATOM     19  H4  UNL     1      -3.323  35.630  24.466  1.00  0.00     0.186 HD
ATOM     20  H5  UNL     1      -5.282  35.649  25.718  1.00  0.00     0.205 HD
ENDBRANCH   1  12
TORSDOF 3
ENDMDL
