MODEL 1
REMARK VINA RESULT: -5.503215916      0.000      0.000
REMARK  3 active torsions:
REMARK  status: ('A' for Active; 'I' for Inactive)
REMARK       I    between atoms: C2_2  and  N1_4 
REMARK    1  A    between atoms: C3_6  and  S1_8 
REMARK    2  A    between atoms: S1_8  and  C4_9 
REMARK    3  A    between atoms: C4_9  and  C6_11 
ROOT
HETATM    1  C1  UNL     1      -4.728  38.002  21.997  1.00  0.00     0.117 C 
HETATM    2  C2  UNL     1      -5.246  36.848  22.776  1.00  0.00     0.219 C 
HETATM    3  O1  UNL     1      -4.458  36.048  23.306  1.00  0.00    -0.274 OA
HETATM    4  N1  UNL     1      -6.654  36.699  22.888  1.00  0.00    -0.310 N 
ATOM      5  H1  UNL     1      -7.213  36.605  22.041  1.00  0.00     0.170 HD
HETATM    6  C3  UNL     1      -7.253  36.681  24.051  1.00  0.00     0.157 C 
HETATM    7  N2  UNL     1      -6.555  36.807  25.268  1.00  0.00    -0.075 NA
ENDROOT
BRANCH   6   8
HETATM    8  S1  UNL     1      -9.029  36.483  23.998  1.00  0.00    -0.085 SA
BRANCH   8   9
HETATM    9  C4  UNL     1      -9.897  38.024  24.249  1.00  0.00     0.120 C 
HETATM   10  C5  UNL     1      -9.263  38.762  25.429  1.00  0.00     0.030 C 
BRANCH   9  11
HETATM   11  C6  UNL     1      -9.725  38.861  23.029  1.00  0.00     0.136 C 
HETATM   12  C7  UNL     1      -9.777  38.286  21.654  1.00  0.00     0.092 C 
HETATM   13  O2  UNL     1      -9.531  40.060  23.110  1.00  0.00    -0.297 OA
ENDBRANCH   9  11
ENDBRANCH   8   9
ENDBRANCH   6   8
TORSDOF 3
ENDMDL
MODEL 2
REMARK VINA RESULT: -5.268551743      1.376      1.982
REMARK  3 active torsions:
REMARK  status: ('A' for Active; 'I' for Inactive)
REMARK       I    between atoms: C2_2  and  N1_4 
REMARK    1  A    between atoms: C3_6  and  S1_8 
REMARK    2  A    between atoms: S1_8  and  C4_9 
REMARK    3  A    between atoms: C4_9  and  C6_11 
ROOT
HETATM    1  C1  UNL     1      -4.238  37.955  22.159  1.00  0.00     0.117 C 
HETATM    2  C2  UNL     1      -4.894  36.781  22.789  1.00  0.00     0.219 C 
HETATM    3  O1  UNL     1      -4.221  35.790  23.116  1.00  0.00    -0.274 OA
HETATM    4  N1  UNL     1      -6.298  36.837  22.999  1.00  0.00    -0.310 N 
ATOM      5  H1  UNL     1      -6.915  36.975  22.198  1.00  0.00     0.170 HD
HETATM    6  C3  UNL     1      -6.820  36.715  24.191  1.00  0.00     0.157 C 
HETATM    7  N2  UNL     1      -6.040  36.524  25.347  1.00  0.00    -0.075 NA
ENDROOT
BRANCH   6   8
HETATM    8  S1  UNL     1      -8.605  36.809  24.263  1.00  0.00    -0.085 SA
BRANCH   8   9
HETATM    9  C4  UNL     1      -9.205  38.491  24.213  1.00  0.00     0.120 C 
HETATM   10  C5  UNL     1     -10.067  38.670  22.963  1.00  0.00     0.030 C 
BRANCH   9  11
HETATM   11  C6  UNL     1     -10.063  38.715  25.408  1.00  0.00     0.136 C 
HETATM   12  C7  UNL     1     -11.327  39.504  25.345  1.00  0.00     0.092 C 
HETATM   13  O2  UNL     1      -9.761  38.258  26.496  1.00  0.00    -0.297 OA
ENDBRANCH   9  11
ENDBRANCH   8   9
ENDBRANCH   6   8
TORSDOF 3
ENDMDL
MODEL 3
REMARK VINA RESULT: -5.243177456      0.815      1.722
REMARK  3 active torsions:
REMARK  status: ('A' for Active; 'I' for Inactive)
REMARK       I    between atoms: C2_2  and  N1_4 
REMARK    1  A    between atoms: C3_6  and  S1_8 
REMARK    2  A    between atoms: S1_8  and  C4_9 
REMARK    3  A    between atoms: C4_9  and  C6_11 
ROOT
HETATM    1  C1  UNL     1      -4.136  37.930  22.236  1.00  0.00     0.117 C 
HETATM    2  C2  UNL     1      -4.847  36.772  22.837  1.00  0.00     0.219 C 
HETATM    3  O1  UNL     1      -4.223  35.743  23.138  1.00  0.00    -0.274 OA
HETATM    4  N1  UNL     1      -6.248  36.890  23.049  1.00  0.00    -0.310 N 
ATOM      5  H1  UNL     1      -6.856  37.078  22.252  1.00  0.00     0.170 HD
HETATM    6  C3  UNL     1      -6.775  36.764  24.238  1.00  0.00     0.157 C 
HETATM    7  N2  UNL     1      -6.005  36.505  25.388  1.00  0.00    -0.075 NA
ENDROOT
BRANCH   6   8
HETATM    8  S1  UNL     1      -8.553  36.941  24.313  1.00  0.00    -0.085 SA
BRANCH   8   9
HETATM    9  C4  UNL     1      -9.151  38.283  23.298  1.00  0.00     0.120 C 
HETATM   10  C5  UNL     1      -9.810  37.699  22.047  1.00  0.00     0.030 C 
BRANCH   9  11
HETATM   11  C6  UNL     1     -10.188  39.024  24.067  1.00  0.00     0.136 C 
HETATM   12  C7  UNL     1     -10.424  38.787  25.520  1.00  0.00     0.092 C 
HETATM   13  O2  UNL     1     -10.891  39.862  23.531  1.00  0.00    -0.297 OA
ENDBRANCH   9  11
ENDBRANCH   8   9
ENDBRANCH   6   8
TORSDOF 3
ENDMDL
MODEL 4
REMARK VINA RESULT: -5.214249135      2.544      5.042
REMARK  3 active torsions:
REMARK  status: ('A' for Active; 'I' for Inactive)
REMARK       I    between atoms: C2_2  and  N1_4 
REMARK    1  A    between atoms: C3_6  and  S1_8 
REMARK    2  A    between atoms: S1_8  and  C4_9 
REMARK    3  A    between atoms: C4_9  and  C6_11 
ROOT
HETATM    1  C1  UNL     1      -9.315  41.599  21.367  1.00  0.00     0.117 C 
HETATM    2  C2  UNL     1     -10.188  40.493  21.836  1.00  0.00     0.219 C 
HETATM    3  O1  UNL     1     -11.334  40.364  21.377  1.00  0.00    -0.274 OA
HETATM    4  N1  UNL     1      -9.667  39.604  22.814  1.00  0.00    -0.310 N 
ATOM      5  H1  UNL     1      -9.359  39.977  23.711  1.00  0.00     0.170 HD
HETATM    6  C3  UNL     1      -9.573  38.318  22.593  1.00  0.00     0.157 C 
HETATM    7  N2  UNL     1      -9.975  37.723  21.382  1.00  0.00    -0.075 NA
ENDROOT
BRANCH   6   8
HETATM    8  S1  UNL     1      -8.896  37.354  23.938  1.00  0.00    -0.085 SA
BRANCH   8   9
HETATM    9  C4  UNL     1      -7.396  36.498  23.480  1.00  0.00     0.120 C 
HETATM   10  C5  UNL     1      -6.707  37.277  22.358  1.00  0.00     0.030 C 
BRANCH   9  11
HETATM   11  C6  UNL     1      -6.489  36.481  24.661  1.00  0.00     0.136 C 
HETATM   12  C7  UNL     1      -5.060  36.069  24.562  1.00  0.00     0.092 C 
HETATM   13  O2  UNL     1      -6.887  36.806  25.765  1.00  0.00    -0.297 OA
ENDBRANCH   9  11
ENDBRANCH   8   9
ENDBRANCH   6   8
TORSDOF 3
ENDMDL
MODEL 5
REMARK VINA RESULT: -5.147638557      1.340      1.519
REMARK  3 active torsions:
REMARK  status: ('A' for Active; 'I' for Inactive)
REMARK       I    between atoms: C2_2  and  N1_4 
REMARK    1  A    between atoms: C3_6  and  S1_8 
REMARK    2  A    between atoms: S1_8  and  C4_9 
REMARK    3  A    between atoms: C4_9  and  C6_11 
ROOT
HETATM    1  C1  UNL     1      -4.461  38.459  22.011  1.00  0.00     0.117 C 
HETATM    2  C2  UNL     1      -5.104  37.175  22.392  1.00  0.00     0.219 C 
HETATM    3  O1  UNL     1      -4.435  36.276  22.928  1.00  0.00    -0.274 OA
HETATM    4  N1  UNL     1      -6.491  37.020  22.125  1.00  0.00    -0.310 N 
ATOM      5  H1  UNL     1      -6.824  37.106  21.165  1.00  0.00     0.170 HD
HETATM    6  C3  UNL     1      -7.350  36.771  23.078  1.00  0.00     0.157 C 
HETATM    7  N2  UNL     1      -6.973  36.639  24.428  1.00  0.00    -0.075 NA
ENDROOT
BRANCH   6   8
HETATM    8  S1  UNL     1      -9.052  36.606  22.554  1.00  0.00    -0.085 SA
BRANCH   8   9
HETATM    9  C4  UNL     1      -9.942  38.153  22.618  1.00  0.00     0.120 C 
HETATM   10  C5  UNL     1      -9.447  38.957  23.821  1.00  0.00     0.030 C 
BRANCH   9  11
HETATM   11  C6  UNL     1      -9.629  38.923  21.382  1.00  0.00     0.136 C 
HETATM   12  C7  UNL     1      -8.530  39.929  21.326  1.00  0.00     0.092 C 
HETATM   13  O2  UNL     1     -10.268  38.757  20.358  1.00  0.00    -0.297 OA
ENDBRANCH   9  11
ENDBRANCH   8   9
ENDBRANCH   6   8
TORSDOF 3
ENDMDL
