MODEL 1
REMARK VINA RESULT: -6.913449371      0.000      0.000
REMARK  3 active torsions:
REMARK  status: ('A' for Active; 'I' for Inactive)
REMARK    1  A    between atoms: C1_1  and  C7_13 
REMARK    2  A    between atoms: N1_2  and  N2_4 
REMARK    3  A    between atoms: N2_4  and  C2_6 
ROOT
HETATM    1  N2  UNL     1      -8.504  37.094  22.286  1.00  0.00    -0.286 N 
ATOM      2  H2  UNL     1      -9.165  36.321  22.362  1.00  0.00     0.188 HD
ENDROOT
BRANCH   1   3
HETATM    3  N1  UNL     1      -8.901  38.298  21.802  1.00  0.00    -0.308 N 
HETATM    4  C1  UNL     1      -9.496  39.242  22.386  1.00  0.00     0.144 C 
ATOM      5  H1  UNL     1      -8.686  38.463  20.818  1.00  0.00     0.186 HD
BRANCH   4   6
HETATM    6  C7  UNL     1      -9.923  39.285  23.774  1.00  0.00     0.091 A 
HETATM    7  C8  UNL     1     -10.902  40.063  24.340  1.00  0.00     0.040 A 
HETATM    8  C9  UNL     1     -10.975  39.775  25.712  1.00  0.00     0.027 A 
HETATM    9  C10 UNL     1     -10.009  38.815  25.893  1.00  0.00     0.142 A 
HETATM   10  O1  UNL     1      -9.425  38.555  24.772  1.00  0.00    -0.321 OA
ENDBRANCH   4   6
ENDBRANCH   1   3
BRANCH   1  11
HETATM   11  C2  UNL     1      -7.261  36.946  22.654  1.00  0.00     0.119 A 
HETATM   12  C3  UNL     1      -6.918  36.335  23.836  1.00  0.00     0.050 A 
HETATM   13  C4  UNL     1      -5.613  36.161  24.257  1.00  0.00     0.005 A 
HETATM   14  C5  UNL     1      -4.613  36.631  23.433  1.00  0.00     0.017 A 
HETATM   15  C6  UNL     1      -4.961  37.243  22.249  1.00  0.00     0.089 A 
HETATM   16  N3  UNL     1      -6.238  37.392  21.878  1.00  0.00    -0.351 N 
ATOM     17  H3  UNL     1      -6.447  37.852  20.991  1.00  0.00     0.166 HD
ENDBRANCH   1  11
TORSDOF 3
ENDMDL
MODEL 2
REMARK VINA RESULT: -6.828534600      0.723      1.269
REMARK  3 active torsions:
REMARK  status: ('A' for Active; 'I' for Inactive)
REMARK    1  A    between atoms: C1_1  and  C7_13 
REMARK    2  A    between atoms: N1_2  and  N2_4 
REMARK    3  A    between atoms: N2_4  and  C2_6 
ROOT
HETATM    1  N2  UNL     1      -8.382  37.107  22.203  1.00  0.00    -0.286 N 
ATOM      2  H2  UNL     1      -9.031  36.325  22.116  1.00  0.00     0.188 HD
ENDROOT
BRANCH   1   3
HETATM    3  N1  UNL     1      -8.734  38.347  21.779  1.00  0.00    -0.308 N 
HETATM    4  C1  UNL     1      -9.314  39.274  22.404  1.00  0.00     0.144 C 
ATOM      5  H1  UNL     1      -8.492  38.561  20.812  1.00  0.00     0.186 HD
BRANCH   4   6
HETATM    6  C7  UNL     1      -9.771  39.252  23.783  1.00  0.00     0.091 A 
HETATM    7  C8  UNL     1     -10.794  39.967  24.353  1.00  0.00     0.040 A 
HETATM    8  C9  UNL     1     -10.882  39.631  25.713  1.00  0.00     0.027 A 
HETATM    9  C10 UNL     1      -9.878  38.708  25.884  1.00  0.00     0.142 A 
HETATM   10  O1  UNL     1      -9.261  38.511  24.767  1.00  0.00    -0.321 OA
ENDBRANCH   4   6
ENDBRANCH   1   3
BRANCH   1  11
HETATM   11  C2  UNL     1      -7.198  36.935  22.724  1.00  0.00     0.119 A 
HETATM   12  C3  UNL     1      -6.050  37.284  22.054  1.00  0.00     0.050 A 
HETATM   13  C4  UNL     1      -4.780  37.116  22.574  1.00  0.00     0.005 A 
HETATM   14  C5  UNL     1      -4.679  36.568  23.835  1.00  0.00     0.017 A 
HETATM   15  C6  UNL     1      -5.832  36.220  24.502  1.00  0.00     0.089 A 
HETATM   16  N3  UNL     1      -7.044  36.398  23.963  1.00  0.00    -0.351 N 
ATOM     17  H3  UNL     1      -7.870  36.125  24.495  1.00  0.00     0.166 HD
ENDBRANCH   1  11
TORSDOF 3
ENDMDL
MODEL 3
REMARK VINA RESULT: -6.618863821      1.769      2.777
REMARK  3 active torsions:
REMARK  status: ('A' for Active; 'I' for Inactive)
REMARK    1  A    between atoms: C1_1  and  C7_13 
REMARK    2  A    between atoms: N1_2  and  N2_4 
REMARK    3  A    between atoms: N2_4  and  C2_6 
ROOT
HETATM    1  N2  UNL     1      -8.573  37.085  22.302  1.00  0.00    -0.286 N 
ATOM      2  H2  UNL     1      -8.921  36.624  21.461  1.00  0.00     0.188 HD
ENDROOT
BRANCH   1   3
HETATM    3  N1  UNL     1      -9.396  37.856  23.057  1.00  0.00    -0.308 N 
HETATM    4  C1  UNL     1      -9.689  39.075  22.936  1.00  0.00     0.144 C 
ATOM      5  H1  UNL     1      -9.844  37.378  23.839  1.00  0.00     0.186 HD
BRANCH   4   6
HETATM    6  C7  UNL     1      -9.205  39.998  21.923  1.00  0.00     0.091 A 
HETATM    7  C8  UNL     1      -9.627  41.278  21.667  1.00  0.00     0.040 A 
HETATM    8  C9  UNL     1      -8.881  41.798  20.598  1.00  0.00     0.027 A 
HETATM    9  C10 UNL     1      -8.031  40.770  20.266  1.00  0.00     0.142 A 
HETATM   10  O1  UNL     1      -8.238  39.757  21.038  1.00  0.00    -0.321 OA
ENDBRANCH   4   6
ENDBRANCH   1   3
BRANCH   1  11
HETATM   11  C2  UNL     1      -7.330  36.946  22.672  1.00  0.00     0.119 A 
HETATM   12  C3  UNL     1      -6.987  36.372  23.873  1.00  0.00     0.050 A 
HETATM   13  C4  UNL     1      -5.681  36.208  24.297  1.00  0.00     0.005 A 
HETATM   14  C5  UNL     1      -4.682  36.650  23.458  1.00  0.00     0.017 A 
HETATM   15  C6  UNL     1      -5.030  37.224  22.256  1.00  0.00     0.089 A 
HETATM   16  N3  UNL     1      -6.307  37.365  21.881  1.00  0.00    -0.351 N 
ATOM     17  H3  UNL     1      -6.517  37.797  20.981  1.00  0.00     0.166 HD
ENDBRANCH   1  11
TORSDOF 3
ENDMDL
MODEL 4
REMARK VINA RESULT: -6.559689048      2.035      5.229
REMARK  3 active torsions:
REMARK  status: ('A' for Active; 'I' for Inactive)
REMARK    1  A    between atoms: C1_1  and  C7_13 
REMARK    2  A    between atoms: N1_2  and  N2_4 
REMARK    3  A    between atoms: N2_4  and  C2_6 
ROOT
HETATM    1  N2  UNL     1      -9.274  36.860  22.090  1.00  0.00    -0.286 N 
ATOM      2  H2  UNL     1      -8.989  36.184  21.382  1.00  0.00     0.188 HD
ENDROOT
BRANCH   1   3
HETATM    3  N1  UNL     1      -9.165  36.567  23.410  1.00  0.00    -0.308 N 
HETATM    4  C1  UNL     1      -8.133  36.415  24.116  1.00  0.00     0.144 C 
ATOM      5  H1  UNL     1     -10.050  36.452  23.905  1.00  0.00     0.186 HD
BRANCH   4   6
HETATM    6  C7  UNL     1      -6.750  36.520  23.683  1.00  0.00     0.091 A 
HETATM    7  C8  UNL     1      -5.626  36.025  24.296  1.00  0.00     0.040 A 
HETATM    8  C9  UNL     1      -4.502  36.362  23.526  1.00  0.00     0.027 A 
HETATM    9  C10 UNL     1      -5.033  37.058  22.466  1.00  0.00     0.142 A 
HETATM   10  O1  UNL     1      -6.316  37.133  22.582  1.00  0.00    -0.321 OA
ENDBRANCH   4   6
ENDBRANCH   1   3
BRANCH   1  11
HETATM   11  C2  UNL     1      -9.751  38.025  21.744  1.00  0.00     0.119 A 
HETATM   12  C3  UNL     1      -9.992  39.016  22.665  1.00  0.00     0.050 A 
HETATM   13  C4  UNL     1     -10.495  40.261  22.335  1.00  0.00     0.005 A 
HETATM   14  C5  UNL     1     -10.764  40.504  21.005  1.00  0.00     0.017 A 
HETATM   15  C6  UNL     1     -10.521  39.508  20.086  1.00  0.00     0.089 A 
HETATM   16  N3  UNL     1     -10.033  38.315  20.446  1.00  0.00    -0.351 N 
ATOM     17  H3  UNL     1      -9.869  37.607  19.730  1.00  0.00     0.166 HD
ENDBRANCH   1  11
TORSDOF 3
ENDMDL
MODEL 5
REMARK VINA RESULT: -6.480726449      0.861      1.071
REMARK  3 active torsions:
REMARK  status: ('A' for Active; 'I' for Inactive)
REMARK    1  A    between atoms: C1_1  and  C7_13 
REMARK    2  A    between atoms: N1_2  and  N2_4 
REMARK    3  A    between atoms: N2_4  and  C2_6 
ROOT
HETATM    1  N2  UNL     1      -8.162  37.638  22.177  1.00  0.00    -0.286 N 
ATOM      2  H2  UNL     1      -9.008  37.113  22.398  1.00  0.00     0.188 HD
ENDROOT
BRANCH   1   3
HETATM    3  N1  UNL     1      -8.231  38.792  21.466  1.00  0.00    -0.308 N 
HETATM    4  C1  UNL     1      -8.897  39.836  21.694  1.00  0.00     0.144 C 
ATOM      5  H1  UNL     1      -7.657  38.818  20.623  1.00  0.00     0.186 HD
BRANCH   4   6
HETATM    6  C7  UNL     1      -9.792  40.081  22.812  1.00  0.00     0.091 A 
HETATM    7  C8  UNL     1     -10.609  41.161  23.027  1.00  0.00     0.040 A 
HETATM    8  C9  UNL     1     -11.298  40.977  24.237  1.00  0.00     0.027 A 
HETATM    9  C10 UNL     1     -10.841  39.762  24.688  1.00  0.00     0.142 A 
HETATM   10  O1  UNL     1      -9.983  39.274  23.856  1.00  0.00    -0.321 OA
ENDBRANCH   4   6
ENDBRANCH   1   3
BRANCH   1  11
HETATM   11  C2  UNL     1      -6.993  37.213  22.572  1.00  0.00     0.119 A 
HETATM   12  C3  UNL     1      -6.829  36.511  23.742  1.00  0.00     0.050 A 
HETATM   13  C4  UNL     1      -5.607  36.047  24.190  1.00  0.00     0.005 A 
HETATM   14  C5  UNL     1      -4.503  36.310  23.409  1.00  0.00     0.017 A 
HETATM   15  C6  UNL     1      -4.672  37.013  22.237  1.00  0.00     0.089 A 
HETATM   16  N3  UNL     1      -5.873  37.446  21.837  1.00  0.00    -0.351 N 
ATOM     17  H3  UNL     1      -5.949  37.964  20.961  1.00  0.00     0.166 HD
ENDBRANCH   1  11
TORSDOF 3
ENDMDL
