MODEL 1
REMARK VINA RESULT: -6.637281891      0.000      0.000
REMARK  3 active torsions:
REMARK  status: ('A' for Active; 'I' for Inactive)
REMARK    1  A    between atoms: C1_1  and  C6_14 
REMARK    2  A    between atoms: N1_2  and  N2_4 
REMARK    3  A    between atoms: N2_4  and  C2_6 
ROOT
HETATM    1  C1  UNL     1      -9.666  38.643  25.355  1.00  0.00     0.118 C 
HETATM    2  N1  UNL     1      -9.508  37.674  24.520  1.00  0.00    -0.309 N 
ATOM      3  H1  UNL     1     -10.154  37.604  23.733  1.00  0.00     0.186 HD
ENDROOT
BRANCH   2   4
HETATM    4  N2  UNL     1      -8.515  36.727  24.632  1.00  0.00    -0.285 N 
ATOM      5  H2  UNL     1      -8.701  35.913  25.218  1.00  0.00     0.188 HD
BRANCH   4   6
HETATM    6  C2  UNL     1      -7.368  36.796  24.051  1.00  0.00     0.135 A 
HETATM    7  C3  UNL     1      -7.296  37.116  22.718  1.00  0.00     0.137 A 
HETATM    8  N3  UNL     1      -6.094  37.196  22.078  1.00  0.00    -0.371 N 
HETATM    9  C4  UNL     1      -4.944  36.963  22.734  1.00  0.00     0.104 A 
ATOM     10  H3  UNL     1      -6.068  37.436  21.088  1.00  0.00     0.164 HD
HETATM   11  C5  UNL     1      -5.032  36.642  24.073  1.00  0.00     0.106 A 
HETATM   12  N4  UNL     1      -6.229  36.560  24.724  1.00  0.00    -0.349 N 
ATOM     13  H4  UNL     1      -6.259  36.321  25.714  1.00  0.00     0.167 HD
ENDBRANCH   4   6
ENDBRANCH   2   4
BRANCH   1  14
HETATM   14  C6  UNL     1     -10.740  39.603  25.167  1.00  0.00    -0.017 A 
HETATM   15  C7  UNL     1     -11.835  39.656  25.980  1.00  0.00     0.030 A 
HETATM   16  C8  UNL     1     -12.797  40.609  25.711  1.00  0.00     0.088 A 
HETATM   17  N5  UNL     1     -12.724  41.484  24.707  1.00  0.00    -0.375 N 
HETATM   18  C9  UNL     1     -11.650  41.440  23.903  1.00  0.00     0.088 A 
ATOM     19  H5  UNL     1     -13.465  42.169  24.555  1.00  0.00     0.164 HD
HETATM   20  C10 UNL     1     -10.675  40.518  24.129  1.00  0.00     0.030 A 
ENDBRANCH   1  14
TORSDOF 3
ENDMDL
MODEL 2
REMARK VINA RESULT: -6.637040009      0.095      1.202
REMARK  3 active torsions:
REMARK  status: ('A' for Active; 'I' for Inactive)
REMARK    1  A    between atoms: C1_1  and  C6_14 
REMARK    2  A    between atoms: N1_2  and  N2_4 
REMARK    3  A    between atoms: N2_4  and  C2_6 
ROOT
HETATM    1  C1  UNL     1      -9.667  38.664  25.309  1.00  0.00     0.118 C 
HETATM    2  N1  UNL     1      -9.525  37.675  24.493  1.00  0.00    -0.309 N 
ATOM      3  H1  UNL     1     -10.184  37.591  23.718  1.00  0.00     0.186 HD
ENDROOT
BRANCH   2   4
HETATM    4  N2  UNL     1      -8.534  36.728  24.610  1.00  0.00    -0.285 N 
ATOM      5  H2  UNL     1      -8.723  35.916  25.199  1.00  0.00     0.188 HD
BRANCH   4   6
HETATM    6  C2  UNL     1      -7.386  36.792  24.031  1.00  0.00     0.135 A 
HETATM    7  C3  UNL     1      -7.310  37.118  22.699  1.00  0.00     0.137 A 
HETATM    8  N3  UNL     1      -6.108  37.194  22.062  1.00  0.00    -0.371 N 
HETATM    9  C4  UNL     1      -4.959  36.951  22.718  1.00  0.00     0.104 A 
ATOM     10  H3  UNL     1      -6.078  37.438  21.072  1.00  0.00     0.164 HD
HETATM   11  C5  UNL     1      -5.051  36.625  24.055  1.00  0.00     0.106 A 
HETATM   12  N4  UNL     1      -6.249  36.547  24.704  1.00  0.00    -0.349 N 
ATOM     13  H4  UNL     1      -6.282  36.304  25.694  1.00  0.00     0.167 HD
ENDBRANCH   4   6
ENDBRANCH   2   4
BRANCH   1  14
HETATM   14  C6  UNL     1     -10.739  39.624  25.118  1.00  0.00    -0.017 A 
HETATM   15  C7  UNL     1     -10.746  40.532  24.098  1.00  0.00     0.030 A 
HETATM   16  C8  UNL     1     -11.816  41.399  24.010  1.00  0.00     0.088 A 
HETATM   17  N5  UNL     1     -12.847  41.406  24.856  1.00  0.00    -0.375 N 
HETATM   18  C9  UNL     1     -12.849  40.516  25.862  1.00  0.00     0.088 A 
ATOM     19  H5  UNL     1     -13.613  42.070  24.743  1.00  0.00     0.164 HD
HETATM   20  C10 UNL     1     -11.815  39.640  25.990  1.00  0.00     0.030 A 
ENDBRANCH   1  14
TORSDOF 3
ENDMDL
MODEL 3
REMARK VINA RESULT: -6.618122015      3.805      6.315
REMARK  3 active torsions:
REMARK  status: ('A' for Active; 'I' for Inactive)
REMARK    1  A    between atoms: C1_1  and  C6_14 
REMARK    2  A    between atoms: N1_2  and  N2_4 
REMARK    3  A    between atoms: N2_4  and  C2_6 
ROOT
HETATM    1  C1  UNL     1      -9.443  37.338  22.230  1.00  0.00     0.118 C 
HETATM    2  N1  UNL     1      -9.261  38.236  21.323  1.00  0.00    -0.309 N 
ATOM      3  H1  UNL     1      -8.391  38.767  21.337  1.00  0.00     0.186 HD
ENDROOT
BRANCH   2   4
HETATM    4  N2  UNL     1     -10.179  38.517  20.336  1.00  0.00    -0.285 N 
ATOM      5  H2  UNL     1     -10.897  37.817  20.145  1.00  0.00     0.188 HD
BRANCH   4   6
HETATM    6  C2  UNL     1     -10.197  39.598  19.638  1.00  0.00     0.135 A 
HETATM    7  C3  UNL     1     -11.022  40.634  20.004  1.00  0.00     0.137 A 
HETATM    8  N3  UNL     1     -11.060  41.790  19.283  1.00  0.00    -0.371 N 
HETATM    9  C4  UNL     1     -10.292  41.951  18.191  1.00  0.00     0.104 A 
ATOM     10  H3  UNL     1     -11.681  42.544  19.576  1.00  0.00     0.164 HD
HETATM   11  C5  UNL     1      -9.470  40.903  17.836  1.00  0.00     0.106 A 
HETATM   12  N4  UNL     1      -9.422  39.741  18.550  1.00  0.00    -0.349 N 
ATOM     13  H4  UNL     1      -8.802  38.985  18.260  1.00  0.00     0.167 HD
ENDBRANCH   4   6
ENDBRANCH   2   4
BRANCH   1  14
HETATM   14  C6  UNL     1      -8.425  37.100  23.239  1.00  0.00    -0.017 A 
HETATM   15  C7  UNL     1      -8.682  37.163  24.578  1.00  0.00     0.030 A 
HETATM   16  C8  UNL     1      -7.640  36.919  25.450  1.00  0.00     0.088 A 
HETATM   17  N5  UNL     1      -6.397  36.625  25.069  1.00  0.00    -0.375 N 
HETATM   18  C9  UNL     1      -6.135  36.561  23.753  1.00  0.00     0.088 A 
ATOM     19  H5  UNL     1      -5.664  36.453  25.758  1.00  0.00     0.164 HD
HETATM   20  C10 UNL     1      -7.130  36.793  22.855  1.00  0.00     0.030 A 
ENDBRANCH   1  14
TORSDOF 3
ENDMDL
MODEL 4
REMARK VINA RESULT: -6.607246922      0.659      1.754
REMARK  3 active torsions:
REMARK  status: ('A' for Active; 'I' for Inactive)
REMARK    1  A    between atoms: C1_1  and  C6_14 
REMARK    2  A    between atoms: N1_2  and  N2_4 
REMARK    3  A    between atoms: N2_4  and  C2_6 
ROOT
HETATM    1  C1  UNL     1      -9.882  38.488  24.780  1.00  0.00     0.118 C 
HETATM    2  N1  UNL     1      -9.669  37.759  23.738  1.00  0.00    -0.309 N 
ATOM      3  H1  UNL     1     -10.169  37.988  22.878  1.00  0.00     0.186 HD
ENDROOT
BRANCH   2   4
HETATM    4  N2  UNL     1      -8.805  36.688  23.722  1.00  0.00    -0.285 N 
ATOM      5  H2  UNL     1      -9.204  35.756  23.841  1.00  0.00     0.188 HD
BRANCH   4   6
HETATM    6  C2  UNL     1      -7.530  36.777  23.568  1.00  0.00     0.135 A 
HETATM    7  C3  UNL     1      -6.695  36.529  24.630  1.00  0.00     0.137 A 
HETATM    8  N3  UNL     1      -5.341  36.616  24.495  1.00  0.00    -0.371 N 
HETATM    9  C4  UNL     1      -4.783  36.948  23.318  1.00  0.00     0.104 A 
ATOM     10  H3  UNL     1      -4.743  36.428  25.299  1.00  0.00     0.164 HD
HETATM   11  C5  UNL     1      -5.634  37.194  22.260  1.00  0.00     0.106 A 
HETATM   12  N4  UNL     1      -6.991  37.109  22.384  1.00  0.00    -0.349 N 
ATOM     13  H4  UNL     1      -7.591  37.297  21.582  1.00  0.00     0.167 HD
ENDBRANCH   4   6
ENDBRANCH   2   4
BRANCH   1  14
HETATM   14  C6  UNL     1     -10.810  39.603  24.716  1.00  0.00    -0.017 A 
HETATM   15  C7  UNL     1     -10.692  40.612  23.805  1.00  0.00     0.030 A 
HETATM   16  C8  UNL     1     -11.631  41.624  23.834  1.00  0.00     0.088 A 
HETATM   17  N5  UNL     1     -12.648  41.679  24.694  1.00  0.00    -0.375 N 
HETATM   18  C9  UNL     1     -12.772  40.690  25.594  1.00  0.00     0.088 A 
ATOM     19  H5  UNL     1     -13.314  42.451  24.670  1.00  0.00     0.164 HD
HETATM   20  C10 UNL     1     -11.871  39.670  25.605  1.00  0.00     0.030 A 
ENDBRANCH   1  14
TORSDOF 3
ENDMDL
MODEL 5
REMARK VINA RESULT: -6.578852253      1.872      2.738
REMARK  3 active torsions:
REMARK  status: ('A' for Active; 'I' for Inactive)
REMARK    1  A    between atoms: C1_1  and  C6_14 
REMARK    2  A    between atoms: N1_2  and  N2_4 
REMARK    3  A    between atoms: N2_4  and  C2_6 
ROOT
HETATM    1  C1  UNL     1      -9.674  38.556  22.796  1.00  0.00     0.118 C 
HETATM    2  N1  UNL     1      -9.047  37.870  21.902  1.00  0.00    -0.309 N 
ATOM      3  H1  UNL     1      -9.126  38.161  20.927  1.00  0.00     0.186 HD
ENDROOT
BRANCH   2   4
HETATM    4  N2  UNL     1      -8.279  36.765  22.191  1.00  0.00    -0.285 N 
ATOM      5  H2  UNL     1      -8.663  35.848  21.962  1.00  0.00     0.188 HD
BRANCH   4   6
HETATM    6  C2  UNL     1      -7.111  36.806  22.732  1.00  0.00     0.135 A 
HETATM    7  C3  UNL     1      -6.958  36.466  24.054  1.00  0.00     0.137 A 
HETATM    8  N3  UNL     1      -5.732  36.501  24.650  1.00  0.00    -0.371 N 
HETATM    9  C4  UNL     1      -4.637  36.868  23.962  1.00  0.00     0.104 A 
ATOM     10  H3  UNL     1      -5.645  36.244  25.633  1.00  0.00     0.164 HD
HETATM   11  C5  UNL     1      -4.807  37.207  22.636  1.00  0.00     0.106 A 
HETATM   12  N4  UNL     1      -6.028  37.176  22.028  1.00  0.00    -0.349 N 
ATOM     13  H4  UNL     1      -6.119  37.432  21.045  1.00  0.00     0.167 HD
ENDBRANCH   4   6
ENDBRANCH   2   4
BRANCH   1  14
HETATM   14  C6  UNL     1     -10.466  39.711  22.410  1.00  0.00    -0.017 A 
HETATM   15  C7  UNL     1     -10.607  40.111  21.112  1.00  0.00     0.030 A 
HETATM   16  C8  UNL     1     -11.383  41.224  20.859  1.00  0.00     0.088 A 
HETATM   17  N5  UNL     1     -12.006  41.934  21.800  1.00  0.00    -0.375 N 
HETATM   18  C9  UNL     1     -11.873  41.548  23.079  1.00  0.00     0.088 A 
ATOM     19  H5  UNL     1     -12.569  42.749  21.554  1.00  0.00     0.164 HD
HETATM   20  C10 UNL     1     -11.117  40.456  23.379  1.00  0.00     0.030 A 
ENDBRANCH   1  14
TORSDOF 3
ENDMDL
