MODEL 1
REMARK VINA RESULT: -7.920534751      0.000      0.000
REMARK  2 active torsions:
REMARK  status: ('A' for Active; 'I' for Inactive)
REMARK       I    between atoms: C2_2  and  N1_4 
REMARK    1  A    between atoms: C3_6  and  C4_7 
REMARK    2  A    between atoms: C3_6  and  N3_18 
ROOT
HETATM    1  C4  UNL     1      -9.863  19.590  79.698  1.00  0.00     0.080 C 
HETATM    2  C5  UNL     1      -8.455  19.775  79.198  1.00  0.00     0.244 C 
HETATM    3  N2  UNL     1      -8.354  20.565  78.017  1.00  0.00    -0.074 N 
ATOM      4  H21 UNL     1      -7.690  20.163  77.354  1.00  0.00     0.277 HD
ATOM      5  H22 UNL     1      -7.879  21.449  78.197  1.00  0.00     0.277 HD
HETATM    6  C6  UNL     1      -9.644  20.771  77.413  1.00  0.00     0.241 C 
HETATM    7  C7  UNL     1     -10.335  19.447  77.307  1.00  0.00    -0.016 C 
HETATM    8  C8  UNL     1     -11.333  19.309  76.198  1.00  0.00     0.011 C 
HETATM    9  C9  UNL     1     -10.786  17.931  75.921  1.00  0.00     0.002 C 
HETATM   10  C10 UNL     1      -9.525  18.345  76.666  1.00  0.00     0.011 C 
HETATM   11  C11 UNL     1     -10.800  19.041  78.672  1.00  0.00     0.025 C 
ENDROOT
BRANCH   1  12
HETATM   12  C3  UNL     1      -9.793  18.739  80.926  1.00  0.00     0.087 C 
HETATM   13  N1  UNL     1     -10.355  19.159  81.978  1.00  0.00    -0.317 N 
HETATM   14  C2  UNL     1     -10.424  18.554  83.224  1.00  0.00     0.218 C 
ATOM     15  H1  UNL     1     -10.820  20.064  81.899  1.00  0.00     0.170 HD
HETATM   16  C1  UNL     1     -11.704  18.024  83.751  1.00  0.00     0.117 C 
HETATM   17  O1  UNL     1      -9.404  18.438  83.944  1.00  0.00    -0.274 OA
BRANCH  12  18
HETATM   18  N3  UNL     1      -9.086  17.511  80.801  1.00  0.00    -0.370 N 
HETATM   19  C12 UNL     1      -7.752  17.197  81.335  1.00  0.00     0.124 C 
HETATM   20  C13 UNL     1      -7.880  15.770  81.826  1.00  0.00     0.021 C 
HETATM   21  C14 UNL     1      -9.118  15.243  81.160  1.00  0.00     0.021 C 
HETATM   22  C15 UNL     1      -9.494  16.289  80.132  1.00  0.00     0.124 C 
ENDBRANCH  12  18
ENDBRANCH   1  12
TORSDOF 2
ENDMDL
MODEL 2
REMARK VINA RESULT: -7.592201229      2.049      5.640
REMARK  2 active torsions:
REMARK  status: ('A' for Active; 'I' for Inactive)
REMARK       I    between atoms: C2_2  and  N1_4 
REMARK    1  A    between atoms: C3_6  and  C4_7 
REMARK    2  A    between atoms: C3_6  and  N3_18 
ROOT
HETATM    1  C4  UNL     1      -9.091  17.443  80.352  1.00  0.00     0.080 C 
HETATM    2  C5  UNL     1      -7.685  17.430  80.890  1.00  0.00     0.244 C 
HETATM    3  N2  UNL     1      -7.453  16.449  81.896  1.00  0.00    -0.074 N 
ATOM      4  H21 UNL     1      -6.896  16.825  82.665  1.00  0.00     0.277 HD
ATOM      5  H22 UNL     1      -6.808  15.728  81.574  1.00  0.00     0.277 HD
HETATM    6  C6  UNL     1      -8.688  15.881  82.368  1.00  0.00     0.241 C 
HETATM    7  C7  UNL     1      -9.631  16.998  82.691  1.00  0.00    -0.016 C 
HETATM    8  C8  UNL     1     -10.659  16.713  83.742  1.00  0.00     0.011 C 
HETATM    9  C9  UNL     1     -10.404  18.082  84.319  1.00  0.00     0.002 C 
HETATM   10  C10 UNL     1      -9.071  18.078  83.584  1.00  0.00     0.011 C 
HETATM   11  C11 UNL     1     -10.139  17.580  81.407  1.00  0.00     0.025 C 
ENDROOT
BRANCH   1  12
HETATM   12  C3  UNL     1      -9.166  18.525  79.322  1.00  0.00     0.087 C 
HETATM   13  N1  UNL     1      -8.537  19.600  79.538  1.00  0.00    -0.317 N 
HETATM   14  C2  UNL     1      -8.456  20.732  78.739  1.00  0.00     0.218 C 
ATOM     15  H1  UNL     1      -8.019  19.641  80.416  1.00  0.00     0.170 HD
HETATM   16  C1  UNL     1      -7.192  21.106  78.061  1.00  0.00     0.117 C 
HETATM   17  O1  UNL     1      -9.453  21.474  78.567  1.00  0.00    -0.274 OA
BRANCH  12  18
HETATM   18  N3  UNL     1      -9.953  18.244  78.171  1.00  0.00    -0.370 N 
HETATM   19  C12 UNL     1     -11.395  17.961  78.130  1.00  0.00     0.124 C 
HETATM   20  C13 UNL     1     -11.877  18.688  76.891  1.00  0.00     0.021 C 
HETATM   21  C14 UNL     1     -10.631  18.964  76.098  1.00  0.00     0.021 C 
HETATM   22  C15 UNL     1      -9.539  18.168  76.781  1.00  0.00     0.124 C 
ENDBRANCH  12  18
ENDBRANCH   1  12
TORSDOF 2
ENDMDL
MODEL 3
REMARK VINA RESULT: -7.359062655      1.309      2.193
REMARK  2 active torsions:
REMARK  status: ('A' for Active; 'I' for Inactive)
REMARK       I    between atoms: C2_2  and  N1_4 
REMARK    1  A    between atoms: C3_6  and  C4_7 
REMARK    2  A    between atoms: C3_6  and  N3_18 
ROOT
HETATM    1  C4  UNL     1      -9.768  18.031  79.047  1.00  0.00     0.080 C 
HETATM    2  C5  UNL     1     -11.142  18.391  78.546  1.00  0.00     0.244 C 
HETATM    3  N2  UNL     1     -11.197  18.686  77.154  1.00  0.00    -0.074 N 
ATOM      4  H21 UNL     1     -11.784  19.500  76.967  1.00  0.00     0.277 HD
ATOM      5  H22 UNL     1     -11.735  17.985  76.644  1.00  0.00     0.277 HD
HETATM    6  C6  UNL     1      -9.878  18.846  76.600  1.00  0.00     0.241 C 
HETATM    7  C7  UNL     1      -9.106  19.781  77.478  1.00  0.00    -0.016 C 
HETATM    8  C8  UNL     1      -8.019  20.568  76.813  1.00  0.00     0.011 C 
HETATM    9  C9  UNL     1      -8.462  21.780  77.593  1.00  0.00     0.002 C 
HETATM   10  C10 UNL     1      -9.799  21.082  77.804  1.00  0.00     0.011 C 
HETATM   11  C11 UNL     1      -8.725  19.053  78.731  1.00  0.00     0.025 C 
ENDROOT
BRANCH   1  12
HETATM   12  C3  UNL     1      -9.884  17.762  80.514  1.00  0.00     0.087 C 
HETATM   13  N1  UNL     1     -10.754  18.400  81.173  1.00  0.00    -0.317 N 
HETATM   14  C2  UNL     1     -11.045  18.321  82.527  1.00  0.00     0.218 C 
ATOM     15  H1  UNL     1     -11.317  19.061  80.637  1.00  0.00     0.170 HD
HETATM   16  C1  UNL     1     -12.319  17.736  83.006  1.00  0.00     0.117 C 
HETATM   17  O1  UNL     1     -10.237  18.744  83.388  1.00  0.00    -0.274 OA
BRANCH  12  18
HETATM   18  N3  UNL     1      -8.988  16.794  81.048  1.00  0.00    -0.370 N 
HETATM   19  C12 UNL     1      -7.697  17.048  81.704  1.00  0.00     0.124 C 
HETATM   20  C13 UNL     1      -7.664  16.054  82.847  1.00  0.00     0.021 C 
HETATM   21  C14 UNL     1      -8.717  15.040  82.505  1.00  0.00     0.021 C 
HETATM   22  C15 UNL     1      -9.120  15.349  81.078  1.00  0.00     0.124 C 
ENDBRANCH  12  18
ENDBRANCH   1  12
TORSDOF 2
ENDMDL
MODEL 4
REMARK VINA RESULT: -7.337023095      2.160      5.744
REMARK  2 active torsions:
REMARK  status: ('A' for Active; 'I' for Inactive)
REMARK       I    between atoms: C2_2  and  N1_4 
REMARK    1  A    between atoms: C3_6  and  C4_7 
REMARK    2  A    between atoms: C3_6  and  N3_18 
ROOT
HETATM    1  C4  UNL     1     -10.086  17.908  80.526  1.00  0.00     0.080 C 
HETATM    2  C5  UNL     1      -9.405  16.593  80.254  1.00  0.00     0.244 C 
HETATM    3  N2  UNL     1      -9.623  15.603  81.254  1.00  0.00    -0.074 N 
ATOM      4  H21 UNL     1      -8.765  15.096  81.473  1.00  0.00     0.277 HD
ATOM      5  H22 UNL     1     -10.178  14.825  80.897  1.00  0.00     0.277 HD
HETATM    6  C6  UNL     1     -10.214  16.175  82.436  1.00  0.00     0.241 C 
HETATM    7  C7  UNL     1      -9.426  17.389  82.818  1.00  0.00    -0.016 C 
HETATM    8  C8  UNL     1      -9.433  17.751  84.272  1.00  0.00     0.011 C 
HETATM    9  C9  UNL     1      -7.956  18.039  84.176  1.00  0.00     0.002 C 
HETATM   10  C10 UNL     1      -7.933  17.188  82.913  1.00  0.00     0.011 C 
HETATM   11  C11 UNL     1      -9.754  18.493  81.860  1.00  0.00     0.025 C 
ENDROOT
BRANCH   1  12
HETATM   12  C3  UNL     1      -9.751  18.827  79.395  1.00  0.00     0.087 C 
HETATM   13  N1  UNL     1      -9.039  19.843  79.640  1.00  0.00    -0.317 N 
HETATM   14  C2  UNL     1      -8.603  20.827  78.765  1.00  0.00     0.218 C 
ATOM     15  H1  UNL     1      -8.746  19.953  80.611  1.00  0.00     0.170 HD
HETATM   16  C1  UNL     1      -7.172  20.948  78.396  1.00  0.00     0.117 C 
HETATM   17  O1  UNL     1      -9.407  21.645  78.259  1.00  0.00    -0.274 OA
BRANCH  12  18
HETATM   18  N3  UNL     1     -10.273  18.472  78.120  1.00  0.00    -0.370 N 
HETATM   19  C12 UNL     1     -11.663  18.117  77.798  1.00  0.00     0.124 C 
HETATM   20  C13 UNL     1     -11.910  18.780  76.459  1.00  0.00     0.021 C 
HETATM   21  C14 UNL     1     -10.542  19.092  75.925  1.00  0.00     0.021 C 
HETATM   22  C15 UNL     1      -9.581  18.373  76.847  1.00  0.00     0.124 C 
ENDBRANCH  12  18
ENDBRANCH   1  12
TORSDOF 2
ENDMDL
MODEL 5
REMARK VINA RESULT: -7.237890473      1.164      2.708
REMARK  2 active torsions:
REMARK  status: ('A' for Active; 'I' for Inactive)
REMARK       I    between atoms: C2_2  and  N1_4 
REMARK    1  A    between atoms: C3_6  and  C4_7 
REMARK    2  A    between atoms: C3_6  and  N3_18 
ROOT
HETATM    1  C4  UNL     1      -9.983  19.165  79.834  1.00  0.00     0.080 C 
HETATM    2  C5  UNL     1      -8.602  19.552  79.378  1.00  0.00     0.244 C 
HETATM    3  N2  UNL     1      -8.580  20.509  78.324  1.00  0.00    -0.074 N 
ATOM      4  H21 UNL     1      -7.885  20.270  77.616  1.00  0.00     0.277 HD
ATOM      5  H22 UNL     1      -8.190  21.399  78.633  1.00  0.00     0.277 HD
HETATM    6  C6  UNL     1      -9.887  20.678  77.744  1.00  0.00     0.241 C 
HETATM    7  C7  UNL     1     -10.451  19.324  77.444  1.00  0.00    -0.016 C 
HETATM    8  C8  UNL     1     -11.436  19.253  76.318  1.00  0.00     0.011 C 
HETATM    9  C9  UNL     1     -10.764  17.987  75.850  1.00  0.00     0.002 C 
HETATM   10  C10 UNL     1      -9.544  18.406  76.659  1.00  0.00     0.011 C 
HETATM   11  C11 UNL     1     -10.869  18.684  78.732  1.00  0.00     0.025 C 
ENDROOT
BRANCH   1  12
HETATM   12  C3  UNL     1      -9.828  18.158  80.928  1.00  0.00     0.087 C 
HETATM   13  N1  UNL     1      -8.801  17.420  80.921  1.00  0.00    -0.317 N 
HETATM   14  C2  UNL     1      -8.442  16.426  81.820  1.00  0.00     0.218 C 
ATOM     15  H1  UNL     1      -8.150  17.577  80.151  1.00  0.00     0.170 HD
HETATM   16  C1  UNL     1      -7.288  16.598  82.734  1.00  0.00     0.117 C 
HETATM   17  O1  UNL     1      -9.084  15.351  81.885  1.00  0.00    -0.274 OA
BRANCH  12  18
HETATM   18  N3  UNL     1     -10.868  18.117  81.899  1.00  0.00    -0.370 N 
HETATM   19  C12 UNL     1     -11.982  17.160  81.964  1.00  0.00     0.124 C 
HETATM   20  C13 UNL     1     -12.130  16.870  83.444  1.00  0.00     0.021 C 
HETATM   21  C14 UNL     1     -11.395  17.986  84.130  1.00  0.00     0.021 C 
HETATM   22  C15 UNL     1     -11.084  18.989  83.040  1.00  0.00     0.124 C 
ENDBRANCH  12  18
ENDBRANCH   1  12
TORSDOF 2
ENDMDL
