MODEL 1
REMARK VINA RESULT: -7.285185143      0.000      0.000
REMARK  2 active torsions:
REMARK  status: ('A' for Active; 'I' for Inactive)
REMARK       I    between atoms: N2_3  and  C2_4 
REMARK       I    between atoms: C2_4  and  N3_6 
REMARK    1  A    between atoms: N4_12  and  C8_13 
REMARK    2  A    between atoms: C8_13  and  C9_14 
ROOT
HETATM    1  N1  UNL     1      -6.799  18.421  84.744  1.00  0.00    -0.156 NA
HETATM    2  C1  UNL     1      -7.348  17.727  84.013  1.00  0.00     0.273 C 
HETATM    3  N2  UNL     1      -7.930  16.945  83.124  1.00  0.00    -0.272 NA
HETATM    4  C2  UNL     1      -8.541  16.115  82.190  1.00  0.00     0.406 C 
HETATM    5  O1  UNL     1      -8.555  14.866  82.207  1.00  0.00    -0.229 OA
HETATM    6  N3  UNL     1      -9.237  16.806  81.129  1.00  0.00    -0.321 N 
HETATM    7  C3  UNL     1      -9.786  18.130  81.469  1.00  0.00     0.129 C 
HETATM    8  C4  UNL     1      -9.840  18.833  80.176  1.00  0.00     0.031 C 
HETATM    9  C5  UNL     1     -10.200  17.691  79.184  1.00  0.00    -0.019 C 
HETATM   10  C6  UNL     1      -9.794  18.167  77.803  1.00  0.00     0.041 C 
HETATM   11  C7  UNL     1     -10.947  19.008  77.253  1.00  0.00     0.273 C 
HETATM   12  N4  UNL     1     -12.145  18.260  77.081  1.00  0.00     0.088 N 
HETATM   13  C12 UNL     1     -12.042  16.996  77.775  1.00  0.00     0.273 C 
HETATM   14  C13 UNL     1     -11.661  17.358  79.189  1.00  0.00     0.041 C 
HETATM   15  C14 UNL     1      -9.424  16.523  79.744  1.00  0.00     0.138 C 
ENDROOT
BRANCH  12  16
HETATM   16  C8  UNL     1     -12.543  18.098  75.675  1.00  0.00     0.277 C 
BRANCH  16  17
HETATM   17  C9  UNL     1     -13.811  17.297  75.676  1.00  0.00     0.014 A 
HETATM   18  C10 UNL     1     -14.299  16.538  74.536  1.00  0.00     0.007 A 
HETATM   19  C11 UNL     1     -14.917  17.863  74.847  1.00  0.00     0.007 A 
ENDBRANCH  16  17
ENDBRANCH  12  16
TORSDOF 2
ENDMDL
MODEL 2
REMARK VINA RESULT: -6.907760012      2.499      3.716
REMARK  2 active torsions:
REMARK  status: ('A' for Active; 'I' for Inactive)
REMARK       I    between atoms: N2_3  and  C2_4 
REMARK       I    between atoms: C2_4  and  N3_6 
REMARK    1  A    between atoms: N4_12  and  C8_13 
REMARK    2  A    between atoms: C8_13  and  C9_14 
ROOT
HETATM    1  N1  UNL     1      -8.846  16.343  88.351  1.00  0.00    -0.156 NA
HETATM    2  C1  UNL     1      -8.473  16.702  87.327  1.00  0.00     0.273 C 
HETATM    3  N2  UNL     1      -8.097  17.161  86.149  1.00  0.00    -0.272 NA
HETATM    4  C2  UNL     1      -7.697  17.649  84.909  1.00  0.00     0.406 C 
HETATM    5  O1  UNL     1      -6.681  18.338  84.679  1.00  0.00    -0.229 OA
HETATM    6  N3  UNL     1      -8.552  17.278  83.806  1.00  0.00    -0.321 N 
HETATM    7  C3  UNL     1      -9.266  15.996  83.943  1.00  0.00     0.129 C 
HETATM    8  C4  UNL     1     -10.458  16.163  83.093  1.00  0.00     0.031 C 
HETATM    9  C5  UNL     1      -9.917  17.026  81.917  1.00  0.00    -0.019 C 
HETATM   10  C6  UNL     1     -11.120  17.675  81.261  1.00  0.00     0.041 C 
HETATM   11  C7  UNL     1     -11.692  16.669  80.261  1.00  0.00     0.273 C 
HETATM   12  N4  UNL     1     -10.784  16.356  79.210  1.00  0.00     0.088 N 
HETATM   13  C12 UNL     1      -9.458  16.820  79.549  1.00  0.00     0.273 C 
HETATM   14  C13 UNL     1      -9.169  16.216  80.901  1.00  0.00     0.041 C 
HETATM   15  C14 UNL     1      -8.954  17.954  82.617  1.00  0.00     0.138 C 
ENDROOT
BRANCH  12  16
HETATM   16  C8  UNL     1     -11.225  16.831  77.889  1.00  0.00     0.277 C 
BRANCH  16  17
HETATM   17  C9  UNL     1     -10.346  17.994  77.536  1.00  0.00     0.014 A 
HETATM   18  C10 UNL     1     -10.828  19.231  76.944  1.00  0.00     0.007 A 
HETATM   19  C11 UNL     1     -10.156  18.220  76.072  1.00  0.00     0.007 A 
ENDBRANCH  16  17
ENDBRANCH  12  16
TORSDOF 2
ENDMDL
MODEL 3
REMARK VINA RESULT: -6.606869311      1.168      1.337
REMARK  2 active torsions:
REMARK  status: ('A' for Active; 'I' for Inactive)
REMARK       I    between atoms: N2_3  and  C2_4 
REMARK       I    between atoms: C2_4  and  N3_6 
REMARK    1  A    between atoms: N4_12  and  C8_13 
REMARK    2  A    between atoms: C8_13  and  C9_14 
ROOT
HETATM    1  N1  UNL     1      -8.239  17.728  86.387  1.00  0.00    -0.156 NA
HETATM    2  C1  UNL     1      -8.317  17.142  85.403  1.00  0.00     0.273 C 
HETATM    3  N2  UNL     1      -8.361  16.515  84.243  1.00  0.00    -0.272 NA
HETATM    4  C2  UNL     1      -8.403  15.850  83.023  1.00  0.00     0.406 C 
HETATM    5  O1  UNL     1      -7.926  14.721  82.779  1.00  0.00    -0.229 OA
HETATM    6  N3  UNL     1      -9.097  16.556  81.970  1.00  0.00    -0.321 N 
HETATM    7  C3  UNL     1     -10.178  17.459  82.400  1.00  0.00     0.129 C 
HETATM    8  C4  UNL     1     -10.256  18.457  81.320  1.00  0.00     0.031 C 
HETATM    9  C5  UNL     1      -9.938  17.611  80.054  1.00  0.00    -0.019 C 
HETATM   10  C6  UNL     1      -9.495  18.583  78.978  1.00  0.00     0.041 C 
HETATM   11  C7  UNL     1     -10.758  19.121  78.302  1.00  0.00     0.273 C 
HETATM   12  N4  UNL     1     -11.507  18.107  77.641  1.00  0.00     0.088 N 
HETATM   13  C12 UNL     1     -11.048  16.802  78.061  1.00  0.00     0.273 C 
HETATM   14  C13 UNL     1     -11.120  16.830  79.568  1.00  0.00     0.041 C 
HETATM   15  C14 UNL     1      -8.888  16.654  80.564  1.00  0.00     0.138 C 
ENDROOT
BRANCH  12  16
HETATM   16  C8  UNL     1     -11.530  18.251  76.177  1.00  0.00     0.277 C 
BRANCH  16  17
HETATM   17  C9  UNL     1     -12.972  18.355  75.779  1.00  0.00     0.014 A 
HETATM   18  C10 UNL     1     -14.071  17.775  76.533  1.00  0.00     0.007 A 
HETATM   19  C11 UNL     1     -13.588  17.082  75.300  1.00  0.00     0.007 A 
ENDBRANCH  16  17
ENDBRANCH  12  16
TORSDOF 2
ENDMDL
MODEL 4
REMARK VINA RESULT: -6.476015127      2.547      3.511
REMARK  2 active torsions:
REMARK  status: ('A' for Active; 'I' for Inactive)
REMARK       I    between atoms: N2_3  and  C2_4 
REMARK       I    between atoms: C2_4  and  N3_6 
REMARK    1  A    between atoms: N4_12  and  C8_13 
REMARK    2  A    between atoms: C8_13  and  C9_14 
ROOT
HETATM    1  N1  UNL     1      -8.790  18.912  88.409  1.00  0.00    -0.156 NA
HETATM    2  C1  UNL     1      -8.985  18.121  87.601  1.00  0.00     0.273 C 
HETATM    3  N2  UNL     1      -9.149  17.234  86.639  1.00  0.00    -0.272 NA
HETATM    4  C2  UNL     1      -9.320  16.294  85.628  1.00  0.00     0.406 C 
HETATM    5  O1  UNL     1      -9.185  15.057  85.738  1.00  0.00    -0.229 OA
HETATM    6  N3  UNL     1      -9.717  16.841  84.351  1.00  0.00    -0.321 N 
HETATM    7  C3  UNL     1     -10.505  18.085  84.396  1.00  0.00     0.129 C 
HETATM    8  C4  UNL     1     -10.226  18.728  83.101  1.00  0.00     0.031 C 
HETATM    9  C5  UNL     1     -10.105  17.512  82.139  1.00  0.00    -0.019 C 
HETATM   10  C6  UNL     1      -9.338  17.992  80.922  1.00  0.00     0.041 C 
HETATM   11  C7  UNL     1     -10.347  18.641  79.974  1.00  0.00     0.273 C 
HETATM   12  N4  UNL     1     -11.325  17.725  79.494  1.00  0.00     0.088 N 
HETATM   13  C12 UNL     1     -11.295  16.514  80.282  1.00  0.00     0.273 C 
HETATM   14  C13 UNL     1     -11.437  16.976  81.712  1.00  0.00     0.041 C 
HETATM   15  C14 UNL     1      -9.413  16.486  83.004  1.00  0.00     0.138 C 
ENDROOT
BRANCH  12  16
HETATM   16  C8  UNL     1     -11.226  17.459  78.051  1.00  0.00     0.277 C 
BRANCH  16  17
HETATM   17  C9  UNL     1     -10.368  18.544  77.472  1.00  0.00     0.014 A 
HETATM   18  C10 UNL     1     -10.804  19.465  76.435  1.00  0.00     0.007 A 
HETATM   19  C11 UNL     1      -9.924  18.315  76.065  1.00  0.00     0.007 A 
ENDBRANCH  16  17
ENDBRANCH  12  16
TORSDOF 2
ENDMDL
MODEL 5
REMARK VINA RESULT: -6.397826095      3.009      4.561
REMARK  2 active torsions:
REMARK  status: ('A' for Active; 'I' for Inactive)
REMARK       I    between atoms: N2_3  and  C2_4 
REMARK       I    between atoms: C2_4  and  N3_6 
REMARK    1  A    between atoms: N4_12  and  C8_13 
REMARK    2  A    between atoms: C8_13  and  C9_14 
ROOT
HETATM    1  N1  UNL     1      -5.834  16.948  88.738  1.00  0.00    -0.156 NA
HETATM    2  C1  UNL     1      -6.816  16.869  88.149  1.00  0.00     0.273 C 
HETATM    3  N2  UNL     1      -7.918  16.721  87.439  1.00  0.00    -0.272 NA
HETATM    4  C2  UNL     1      -9.083  16.563  86.696  1.00  0.00     0.406 C 
HETATM    5  O1  UNL     1     -10.194  16.194  87.132  1.00  0.00    -0.229 OA
HETATM    6  N3  UNL     1      -8.959  16.893  85.295  1.00  0.00    -0.321 N 
HETATM    7  C3  UNL     1      -7.955  17.917  84.958  1.00  0.00     0.129 C 
HETATM    8  C4  UNL     1      -7.589  17.608  83.565  1.00  0.00     0.031 C 
HETATM    9  C5  UNL     1      -8.936  17.116  82.962  1.00  0.00    -0.019 C 
HETATM   10  C6  UNL     1      -8.593  16.310  81.724  1.00  0.00     0.041 C 
HETATM   11  C7  UNL     1      -8.436  17.297  80.567  1.00  0.00     0.273 C 
HETATM   12  N4  UNL     1      -9.639  17.997  80.268  1.00  0.00     0.088 N 
HETATM   13  C12 UNL     1     -10.590  17.824  81.342  1.00  0.00     0.273 C 
HETATM   14  C13 UNL     1      -9.849  18.243  82.589  1.00  0.00     0.041 C 
HETATM   15  C14 UNL     1      -9.541  16.349  84.113  1.00  0.00     0.138 C 
ENDROOT
BRANCH  12  16
HETATM   16  C8  UNL     1     -10.207  17.657  78.954  1.00  0.00     0.277 C 
BRANCH  16  17
HETATM   17  C9  UNL     1     -10.729  18.936  78.369  1.00  0.00     0.014 A 
HETATM   18  C10 UNL     1     -10.104  19.642  77.263  1.00  0.00     0.007 A 
HETATM   19  C11 UNL     1      -9.901  20.145  78.656  1.00  0.00     0.007 A 
ENDBRANCH  16  17
ENDBRANCH  12  16
TORSDOF 2
ENDMDL
