MODEL 1
REMARK VINA RESULT: -7.763895791      0.000      0.000
REMARK  3 active torsions:
REMARK  status: ('A' for Active; 'I' for Inactive)
REMARK    1  A    between atoms: C1_2  and  C2_3 
REMARK       I    between atoms: C1_2  and  N2_9 
REMARK    2  A    between atoms: C2_3  and  N1_4 
REMARK    3  A    between atoms: C9_12  and  O2_13 
ROOT
HETATM    1  O1  UNL     1      -9.767  15.389  80.086  1.00  0.00    -0.271 OA
HETATM    2  C1  UNL     1      -9.259  16.536  80.060  1.00  0.00     0.248 C 
HETATM    3  N2  UNL     1      -9.752  17.447  79.046  1.00  0.00    -0.350 N 
HETATM    4  C7  UNL     1     -10.759  16.916  78.183  1.00  0.00     0.128 C 
HETATM    5  C8  UNL     1     -10.679  17.574  76.833  1.00  0.00     0.052 C 
HETATM    6  C9  UNL     1     -10.822  19.068  77.099  1.00  0.00     0.130 C 
HETATM    7  C10 UNL     1      -9.593  19.597  77.789  1.00  0.00     0.002 C 
HETATM    8  C11 UNL     1      -8.442  19.787  76.827  1.00  0.00     0.014 C 
HETATM    9  C12 UNL     1      -7.636  20.916  77.396  1.00  0.00     0.001 C 
HETATM   10  C13 UNL     1      -8.558  21.713  78.277  1.00  0.00     0.001 C 
HETATM   11  C14 UNL     1      -9.889  21.044  78.173  1.00  0.00     0.014 C 
HETATM   12  C15 UNL     1      -9.247  18.776  78.959  1.00  0.00     0.137 C 
ENDROOT
BRANCH   2  13
HETATM   13  C2  UNL     1      -8.227  16.884  81.027  1.00  0.00     0.374 C 
BRANCH  13  14
HETATM   14  N1  UNL     1      -8.654  16.942  82.379  1.00  0.00     0.097 N 
HETATM   15  C3  UNL     1      -7.603  16.882  83.349  1.00  0.00     0.273 C 
HETATM   16  C4  UNL     1      -7.896  17.939  84.403  1.00  0.00     0.032 C 
HETATM   17  C5  UNL     1      -9.367  18.247  84.191  1.00  0.00     0.032 C 
HETATM   18  C6  UNL     1      -9.595  17.937  82.725  1.00  0.00     0.273 C 
ENDBRANCH  13  14
ENDBRANCH   2  13
BRANCH   6  19
HETATM   19  O2  UNL     1     -11.181  19.751  75.971  1.00  0.00    -0.395 OA
ATOM     20  H2  UNL     1     -10.869  20.649  75.989  1.00  0.00     0.210 HD
ENDBRANCH   6  19
TORSDOF 3
ENDMDL
MODEL 2
REMARK VINA RESULT: -7.575461863      2.225      5.235
REMARK  3 active torsions:
REMARK  status: ('A' for Active; 'I' for Inactive)
REMARK    1  A    between atoms: C1_2  and  C2_3 
REMARK       I    between atoms: C1_2  and  N2_9 
REMARK    2  A    between atoms: C2_3  and  N1_4 
REMARK    3  A    between atoms: C9_12  and  O2_13 
ROOT
HETATM    1  O1  UNL     1      -8.798  20.692  75.588  1.00  0.00    -0.271 OA
HETATM    2  C1  UNL     1      -8.643  20.358  76.787  1.00  0.00     0.248 C 
HETATM    3  N2  UNL     1      -9.333  19.162  77.228  1.00  0.00    -0.350 N 
HETATM    4  C7  UNL     1     -10.124  18.510  76.232  1.00  0.00     0.128 C 
HETATM    5  C8  UNL     1     -11.285  17.804  76.878  1.00  0.00     0.052 C 
HETATM    6  C9  UNL     1     -10.668  16.851  77.895  1.00  0.00     0.130 C 
HETATM    7  C10 UNL     1     -10.078  17.622  79.045  1.00  0.00     0.002 C 
HETATM    8  C11 UNL     1     -11.141  18.105  80.007  1.00  0.00     0.014 C 
HETATM    9  C12 UNL     1     -10.465  18.161  81.345  1.00  0.00     0.001 C 
HETATM   10  C13 UNL     1      -9.293  17.221  81.283  1.00  0.00     0.001 C 
HETATM   11  C14 UNL     1      -9.334  16.617  79.919  1.00  0.00     0.014 C 
HETATM   12  C15 UNL     1      -9.194  18.696  78.566  1.00  0.00     0.137 C 
ENDROOT
BRANCH   2  13
HETATM   13  C2  UNL     1      -7.797  21.169  77.654  1.00  0.00     0.374 C 
BRANCH  13  14
HETATM   14  N1  UNL     1      -6.448  20.743  77.758  1.00  0.00     0.097 N 
HETATM   15  C3  UNL     1      -5.505  21.532  77.024  1.00  0.00     0.273 C 
HETATM   16  C4  UNL     1      -4.307  21.769  77.931  1.00  0.00     0.032 C 
HETATM   17  C5  UNL     1      -4.460  20.702  79.000  1.00  0.00     0.032 C 
HETATM   18  C6  UNL     1      -5.953  20.448  79.048  1.00  0.00     0.273 C 
ENDBRANCH  13  14
ENDBRANCH   2  13
BRANCH   6  19
HETATM   19  O2  UNL     1     -11.540  15.864  78.258  1.00  0.00    -0.395 OA
ATOM     20  H2  UNL     1     -11.339  15.041  77.828  1.00  0.00     0.210 HD
ENDBRANCH   6  19
TORSDOF 3
ENDMDL
MODEL 3
REMARK VINA RESULT: -7.321440359      1.850      5.437
REMARK  3 active torsions:
REMARK  status: ('A' for Active; 'I' for Inactive)
REMARK    1  A    between atoms: C1_2  and  C2_3 
REMARK       I    between atoms: C1_2  and  N2_9 
REMARK    2  A    between atoms: C2_3  and  N1_4 
REMARK    3  A    between atoms: C9_12  and  O2_13 
ROOT
HETATM    1  O1  UNL     1      -9.936  20.670  76.800  1.00  0.00    -0.271 OA
HETATM    2  C1  UNL     1      -9.338  20.330  77.848  1.00  0.00     0.248 C 
HETATM    3  N2  UNL     1      -9.775  19.103  78.483  1.00  0.00    -0.350 N 
HETATM    4  C7  UNL     1     -10.856  18.430  77.834  1.00  0.00     0.128 C 
HETATM    5  C8  UNL     1     -11.672  17.672  78.845  1.00  0.00     0.052 C 
HETATM    6  C9  UNL     1     -10.692  16.734  79.538  1.00  0.00     0.130 C 
HETATM    7  C10 UNL     1      -9.745  17.516  80.409  1.00  0.00     0.002 C 
HETATM    8  C11 UNL     1     -10.392  17.946  81.706  1.00  0.00     0.014 C 
HETATM    9  C12 UNL     1      -9.272  18.014  82.701  1.00  0.00     0.001 C 
HETATM   10  C13 UNL     1      -8.175  17.123  82.188  1.00  0.00     0.001 C 
HETATM   11  C14 UNL     1      -8.698  16.532  80.921  1.00  0.00     0.014 C 
HETATM   12  C15 UNL     1      -9.137  18.630  79.664  1.00  0.00     0.137 C 
ENDROOT
BRANCH   2  13
HETATM   13  C2  UNL     1      -8.259  21.165  78.361  1.00  0.00     0.374 C 
BRANCH  13  14
HETATM   14  N1  UNL     1      -6.950  20.759  77.996  1.00  0.00     0.097 N 
HETATM   15  C3  UNL     1      -6.408  21.421  76.847  1.00  0.00     0.273 C 
HETATM   16  C4  UNL     1      -4.971  21.797  77.175  1.00  0.00     0.032 C 
HETATM   17  C5  UNL     1      -4.639  20.912  78.363  1.00  0.00     0.032 C 
HETATM   18  C6  UNL     1      -5.982  20.671  79.022  1.00  0.00     0.273 C 
ENDBRANCH  13  14
ENDBRANCH   2  13
BRANCH   6  19
HETATM   19  O2  UNL     1     -11.335  15.709  80.174  1.00  0.00    -0.395 OA
ATOM     20  H2  UNL     1     -12.175  15.519  79.774  1.00  0.00     0.210 HD
ENDBRANCH   6  19
TORSDOF 3
ENDMDL
MODEL 4
REMARK VINA RESULT: -7.145697596      1.432      5.476
REMARK  3 active torsions:
REMARK  status: ('A' for Active; 'I' for Inactive)
REMARK    1  A    between atoms: C1_2  and  C2_3 
REMARK       I    between atoms: C1_2  and  N2_9 
REMARK    2  A    between atoms: C2_3  and  N1_4 
REMARK    3  A    between atoms: C9_12  and  O2_13 
ROOT
HETATM    1  O1  UNL     1     -10.577  19.533  77.239  1.00  0.00    -0.271 OA
HETATM    2  C1  UNL     1      -9.992  19.523  78.349  1.00  0.00     0.248 C 
HETATM    3  N2  UNL     1      -9.806  18.231  78.979  1.00  0.00    -0.350 N 
HETATM    4  C7  UNL     1     -10.330  17.116  78.255  1.00  0.00     0.128 C 
HETATM    5  C8  UNL     1     -10.742  16.029  79.210  1.00  0.00     0.052 C 
HETATM    6  C9  UNL     1      -9.493  15.705  80.020  1.00  0.00     0.130 C 
HETATM    7  C10 UNL     1      -9.161  16.842  80.949  1.00  0.00     0.002 C 
HETATM    8  C11 UNL     1     -10.057  16.859  82.167  1.00  0.00     0.014 C 
HETATM    9  C12 UNL     1      -9.227  17.467  83.258  1.00  0.00     0.001 C 
HETATM   10  C13 UNL     1      -7.787  17.265  82.878  1.00  0.00     0.001 C 
HETATM   11  C14 UNL     1      -7.814  16.516  81.587  1.00  0.00     0.014 C 
HETATM   12  C15 UNL     1      -9.133  18.124  80.228  1.00  0.00     0.137 C 
ENDROOT
BRANCH   2  13
HETATM   13  C2  UNL     1      -9.540  20.780  78.932  1.00  0.00     0.374 C 
BRANCH  13  14
HETATM   14  N1  UNL     1      -8.347  21.312  78.380  1.00  0.00     0.097 N 
HETATM   15  C3  UNL     1      -7.137  20.846  78.988  1.00  0.00     0.273 C 
HETATM   16  C4  UNL     1      -6.161  20.521  77.867  1.00  0.00     0.032 C 
HETATM   17  C5  UNL     1      -6.741  21.256  76.673  1.00  0.00     0.032 C 
HETATM   18  C6  UNL     1      -8.225  21.321  76.972  1.00  0.00     0.273 C 
ENDBRANCH  13  14
ENDBRANCH   2  13
BRANCH   6  19
HETATM   19  O2  UNL     1      -9.585  14.483  80.626  1.00  0.00    -0.395 OA
ATOM     20  H2  UNL     1      -8.746  14.195  80.966  1.00  0.00     0.210 HD
ENDBRANCH   6  19
TORSDOF 3
ENDMDL
MODEL 5
REMARK VINA RESULT: -7.029583065      1.211      1.664
REMARK  3 active torsions:
REMARK  status: ('A' for Active; 'I' for Inactive)
REMARK    1  A    between atoms: C1_2  and  C2_3 
REMARK       I    between atoms: C1_2  and  N2_9 
REMARK    2  A    between atoms: C2_3  and  N1_4 
REMARK    3  A    between atoms: C9_12  and  O2_13 
ROOT
HETATM    1  O1  UNL     1     -12.006  16.176  79.740  1.00  0.00    -0.271 OA
HETATM    2  C1  UNL     1     -11.349  17.218  79.976  1.00  0.00     0.248 C 
HETATM    3  N2  UNL     1     -10.948  18.012  78.832  1.00  0.00    -0.350 N 
HETATM    4  C7  UNL     1     -11.345  17.497  77.560  1.00  0.00     0.128 C 
HETATM    5  C8  UNL     1     -10.353  17.906  76.505  1.00  0.00     0.052 C 
HETATM    6  C9  UNL     1     -10.303  19.428  76.564  1.00  0.00     0.130 C 
HETATM    7  C10 UNL     1      -9.632  19.883  77.832  1.00  0.00     0.002 C 
HETATM    8  C11 UNL     1      -8.128  19.745  77.758  1.00  0.00     0.014 C 
HETATM    9  C12 UNL     1      -7.589  20.826  78.647  1.00  0.00     0.001 C 
HETATM   10  C13 UNL     1      -8.657  21.880  78.752  1.00  0.00     0.001 C 
HETATM   11  C14 UNL     1      -9.780  21.400  77.895  1.00  0.00     0.014 C 
HETATM   12  C15 UNL     1     -10.220  19.223  79.009  1.00  0.00     0.137 C 
ENDROOT
BRANCH   2  13
HETATM   13  C2  UNL     1     -11.033  17.569  81.354  1.00  0.00     0.374 C 
BRANCH  13  14
HETATM   14  N1  UNL     1      -9.943  16.864  81.927  1.00  0.00     0.097 N 
HETATM   15  C3  UNL     1      -8.898  16.519  81.012  1.00  0.00     0.273 C 
HETATM   16  C4  UNL     1      -7.575  16.834  81.694  1.00  0.00     0.032 C 
HETATM   17  C5  UNL     1      -7.951  16.932  83.161  1.00  0.00     0.032 C 
HETATM   18  C6  UNL     1      -9.403  17.362  83.134  1.00  0.00     0.273 C 
ENDBRANCH  13  14
ENDBRANCH   2  13
BRANCH   6  19
HETATM   19  O2  UNL     1      -9.779  19.962  75.420  1.00  0.00    -0.395 OA
ATOM     20  H2  UNL     1     -10.275  20.716  75.124  1.00  0.00     0.210 HD
ENDBRANCH   6  19
TORSDOF 3
ENDMDL
