MODEL 1
REMARK VINA RESULT: -7.506593882      0.000      0.000
REMARK  3 active torsions:
REMARK  status: ('A' for Active; 'I' for Inactive)
REMARK    1  A    between atoms: N1_1  and  C1_5 
REMARK       I    between atoms: N2_8  and  C4_9 
REMARK    2  A    between atoms: C4_9  and  C5_11 
REMARK    3  A    between atoms: N3_15  and  C9_16 
ROOT
HETATM    1  C5  UNL     1     -10.473  17.763  78.391  1.00  0.00     0.314 C 
HETATM    2  C6  UNL     1     -10.942  16.646  77.520  1.00  0.00     0.047 C 
HETATM    3  C7  UNL     1     -11.643  17.256  76.352  1.00  0.00     0.033 C 
HETATM    4  C8  UNL     1     -11.929  18.669  76.803  1.00  0.00     0.274 C 
HETATM    5  N3  UNL     1     -11.066  18.950  77.897  1.00  0.00     0.106 N 
ENDROOT
BRANCH   1   6
HETATM    6  C4  UNL     1     -10.923  17.465  79.792  1.00  0.00     0.253 C 
HETATM    7  N2  UNL     1     -10.000  17.229  80.837  1.00  0.00    -0.348 N 
HETATM    8  C3  UNL     1     -10.362  16.938  82.204  1.00  0.00     0.128 C 
HETATM    9  C15 UNL     1      -8.564  17.251  80.669  1.00  0.00     0.158 C 
HETATM   10  C2  UNL     1      -9.141  17.296  83.024  1.00  0.00     0.054 C 
HETATM   11  C1  UNL     1      -7.975  17.284  82.061  1.00  0.00     0.203 C 
HETATM   12  O1  UNL     1     -12.178  17.433  80.002  1.00  0.00    -0.271 OA
BRANCH  11  13
HETATM   13  N1  UNL     1      -7.171  16.116  82.347  1.00  0.00    -0.073 N 
ATOM     14  H13 UNL     1      -6.226  16.351  82.648  1.00  0.00     0.274 HD
ATOM     15  H12 UNL     1      -7.467  15.631  83.194  1.00  0.00     0.274 HD
ATOM     16  H11 UNL     1      -7.184  15.515  81.522  1.00  0.00     0.274 HD
ENDBRANCH  11  13
ENDBRANCH   1   6
BRANCH   5  17
HETATM   17  C9  UNL     1     -10.142  20.033  77.659  1.00  0.00     0.224 C 
HETATM   18  C10 UNL     1      -9.048  19.659  76.694  1.00  0.00     0.036 C 
HETATM   19  C11 UNL     1      -8.081  20.805  76.580  1.00  0.00     0.002 C 
HETATM   20  C12 UNL     1      -7.414  20.962  77.939  1.00  0.00     0.000 C 
HETATM   21  C13 UNL     1      -8.491  21.474  78.880  1.00  0.00     0.002 C 
HETATM   22  C14 UNL     1      -9.641  20.508  78.976  1.00  0.00     0.036 C 
ENDBRANCH   5  17
TORSDOF 3
ENDMDL
MODEL 2
REMARK VINA RESULT: -7.285569187      1.664      2.325
REMARK  3 active torsions:
REMARK  status: ('A' for Active; 'I' for Inactive)
REMARK    1  A    between atoms: N1_1  and  C1_5 
REMARK       I    between atoms: N2_8  and  C4_9 
REMARK    2  A    between atoms: C4_9  and  C5_11 
REMARK    3  A    between atoms: N3_15  and  C9_16 
ROOT
HETATM    1  C5  UNL     1      -8.934  19.086  79.079  1.00  0.00     0.314 C 
HETATM    2  C6  UNL     1      -9.826  18.401  78.098  1.00  0.00     0.047 C 
HETATM    3  C7  UNL     1     -10.126  19.378  77.010  1.00  0.00     0.033 C 
HETATM    4  C8  UNL     1      -9.754  20.712  77.613  1.00  0.00     0.274 C 
HETATM    5  N3  UNL     1      -8.901  20.456  78.721  1.00  0.00     0.106 N 
ENDROOT
BRANCH   1   6
HETATM    6  C4  UNL     1      -9.526  18.888  80.444  1.00  0.00     0.253 C 
HETATM    7  N2  UNL     1      -9.044  17.894  81.328  1.00  0.00    -0.348 N 
HETATM    8  C3  UNL     1      -9.564  17.649  82.652  1.00  0.00     0.128 C 
HETATM    9  C15 UNL     1      -7.960  16.990  81.015  1.00  0.00     0.158 C 
HETATM   10  C2  UNL     1      -8.454  16.930  83.389  1.00  0.00     0.054 C 
HETATM   11  C1  UNL     1      -7.559  16.341  82.321  1.00  0.00     0.203 C 
HETATM   12  O1  UNL     1     -10.484  19.657  80.777  1.00  0.00    -0.271 OA
BRANCH  11  13
HETATM   13  N1  UNL     1      -7.761  14.909  82.309  1.00  0.00    -0.073 N 
ATOM     14  H13 UNL     1      -8.307  14.580  83.105  1.00  0.00     0.274 HD
ATOM     15  H12 UNL     1      -8.399  14.606  81.572  1.00  0.00     0.274 HD
ATOM     16  H11 UNL     1      -6.846  14.462  82.247  1.00  0.00     0.274 HD
ENDBRANCH  11  13
ENDBRANCH   1   6
BRANCH   5  17
HETATM   17  C9  UNL     1      -7.578  21.015  78.590  1.00  0.00     0.224 C 
HETATM   18  C10 UNL     1      -7.178  21.226  77.154  1.00  0.00     0.036 C 
HETATM   19  C11 UNL     1      -5.756  21.714  77.106  1.00  0.00     0.002 C 
HETATM   20  C12 UNL     1      -4.879  20.586  77.630  1.00  0.00     0.000 C 
HETATM   21  C13 UNL     1      -5.184  20.469  79.113  1.00  0.00     0.002 C 
HETATM   22  C14 UNL     1      -6.636  20.150  79.352  1.00  0.00     0.036 C 
ENDBRANCH   5  17
TORSDOF 3
ENDMDL
MODEL 3
REMARK VINA RESULT: -7.149966727      1.563      2.299
REMARK  3 active torsions:
REMARK  status: ('A' for Active; 'I' for Inactive)
REMARK    1  A    between atoms: N1_1  and  C1_5 
REMARK       I    between atoms: N2_8  and  C4_9 
REMARK    2  A    between atoms: C4_9  and  C5_11 
REMARK    3  A    between atoms: N3_15  and  C9_16 
ROOT
HETATM    1  C5  UNL     1     -10.108  17.034  80.228  1.00  0.00     0.314 C 
HETATM    2  C6  UNL     1     -10.298  15.618  79.796  1.00  0.00     0.047 C 
HETATM    3  C7  UNL     1     -10.609  15.635  78.336  1.00  0.00     0.033 C 
HETATM    4  C8  UNL     1     -11.011  17.068  78.072  1.00  0.00     0.274 C 
HETATM    5  N3  UNL     1     -10.517  17.854  79.149  1.00  0.00     0.106 N 
ENDROOT
BRANCH   1   6
HETATM    6  C4  UNL     1     -10.963  17.255  81.442  1.00  0.00     0.253 C 
HETATM    7  N2  UNL     1     -10.399  17.474  82.720  1.00  0.00    -0.348 N 
HETATM    8  C3  UNL     1     -11.159  17.694  83.928  1.00  0.00     0.128 C 
HETATM    9  C15 UNL     1      -8.977  17.507  82.983  1.00  0.00     0.158 C 
HETATM   10  C2  UNL     1     -10.208  18.395  84.874  1.00  0.00     0.054 C 
HETATM   11  C1  UNL     1      -8.816  18.087  84.370  1.00  0.00     0.203 C 
HETATM   12  O1  UNL     1     -12.224  17.238  81.272  1.00  0.00    -0.271 OA
BRANCH  11  13
HETATM   13  N1  UNL     1      -8.204  17.153  85.289  1.00  0.00    -0.073 N 
ATOM     14  H13 UNL     1      -8.181  17.500  86.248  1.00  0.00     0.274 HD
ATOM     15  H12 UNL     1      -8.781  16.328  85.457  1.00  0.00     0.274 HD
ATOM     16  H11 UNL     1      -7.277  16.920  84.932  1.00  0.00     0.274 HD
ENDBRANCH  11  13
ENDBRANCH   1   6
BRANCH   5  17
HETATM   17  C9  UNL     1      -9.559  18.859  78.756  1.00  0.00     0.224 C 
HETATM   18  C10 UNL     1      -9.698  20.132  79.547  1.00  0.00     0.036 C 
HETATM   19  C11 UNL     1      -8.734  21.153  79.009  1.00  0.00     0.002 C 
HETATM   20  C12 UNL     1      -9.179  21.483  77.590  1.00  0.00     0.000 C 
HETATM   21  C13 UNL     1      -8.906  20.238  76.764  1.00  0.00     0.002 C 
HETATM   22  C14 UNL     1      -9.673  19.053  77.285  1.00  0.00     0.036 C 
ENDBRANCH   5  17
TORSDOF 3
ENDMDL
MODEL 4
REMARK VINA RESULT: -7.081134385      1.476      1.902
REMARK  3 active torsions:
REMARK  status: ('A' for Active; 'I' for Inactive)
REMARK    1  A    between atoms: N1_1  and  C1_5 
REMARK       I    between atoms: N2_8  and  C4_9 
REMARK    2  A    between atoms: C4_9  and  C5_11 
REMARK    3  A    between atoms: N3_15  and  C9_16 
ROOT
HETATM    1  C5  UNL     1     -10.370  17.310  80.072  1.00  0.00     0.314 C 
HETATM    2  C6  UNL     1     -10.113  15.875  79.754  1.00  0.00     0.047 C 
HETATM    3  C7  UNL     1     -10.527  15.651  78.337  1.00  0.00     0.033 C 
HETATM    4  C8  UNL     1     -11.400  16.844  78.026  1.00  0.00     0.274 C 
HETATM    5  N3  UNL     1     -11.112  17.846  78.992  1.00  0.00     0.106 N 
ENDROOT
BRANCH   1   6
HETATM    6  C4  UNL     1     -11.151  17.357  81.353  1.00  0.00     0.253 C 
HETATM    7  N2  UNL     1     -10.518  17.527  82.606  1.00  0.00    -0.348 N 
HETATM    8  C3  UNL     1     -11.205  17.582  83.875  1.00  0.00     0.128 C 
HETATM    9  C15 UNL     1      -9.089  17.669  82.778  1.00  0.00     0.158 C 
HETATM   10  C2  UNL     1     -10.253  18.291  84.813  1.00  0.00     0.054 C 
HETATM   11  C1  UNL     1      -8.879  18.152  84.196  1.00  0.00     0.203 C 
HETATM   12  O1  UNL     1     -12.415  17.237  81.264  1.00  0.00    -0.271 OA
BRANCH  11  13
HETATM   13  N1  UNL     1      -8.124  17.209  84.992  1.00  0.00    -0.073 N 
ATOM     14  H13 UNL     1      -7.322  17.637  85.455  1.00  0.00     0.274 HD
ATOM     15  H12 UNL     1      -8.624  16.912  85.831  1.00  0.00     0.274 HD
ATOM     16  H11 UNL     1      -7.862  16.428  84.391  1.00  0.00     0.274 HD
ENDBRANCH  11  13
ENDBRANCH   1   6
BRANCH   5  17
HETATM   17  C9  UNL     1     -10.575  19.065  78.437  1.00  0.00     0.224 C 
HETATM   18  C10 UNL     1      -9.736  18.823  77.211  1.00  0.00     0.036 C 
HETATM   19  C11 UNL     1      -9.139  20.127  76.758  1.00  0.00     0.002 C 
HETATM   20  C12 UNL     1      -8.177  20.580  77.849  1.00  0.00     0.000 C 
HETATM   21  C13 UNL     1      -9.040  20.957  79.040  1.00  0.00     0.002 C 
HETATM   22  C14 UNL     1      -9.855  19.787  79.521  1.00  0.00     0.036 C 
ENDBRANCH   5  17
TORSDOF 3
ENDMDL
MODEL 5
REMARK VINA RESULT: -6.733644496      1.858      3.958
REMARK  3 active torsions:
REMARK  status: ('A' for Active; 'I' for Inactive)
REMARK    1  A    between atoms: N1_1  and  C1_5 
REMARK       I    between atoms: N2_8  and  C4_9 
REMARK    2  A    between atoms: C4_9  and  C5_11 
REMARK    3  A    between atoms: N3_15  and  C9_16 
ROOT
HETATM    1  C5  UNL     1     -10.177  19.067  79.445  1.00  0.00     0.314 C 
HETATM    2  C6  UNL     1      -9.234  20.223  79.437  1.00  0.00     0.047 C 
HETATM    3  C7  UNL     1      -9.034  20.625  78.013  1.00  0.00     0.033 C 
HETATM    4  C8  UNL     1      -9.522  19.428  77.231  1.00  0.00     0.274 C 
HETATM    5  N3  UNL     1     -10.338  18.655  78.101  1.00  0.00     0.106 N 
ENDROOT
BRANCH   1   6
HETATM    6  C4  UNL     1      -9.559  17.984  80.282  1.00  0.00     0.253 C 
HETATM    7  N2  UNL     1      -9.782  17.901  81.677  1.00  0.00    -0.348 N 
HETATM    8  C3  UNL     1      -9.221  16.889  82.540  1.00  0.00     0.128 C 
HETATM    9  C15 UNL     1     -10.606  18.827  82.421  1.00  0.00     0.158 C 
HETATM   10  C2  UNL     1     -10.120  16.863  83.758  1.00  0.00     0.054 C 
HETATM   11  C1  UNL     1     -10.837  18.194  83.775  1.00  0.00     0.203 C 
HETATM   12  O1  UNL     1      -8.823  17.138  79.681  1.00  0.00    -0.271 OA
BRANCH  11  13
HETATM   13  N1  UNL     1     -10.287  18.985  84.853  1.00  0.00    -0.073 N 
ATOM     14  H13 UNL     1     -10.937  19.691  85.197  1.00  0.00     0.274 HD
ATOM     15  H12 UNL     1     -10.188  18.456  85.720  1.00  0.00     0.274 HD
ATOM     16  H11 UNL     1      -9.405  19.385  84.532  1.00  0.00     0.274 HD
ENDBRANCH  11  13
ENDBRANCH   1   6
BRANCH   5  17
HETATM   17  C9  UNL     1     -11.709  18.529  77.668  1.00  0.00     0.224 C 
HETATM   18  C10 UNL     1     -12.339  17.233  78.106  1.00  0.00     0.036 C 
HETATM   19  C11 UNL     1     -13.725  17.141  77.531  1.00  0.00     0.002 C 
HETATM   20  C12 UNL     1     -13.576  17.050  76.018  1.00  0.00     0.000 C 
HETATM   21  C13 UNL     1     -13.072  18.409  75.564  1.00  0.00     0.002 C 
HETATM   22  C14 UNL     1     -11.747  18.744  76.196  1.00  0.00     0.036 C 
ENDBRANCH   5  17
TORSDOF 3
ENDMDL
