MODEL 1
REMARK VINA RESULT: -7.168600319      0.000      0.000
REMARK  4 active torsions:
REMARK  status: ('A' for Active; 'I' for Inactive)
REMARK       I    between atoms: C1_2  and  N1_3 
REMARK    1  A    between atoms: C1_2  and  C13_18 
REMARK    2  A    between atoms: N1_3  and  C2_5 
REMARK    3  A    between atoms: C7_11  and  O2_12 
REMARK    4  A    between atoms: O2_12  and  C8_13 
ROOT
HETATM    1  C2  UNL     1       2.119  26.079   7.053  1.00  0.00     0.068 A 
HETATM    2  C3  UNL     1       2.843  25.086   6.462  1.00  0.00     0.035 A 
HETATM    3  C4  UNL     1       4.219  25.114   6.271  1.00  0.00     0.044 A 
HETATM    4  C5  UNL     1       4.890  26.207   6.702  1.00  0.00     0.119 A 
HETATM    5  F1  UNL     1       6.238  26.280   6.537  1.00  0.00    -0.206 F 
HETATM    6  C6  UNL     1       4.235  27.228   7.297  1.00  0.00     0.081 A 
HETATM    7  C7  UNL     1       2.839  27.224   7.503  1.00  0.00     0.099 A 
ENDROOT
BRANCH   1   8
HETATM    8  N1  UNL     1       0.733  26.109   7.276  1.00  0.00    -0.324 N 
HETATM    9  C1  UNL     1       0.100  25.951   8.515  1.00  0.00     0.226 C 
HETATM   10  O1  UNL     1       0.697  25.762   9.580  1.00  0.00    -0.273 OA
ATOM     11  H1  UNL     1       0.135  26.259   6.463  1.00  0.00     0.169 HD
BRANCH   9  12
HETATM   12  C13 UNL     1      -1.405  26.004   8.627  1.00  0.00     0.078 C 
HETATM   13  C14 UNL     1      -1.763  26.904   9.818  1.00  0.00     0.014 C 
HETATM   14  C15 UNL     1      -3.255  27.130   9.788  1.00  0.00     0.001 C 
HETATM   15  C16 UNL     1      -4.033  25.838   9.811  1.00  0.00     0.000 C 
HETATM   16  C17 UNL     1      -3.487  24.789   8.901  1.00  0.00     0.001 C 
HETATM   17  C18 UNL     1      -1.988  24.649   8.958  1.00  0.00     0.014 C 
ENDBRANCH   9  12
ENDBRANCH   1   8
BRANCH   7  18
HETATM   18  O2  UNL     1       2.254  28.233   8.081  1.00  0.00    -0.344 OA
BRANCH  18  19
HETATM   19  C8  UNL     1       1.675  29.234   8.656  1.00  0.00     0.129 C 
HETATM   20  C9  UNL     1       1.425  29.048  10.173  1.00  0.00     0.032 C 
HETATM   21  C10 UNL     1       0.218  29.878  10.461  1.00  0.00     0.002 C 
HETATM   22  C11 UNL     1      -0.193  30.559   9.180  1.00  0.00     0.002 C 
HETATM   23  C12 UNL     1       0.266  29.591   8.139  1.00  0.00     0.032 C 
ENDBRANCH  18  19
ENDBRANCH   7  18
TORSDOF 4
ENDMDL
MODEL 2
REMARK VINA RESULT: -6.916182239      0.961      1.418
REMARK  4 active torsions:
REMARK  status: ('A' for Active; 'I' for Inactive)
REMARK       I    between atoms: C1_2  and  N1_3 
REMARK    1  A    between atoms: C1_2  and  C13_18 
REMARK    2  A    between atoms: N1_3  and  C2_5 
REMARK    3  A    between atoms: C7_11  and  O2_12 
REMARK    4  A    between atoms: O2_12  and  C8_13 
ROOT
HETATM    1  C2  UNL     1       2.563  25.804   7.754  1.00  0.00     0.068 A 
HETATM    2  C3  UNL     1       3.218  24.830   7.060  1.00  0.00     0.035 A 
HETATM    3  C4  UNL     1       4.276  25.054   6.187  1.00  0.00     0.044 A 
HETATM    4  C5  UNL     1       4.687  26.331   6.014  1.00  0.00     0.119 A 
HETATM    5  F1  UNL     1       5.719  26.600   5.170  1.00  0.00    -0.206 F 
HETATM    6  C6  UNL     1       4.082  27.345   6.672  1.00  0.00     0.081 A 
HETATM    7  C7  UNL     1       3.006  27.145   7.563  1.00  0.00     0.099 A 
ENDROOT
BRANCH   1   8
HETATM    8  N1  UNL     1       1.492  25.642   8.648  1.00  0.00    -0.324 N 
HETATM    9  C1  UNL     1       0.145  25.896   8.365  1.00  0.00     0.226 C 
HETATM   10  O1  UNL     1      -0.271  26.302   7.274  1.00  0.00    -0.273 OA
ATOM     11  H1  UNL     1       1.716  25.310   9.586  1.00  0.00     0.169 HD
BRANCH   9  12
HETATM   12  C13 UNL     1      -0.921  25.682   9.415  1.00  0.00     0.078 C 
HETATM   13  C14 UNL     1      -1.786  24.492   8.978  1.00  0.00     0.014 C 
HETATM   14  C15 UNL     1      -2.700  24.145  10.129  1.00  0.00     0.001 C 
HETATM   15  C16 UNL     1      -3.542  25.318  10.567  1.00  0.00     0.000 C 
HETATM   16  C17 UNL     1      -2.786  26.601  10.663  1.00  0.00     0.001 C 
HETATM   17  C18 UNL     1      -1.866  26.858   9.498  1.00  0.00     0.014 C 
ENDBRANCH   9  12
ENDBRANCH   1   8
BRANCH   7  18
HETATM   18  O2  UNL     1       2.457  28.155   8.172  1.00  0.00    -0.344 OA
BRANCH  18  19
HETATM   19  C8  UNL     1       1.911  29.157   8.777  1.00  0.00     0.129 C 
HETATM   20  C9  UNL     1       1.453  28.861  10.227  1.00  0.00     0.032 C 
HETATM   21  C10 UNL     1       0.308  29.790  10.458  1.00  0.00     0.002 C 
HETATM   22  C11 UNL     1       0.132  30.628   9.217  1.00  0.00     0.002 C 
HETATM   23  C12 UNL     1       0.621  29.714   8.140  1.00  0.00     0.032 C 
ENDBRANCH  18  19
ENDBRANCH   7  18
TORSDOF 4
ENDMDL
MODEL 3
REMARK VINA RESULT: -6.707233995      2.692      6.593
REMARK  4 active torsions:
REMARK  status: ('A' for Active; 'I' for Inactive)
REMARK       I    between atoms: C1_2  and  N1_3 
REMARK    1  A    between atoms: C1_2  and  C13_18 
REMARK    2  A    between atoms: N1_3  and  C2_5 
REMARK    3  A    between atoms: C7_11  and  O2_12 
REMARK    4  A    between atoms: O2_12  and  C8_13 
ROOT
HETATM    1  C2  UNL     1       0.086  28.881   8.630  1.00  0.00     0.068 A 
HETATM    2  C3  UNL     1       0.259  30.196   8.947  1.00  0.00     0.035 A 
HETATM    3  C4  UNL     1      -0.599  30.936   9.753  1.00  0.00     0.044 A 
HETATM    4  C5  UNL     1      -1.684  30.306  10.258  1.00  0.00     0.119 A 
HETATM    5  F1  UNL     1      -2.552  30.989  11.052  1.00  0.00    -0.206 F 
HETATM    6  C6  UNL     1      -1.916  29.003   9.984  1.00  0.00     0.081 A 
HETATM    7  C7  UNL     1      -1.061  28.229   9.169  1.00  0.00     0.099 A 
ENDROOT
BRANCH   1   8
HETATM    8  N1  UNL     1       0.914  28.081   7.826  1.00  0.00    -0.324 N 
HETATM    9  C1  UNL     1       2.315  28.082   7.839  1.00  0.00     0.226 C 
HETATM   10  O1  UNL     1       3.001  28.802   8.572  1.00  0.00    -0.273 OA
ATOM     11  H1  UNL     1       0.456  27.444   7.175  1.00  0.00     0.169 HD
BRANCH   9  12
HETATM   12  C13 UNL     1       3.098  27.171   6.923  1.00  0.00     0.078 C 
HETATM   13  C14 UNL     1       2.489  25.766   7.016  1.00  0.00     0.014 C 
HETATM   14  C15 UNL     1       3.127  24.919   5.941  1.00  0.00     0.001 C 
HETATM   15  C16 UNL     1       4.631  24.885   6.053  1.00  0.00     0.000 C 
HETATM   16  C17 UNL     1       5.246  26.217   6.323  1.00  0.00     0.001 C 
HETATM   17  C18 UNL     1       4.531  27.020   7.379  1.00  0.00     0.014 C 
ENDBRANCH   9  12
ENDBRANCH   1   8
BRANCH   7  18
HETATM   18  O2  UNL     1      -1.328  26.978   8.934  1.00  0.00    -0.344 OA
BRANCH  18  19
HETATM   19  C8  UNL     1      -1.592  25.735   8.701  1.00  0.00     0.129 C 
HETATM   20  C9  UNL     1      -3.032  25.467   8.198  1.00  0.00     0.032 C 
HETATM   21  C10 UNL     1      -3.341  24.082   8.659  1.00  0.00     0.002 C 
HETATM   22  C11 UNL     1      -2.120  23.542   9.360  1.00  0.00     0.002 C 
HETATM   23  C12 UNL     1      -1.491  24.782   9.910  1.00  0.00     0.032 C 
ENDBRANCH  18  19
ENDBRANCH   7  18
TORSDOF 4
ENDMDL
MODEL 4
REMARK VINA RESULT: -6.700255826      1.529      4.048
REMARK  4 active torsions:
REMARK  status: ('A' for Active; 'I' for Inactive)
REMARK       I    between atoms: C1_2  and  N1_3 
REMARK    1  A    between atoms: C1_2  and  C13_18 
REMARK    2  A    between atoms: N1_3  and  C2_5 
REMARK    3  A    between atoms: C7_11  and  O2_12 
REMARK    4  A    between atoms: O2_12  and  C8_13 
ROOT
HETATM    1  C2  UNL     1       2.451  27.715   8.188  1.00  0.00     0.068 A 
HETATM    2  C3  UNL     1       3.644  27.931   7.562  1.00  0.00     0.035 A 
HETATM    3  C4  UNL     1       4.361  26.963   6.869  1.00  0.00     0.044 A 
HETATM    4  C5  UNL     1       3.839  25.716   6.810  1.00  0.00     0.119 A 
HETATM    5  F1  UNL     1       4.504  24.736   6.143  1.00  0.00    -0.206 F 
HETATM    6  C6  UNL     1       2.660  25.434   7.407  1.00  0.00     0.081 A 
HETATM    7  C7  UNL     1       1.911  26.398   8.117  1.00  0.00     0.099 A 
ENDROOT
BRANCH   1   8
HETATM    8  N1  UNL     1       1.680  28.648   8.900  1.00  0.00    -0.324 N 
HETATM    9  C1  UNL     1       0.608  29.386   8.384  1.00  0.00     0.226 C 
HETATM   10  O1  UNL     1       0.205  29.304   7.218  1.00  0.00    -0.273 OA
ATOM     11  H1  UNL     1       1.922  28.801   9.878  1.00  0.00     0.169 HD
BRANCH   9  12
HETATM   12  C13 UNL     1      -0.148  30.363   9.253  1.00  0.00     0.078 C 
HETATM   13  C14 UNL     1       0.278  30.133  10.709  1.00  0.00     0.014 C 
HETATM   14  C15 UNL     1      -0.307  31.250  11.540  1.00  0.00     0.001 C 
HETATM   15  C16 UNL     1      -1.806  31.342  11.404  1.00  0.00     0.000 C 
HETATM   16  C17 UNL     1      -2.295  31.212  10.000  1.00  0.00     0.001 C 
HETATM   17  C18 UNL     1      -1.637  30.101   9.223  1.00  0.00     0.014 C 
ENDBRANCH   9  12
ENDBRANCH   1   8
BRANCH   7  18
HETATM   18  O2  UNL     1       0.781  26.076   8.675  1.00  0.00    -0.344 OA
BRANCH  18  19
HETATM   19  C8  UNL     1      -0.341  25.756   9.231  1.00  0.00     0.129 C 
HETATM   20  C9  UNL     1      -1.566  25.819   8.285  1.00  0.00     0.032 C 
HETATM   21  C10 UNL     1      -2.720  26.121   9.183  1.00  0.00     0.002 C 
HETATM   22  C11 UNL     1      -2.203  26.185  10.598  1.00  0.00     0.002 C 
HETATM   23  C12 UNL     1      -0.794  26.648  10.405  1.00  0.00     0.032 C 
ENDBRANCH  18  19
ENDBRANCH   7  18
TORSDOF 4
ENDMDL
MODEL 5
REMARK VINA RESULT: -6.657343748      1.498      4.262
REMARK  4 active torsions:
REMARK  status: ('A' for Active; 'I' for Inactive)
REMARK       I    between atoms: C1_2  and  N1_3 
REMARK    1  A    between atoms: C1_2  and  C13_18 
REMARK    2  A    between atoms: N1_3  and  C2_5 
REMARK    3  A    between atoms: C7_11  and  O2_12 
REMARK    4  A    between atoms: O2_12  and  C8_13 
ROOT
HETATM    1  C2  UNL     1       2.186  27.126   7.953  1.00  0.00     0.068 A 
HETATM    2  C3  UNL     1       3.435  27.148   7.406  1.00  0.00     0.035 A 
HETATM    3  C4  UNL     1       3.934  26.191   6.530  1.00  0.00     0.044 A 
HETATM    4  C5  UNL     1       3.121  25.162   6.196  1.00  0.00     0.119 A 
HETATM    5  F1  UNL     1       3.565  24.201   5.342  1.00  0.00    -0.206 F 
HETATM    6  C6  UNL     1       1.871  25.079   6.701  1.00  0.00     0.081 A 
HETATM    7  C7  UNL     1       1.340  26.037   7.592  1.00  0.00     0.099 A 
ENDROOT
BRANCH   1   8
HETATM    8  N1  UNL     1       1.626  28.060   8.838  1.00  0.00    -0.324 N 
HETATM    9  C1  UNL     1       0.904  29.204   8.472  1.00  0.00     0.226 C 
HETATM   10  O1  UNL     1       0.672  29.533   7.305  1.00  0.00    -0.273 OA
ATOM     11  H1  UNL     1       1.755  27.892   9.836  1.00  0.00     0.169 HD
BRANCH   9  12
HETATM   12  C13 UNL     1       0.348  30.137   9.522  1.00  0.00     0.078 C 
HETATM   13  C14 UNL     1       0.436  29.430  10.882  1.00  0.00     0.014 C 
HETATM   14  C15 UNL     1       0.089  30.442  11.947  1.00  0.00     0.001 C 
HETATM   15  C16 UNL     1      -1.267  31.065  11.728  1.00  0.00     0.000 C 
HETATM   16  C17 UNL     1      -1.532  31.452  10.311  1.00  0.00     0.001 C 
HETATM   17  C18 UNL     1      -1.124  30.408   9.304  1.00  0.00     0.014 C 
ENDBRANCH   9  12
ENDBRANCH   1   8
BRANCH   7  18
HETATM   18  O2  UNL     1       0.130  25.912   8.051  1.00  0.00    -0.344 OA
BRANCH  18  19
HETATM   19  C8  UNL     1      -1.073  25.789   8.506  1.00  0.00     0.129 C 
HETATM   20  C9  UNL     1      -1.377  26.647   9.760  1.00  0.00     0.032 C 
HETATM   21  C10 UNL     1      -2.433  25.885  10.491  1.00  0.00     0.002 C 
HETATM   22  C11 UNL     1      -2.768  24.660   9.679  1.00  0.00     0.002 C 
HETATM   23  C12 UNL     1      -1.479  24.377   8.977  1.00  0.00     0.032 C 
ENDBRANCH  18  19
ENDBRANCH   7  18
TORSDOF 4
ENDMDL
