MODEL 1
REMARK VINA RESULT: -6.851424011      0.000      0.000
REMARK  4 active torsions:
REMARK  status: ('A' for Active; 'I' for Inactive)
REMARK    1  A    between atoms: C4_5  and  O1_6 
REMARK    2  A    between atoms: O1_6  and  C5_7 
REMARK    3  A    between atoms: C10_15  and  C11_16 
REMARK    4  A    between atoms: C12_17  and  C13_18 
ROOT
HETATM    1 CL1  UNL     1       4.255  24.332   5.588  1.00  0.00    -0.084 Cl
HETATM    2  C1  UNL     1       3.552  25.596   6.553  1.00  0.00     0.035 A 
HETATM    3  C2  UNL     1       4.294  26.659   7.037  1.00  0.00     0.026 A 
HETATM    4  C3  UNL     1       3.727  27.645   7.794  1.00  0.00     0.039 A 
HETATM    5  C4  UNL     1       2.357  27.602   8.102  1.00  0.00     0.079 A 
HETATM    6  C10 UNL     1       1.610  26.506   7.596  1.00  0.00    -0.001 A 
HETATM    7  C18 UNL     1       2.206  25.531   6.841  1.00  0.00     0.038 A 
ENDROOT
BRANCH   5   8
HETATM    8  O1  UNL     1       1.808  28.521   8.811  1.00  0.00    -0.345 OA
BRANCH   8   9
HETATM    9  C5  UNL     1       1.252  29.453   9.532  1.00  0.00     0.132 C 
HETATM   10  C6  UNL     1       0.811  28.901  10.875  1.00  0.00     0.060 C 
HETATM   11  C7  UNL     1       0.054  29.893  11.689  1.00  0.00     0.235 C 
HETATM   12  N1  UNL     1      -1.129  30.268  10.940  1.00  0.00    -0.075 N 
HETATM   13  C8  UNL     1      -0.780  30.936   9.728  1.00  0.00     0.235 C 
ATOM     14  H12 UNL     1      -1.733  29.465  10.765  1.00  0.00     0.277 HD
ATOM     15  H11 UNL     1      -1.770  30.825  11.505  1.00  0.00     0.277 HD
HETATM   16  C9  UNL     1       0.146  30.202   8.831  1.00  0.00     0.060 C 
ENDBRANCH   8   9
ENDBRANCH   5   8
BRANCH   6  17
HETATM   17  C11 UNL     1       0.191  26.423   7.891  1.00  0.00     0.011 C 
HETATM   18  C12 UNL     1      -0.326  25.811   8.908  1.00  0.00    -0.021 C 
BRANCH  18  19
HETATM   19  C13 UNL     1      -1.800  25.754   9.166  1.00  0.00     0.008 C 
HETATM   20  C14 UNL     1      -2.137  25.023  10.429  1.00  0.00     0.008 C 
HETATM   21  C15 UNL     1      -2.102  26.078  11.512  1.00  0.00     0.001 C 
HETATM   22  C16 UNL     1      -2.743  27.257  10.811  1.00  0.00     0.001 C 
HETATM   23  C17 UNL     1      -2.320  27.149   9.383  1.00  0.00     0.008 C 
ENDBRANCH  18  19
ENDBRANCH   6  17
TORSDOF 4
ENDMDL
MODEL 2
REMARK VINA RESULT: -6.750006241      3.308      5.211
REMARK  4 active torsions:
REMARK  status: ('A' for Active; 'I' for Inactive)
REMARK    1  A    between atoms: C4_5  and  O1_6 
REMARK    2  A    between atoms: O1_6  and  C5_7 
REMARK    3  A    between atoms: C10_15  and  C11_16 
REMARK    4  A    between atoms: C12_17  and  C13_18 
ROOT
HETATM    1 CL1  UNL     1      -1.641  31.117   9.921  1.00  0.00    -0.084 Cl
HETATM    2  C1  UNL     1      -0.488  29.963   9.321  1.00  0.00     0.035 A 
HETATM    3  C2  UNL     1       0.807  30.316   8.983  1.00  0.00     0.026 A 
HETATM    4  C3  UNL     1       1.703  29.397   8.513  1.00  0.00     0.039 A 
HETATM    5  C4  UNL     1       1.324  28.052   8.361  1.00  0.00     0.079 A 
HETATM    6  C10 UNL     1      -0.006  27.707   8.714  1.00  0.00    -0.001 A 
HETATM    7  C18 UNL     1      -0.883  28.650   9.182  1.00  0.00     0.038 A 
ENDROOT
BRANCH   5   8
HETATM    8  O1  UNL     1       2.154  27.176   7.922  1.00  0.00    -0.345 OA
BRANCH   8   9
HETATM    9  C5  UNL     1       2.996  26.288   7.476  1.00  0.00     0.132 C 
HETATM   10  C6  UNL     1       4.258  26.956   6.963  1.00  0.00     0.060 C 
HETATM   11  C7  UNL     1       5.202  25.998   6.323  1.00  0.00     0.235 C 
HETATM   12  N1  UNL     1       4.520  25.390   5.198  1.00  0.00    -0.075 N 
HETATM   13  C8  UNL     1       3.404  24.614   5.632  1.00  0.00     0.235 C 
ATOM     14  H12 UNL     1       4.247  26.086   4.504  1.00  0.00     0.277 HD
ATOM     15  H11 UNL     1       5.159  24.841   4.624  1.00  0.00     0.277 HD
HETATM   16  C9  UNL     1       2.410  25.328   6.470  1.00  0.00     0.060 C 
ENDBRANCH   8   9
ENDBRANCH   5   8
BRANCH   6  17
HETATM   17  C11 UNL     1      -0.440  26.329   8.573  1.00  0.00     0.011 C 
HETATM   18  C12 UNL     1      -1.507  25.823   9.104  1.00  0.00    -0.021 C 
BRANCH  18  19
HETATM   19  C13 UNL     1      -1.909  24.391   8.927  1.00  0.00     0.008 C 
HETATM   20  C14 UNL     1      -2.124  23.687  10.231  1.00  0.00     0.008 C 
HETATM   21  C15 UNL     1      -3.575  23.935  10.574  1.00  0.00     0.001 C 
HETATM   22  C16 UNL     1      -4.237  23.802   9.219  1.00  0.00     0.001 C 
HETATM   23  C17 UNL     1      -3.245  24.333   8.238  1.00  0.00     0.008 C 
ENDBRANCH  18  19
ENDBRANCH   6  17
TORSDOF 4
ENDMDL
MODEL 3
REMARK VINA RESULT: -6.605348818      0.682      1.013
REMARK  4 active torsions:
REMARK  status: ('A' for Active; 'I' for Inactive)
REMARK    1  A    between atoms: C4_5  and  O1_6 
REMARK    2  A    between atoms: O1_6  and  C5_7 
REMARK    3  A    between atoms: C10_15  and  C11_16 
REMARK    4  A    between atoms: C12_17  and  C13_18 
ROOT
HETATM    1 CL1  UNL     1       4.257  24.435   5.646  1.00  0.00    -0.084 Cl
HETATM    2  C1  UNL     1       3.532  25.687   6.609  1.00  0.00     0.035 A 
HETATM    3  C2  UNL     1       4.021  26.981   6.633  1.00  0.00     0.026 A 
HETATM    4  C3  UNL     1       3.440  27.955   7.396  1.00  0.00     0.039 A 
HETATM    5  C4  UNL     1       2.314  27.660   8.184  1.00  0.00     0.079 A 
HETATM    6  C10 UNL     1       1.825  26.328   8.147  1.00  0.00    -0.001 A 
HETATM    7  C18 UNL     1       2.429  25.372   7.373  1.00  0.00     0.038 A 
ENDROOT
BRANCH   5   8
HETATM    8  O1  UNL     1       1.756  28.563   8.906  1.00  0.00    -0.345 OA
BRANCH   8   9
HETATM    9  C5  UNL     1       1.189  29.480   9.637  1.00  0.00     0.132 C 
HETATM   10  C6  UNL     1       0.844  28.934  11.010  1.00  0.00     0.060 C 
HETATM   11  C7  UNL     1       0.078  29.902  11.843  1.00  0.00     0.235 C 
HETATM   12  N1  UNL     1      -1.159  30.201  11.149  1.00  0.00    -0.075 N 
HETATM   13  C8  UNL     1      -0.905  30.861   9.909  1.00  0.00     0.235 C 
ATOM     14  H12 UNL     1      -1.728  29.364  11.020  1.00  0.00     0.277 HD
ATOM     15  H11 UNL     1      -1.799  30.735  11.736  1.00  0.00     0.277 HD
HETATM   16  C9  UNL     1       0.011  30.156   8.980  1.00  0.00     0.060 C 
ENDBRANCH   8   9
ENDBRANCH   5   8
BRANCH   6  17
HETATM   17  C11 UNL     1       0.664  25.980   8.946  1.00  0.00     0.011 C 
HETATM   18  C12 UNL     1      -0.536  25.820   8.490  1.00  0.00    -0.021 C 
BRANCH  18  19
HETATM   19  C13 UNL     1      -1.702  25.460   9.359  1.00  0.00     0.008 C 
HETATM   20  C14 UNL     1      -2.012  26.517  10.374  1.00  0.00     0.008 C 
HETATM   21  C15 UNL     1      -2.967  27.459   9.678  1.00  0.00     0.001 C 
HETATM   22  C16 UNL     1      -3.842  26.493   8.907  1.00  0.00     0.001 C 
HETATM   23  C17 UNL     1      -2.943  25.369   8.513  1.00  0.00     0.008 C 
ENDBRANCH  18  19
ENDBRANCH   6  17
TORSDOF 4
ENDMDL
MODEL 4
REMARK VINA RESULT: -6.553793183      0.915      1.558
REMARK  4 active torsions:
REMARK  status: ('A' for Active; 'I' for Inactive)
REMARK    1  A    between atoms: C4_5  and  O1_6 
REMARK    2  A    between atoms: O1_6  and  C5_7 
REMARK    3  A    between atoms: C10_15  and  C11_16 
REMARK    4  A    between atoms: C12_17  and  C13_18 
ROOT
HETATM    1 CL1  UNL     1       4.253  24.403   5.674  1.00  0.00    -0.084 Cl
HETATM    2  C1  UNL     1       3.533  25.667   6.626  1.00  0.00     0.035 A 
HETATM    3  C2  UNL     1       4.035  26.957   6.648  1.00  0.00     0.026 A 
HETATM    4  C3  UNL     1       3.457  27.939   7.401  1.00  0.00     0.039 A 
HETATM    5  C4  UNL     1       2.323  27.659   8.182  1.00  0.00     0.079 A 
HETATM    6  C10 UNL     1       1.820  26.332   8.147  1.00  0.00    -0.001 A 
HETATM    7  C18 UNL     1       2.421  25.367   7.383  1.00  0.00     0.038 A 
ENDROOT
BRANCH   5   8
HETATM    8  O1  UNL     1       1.767  28.571   8.895  1.00  0.00    -0.345 OA
BRANCH   8   9
HETATM    9  C5  UNL     1       1.203  29.497   9.617  1.00  0.00     0.132 C 
HETATM   10  C6  UNL     1       0.808  28.950  10.976  1.00  0.00     0.060 C 
HETATM   11  C7  UNL     1       0.043  29.931  11.796  1.00  0.00     0.235 C 
HETATM   12  N1  UNL     1      -1.166  30.265  11.071  1.00  0.00    -0.075 N 
HETATM   13  C8  UNL     1      -0.863  30.928   9.843  1.00  0.00     0.235 C 
ATOM     14  H12 UNL     1      -1.753  29.444  10.920  1.00  0.00     0.277 HD
ATOM     15  H11 UNL     1      -1.809  30.811  11.644  1.00  0.00     0.277 HD
HETATM   16  C9  UNL     1       0.061  30.207   8.934  1.00  0.00     0.060 C 
ENDBRANCH   8   9
ENDBRANCH   5   8
BRANCH   6  17
HETATM   17  C11 UNL     1       0.650  26.000   8.939  1.00  0.00     0.011 C 
HETATM   18  C12 UNL     1      -0.562  25.930   8.488  1.00  0.00    -0.021 C 
BRANCH  18  19
HETATM   19  C13 UNL     1      -1.737  25.582   9.349  1.00  0.00     0.008 C 
HETATM   20  C14 UNL     1      -3.031  26.090   8.792  1.00  0.00     0.008 C 
HETATM   21  C15 UNL     1      -3.520  24.991   7.876  1.00  0.00     0.001 C 
HETATM   22  C16 UNL     1      -3.164  23.751   8.668  1.00  0.00     0.001 C 
HETATM   23  C17 UNL     1      -1.899  24.086   9.386  1.00  0.00     0.008 C 
ENDBRANCH  18  19
ENDBRANCH   6  17
TORSDOF 4
ENDMDL
MODEL 5
REMARK VINA RESULT: -6.265214847      1.746      3.925
REMARK  4 active torsions:
REMARK  status: ('A' for Active; 'I' for Inactive)
REMARK    1  A    between atoms: C4_5  and  O1_6 
REMARK    2  A    between atoms: O1_6  and  C5_7 
REMARK    3  A    between atoms: C10_15  and  C11_16 
REMARK    4  A    between atoms: C12_17  and  C13_18 
ROOT
HETATM    1 CL1  UNL     1       5.749  26.964   6.398  1.00  0.00    -0.084 Cl
HETATM    2  C1  UNL     1       4.130  26.756   6.994  1.00  0.00     0.035 A 
HETATM    3  C2  UNL     1       3.506  25.521   7.030  1.00  0.00     0.026 A 
HETATM    4  C3  UNL     1       2.232  25.373   7.501  1.00  0.00     0.039 A 
HETATM    5  C4  UNL     1       1.516  26.488   7.970  1.00  0.00     0.079 A 
HETATM    6  C10 UNL     1       2.171  27.746   7.928  1.00  0.00    -0.001 A 
HETATM    7  C18 UNL     1       3.449  27.865   7.448  1.00  0.00     0.038 A 
ENDROOT
BRANCH   5   8
HETATM    8  O1  UNL     1       0.319  26.366   8.417  1.00  0.00    -0.345 OA
BRANCH   8   9
HETATM    9  C5  UNL     1      -0.896  26.241   8.871  1.00  0.00     0.132 C 
HETATM   10  C6  UNL     1      -0.953  26.588  10.348  1.00  0.00     0.060 C 
HETATM   11  C7  UNL     1      -2.293  26.340  10.950  1.00  0.00     0.235 C 
HETATM   12  N1  UNL     1      -2.589  24.929  10.802  1.00  0.00    -0.075 N 
HETATM   13  C8  UNL     1      -2.701  24.568   9.425  1.00  0.00     0.235 C 
ATOM     14  H12 UNL     1      -1.905  24.349  11.288  1.00  0.00     0.277 HD
ATOM     15  H11 UNL     1      -3.420  24.662  11.330  1.00  0.00     0.277 HD
HETATM   16  C9  UNL     1      -1.536  24.909   8.574  1.00  0.00     0.060 C 
ENDBRANCH   8   9
ENDBRANCH   5   8
BRANCH   6  17
HETATM   17  C11 UNL     1       1.468  28.924   8.402  1.00  0.00     0.011 C 
HETATM   18  C12 UNL     1       1.255  29.217   9.645  1.00  0.00    -0.021 C 
BRANCH  18  19
HETATM   19  C13 UNL     1       0.522  30.448  10.081  1.00  0.00     0.008 C 
HETATM   20  C14 UNL     1      -0.620  30.792   9.174  1.00  0.00     0.008 C 
HETATM   21  C15 UNL     1      -1.802  30.029   9.728  1.00  0.00     0.001 C 
HETATM   22  C16 UNL     1      -1.597  30.187  11.219  1.00  0.00     0.001 C 
HETATM   23  C17 UNL     1      -0.118  30.196  11.420  1.00  0.00     0.008 C 
ENDBRANCH  18  19
ENDBRANCH   6  17
TORSDOF 4
ENDMDL
