MODEL 1
REMARK VINA RESULT: -6.483355375      0.000      0.000
REMARK  4 active torsions:
REMARK  status: ('A' for Active; 'I' for Inactive)
REMARK    1  A    between atoms: C2_2  and  C3_3 
REMARK    2  A    between atoms: C6_7  and  C7_8 
REMARK    3  A    between atoms: C7_8  and  N2_9 
REMARK    4  A    between atoms: N2_9  and  C8_12 
ROOT
HETATM    1  C7  UNL     1       0.876  26.277   7.669  1.00  0.00     0.291 C 
ENDROOT
BRANCH   1   2
HETATM    2  C6  UNL     1      -0.250  26.869   8.384  1.00  0.00     0.055 A 
HETATM    3  N1  UNL     1      -1.336  26.332   8.915  1.00  0.00    -0.361 N 
HETATM    4  C4  UNL     1      -2.123  27.282   9.488  1.00  0.00     0.103 A 
HETATM    5  C5  UNL     1      -1.714  24.920   8.925  1.00  0.00     0.155 C 
HETATM    6  C3  UNL     1      -1.502  28.500   9.313  1.00  0.00    -0.002 A 
HETATM    7  C14 UNL     1      -0.345  28.246   8.631  1.00  0.00     0.046 A 
HETATM    8 BR1  UNL     1       0.911  29.584   8.120  1.00  0.00    -0.048 Br
BRANCH   6   9
HETATM    9  C2  UNL     1      -2.009  29.792   9.780  1.00  0.00     0.004 C 
HETATM   10  C1  UNL     1      -3.111  30.273   9.277  1.00  0.00     0.012 C 
ENDBRANCH   6   9
ENDBRANCH   1   2
BRANCH   1  11
HETATM   11  N2  UNL     1       1.804  25.535   8.480  1.00  0.00    -0.066 N 
ATOM     12  H22 UNL     1       1.858  25.898   9.432  1.00  0.00     0.278 HD
ATOM     13  H21 UNL     1       1.460  24.600   8.700  1.00  0.00     0.278 HD
BRANCH  11  14
HETATM   14  C8  UNL     1       3.124  25.502   7.821  1.00  0.00     0.186 C 
HETATM   15  C9  UNL     1       3.080  24.650   6.583  1.00  0.00     0.033 C 
HETATM   16  C10 UNL     1       3.775  25.253   5.407  1.00  0.00     0.002 C 
HETATM   17  C11 UNL     1       4.962  26.083   5.705  1.00  0.00     0.000 C 
HETATM   18  C12 UNL     1       4.981  26.820   6.987  1.00  0.00     0.002 C 
HETATM   19  C13 UNL     1       3.594  26.898   7.552  1.00  0.00     0.033 C 
ENDBRANCH  11  14
ENDBRANCH   1  11
TORSDOF 4
ENDMDL
MODEL 2
REMARK VINA RESULT: -6.411272477      0.897      1.535
REMARK  4 active torsions:
REMARK  status: ('A' for Active; 'I' for Inactive)
REMARK    1  A    between atoms: C2_2  and  C3_3 
REMARK    2  A    between atoms: C6_7  and  C7_8 
REMARK    3  A    between atoms: C7_8  and  N2_9 
REMARK    4  A    between atoms: N2_9  and  C8_12 
ROOT
HETATM    1  C7  UNL     1       0.645  26.245   8.806  1.00  0.00     0.291 C 
ENDROOT
BRANCH   1   2
HETATM    2  C6  UNL     1      -0.581  26.971   9.123  1.00  0.00     0.055 A 
HETATM    3  N1  UNL     1      -1.738  26.569   9.621  1.00  0.00    -0.361 N 
HETATM    4  C4  UNL     1      -2.606  27.609   9.746  1.00  0.00     0.103 A 
HETATM    5  C5  UNL     1      -2.114  25.211  10.006  1.00  0.00     0.155 C 
HETATM    6  C3  UNL     1      -1.964  28.745   9.302  1.00  0.00    -0.002 A 
HETATM    7  C14 UNL     1      -0.713  28.352   8.917  1.00  0.00     0.046 A 
HETATM    8 BR1  UNL     1       0.610  29.531   8.217  1.00  0.00    -0.048 Br
BRANCH   6   9
HETATM    9  C2  UNL     1      -2.538  30.091   9.265  1.00  0.00     0.004 C 
HETATM   10  C1  UNL     1      -3.832  30.240   9.232  1.00  0.00     0.012 C 
ENDBRANCH   6   9
ENDBRANCH   1   2
BRANCH   1  11
HETATM   11  N2  UNL     1       0.591  25.424   7.626  1.00  0.00    -0.066 N 
ATOM     12  H22 UNL     1       0.526  24.432   7.851  1.00  0.00     0.278 HD
ATOM     13  H21 UNL     1      -0.295  25.521   7.131  1.00  0.00     0.278 HD
BRANCH  11  14
HETATM   14  C8  UNL     1       1.748  25.724   6.760  1.00  0.00     0.186 C 
HETATM   15  C9  UNL     1       2.762  26.557   7.493  1.00  0.00     0.033 C 
HETATM   16  C10 UNL     1       4.172  26.112   7.292  1.00  0.00     0.002 C 
HETATM   17  C11 UNL     1       4.493  25.533   5.969  1.00  0.00     0.000 C 
HETATM   18  C12 UNL     1       3.418  24.808   5.258  1.00  0.00     0.002 C 
HETATM   19  C13 UNL     1       2.322  24.451   6.218  1.00  0.00     0.033 C 
ENDBRANCH  11  14
ENDBRANCH   1  11
TORSDOF 4
ENDMDL
MODEL 3
REMARK VINA RESULT: -6.125295289      1.534      1.766
REMARK  4 active torsions:
REMARK  status: ('A' for Active; 'I' for Inactive)
REMARK    1  A    between atoms: C2_2  and  C3_3 
REMARK    2  A    between atoms: C6_7  and  C7_8 
REMARK    3  A    between atoms: C7_8  and  N2_9 
REMARK    4  A    between atoms: N2_9  and  C8_12 
ROOT
HETATM    1  C7  UNL     1       0.657  26.583   7.458  1.00  0.00     0.291 C 
ENDROOT
BRANCH   1   2
HETATM    2  C6  UNL     1       0.037  26.755   8.768  1.00  0.00     0.055 A 
HETATM    3  N1  UNL     1      -0.861  26.035   9.419  1.00  0.00    -0.361 N 
HETATM    4  C4  UNL     1      -1.149  26.587  10.628  1.00  0.00     0.103 A 
HETATM    5  C5  UNL     1      -1.506  24.804   8.969  1.00  0.00     0.155 C 
HETATM    6  C3  UNL     1      -0.388  27.729  10.758  1.00  0.00    -0.002 A 
HETATM    7  C14 UNL     1       0.344  27.834   9.610  1.00  0.00     0.046 A 
HETATM    8 BR1  UNL     1       1.579  29.242   9.253  1.00  0.00    -0.048 Br
BRANCH   6   9
HETATM    9  C2  UNL     1      -0.390  28.629  11.913  1.00  0.00     0.004 C 
HETATM   10  C1  UNL     1       0.515  28.491  12.840  1.00  0.00     0.012 C 
ENDBRANCH   6   9
ENDBRANCH   1   2
BRANCH   1  11
HETATM   11  N2  UNL     1       1.280  25.306   7.231  1.00  0.00    -0.066 N 
ATOM     12  H22 UNL     1       0.929  24.589   7.865  1.00  0.00     0.278 HD
ATOM     13  H21 UNL     1       0.982  24.883   6.352  1.00  0.00     0.278 HD
BRANCH  11  14
HETATM   14  C8  UNL     1       2.747  25.449   7.310  1.00  0.00     0.186 C 
HETATM   15  C9  UNL     1       3.423  24.577   6.288  1.00  0.00     0.033 C 
HETATM   16  C10 UNL     1       4.537  25.251   5.557  1.00  0.00     0.002 C 
HETATM   17  C11 UNL     1       5.314  26.247   6.325  1.00  0.00     0.000 C 
HETATM   18  C12 UNL     1       4.609  27.002   7.383  1.00  0.00     0.002 C 
HETATM   19  C13 UNL     1       3.126  26.893   7.186  1.00  0.00     0.033 C 
ENDBRANCH  11  14
ENDBRANCH   1  11
TORSDOF 4
ENDMDL
MODEL 4
REMARK VINA RESULT: -6.106086812      1.090      1.236
REMARK  4 active torsions:
REMARK  status: ('A' for Active; 'I' for Inactive)
REMARK    1  A    between atoms: C2_2  and  C3_3 
REMARK    2  A    between atoms: C6_7  and  C7_8 
REMARK    3  A    between atoms: C7_8  and  N2_9 
REMARK    4  A    between atoms: N2_9  and  C8_12 
ROOT
HETATM    1  C7  UNL     1       0.455  26.578   8.864  1.00  0.00     0.291 C 
ENDROOT
BRANCH   1   2
HETATM    2  C6  UNL     1      -0.600  27.546   9.148  1.00  0.00     0.055 A 
HETATM    3  N1  UNL     1      -1.886  27.392   9.418  1.00  0.00    -0.361 N 
HETATM    4  C4  UNL     1      -2.492  28.594   9.615  1.00  0.00     0.103 A 
HETATM    5  C5  UNL     1      -2.630  26.138   9.507  1.00  0.00     0.155 C 
HETATM    6  C3  UNL     1      -1.536  29.574   9.463  1.00  0.00    -0.002 A 
HETATM    7  C14 UNL     1      -0.367  28.928   9.174  1.00  0.00     0.046 A 
HETATM    8 BR1  UNL     1       1.294  29.810   8.865  1.00  0.00    -0.048 Br
BRANCH   6   9
HETATM    9  C2  UNL     1      -1.762  31.015   9.592  1.00  0.00     0.004 C 
HETATM   10  C1  UNL     1      -1.582  31.596  10.745  1.00  0.00     0.012 C 
ENDBRANCH   6   9
ENDBRANCH   1   2
BRANCH   1  11
HETATM   11  N2  UNL     1       0.827  26.456   7.480  1.00  0.00    -0.066 N 
ATOM     12  H22 UNL     1       0.150  25.910   6.947  1.00  0.00     0.278 HD
ATOM     13  H21 UNL     1       0.733  27.339   6.977  1.00  0.00     0.278 HD
BRANCH  11  14
HETATM   14  C8  UNL     1       2.191  25.902   7.379  1.00  0.00     0.186 C 
HETATM   15  C9  UNL     1       2.257  24.838   6.318  1.00  0.00     0.033 C 
HETATM   16  C10 UNL     1       3.458  24.936   5.436  1.00  0.00     0.002 C 
HETATM   17  C11 UNL     1       4.695  25.441   6.069  1.00  0.00     0.000 C 
HETATM   18  C12 UNL     1       4.553  26.414   7.174  1.00  0.00     0.002 C 
HETATM   19  C13 UNL     1       3.176  27.008   7.157  1.00  0.00     0.033 C 
ENDBRANCH  11  14
ENDBRANCH   1  11
TORSDOF 4
ENDMDL
MODEL 5
REMARK VINA RESULT: -6.083387617      1.737      2.270
REMARK  4 active torsions:
REMARK  status: ('A' for Active; 'I' for Inactive)
REMARK    1  A    between atoms: C2_2  and  C3_3 
REMARK    2  A    between atoms: C6_7  and  C7_8 
REMARK    3  A    between atoms: C7_8  and  N2_9 
REMARK    4  A    between atoms: N2_9  and  C8_12 
ROOT
HETATM    1  C7  UNL     1       0.868  26.570   8.991  1.00  0.00     0.291 C 
ENDROOT
BRANCH   1   2
HETATM    2  C6  UNL     1      -0.053  27.700   9.073  1.00  0.00     0.055 A 
HETATM    3  N1  UNL     1       0.136  29.001   8.931  1.00  0.00    -0.361 N 
HETATM    4  C4  UNL     1      -1.028  29.685   9.098  1.00  0.00     0.103 A 
HETATM    5  C5  UNL     1       1.391  29.689   8.637  1.00  0.00     0.155 C 
HETATM    6  C3  UNL     1      -2.019  28.766   9.362  1.00  0.00    -0.002 A 
HETATM    7  C14 UNL     1      -1.418  27.539   9.347  1.00  0.00     0.046 A 
HETATM    8 BR1  UNL     1      -2.333  25.896   9.654  1.00  0.00    -0.048 Br
BRANCH   6   9
HETATM    9  C2  UNL     1      -3.429  29.077   9.606  1.00  0.00     0.004 C 
HETATM   10  C1  UNL     1      -3.978  30.098   9.009  1.00  0.00     0.012 C 
ENDBRANCH   6   9
ENDBRANCH   1   2
BRANCH   1  11
HETATM   11  N2  UNL     1       1.007  25.977   7.687  1.00  0.00    -0.066 N 
ATOM     12  H22 UNL     1       0.385  25.179   7.560  1.00  0.00     0.278 HD
ATOM     13  H21 UNL     1       0.630  26.575   6.951  1.00  0.00     0.278 HD
BRANCH  11  14
HETATM   14  C8  UNL     1       2.420  25.626   7.449  1.00  0.00     0.186 C 
HETATM   15  C9  UNL     1       2.544  24.669   6.296  1.00  0.00     0.033 C 
HETATM   16  C10 UNL     1       3.651  25.000   5.350  1.00  0.00     0.002 C 
HETATM   17  C11 UNL     1       4.856  25.619   5.944  1.00  0.00     0.000 C 
HETATM   18  C12 UNL     1       4.671  26.472   7.138  1.00  0.00     0.002 C 
HETATM   19  C13 UNL     1       3.231  26.871   7.264  1.00  0.00     0.033 C 
ENDBRANCH  11  14
ENDBRANCH   1  11
TORSDOF 4
ENDMDL
