MODEL 1
REMARK VINA RESULT: -7.842310279      0.000      0.000
REMARK  4 active torsions:
REMARK  status: ('A' for Active; 'I' for Inactive)
REMARK    1  A    between atoms: C1_4  and  C2_5 
REMARK    2  A    between atoms: C1_4  and  C15_19 
REMARK    3  A    between atoms: C3_6  and  C4_7 
REMARK    4  A    between atoms: C7_10  and  C8_11 
ROOT
HETATM    1  C2  UNL     1      -0.722  30.724   9.749  1.00  0.00     0.026 C 
HETATM    2  C3  UNL     1      -0.207  29.694  10.263  1.00  0.00    -0.018 C 
ENDROOT
BRANCH   2   3
HETATM    3  C4  UNL     1       0.806  28.819   9.540  1.00  0.00     0.032 C 
HETATM    4  C5  UNL     1       1.599  29.587   8.551  1.00  0.00     0.013 C 
HETATM    5  C6  UNL     1       2.550  28.625   7.873  1.00  0.00     0.037 C 
HETATM    6  C7  UNL     1       2.162  27.186   8.136  1.00  0.00     0.154 C 
HETATM    7  O1  UNL     1       0.794  27.068   7.893  1.00  0.00    -0.381 OA
HETATM    8  C14 UNL     1       0.050  27.724   8.846  1.00  0.00     0.177 C 
BRANCH   6   9
HETATM    9  C8  UNL     1       2.866  26.290   7.202  1.00  0.00    -0.029 A 
HETATM   10  C9  UNL     1       4.198  26.450   6.906  1.00  0.00     0.010 A 
HETATM   11  C10 UNL     1       4.852  25.592   6.017  1.00  0.00     0.001 A 
HETATM   12  C11 UNL     1       4.138  24.569   5.433  1.00  0.00     0.000 A 
HETATM   13  C12 UNL     1       2.798  24.400   5.727  1.00  0.00     0.001 A 
HETATM   14  C13 UNL     1       2.161  25.267   6.617  1.00  0.00     0.010 A 
ENDBRANCH   6   9
ENDBRANCH   2   3
BRANCH   1  15
HETATM   15  C1  UNL     1      -1.651  31.681  10.189  1.00  0.00     0.035 C 
HETATM   16  N1  UNL     1      -2.972  31.404  10.108  1.00  0.00    -0.398 N 
ATOM     17  H12 UNL     1      -3.151  30.486   9.700  1.00  0.00     0.156 HD
ATOM     18  H11 UNL     1      -3.647  32.099  10.428  1.00  0.00     0.156 HD
BRANCH  15  19
HETATM   19  C15 UNL     1      -1.397  32.981  10.767  1.00  0.00    -0.010 A 
HETATM   20  C16 UNL     1      -2.101  34.136  10.525  1.00  0.00     0.017 A 
HETATM   21  C17 UNL     1      -1.762  35.381  11.066  1.00  0.00     0.043 A 
HETATM   22  C18 UNL     1      -0.671  35.493  11.891  1.00  0.00     0.116 A 
HETATM   23  F1  UNL     1      -0.326  36.684  12.424  1.00  0.00    -0.206 F 
HETATM   24  C19 UNL     1       0.041  34.344  12.144  1.00  0.00     0.043 A 
HETATM   25  C20 UNL     1      -0.295  33.138  11.613  1.00  0.00     0.017 A 
ENDBRANCH  15  19
ENDBRANCH   1  15
TORSDOF 4
ENDMDL
MODEL 2
REMARK VINA RESULT: -7.796250175      3.051      3.772
REMARK  4 active torsions:
REMARK  status: ('A' for Active; 'I' for Inactive)
REMARK    1  A    between atoms: C1_4  and  C2_5 
REMARK    2  A    between atoms: C1_4  and  C15_19 
REMARK    3  A    between atoms: C3_6  and  C4_7 
REMARK    4  A    between atoms: C7_10  and  C8_11 
ROOT
HETATM    1  C2  UNL     1      -1.550  29.914   9.888  1.00  0.00     0.026 C 
HETATM    2  C3  UNL     1      -0.309  29.961  10.109  1.00  0.00    -0.018 C 
ENDROOT
BRANCH   2   3
HETATM    3  C4  UNL     1       0.691  29.020   9.452  1.00  0.00     0.032 C 
HETATM    4  C5  UNL     1       1.600  29.735   8.524  1.00  0.00     0.013 C 
HETATM    5  C6  UNL     1       2.529  28.712   7.907  1.00  0.00     0.037 C 
HETATM    6  C7  UNL     1       2.029  27.303   8.135  1.00  0.00     0.154 C 
HETATM    7  O1  UNL     1       0.677  27.277   7.797  1.00  0.00    -0.381 OA
HETATM    8  C14 UNL     1      -0.086  27.980   8.701  1.00  0.00     0.177 C 
BRANCH   6   9
HETATM    9  C8  UNL     1       2.735  26.362   7.246  1.00  0.00    -0.029 A 
HETATM   10  C9  UNL     1       4.075  26.487   6.974  1.00  0.00     0.010 A 
HETATM   11  C10 UNL     1       4.731  25.587   6.128  1.00  0.00     0.001 A 
HETATM   12  C11 UNL     1       4.009  24.559   5.563  1.00  0.00     0.000 A 
HETATM   13  C12 UNL     1       2.660  24.426   5.833  1.00  0.00     0.001 A 
HETATM   14  C13 UNL     1       2.021  25.335   6.680  1.00  0.00     0.010 A 
ENDBRANCH   6   9
ENDBRANCH   2   3
BRANCH   1  15
HETATM   15  C1  UNL     1      -2.656  30.647  10.347  1.00  0.00     0.035 C 
HETATM   16  N1  UNL     1      -2.559  31.330  11.509  1.00  0.00    -0.398 N 
ATOM     17  H12 UNL     1      -1.646  31.216  11.950  1.00  0.00     0.156 HD
ATOM     18  H11 UNL     1      -3.363  31.862  11.842  1.00  0.00     0.156 HD
BRANCH  15  19
HETATM   19  C15 UNL     1      -3.949  30.807   9.722  1.00  0.00    -0.010 A 
HETATM   20  C16 UNL     1      -4.397  30.169   8.590  1.00  0.00     0.017 A 
HETATM   21  C17 UNL     1      -5.638  30.420   7.996  1.00  0.00     0.043 A 
HETATM   22  C18 UNL     1      -6.486  31.348   8.548  1.00  0.00     0.116 A 
HETATM   23  F1  UNL     1      -7.688  31.605   7.991  1.00  0.00    -0.206 F 
HETATM   24  C19 UNL     1      -6.051  31.992   9.682  1.00  0.00     0.043 A 
HETATM   25  C20 UNL     1      -4.842  31.744  10.253  1.00  0.00     0.017 A 
ENDBRANCH  15  19
ENDBRANCH   1  15
TORSDOF 4
ENDMDL
MODEL 3
REMARK VINA RESULT: -7.776112261      3.069      3.953
REMARK  4 active torsions:
REMARK  status: ('A' for Active; 'I' for Inactive)
REMARK    1  A    between atoms: C1_4  and  C2_5 
REMARK    2  A    between atoms: C1_4  and  C15_19 
REMARK    3  A    between atoms: C3_6  and  C4_7 
REMARK    4  A    between atoms: C7_10  and  C8_11 
ROOT
HETATM    1  C2  UNL     1      -1.630  30.010   9.924  1.00  0.00     0.026 C 
HETATM    2  C3  UNL     1      -0.385  30.062  10.120  1.00  0.00    -0.018 C 
ENDROOT
BRANCH   2   3
HETATM    3  C4  UNL     1       0.601  29.095   9.480  1.00  0.00     0.032 C 
HETATM    4  C5  UNL     1       1.559  29.788   8.586  1.00  0.00     0.013 C 
HETATM    5  C6  UNL     1       2.469  28.742   7.983  1.00  0.00     0.037 C 
HETATM    6  C7  UNL     1       1.917  27.347   8.180  1.00  0.00     0.154 C 
HETATM    7  O1  UNL     1       0.574  27.371   7.805  1.00  0.00    -0.381 OA
HETATM    8  C14 UNL     1      -0.190  28.090   8.696  1.00  0.00     0.177 C 
BRANCH   6   9
HETATM    9  C8  UNL     1       2.614  26.393   7.300  1.00  0.00    -0.029 A 
HETATM   10  C9  UNL     1       1.957  25.350   6.695  1.00  0.00     0.010 A 
HETATM   11  C10 UNL     1       2.633  24.452   5.862  1.00  0.00     0.001 A 
HETATM   12  C11 UNL     1       3.983  24.627   5.653  1.00  0.00     0.000 A 
HETATM   13  C12 UNL     1       4.652  25.674   6.258  1.00  0.00     0.001 A 
HETATM   14  C13 UNL     1       3.960  26.561   7.087  1.00  0.00     0.010 A 
ENDBRANCH   6   9
ENDBRANCH   2   3
BRANCH   1  15
HETATM   15  C1  UNL     1      -2.726  30.762  10.376  1.00  0.00     0.035 C 
HETATM   16  N1  UNL     1      -2.634  31.420  11.553  1.00  0.00    -0.398 N 
ATOM     17  H12 UNL     1      -1.733  31.274  12.010  1.00  0.00     0.156 HD
ATOM     18  H11 UNL     1      -3.430  31.967  11.882  1.00  0.00     0.156 HD
BRANCH  15  19
HETATM   19  C15 UNL     1      -4.002  30.969   9.730  1.00  0.00    -0.010 A 
HETATM   20  C16 UNL     1      -4.998  31.823  10.138  1.00  0.00     0.017 A 
HETATM   21  C17 UNL     1      -6.241  31.928   9.505  1.00  0.00     0.043 A 
HETATM   22  C18 UNL     1      -6.517  31.149   8.409  1.00  0.00     0.116 A 
HETATM   23  F1  UNL     1      -7.709  31.233   7.782  1.00  0.00    -0.206 F 
HETATM   24  C19 UNL     1      -5.528  30.290   7.989  1.00  0.00     0.043 A 
HETATM   25  C20 UNL     1      -4.323  30.194   8.611  1.00  0.00     0.017 A 
ENDBRANCH  15  19
ENDBRANCH   1  15
TORSDOF 4
ENDMDL
MODEL 4
REMARK VINA RESULT: -7.750138504      0.194      1.402
REMARK  4 active torsions:
REMARK  status: ('A' for Active; 'I' for Inactive)
REMARK    1  A    between atoms: C1_4  and  C2_5 
REMARK    2  A    between atoms: C1_4  and  C15_19 
REMARK    3  A    between atoms: C3_6  and  C4_7 
REMARK    4  A    between atoms: C7_10  and  C8_11 
ROOT
HETATM    1  C2  UNL     1      -0.709  30.769   9.757  1.00  0.00     0.026 C 
HETATM    2  C3  UNL     1      -0.192  29.744  10.279  1.00  0.00    -0.018 C 
ENDROOT
BRANCH   2   3
HETATM    3  C4  UNL     1       0.805  28.851   9.555  1.00  0.00     0.032 C 
HETATM    4  C5  UNL     1       1.616  29.607   8.571  1.00  0.00     0.013 C 
HETATM    5  C6  UNL     1       2.548  28.629   7.891  1.00  0.00     0.037 C 
HETATM    6  C7  UNL     1       2.131  27.198   8.146  1.00  0.00     0.154 C 
HETATM    7  O1  UNL     1       0.762  27.109   7.899  1.00  0.00    -0.381 OA
HETATM    8  C14 UNL     1       0.028  27.776   8.853  1.00  0.00     0.177 C 
BRANCH   6   9
HETATM    9  C8  UNL     1       2.819  26.291   7.210  1.00  0.00    -0.029 A 
HETATM   10  C9  UNL     1       2.169  25.242   6.607  1.00  0.00     0.010 A 
HETATM   11  C10 UNL     1       2.835  24.389   5.720  1.00  0.00     0.001 A 
HETATM   12  C11 UNL     1       4.168  24.616   5.455  1.00  0.00     0.000 A 
HETATM   13  C12 UNL     1       4.828  25.669   6.058  1.00  0.00     0.001 A 
HETATM   14  C13 UNL     1       4.147  26.511   6.941  1.00  0.00     0.010 A 
ENDBRANCH   6   9
ENDBRANCH   2   3
BRANCH   1  15
HETATM   15  C1  UNL     1      -1.626  31.738  10.196  1.00  0.00     0.035 C 
HETATM   16  N1  UNL     1      -2.950  31.481  10.107  1.00  0.00    -0.398 N 
ATOM     17  H12 UNL     1      -3.141  30.568   9.696  1.00  0.00     0.156 HD
ATOM     18  H11 UNL     1      -3.616  32.185  10.427  1.00  0.00     0.156 HD
BRANCH  15  19
HETATM   19  C15 UNL     1      -1.355  33.032  10.779  1.00  0.00    -0.010 A 
HETATM   20  C16 UNL     1      -0.329  33.345  11.638  1.00  0.00     0.017 A 
HETATM   21  C17 UNL     1      -0.161  34.605  12.222  1.00  0.00     0.043 A 
HETATM   22  C18 UNL     1      -1.050  35.612  11.943  1.00  0.00     0.116 A 
HETATM   23  F1  UNL     1      -0.907  36.835  12.494  1.00  0.00    -0.206 F 
HETATM   24  C19 UNL     1      -2.081  35.313  11.082  1.00  0.00     0.043 A 
HETATM   25  C20 UNL     1      -2.238  34.085  10.520  1.00  0.00     0.017 A 
ENDBRANCH  15  19
ENDBRANCH   1  15
TORSDOF 4
ENDMDL
MODEL 5
REMARK VINA RESULT: -7.683855503      3.610      9.083
REMARK  4 active torsions:
REMARK  status: ('A' for Active; 'I' for Inactive)
REMARK    1  A    between atoms: C1_4  and  C2_5 
REMARK    2  A    between atoms: C1_4  and  C15_19 
REMARK    3  A    between atoms: C3_6  and  C4_7 
REMARK    4  A    between atoms: C7_10  and  C8_11 
ROOT
HETATM    1  C2  UNL     1       0.361  27.336   8.555  1.00  0.00     0.026 C 
HETATM    2  C3  UNL     1      -0.556  27.532   9.399  1.00  0.00    -0.018 C 
ENDROOT
BRANCH   2   3
HETATM    3  C4  UNL     1      -0.884  28.902   9.972  1.00  0.00     0.032 C 
HETATM    4  C5  UNL     1      -1.917  29.605   9.175  1.00  0.00     0.013 C 
HETATM    5  C6  UNL     1      -2.148  30.960   9.808  1.00  0.00     0.037 C 
HETATM    6  C7  UNL     1      -1.049  31.308  10.787  1.00  0.00     0.154 C 
HETATM    7  O1  UNL     1       0.169  31.055  10.157  1.00  0.00    -0.381 OA
HETATM    8  C14 UNL     1       0.382  29.707   9.984  1.00  0.00     0.177 C 
BRANCH   6   9
HETATM    9  C8  UNL     1      -1.097  32.743  11.119  1.00  0.00    -0.029 A 
HETATM   10  C9  UNL     1      -2.052  33.578  10.593  1.00  0.00     0.010 A 
HETATM   11  C10 UNL     1      -2.085  34.938  10.917  1.00  0.00     0.001 A 
HETATM   12  C11 UNL     1      -1.136  35.439  11.780  1.00  0.00     0.000 A 
HETATM   13  C12 UNL     1      -0.172  34.605  12.314  1.00  0.00     0.001 A 
HETATM   14  C13 UNL     1      -0.154  33.249  11.979  1.00  0.00     0.010 A 
ENDBRANCH   6   9
ENDBRANCH   2   3
BRANCH   1  15
HETATM   15  C1  UNL     1       0.852  26.205   7.884  1.00  0.00     0.035 C 
HETATM   16  N1  UNL     1       0.060  25.117   7.760  1.00  0.00    -0.398 N 
ATOM     17  H12 UNL     1      -0.849  25.245   8.204  1.00  0.00     0.156 HD
ATOM     18  H11 UNL     1       0.417  24.295   7.272  1.00  0.00     0.156 HD
BRANCH  15  19
HETATM   19  C15 UNL     1       2.140  26.022   7.254  1.00  0.00    -0.010 A 
HETATM   20  C16 UNL     1       2.523  24.964   6.466  1.00  0.00     0.017 A 
HETATM   21  C17 UNL     1       3.810  24.812   5.939  1.00  0.00     0.043 A 
HETATM   22  C18 UNL     1       4.771  25.756   6.202  1.00  0.00     0.116 A 
HETATM   23  F1  UNL     1       6.019  25.631   5.704  1.00  0.00    -0.206 F 
HETATM   24  C19 UNL     1       4.400  26.822   6.988  1.00  0.00     0.043 A 
HETATM   25  C20 UNL     1       3.147  26.961   7.497  1.00  0.00     0.017 A 
ENDBRANCH  15  19
ENDBRANCH   1  15
TORSDOF 4
ENDMDL
