MODEL 1
REMARK VINA RESULT: -5.970474526      0.000      0.000
REMARK  9 active torsions:
REMARK  status: ('A' for Active; 'I' for Inactive)
REMARK    1  A    between atoms: O1_1  and  C1_3 
REMARK    2  A    between atoms: C1_3  and  C2_4 
REMARK    3  A    between atoms: C3_6  and  O3_7 
REMARK    4  A    between atoms: O3_7  and  C4_8 
REMARK    5  A    between atoms: N1_12  and  C8_13 
REMARK    6  A    between atoms: C8_13  and  C9_14 
REMARK    7  A    between atoms: C9_14  and  N2_15 
REMARK    8  A    between atoms: C16_22  and  O4_23 
REMARK    9  A    between atoms: C17_25  and  O5_26 
ROOT
HETATM    1  C4  UNL     1     -17.550  -8.376   8.571  1.00  0.00     0.146 C 
HETATM    2  C5  UNL     1     -17.096  -9.121   9.801  1.00  0.00     0.062 C 
HETATM    3  C6  UNL     1     -17.875  -8.661  10.980  1.00  0.00    -0.007 C 
HETATM    4  C7  UNL     1     -18.316  -7.443  11.070  1.00  0.00     0.081 C 
HETATM    5  N1  UNL     1     -18.090  -6.476  10.070  1.00  0.00    -0.386 N 
HETATM    6  C15 UNL     1     -17.561  -6.886   8.792  1.00  0.00     0.154 C 
ENDROOT
BRANCH   1   7
HETATM    7  O3  UNL     1     -16.851  -8.669   7.442  1.00  0.00    -0.351 OA
BRANCH   7   8
HETATM    8  C3  UNL     1     -16.098  -9.813   7.477  1.00  0.00     0.292 C 
HETATM    9  O2  UNL     1     -16.693 -10.909   6.908  1.00  0.00    -0.348 OA
HETATM   10  C2  UNL     1     -15.673 -11.812   6.625  1.00  0.00     0.179 C 
HETATM   11  C17 UNL     1     -14.438 -11.018   6.351  1.00  0.00     0.182 C 
HETATM   12  C16 UNL     1     -14.893  -9.593   6.579  1.00  0.00     0.204 C 
BRANCH  10  13
HETATM   13  C1  UNL     1     -15.505 -12.678   7.878  1.00  0.00     0.198 C 
BRANCH  13  14
HETATM   14  O1  UNL     1     -14.219 -12.560   8.365  1.00  0.00    -0.398 OA
ATOM     15  H1  UNL     1     -14.235 -12.486   9.313  1.00  0.00     0.209 HD
ENDBRANCH  13  14
ENDBRANCH  10  13
BRANCH  11  16
HETATM   16  O5  UNL     1     -13.919 -11.212   5.072  1.00  0.00    -0.390 OA
ATOM     17  H5  UNL     1     -13.680 -10.405   4.632  1.00  0.00     0.210 HD
ENDBRANCH  11  16
BRANCH  12  18
HETATM   18  O4  UNL     1     -15.232  -9.049   5.353  1.00  0.00    -0.388 OA
ATOM     19  H4  UNL     1     -14.552  -9.165   4.699  1.00  0.00     0.210 HD
ENDBRANCH  12  18
ENDBRANCH   7   8
ENDBRANCH   1   7
BRANCH   5  20
HETATM   20  C8  UNL     1     -18.359  -5.060  10.210  1.00  0.00     0.152 C 
BRANCH  20  21
HETATM   21  C9  UNL     1     -19.382  -4.695  11.215  1.00  0.00     0.292 C 
BRANCH  21  22
HETATM   22  N2  UNL     1     -20.466  -3.887  10.753  1.00  0.00     0.090 N 
HETATM   23  C10 UNL     1     -21.184  -3.220  11.790  1.00  0.00     0.272 C 
HETATM   24  C11 UNL     1     -21.812  -4.236  12.693  1.00  0.00     0.030 C 
HETATM   25  C12 UNL     1     -22.770  -5.067  11.915  1.00  0.00     0.003 C 
HETATM   26  C13 UNL     1     -22.238  -5.579  10.600  1.00  0.00     0.030 C 
HETATM   27  C14 UNL     1     -21.379  -4.559   9.892  1.00  0.00     0.272 C 
ENDBRANCH  21  22
ENDBRANCH  20  21
ENDBRANCH   5  20
TORSDOF 9
ENDMDL
MODEL 2
REMARK VINA RESULT: -5.709987608      3.973      8.547
REMARK  9 active torsions:
REMARK  status: ('A' for Active; 'I' for Inactive)
REMARK    1  A    between atoms: O1_1  and  C1_3 
REMARK    2  A    between atoms: C1_3  and  C2_4 
REMARK    3  A    between atoms: C3_6  and  O3_7 
REMARK    4  A    between atoms: O3_7  and  C4_8 
REMARK    5  A    between atoms: N1_12  and  C8_13 
REMARK    6  A    between atoms: C8_13  and  C9_14 
REMARK    7  A    between atoms: C9_14  and  N2_15 
REMARK    8  A    between atoms: C16_22  and  O4_23 
REMARK    9  A    between atoms: C17_25  and  O5_26 
ROOT
HETATM    1  C4  UNL     1     -19.856  -6.493   8.978  1.00  0.00     0.146 C 
HETATM    2  C5  UNL     1     -18.660  -5.630   8.664  1.00  0.00     0.062 C 
HETATM    3  C6  UNL     1     -17.476  -6.491   8.409  1.00  0.00    -0.007 C 
HETATM    4  C7  UNL     1     -17.327  -7.636   9.004  1.00  0.00     0.081 C 
HETATM    5  N1  UNL     1     -18.265  -8.142   9.927  1.00  0.00    -0.386 N 
HETATM    6  C15 UNL     1     -19.551  -7.501  10.055  1.00  0.00     0.154 C 
ENDROOT
BRANCH   1   7
HETATM    7  O3  UNL     1     -20.983  -5.803   9.300  1.00  0.00    -0.351 OA
BRANCH   7   8
HETATM    8  C3  UNL     1     -21.019  -5.258  10.557  1.00  0.00     0.292 C 
HETATM    9  O2  UNL     1     -21.155  -3.894  10.588  1.00  0.00    -0.348 OA
HETATM   10  C2  UNL     1     -21.618  -3.570  11.860  1.00  0.00     0.179 C 
HETATM   11  C17 UNL     1     -22.432  -4.725  12.346  1.00  0.00     0.182 C 
HETATM   12  C16 UNL     1     -22.302  -5.728  11.220  1.00  0.00     0.204 C 
BRANCH  10  13
HETATM   13  C1  UNL     1     -20.374  -3.367  12.731  1.00  0.00     0.198 C 
BRANCH  13  14
HETATM   14  O1  UNL     1     -19.393  -2.718  12.010  1.00  0.00    -0.398 OA
ATOM     15  H1  UNL     1     -18.762  -2.321  12.601  1.00  0.00     0.209 HD
ENDBRANCH  13  14
ENDBRANCH  10  13
BRANCH  11  16
HETATM   16  O5  UNL     1     -23.759  -4.400  12.617  1.00  0.00    -0.390 OA
ATOM     17  H5  UNL     1     -24.192  -5.017  13.195  1.00  0.00     0.210 HD
ENDBRANCH  11  16
BRANCH  12  18
HETATM   18  O4  UNL     1     -23.408  -5.598  10.399  1.00  0.00    -0.388 OA
ATOM     19  H4  UNL     1     -23.576  -6.377   9.882  1.00  0.00     0.210 HD
ENDBRANCH  12  18
ENDBRANCH   7   8
ENDBRANCH   1   7
BRANCH   5  20
HETATM   20  C8  UNL     1     -18.051  -9.292  10.779  1.00  0.00     0.152 C 
BRANCH  20  21
HETATM   21  C9  UNL     1     -16.949 -10.195  10.379  1.00  0.00     0.292 C 
BRANCH  21  22
HETATM   22  N2  UNL     1     -17.302 -11.292   9.535  1.00  0.00     0.090 N 
HETATM   23  C10 UNL     1     -16.421 -12.411   9.628  1.00  0.00     0.272 C 
HETATM   24  C11 UNL     1     -15.050 -12.003   9.185  1.00  0.00     0.030 C 
HETATM   25  C12 UNL     1     -15.098 -11.558   7.766  1.00  0.00     0.003 C 
HETATM   26  C13 UNL     1     -16.218 -10.601   7.444  1.00  0.00     0.030 C 
HETATM   27  C14 UNL     1     -17.497 -10.948   8.167  1.00  0.00     0.272 C 
ENDBRANCH  21  22
ENDBRANCH  20  21
ENDBRANCH   5  20
TORSDOF 9
ENDMDL
MODEL 3
REMARK VINA RESULT: -5.641300500      1.360      2.617
REMARK  9 active torsions:
REMARK  status: ('A' for Active; 'I' for Inactive)
REMARK    1  A    between atoms: O1_1  and  C1_3 
REMARK    2  A    between atoms: C1_3  and  C2_4 
REMARK    3  A    between atoms: C3_6  and  O3_7 
REMARK    4  A    between atoms: O3_7  and  C4_8 
REMARK    5  A    between atoms: N1_12  and  C8_13 
REMARK    6  A    between atoms: C8_13  and  C9_14 
REMARK    7  A    between atoms: C9_14  and  N2_15 
REMARK    8  A    between atoms: C16_22  and  O4_23 
REMARK    9  A    between atoms: C17_25  and  O5_26 
ROOT
HETATM    1  C4  UNL     1     -17.083  -8.915   9.689  1.00  0.00     0.146 C 
HETATM    2  C5  UNL     1     -16.908  -8.599   8.225  1.00  0.00     0.062 C 
HETATM    3  C6  UNL     1     -17.130  -7.148   7.996  1.00  0.00    -0.007 C 
HETATM    4  C7  UNL     1     -17.960  -6.464   8.725  1.00  0.00     0.081 C 
HETATM    5  N1  UNL     1     -18.704  -7.040   9.774  1.00  0.00    -0.386 N 
HETATM    6  C15 UNL     1     -18.381  -8.371  10.227  1.00  0.00     0.154 C 
ENDROOT
BRANCH   1   7
HETATM    7  O3  UNL     1     -16.973 -10.234  10.000  1.00  0.00    -0.351 OA
BRANCH   7   8
HETATM    8  C3  UNL     1     -16.668 -11.076   8.964  1.00  0.00     0.292 C 
HETATM    9  O2  UNL     1     -15.388 -10.960   8.486  1.00  0.00    -0.348 OA
HETATM   10  C2  UNL     1     -15.114 -12.135   7.794  1.00  0.00     0.179 C 
HETATM   11  C17 UNL     1     -15.907 -13.226   8.435  1.00  0.00     0.182 C 
HETATM   12  C16 UNL     1     -16.684 -12.494   9.508  1.00  0.00     0.204 C 
BRANCH  10  13
HETATM   13  C1  UNL     1     -15.568 -11.899   6.350  1.00  0.00     0.198 C 
BRANCH  13  14
HETATM   14  O1  UNL     1     -14.564 -11.282   5.632  1.00  0.00    -0.398 OA
ATOM     15  H1  UNL     1     -14.080 -11.926   5.128  1.00  0.00     0.209 HD
ENDBRANCH  13  14
ENDBRANCH  10  13
BRANCH  11  16
HETATM   16  O5  UNL     1     -15.126 -14.256   8.955  1.00  0.00    -0.390 OA
ATOM     17  H5  UNL     1     -14.777 -14.072   9.819  1.00  0.00     0.210 HD
ENDBRANCH  11  16
BRANCH  12  18
HETATM   18  O4  UNL     1     -15.992 -12.617  10.700  1.00  0.00    -0.388 OA
ATOM     19  H4  UNL     1     -15.198 -13.131  10.612  1.00  0.00     0.210 HD
ENDBRANCH  12  18
ENDBRANCH   7   8
ENDBRANCH   1   7
BRANCH   5  20
HETATM   20  C8  UNL     1     -19.796  -6.391  10.469  1.00  0.00     0.152 C 
BRANCH  20  21
HETATM   21  C9  UNL     1     -19.547  -4.998  10.901  1.00  0.00     0.292 C 
BRANCH  21  22
HETATM   22  N2  UNL     1     -20.557  -4.042  10.576  1.00  0.00     0.090 N 
HETATM   23  C10 UNL     1     -20.907  -3.169  11.649  1.00  0.00     0.272 C 
HETATM   24  C11 UNL     1     -21.477  -3.972  12.777  1.00  0.00     0.030 C 
HETATM   25  C12 UNL     1     -22.709  -4.670  12.317  1.00  0.00     0.003 C 
HETATM   26  C13 UNL     1     -22.574  -5.378  10.993  1.00  0.00     0.030 C 
HETATM   27  C14 UNL     1     -21.737  -4.599  10.006  1.00  0.00     0.272 C 
ENDBRANCH  21  22
ENDBRANCH  20  21
ENDBRANCH   5  20
TORSDOF 9
ENDMDL
MODEL 4
REMARK VINA RESULT: -5.586236674      2.118      3.513
REMARK  9 active torsions:
REMARK  status: ('A' for Active; 'I' for Inactive)
REMARK    1  A    between atoms: O1_1  and  C1_3 
REMARK    2  A    between atoms: C1_3  and  C2_4 
REMARK    3  A    between atoms: C3_6  and  O3_7 
REMARK    4  A    between atoms: O3_7  and  C4_8 
REMARK    5  A    between atoms: N1_12  and  C8_13 
REMARK    6  A    between atoms: C8_13  and  C9_14 
REMARK    7  A    between atoms: C9_14  and  N2_15 
REMARK    8  A    between atoms: C16_22  and  O4_23 
REMARK    9  A    between atoms: C17_25  and  O5_26 
ROOT
HETATM    1  C4  UNL     1     -18.110  -8.349  10.153  1.00  0.00     0.146 C 
HETATM    2  C5  UNL     1     -17.316  -8.203   8.879  1.00  0.00     0.062 C 
HETATM    3  C6  UNL     1     -17.451  -6.817   8.363  1.00  0.00    -0.007 C 
HETATM    4  C7  UNL     1     -18.533  -6.123   8.551  1.00  0.00     0.081 C 
HETATM    5  N1  UNL     1     -19.648  -6.627   9.249  1.00  0.00    -0.386 N 
HETATM    6  C15 UNL     1     -19.525  -7.858   9.991  1.00  0.00     0.154 C 
ENDROOT
BRANCH   1   7
HETATM    7  O3  UNL     1     -18.115  -9.605  10.676  1.00  0.00    -0.351 OA
BRANCH   7   8
HETATM    8  C3  UNL     1     -17.362 -10.538  10.014  1.00  0.00     0.292 C 
HETATM    9  O2  UNL     1     -16.045 -10.586  10.392  1.00  0.00    -0.348 OA
HETATM   10  C2  UNL     1     -15.560 -11.825   9.985  1.00  0.00     0.179 C 
HETATM   11  C17 UNL     1     -16.705 -12.784  10.017  1.00  0.00     0.182 C 
HETATM   12  C16 UNL     1     -17.869 -11.909  10.426  1.00  0.00     0.204 C 
BRANCH  10  13
HETATM   13  C1  UNL     1     -15.040 -11.635   8.556  1.00  0.00     0.198 C 
BRANCH  13  14
HETATM   14  O1  UNL     1     -14.289 -12.729   8.176  1.00  0.00    -0.398 OA
ATOM     15  H1  UNL     1     -13.809 -12.534   7.379  1.00  0.00     0.209 HD
ENDBRANCH  13  14
ENDBRANCH  10  13
BRANCH  11  16
HETATM   16  O5  UNL     1     -16.514 -13.855  10.887  1.00  0.00    -0.390 OA
ATOM     17  H5  UNL     1     -17.315 -14.315  11.108  1.00  0.00     0.210 HD
ENDBRANCH  11  16
BRANCH  12  18
HETATM   18  O4  UNL     1     -18.037 -12.028  11.794  1.00  0.00    -0.388 OA
ATOM     19  H4  UNL     1     -18.880 -11.707  12.091  1.00  0.00     0.210 HD
ENDBRANCH  12  18
ENDBRANCH   7   8
ENDBRANCH   1   7
BRANCH   5  20
HETATM   20  C8  UNL     1     -20.949  -5.994   9.300  1.00  0.00     0.152 C 
BRANCH  20  21
HETATM   21  C9  UNL     1     -21.038  -4.768  10.123  1.00  0.00     0.292 C 
BRANCH  21  22
HETATM   22  N2  UNL     1     -20.595  -4.878  11.477  1.00  0.00     0.090 N 
HETATM   23  C10 UNL     1     -21.412  -4.184  12.419  1.00  0.00     0.272 C 
HETATM   24  C11 UNL     1     -21.384  -2.718  12.118  1.00  0.00     0.030 C 
HETATM   25  C12 UNL     1     -19.991  -2.212  12.240  1.00  0.00     0.003 C 
HETATM   26  C13 UNL     1     -18.950  -3.057  11.549  1.00  0.00     0.030 C 
HETATM   27  C14 UNL     1     -19.228  -4.535  11.683  1.00  0.00     0.272 C 
ENDBRANCH  21  22
ENDBRANCH  20  21
ENDBRANCH   5  20
TORSDOF 9
ENDMDL
MODEL 5
REMARK VINA RESULT: -5.493947730      3.628      8.314
REMARK  9 active torsions:
REMARK  status: ('A' for Active; 'I' for Inactive)
REMARK    1  A    between atoms: O1_1  and  C1_3 
REMARK    2  A    between atoms: C1_3  and  C2_4 
REMARK    3  A    between atoms: C3_6  and  O3_7 
REMARK    4  A    between atoms: O3_7  and  C4_8 
REMARK    5  A    between atoms: N1_12  and  C8_13 
REMARK    6  A    between atoms: C8_13  and  C9_14 
REMARK    7  A    between atoms: C9_14  and  N2_15 
REMARK    8  A    between atoms: C16_22  and  O4_23 
REMARK    9  A    between atoms: C17_25  and  O5_26 
ROOT
HETATM    1  C4  UNL     1     -18.102  -6.822   9.350  1.00  0.00     0.146 C 
HETATM    2  C5  UNL     1     -17.110  -7.000   8.228  1.00  0.00     0.062 C 
HETATM    3  C6  UNL     1     -17.097  -8.421   7.794  1.00  0.00    -0.007 C 
HETATM    4  C7  UNL     1     -17.334  -9.389   8.627  1.00  0.00     0.081 C 
HETATM    5  N1  UNL     1     -17.616  -9.168   9.990  1.00  0.00    -0.386 N 
HETATM    6  C15 UNL     1     -17.889  -7.828  10.451  1.00  0.00     0.154 C 
ENDROOT
BRANCH   1   7
HETATM    7  O3  UNL     1     -18.144  -5.568   9.875  1.00  0.00    -0.351 OA
BRANCH   7   8
HETATM    8  C3  UNL     1     -19.244  -5.267  10.634  1.00  0.00     0.292 C 
HETATM    9  O2  UNL     1     -19.677  -3.970  10.528  1.00  0.00    -0.348 OA
HETATM   10  C2  UNL     1     -20.996  -3.955  10.970  1.00  0.00     0.179 C 
HETATM   11  C17 UNL     1     -21.584  -5.295  10.666  1.00  0.00     0.182 C 
HETATM   12  C16 UNL     1     -20.416  -6.049  10.069  1.00  0.00     0.204 C 
BRANCH  10  13
HETATM   13  C1  UNL     1     -20.940  -3.708  12.481  1.00  0.00     0.198 C 
BRANCH  13  14
HETATM   14  O1  UNL     1     -20.185  -2.584  12.749  1.00  0.00    -0.398 OA
ATOM     15  H1  UNL     1     -20.753  -1.858  12.981  1.00  0.00     0.209 HD
ENDBRANCH  13  14
ENDBRANCH  10  13
BRANCH  11  16
HETATM   16  O5  UNL     1     -22.679  -5.244   9.807  1.00  0.00    -0.390 OA
ATOM     17  H5  UNL     1     -23.517  -5.268  10.254  1.00  0.00     0.210 HD
ENDBRANCH  11  16
BRANCH  12  18
HETATM   18  O4  UNL     1     -20.506  -5.959   8.691  1.00  0.00    -0.388 OA
ATOM     19  H4  UNL     1     -21.381  -6.135   8.367  1.00  0.00     0.210 HD
ENDBRANCH  12  18
ENDBRANCH   7   8
ENDBRANCH   1   7
BRANCH   5  20
HETATM   20  C8  UNL     1     -17.668 -10.200  11.004  1.00  0.00     0.152 C 
BRANCH  20  21
HETATM   21  C9  UNL     1     -17.443 -11.583  10.528  1.00  0.00     0.292 C 
BRANCH  21  22
HETATM   22  N2  UNL     1     -16.156 -12.143  10.790  1.00  0.00     0.090 N 
HETATM   23  C10 UNL     1     -15.115 -11.642   9.953  1.00  0.00     0.272 C 
HETATM   24  C11 UNL     1     -15.411 -11.993   8.528  1.00  0.00     0.030 C 
HETATM   25  C12 UNL     1     -15.461 -13.473   8.381  1.00  0.00     0.003 C 
HETATM   26  C13 UNL     1     -16.281 -14.183   9.429  1.00  0.00     0.030 C 
HETATM   27  C14 UNL     1     -16.121 -13.567  10.799  1.00  0.00     0.272 C 
ENDBRANCH  21  22
ENDBRANCH  20  21
ENDBRANCH   5  20
TORSDOF 9
ENDMDL
