MODEL 1
REMARK VINA RESULT: -5.372300176      0.000      0.000
REMARK  7 active torsions:
REMARK  status: ('A' for Active; 'I' for Inactive)
REMARK       I    between atoms: N1_2  and  C2_4 
REMARK    1  A    between atoms: C2_4  and  C3_6 
REMARK    2  A    between atoms: C4_8  and  O3_9 
REMARK    3  A    between atoms: C6_12  and  C7_13 
REMARK    4  A    between atoms: C7_13  and  N2_14 
REMARK    5  A    between atoms: C7_13  and  C13_27 
REMARK       I    between atoms: N2_14  and  C8_16 
REMARK    6  A    between atoms: C8_16  and  C9_18 
REMARK    7  A    between atoms: C11_20  and  N3_21 
ROOT
HETATM    1  C7  UNL     1     -16.827 -10.052   9.880  1.00  0.00     0.120 C 
ENDROOT
BRANCH   1   2
HETATM    2  C6  UNL     1     -16.671 -11.167   8.941  1.00  0.00     0.188 C 
HETATM    3  C3  UNL     1     -16.834 -10.909   7.487  1.00  0.00     0.249 C 
HETATM    4  O2  UNL     1     -16.306 -12.135   6.991  1.00  0.00    -0.321 OA
HETATM    5  C4  UNL     1     -15.430 -12.599   7.970  1.00  0.00     0.413 C 
HETATM    6  O4  UNL     1     -15.306 -11.557   8.925  1.00  0.00    -0.328 OA
BRANCH   3   7
HETATM    7  C2  UNL     1     -15.987  -9.837   6.955  1.00  0.00     0.249 C 
HETATM    8  N1  UNL     1     -15.002 -10.124   5.983  1.00  0.00    -0.363 N 
HETATM    9  C1  UNL     1     -14.143  -9.063   5.439  1.00  0.00     0.149 C 
ATOM     10  H1  UNL     1     -14.886 -11.082   5.655  1.00  0.00     0.162 HD
HETATM   11  O1  UNL     1     -16.117  -8.658   7.344  1.00  0.00    -0.271 OA
ENDBRANCH   3   7
BRANCH   5  12
HETATM   12  O3  UNL     1     -15.926 -13.687   8.667  1.00  0.00    -0.344 OA
HETATM   13  C5  UNL     1     -15.371 -14.892   8.256  1.00  0.00     0.207 C 
ENDBRANCH   5  12
ENDBRANCH   1   2
BRANCH   1  14
HETATM   14  N2  UNL     1     -17.847  -9.102   9.567  1.00  0.00    -0.351 N 
HETATM   15  C8  UNL     1     -17.906  -7.744   9.934  1.00  0.00     0.247 C 
HETATM   16  O5  UNL     1     -17.009  -7.203  10.621  1.00  0.00    -0.271 OA
ATOM     17  H2  UNL     1     -18.627  -9.449   9.009  1.00  0.00     0.163 HD
BRANCH  15  18
HETATM   18  C9  UNL     1     -19.031  -6.865   9.534  1.00  0.00     0.215 C 
HETATM   19  C10 UNL     1     -19.201  -5.747  10.554  1.00  0.00     0.076 C 
HETATM   20  C11 UNL     1     -20.681  -5.491  10.501  1.00  0.00     0.210 C 
HETATM   21  C12 UNL     1     -21.139  -6.428   9.397  1.00  0.00     0.201 C 
HETATM   22  O6  UNL     1     -20.243  -7.501   9.485  1.00  0.00    -0.374 OA
BRANCH  20  23
HETATM   23  N3  UNL     1     -21.004  -4.138  10.133  1.00  0.00    -0.073 N 
ATOM     24  H33 UNL     1     -20.323  -3.767   9.471  1.00  0.00     0.274 HD
ATOM     25  H32 UNL     1     -21.838  -4.108   9.547  1.00  0.00     0.274 HD
ATOM     26  H31 UNL     1     -21.103  -3.519  10.939  1.00  0.00     0.274 HD
ENDBRANCH  20  23
ENDBRANCH  15  18
ENDBRANCH   1  14
BRANCH   1  27
HETATM   27  C13 UNL     1     -17.134 -10.581  11.289  1.00  0.00     0.003 C 
HETATM   28  C14 UNL     1     -18.329  -9.929  11.892  1.00  0.00     0.011 C 
HETATM   29  C15 UNL     1     -17.222 -12.069  11.330  1.00  0.00     0.011 C 
ENDBRANCH   1  27
TORSDOF 7
ENDMDL
MODEL 2
REMARK VINA RESULT: -4.980783082      1.633      3.607
REMARK  7 active torsions:
REMARK  status: ('A' for Active; 'I' for Inactive)
REMARK       I    between atoms: N1_2  and  C2_4 
REMARK    1  A    between atoms: C2_4  and  C3_6 
REMARK    2  A    between atoms: C4_8  and  O3_9 
REMARK    3  A    between atoms: C6_12  and  C7_13 
REMARK    4  A    between atoms: C7_13  and  N2_14 
REMARK    5  A    between atoms: C7_13  and  C13_27 
REMARK       I    between atoms: N2_14  and  C8_16 
REMARK    6  A    between atoms: C8_16  and  C9_18 
REMARK    7  A    between atoms: C11_20  and  N3_21 
ROOT
HETATM    1  C7  UNL     1     -16.719 -10.141   7.942  1.00  0.00     0.120 C 
ENDROOT
BRANCH   1   2
HETATM    2  C6  UNL     1     -16.064 -11.188   8.732  1.00  0.00     0.188 C 
HETATM    3  C3  UNL     1     -15.801 -10.942  10.174  1.00  0.00     0.249 C 
HETATM    4  O2  UNL     1     -15.472 -12.272  10.561  1.00  0.00    -0.321 OA
HETATM    5  C4  UNL     1     -16.117 -13.108   9.653  1.00  0.00     0.413 C 
HETATM    6  O4  UNL     1     -16.964 -12.278   8.875  1.00  0.00    -0.328 OA
BRANCH   3   7
HETATM    7  C2  UNL     1     -16.978 -10.552  10.955  1.00  0.00     0.249 C 
HETATM    8  N1  UNL     1     -18.042 -11.462  11.143  1.00  0.00    -0.363 N 
HETATM    9  C1  UNL     1     -19.230 -11.089  11.922  1.00  0.00     0.149 C 
ATOM     10  H1  UNL     1     -17.984 -12.393  10.731  1.00  0.00     0.162 HD
HETATM   11  O1  UNL     1     -17.065  -9.417  11.468  1.00  0.00    -0.271 OA
ENDBRANCH   3   7
BRANCH   5  12
HETATM   12  O3  UNL     1     -15.249 -13.702   8.754  1.00  0.00    -0.344 OA
HETATM   13  C5  UNL     1     -15.557 -15.032   8.502  1.00  0.00     0.207 C 
ENDBRANCH   5  12
ENDBRANCH   1   2
BRANCH   1  14
HETATM   14  N2  UNL     1     -16.921  -8.889   8.600  1.00  0.00    -0.351 N 
HETATM   15  C8  UNL     1     -18.137  -8.325   9.031  1.00  0.00     0.247 C 
HETATM   16  O5  UNL     1     -19.233  -8.906   8.864  1.00  0.00    -0.271 OA
ATOM     17  H2  UNL     1     -16.082  -8.336   8.779  1.00  0.00     0.163 HD
BRANCH  15  18
HETATM   18  C9  UNL     1     -18.200  -7.007   9.708  1.00  0.00     0.215 C 
HETATM   19  C10 UNL     1     -19.651  -6.641   9.990  1.00  0.00     0.076 C 
HETATM   20  C11 UNL     1     -19.623  -5.141   9.898  1.00  0.00     0.210 C 
HETATM   21  C12 UNL     1     -18.150  -4.851   9.669  1.00  0.00     0.201 C 
HETATM   22  O6  UNL     1     -17.701  -5.973   8.961  1.00  0.00    -0.374 OA
BRANCH  20  23
HETATM   23  N3  UNL     1     -20.047  -4.496  11.112  1.00  0.00    -0.073 N 
ATOM     24  H33 UNL     1     -20.977  -4.812  11.388  1.00  0.00     0.274 HD
ATOM     25  H32 UNL     1     -19.512  -4.836  11.911  1.00  0.00     0.274 HD
ATOM     26  H31 UNL     1     -20.010  -3.477  11.056  1.00  0.00     0.274 HD
ENDBRANCH  20  23
ENDBRANCH  15  18
ENDBRANCH   1  14
BRANCH   1  27
HETATM   27  C13 UNL     1     -15.909  -9.847   6.671  1.00  0.00     0.003 C 
HETATM   28  C14 UNL     1     -15.199  -8.541   6.740  1.00  0.00     0.011 C 
HETATM   29  C15 UNL     1     -14.994 -10.968   6.309  1.00  0.00     0.011 C 
ENDBRANCH   1  27
TORSDOF 7
ENDMDL
MODEL 3
REMARK VINA RESULT: -4.167932343      0.980      1.050
REMARK  7 active torsions:
REMARK  status: ('A' for Active; 'I' for Inactive)
REMARK       I    between atoms: N1_2  and  C2_4 
REMARK    1  A    between atoms: C2_4  and  C3_6 
REMARK    2  A    between atoms: C4_8  and  O3_9 
REMARK    3  A    between atoms: C6_12  and  C7_13 
REMARK    4  A    between atoms: C7_13  and  N2_14 
REMARK    5  A    between atoms: C7_13  and  C13_27 
REMARK       I    between atoms: N2_14  and  C8_16 
REMARK    6  A    between atoms: C8_16  and  C9_18 
REMARK    7  A    between atoms: C11_20  and  N3_21 
ROOT
HETATM    1  C7  UNL     1     -17.256  -9.446  10.173  1.00  0.00     0.120 C 
ENDROOT
BRANCH   1   2
HETATM    2  C6  UNL     1     -17.154 -10.662   9.362  1.00  0.00     0.188 C 
HETATM    3  C3  UNL     1     -17.221 -10.547   7.881  1.00  0.00     0.249 C 
HETATM    4  O2  UNL     1     -16.781 -11.858   7.544  1.00  0.00    -0.321 OA
HETATM    5  C4  UNL     1     -15.999 -12.288   8.614  1.00  0.00     0.413 C 
HETATM    6  O4  UNL     1     -15.829 -11.165   9.464  1.00  0.00    -0.328 OA
BRANCH   3   7
HETATM    7  C2  UNL     1     -16.258  -9.612   7.294  1.00  0.00     0.249 C 
HETATM    8  N1  UNL     1     -15.264 -10.078   6.405  1.00  0.00    -0.363 N 
HETATM    9  C1  UNL     1     -14.289  -9.156   5.806  1.00  0.00     0.149 C 
ATOM     10  H1  UNL     1     -15.223 -11.070   6.175  1.00  0.00     0.162 HD
HETATM   11  O1  UNL     1     -16.295  -8.393   7.563  1.00  0.00    -0.271 OA
ENDBRANCH   3   7
BRANCH   5  12
HETATM   12  O3  UNL     1     -16.622 -13.251   9.387  1.00  0.00    -0.344 OA
HETATM   13  C5  UNL     1     -16.133 -13.303  10.686  1.00  0.00     0.207 C 
ENDBRANCH   5  12
ENDBRANCH   1   2
BRANCH   1  14
HETATM   14  N2  UNL     1     -18.321  -8.553   9.838  1.00  0.00    -0.351 N 
HETATM   15  C8  UNL     1     -18.338  -7.149   9.947  1.00  0.00     0.247 C 
HETATM   16  O5  UNL     1     -17.355  -6.505  10.381  1.00  0.00    -0.271 OA
ATOM     17  H2  UNL     1     -19.171  -8.984   9.476  1.00  0.00     0.163 HD
BRANCH  15  18
HETATM   18  C9  UNL     1     -19.519  -6.341   9.557  1.00  0.00     0.215 C 
HETATM   19  C10 UNL     1     -19.628  -5.119  10.460  1.00  0.00     0.076 C 
HETATM   20  C11 UNL     1     -21.114  -4.898  10.514  1.00  0.00     0.210 C 
HETATM   21  C12 UNL     1     -21.642  -5.960   9.566  1.00  0.00     0.201 C 
HETATM   22  O6  UNL     1     -20.712  -7.000   9.690  1.00  0.00    -0.374 OA
BRANCH  20  23
HETATM   23  N3  UNL     1     -21.506  -3.600  10.032  1.00  0.00    -0.073 N 
ATOM     24  H33 UNL     1     -21.183  -3.453   9.076  1.00  0.00     0.274 HD
ATOM     25  H32 UNL     1     -22.513  -3.558   9.876  1.00  0.00     0.274 HD
ATOM     26  H31 UNL     1     -21.200  -2.840  10.640  1.00  0.00     0.274 HD
ENDBRANCH  20  23
ENDBRANCH  15  18
ENDBRANCH   1  14
BRANCH   1  27
HETATM   27  C13 UNL     1     -17.431  -9.806  11.655  1.00  0.00     0.003 C 
HETATM   28  C14 UNL     1     -17.691  -8.610  12.502  1.00  0.00     0.011 C 
HETATM   29  C15 UNL     1     -18.449 -10.877  11.863  1.00  0.00     0.011 C 
ENDBRANCH   1  27
TORSDOF 7
ENDMDL
MODEL 4
REMARK VINA RESULT: -4.003259957      1.170      1.284
REMARK  7 active torsions:
REMARK  status: ('A' for Active; 'I' for Inactive)
REMARK       I    between atoms: N1_2  and  C2_4 
REMARK    1  A    between atoms: C2_4  and  C3_6 
REMARK    2  A    between atoms: C4_8  and  O3_9 
REMARK    3  A    between atoms: C6_12  and  C7_13 
REMARK    4  A    between atoms: C7_13  and  N2_14 
REMARK    5  A    between atoms: C7_13  and  C13_27 
REMARK       I    between atoms: N2_14  and  C8_16 
REMARK    6  A    between atoms: C8_16  and  C9_18 
REMARK    7  A    between atoms: C11_20  and  N3_21 
ROOT
HETATM    1  C7  UNL     1     -16.595 -10.602  10.338  1.00  0.00     0.120 C 
ENDROOT
BRANCH   1   2
HETATM    2  C6  UNL     1     -16.295 -11.499   9.219  1.00  0.00     0.188 C 
HETATM    3  C3  UNL     1     -16.739 -11.117   7.853  1.00  0.00     0.249 C 
HETATM    4  O2  UNL     1     -15.988 -12.070   7.109  1.00  0.00    -0.321 OA
HETATM    5  C4  UNL     1     -14.882 -12.386   7.895  1.00  0.00     0.413 C 
HETATM    6  O4  UNL     1     -14.894 -11.481   8.986  1.00  0.00    -0.328 OA
BRANCH   3   7
HETATM    7  C2  UNL     1     -16.297  -9.791   7.411  1.00  0.00     0.249 C 
HETATM    8  N1  UNL     1     -15.048  -9.634   6.773  1.00  0.00    -0.363 N 
HETATM    9  C1  UNL     1     -14.587  -8.312   6.324  1.00  0.00     0.149 C 
ATOM     10  H1  UNL     1     -14.456 -10.450   6.620  1.00  0.00     0.162 HD
HETATM   11  O1  UNL     1     -17.011  -8.782   7.588  1.00  0.00    -0.271 OA
ENDBRANCH   3   7
BRANCH   5  12
HETATM   12  O3  UNL     1     -14.960 -13.649   8.456  1.00  0.00    -0.344 OA
HETATM   13  C5  UNL     1     -15.741 -14.525   7.712  1.00  0.00     0.207 C 
ENDBRANCH   5  12
ENDBRANCH   1   2
BRANCH   1  14
HETATM   14  N2  UNL     1     -17.288  -9.396  10.011  1.00  0.00    -0.351 N 
HETATM   15  C8  UNL     1     -17.421  -8.235  10.797  1.00  0.00     0.247 C 
HETATM   16  O5  UNL     1     -16.911  -8.144  11.937  1.00  0.00    -0.271 OA
ATOM     17  H2  UNL     1     -17.742  -9.373   9.098  1.00  0.00     0.163 HD
BRANCH  15  18
HETATM   18  C9  UNL     1     -18.172  -7.046  10.328  1.00  0.00     0.215 C 
HETATM   19  C10 UNL     1     -19.619  -7.429  10.045  1.00  0.00     0.076 C 
HETATM   20  C11 UNL     1     -19.982  -6.490   8.928  1.00  0.00     0.210 C 
HETATM   21  C12 UNL     1     -18.730  -5.642   8.789  1.00  0.00     0.201 C 
HETATM   22  O6  UNL     1     -17.699  -6.516   9.157  1.00  0.00    -0.374 OA
BRANCH  20  23
HETATM   23  N3  UNL     1     -21.096  -5.637   9.251  1.00  0.00    -0.073 N 
ATOM     24  H33 UNL     1     -21.277  -4.974   8.498  1.00  0.00     0.274 HD
ATOM     25  H32 UNL     1     -21.972  -6.158   9.228  1.00  0.00     0.274 HD
ATOM     26  H31 UNL     1     -20.982  -5.154  10.142  1.00  0.00     0.274 HD
ENDBRANCH  20  23
ENDBRANCH  15  18
ENDBRANCH   1  14
BRANCH   1  27
HETATM   27  C13 UNL     1     -17.445 -11.329  11.391  1.00  0.00     0.003 C 
HETATM   28  C14 UNL     1     -18.796 -10.724  11.545  1.00  0.00     0.011 C 
HETATM   29  C15 UNL     1     -17.509 -12.800  11.151  1.00  0.00     0.011 C 
ENDBRANCH   1  27
TORSDOF 7
ENDMDL
MODEL 5
REMARK VINA RESULT: -3.530081056     10.028     12.684
REMARK  7 active torsions:
REMARK  status: ('A' for Active; 'I' for Inactive)
REMARK       I    between atoms: N1_2  and  C2_4 
REMARK    1  A    between atoms: C2_4  and  C3_6 
REMARK    2  A    between atoms: C4_8  and  O3_9 
REMARK    3  A    between atoms: C6_12  and  C7_13 
REMARK    4  A    between atoms: C7_13  and  N2_14 
REMARK    5  A    between atoms: C7_13  and  C13_27 
REMARK       I    between atoms: N2_14  and  C8_16 
REMARK    6  A    between atoms: C8_16  and  C9_18 
REMARK    7  A    between atoms: C11_20  and  N3_21 
ROOT
HETATM    1  C7  UNL     1     -25.462 -12.100   4.344  1.00  0.00     0.120 C 
ENDROOT
BRANCH   1   2
HETATM    2  C6  UNL     1     -26.230 -11.082   3.621  1.00  0.00     0.188 C 
HETATM    3  C3  UNL     1     -27.584 -10.719   4.114  1.00  0.00     0.249 C 
HETATM    4  O2  UNL     1     -27.786  -9.543   3.337  1.00  0.00    -0.321 OA
HETATM    5  C4  UNL     1     -26.516  -9.052   3.046  1.00  0.00     0.413 C 
HETATM    6  O4  UNL     1     -25.602  -9.822   3.810  1.00  0.00    -0.328 OA
BRANCH   3   7
HETATM    7  C2  UNL     1     -27.637 -10.312   5.521  1.00  0.00     0.249 C 
HETATM    8  N1  UNL     1     -27.520  -8.949   5.873  1.00  0.00    -0.363 N 
HETATM    9  C1  UNL     1     -27.570  -8.522   7.278  1.00  0.00     0.149 C 
ATOM     10  H1  UNL     1     -27.400  -8.251   5.140  1.00  0.00     0.162 HD
HETATM   11  O1  UNL     1     -27.786 -11.154   6.431  1.00  0.00    -0.271 OA
ENDBRANCH   3   7
BRANCH   5  12
HETATM   12  O3  UNL     1     -26.152  -9.243   1.725  1.00  0.00    -0.344 OA
HETATM   13  C5  UNL     1     -27.212  -9.086   0.843  1.00  0.00     0.207 C 
ENDBRANCH   5  12
ENDBRANCH   1   2
BRANCH   1  14
HETATM   14  N2  UNL     1     -25.137 -13.283   3.611  1.00  0.00    -0.351 N 
HETATM   15  C8  UNL     1     -26.018 -14.161   2.951  1.00  0.00     0.247 C 
HETATM   16  O5  UNL     1     -27.257 -13.978   2.946  1.00  0.00    -0.271 OA
ATOM     17  H2  UNL     1     -24.146 -13.521   3.560  1.00  0.00     0.163 HD
BRANCH  15  18
HETATM   18  C9  UNL     1     -25.539 -15.360   2.221  1.00  0.00     0.215 C 
HETATM   19  C10 UNL     1     -26.613 -15.835   1.250  1.00  0.00     0.076 C 
HETATM   20  C11 UNL     1     -26.379 -17.319   1.222  1.00  0.00     0.210 C 
HETATM   21  C12 UNL     1     -25.152 -17.478   2.102  1.00  0.00     0.201 C 
HETATM   22  O6  UNL     1     -25.275 -16.434   3.028  1.00  0.00    -0.374 OA
BRANCH  20  23
HETATM   23  N3  UNL     1     -26.079 -17.815  -0.096  1.00  0.00    -0.073 N 
ATOM     24  H33 UNL     1     -26.914 -18.197  -0.540  1.00  0.00     0.274 HD
ATOM     25  H32 UNL     1     -25.886 -17.047  -0.739  1.00  0.00     0.274 HD
ATOM     26  H31 UNL     1     -25.319 -18.496  -0.102  1.00  0.00     0.274 HD
ENDBRANCH  20  23
ENDBRANCH  15  18
ENDBRANCH   1  14
BRANCH   1  27
HETATM   27  C13 UNL     1     -24.135 -11.512   4.845  1.00  0.00     0.003 C 
HETATM   28  C14 UNL     1     -24.278 -10.831   6.161  1.00  0.00     0.011 C 
HETATM   29  C15 UNL     1     -23.033 -12.517   4.847  1.00  0.00     0.011 C 
ENDBRANCH   1  27
TORSDOF 7
ENDMDL
