MODEL 1
REMARK VINA RESULT: -8.205364779      0.000      0.000
REMARK  7 active torsions:
REMARK  status: ('A' for Active; 'I' for Inactive)
REMARK    1  A    between atoms: N3_4  and  O1_6 
REMARK    2  A    between atoms: O1_6  and  C2_7 
REMARK    3  A    between atoms: C2_7  and  C3_8 
REMARK       I    between atoms: C3_8  and  N4_10 
REMARK    4  A    between atoms: N4_10  and  N5_12 
REMARK    5  A    between atoms: C4_14  and  C5_15 
REMARK    6  A    between atoms: C7_18  and  N6_19 
REMARK    7  A    between atoms: N7_25  and  O3_26 
ROOT
HETATM    1  N5  UNL     1     -16.102  -8.334   7.369  1.00  0.00    -0.307 N 
ATOM      2  H5  UNL     1     -15.369  -8.116   6.694  1.00  0.00     0.186 HD
HETATM    3  C4  UNL     1     -16.672  -7.294   7.735  1.00  0.00     0.139 C 
ENDROOT
BRANCH   3   4
HETATM    4  C5  UNL     1     -17.786  -7.181   8.699  1.00  0.00     0.088 A 
HETATM    5  C6  UNL     1     -18.429  -8.321   9.105  1.00  0.00     0.086 A 
HETATM    6  S1  UNL     1     -19.606  -7.719  10.185  1.00  0.00    -0.061 SA
HETATM    7  C7  UNL     1     -19.221  -6.059  10.063  1.00  0.00     0.174 A 
HETATM    8  N7  UNL     1     -18.209  -6.046   9.200  1.00  0.00    -0.200 N 
BRANCH   7   9
HETATM    9  N6  UNL     1     -19.844  -4.938  10.733  1.00  0.00    -0.360 N 
HETATM   10  C8  UNL     1     -19.127  -3.950  11.445  1.00  0.00     0.125 C 
HETATM   11  C9  UNL     1     -19.949  -2.866  12.053  1.00  0.00     0.020 C 
HETATM   12  C10 UNL     1     -21.337  -3.222  12.422  1.00  0.00     0.003 C 
HETATM   13  C11 UNL     1     -21.767  -4.600  12.060  1.00  0.00     0.020 C 
HETATM   14  C12 UNL     1     -21.287  -4.867  10.642  1.00  0.00     0.125 C 
ENDBRANCH   7   9
BRANCH   8  15
HETATM   15  O3  UNL     1     -17.640  -4.796   8.872  1.00  0.00    -0.280 OA
ATOM     16  H3  UNL     1     -17.389  -4.152   9.524  1.00  0.00     0.245 HD
ENDBRANCH   8  15
ENDBRANCH   3   4
BRANCH   1  17
HETATM   17  N4  UNL     1     -16.153  -9.653   7.586  1.00  0.00    -0.269 N 
HETATM   18  C3  UNL     1     -15.233 -10.626   7.059  1.00  0.00     0.262 C 
HETATM   19  O2  UNL     1     -14.282 -10.255   6.327  1.00  0.00    -0.269 OA
ATOM     20  H4  UNL     1     -16.910 -10.000   8.176  1.00  0.00     0.190 HD
BRANCH  18  21
HETATM   21  C2  UNL     1     -15.365 -12.066   7.350  1.00  0.00     0.305 C 
BRANCH  21  22
HETATM   22  O1  UNL     1     -14.935 -12.396   8.641  1.00  0.00    -0.269 OA
BRANCH  22  23
HETATM   23  N3  UNL     1     -15.805 -13.102   9.432  1.00  0.00    -0.240 N 
HETATM   24  C1  UNL     1     -16.456 -12.477  10.341  1.00  0.00     0.221 C 
HETATM   25  N1  UNL     1     -17.351 -13.228  11.147  1.00  0.00    -0.065 NA
HETATM   26  N2  UNL     1     -16.276 -11.094  10.521  1.00  0.00    -0.065 NA
ATOM     27  H3  UNL     1     -15.932 -14.105   9.298  1.00  0.00     0.196 HD
ENDBRANCH  22  23
ENDBRANCH  21  22
ENDBRANCH  18  21
ENDBRANCH   1  17
TORSDOF 7
ENDMDL
MODEL 2
REMARK VINA RESULT: -7.557298179      1.506      1.915
REMARK  7 active torsions:
REMARK  status: ('A' for Active; 'I' for Inactive)
REMARK    1  A    between atoms: N3_4  and  O1_6 
REMARK    2  A    between atoms: O1_6  and  C2_7 
REMARK    3  A    between atoms: C2_7  and  C3_8 
REMARK       I    between atoms: C3_8  and  N4_10 
REMARK    4  A    between atoms: N4_10  and  N5_12 
REMARK    5  A    between atoms: C4_14  and  C5_15 
REMARK    6  A    between atoms: C7_18  and  N6_19 
REMARK    7  A    between atoms: N7_25  and  O3_26 
ROOT
HETATM    1  N5  UNL     1     -15.752 -10.416   6.905  1.00  0.00    -0.307 N 
ATOM      2  H5  UNL     1     -15.104 -10.371   6.118  1.00  0.00     0.186 HD
HETATM    3  C4  UNL     1     -16.047  -9.271   7.283  1.00  0.00     0.139 C 
ENDROOT
BRANCH   3   4
HETATM    4  C5  UNL     1     -16.955  -8.905   8.389  1.00  0.00     0.088 A 
HETATM    5  C6  UNL     1     -17.266  -9.850   9.331  1.00  0.00     0.086 A 
HETATM    6  S1  UNL     1     -18.311  -9.000  10.380  1.00  0.00    -0.061 SA
HETATM    7  C7  UNL     1     -18.297  -7.496   9.569  1.00  0.00     0.174 A 
HETATM    8  N7  UNL     1     -17.493  -7.718   8.534  1.00  0.00    -0.200 N 
BRANCH   7   9
HETATM    9  N6  UNL     1     -18.992  -6.276   9.921  1.00  0.00    -0.360 N 
HETATM   10  C8  UNL     1     -18.469  -5.298  10.796  1.00  0.00     0.125 C 
HETATM   11  C9  UNL     1     -19.331  -4.103  11.021  1.00  0.00     0.020 C 
HETATM   12  C10 UNL     1     -20.790  -4.311  10.886  1.00  0.00     0.003 C 
HETATM   13  C11 UNL     1     -21.211  -5.673  10.457  1.00  0.00     0.020 C 
HETATM   14  C12 UNL     1     -20.295  -6.092   9.317  1.00  0.00     0.125 C 
ENDBRANCH   7   9
BRANCH   8  15
HETATM   15  O3  UNL     1     -17.260  -6.649   7.641  1.00  0.00    -0.280 OA
ATOM     16  H3  UNL     1     -16.476  -6.115   7.663  1.00  0.00     0.245 HD
ENDBRANCH   8  15
ENDBRANCH   3   4
BRANCH   1  17
HETATM   17  N4  UNL     1     -16.021 -11.690   7.210  1.00  0.00    -0.269 N 
HETATM   18  C3  UNL     1     -15.136 -12.592   7.898  1.00  0.00     0.262 C 
HETATM   19  O2  UNL     1     -14.001 -12.197   8.264  1.00  0.00    -0.269 OA
ATOM     20  H4  UNL     1     -16.933 -12.054   6.932  1.00  0.00     0.190 HD
BRANCH  18  21
HETATM   21  C2  UNL     1     -15.515 -13.986   8.194  1.00  0.00     0.305 C 
BRANCH  21  22
HETATM   22  O1  UNL     1     -15.610 -14.238   9.569  1.00  0.00    -0.269 OA
BRANCH  22  23
HETATM   23  N3  UNL     1     -16.754 -13.829  10.204  1.00  0.00    -0.240 N 
HETATM   24  C1  UNL     1     -16.705 -12.791  10.952  1.00  0.00     0.221 C 
HETATM   25  N1  UNL     1     -17.901 -12.385  11.600  1.00  0.00    -0.065 NA
HETATM   26  N2  UNL     1     -15.497 -12.088  11.115  1.00  0.00    -0.065 NA
ATOM     27  H3  UNL     1     -17.628 -14.342  10.083  1.00  0.00     0.196 HD
ENDBRANCH  22  23
ENDBRANCH  21  22
ENDBRANCH  18  21
ENDBRANCH   1  17
TORSDOF 7
ENDMDL
MODEL 3
REMARK VINA RESULT: -7.400341150      2.647      4.244
REMARK  7 active torsions:
REMARK  status: ('A' for Active; 'I' for Inactive)
REMARK    1  A    between atoms: N3_4  and  O1_6 
REMARK    2  A    between atoms: O1_6  and  C2_7 
REMARK    3  A    between atoms: C2_7  and  C3_8 
REMARK       I    between atoms: C3_8  and  N4_10 
REMARK    4  A    between atoms: N4_10  and  N5_12 
REMARK    5  A    between atoms: C4_14  and  C5_15 
REMARK    6  A    between atoms: C7_18  and  N6_19 
REMARK    7  A    between atoms: N7_25  and  O3_26 
ROOT
HETATM    1  N5  UNL     1     -17.672  -5.832  10.087  1.00  0.00    -0.307 N 
ATOM      2  H5  UNL     1     -16.919  -5.813   9.399  1.00  0.00     0.186 HD
HETATM    3  C4  UNL     1     -18.367  -4.807   9.991  1.00  0.00     0.139 C 
ENDROOT
BRANCH   3   4
HETATM    4  C5  UNL     1     -19.550  -4.454  10.802  1.00  0.00     0.088 A 
HETATM    5  C6  UNL     1     -19.455  -3.422  11.699  1.00  0.00     0.086 A 
HETATM    6  S1  UNL     1     -21.018  -3.379  12.384  1.00  0.00    -0.061 SA
HETATM    7  C7  UNL     1     -21.706  -4.669  11.499  1.00  0.00     0.174 A 
HETATM    8  N7  UNL     1     -20.704  -5.070  10.722  1.00  0.00    -0.200 N 
BRANCH   7   9
HETATM    9  N6  UNL     1     -23.050  -5.198  11.577  1.00  0.00    -0.360 N 
HETATM   10  C8  UNL     1     -23.786  -5.643  10.456  1.00  0.00     0.125 C 
HETATM   11  C9  UNL     1     -25.150  -6.170  10.744  1.00  0.00     0.020 C 
HETATM   12  C10 UNL     1     -25.829  -5.617  11.938  1.00  0.00     0.003 C 
HETATM   13  C11 UNL     1     -25.027  -4.664  12.753  1.00  0.00     0.020 C 
HETATM   14  C12 UNL     1     -23.634  -5.255  12.901  1.00  0.00     0.125 C 
ENDBRANCH   7   9
BRANCH   8  15
HETATM   15  O3  UNL     1     -20.946  -6.148   9.843  1.00  0.00    -0.280 OA
ATOM     16  H3  UNL     1     -21.797  -6.327   9.460  1.00  0.00     0.245 HD
ENDBRANCH   8  15
ENDBRANCH   3   4
BRANCH   1  17
HETATM   17  N4  UNL     1     -17.606  -6.952  10.816  1.00  0.00    -0.269 N 
HETATM   18  C3  UNL     1     -18.176  -8.222  10.453  1.00  0.00     0.262 C 
HETATM   19  O2  UNL     1     -18.800  -8.342   9.370  1.00  0.00    -0.269 OA
ATOM     20  H4  UNL     1     -17.107  -6.901  11.705  1.00  0.00     0.190 HD
BRANCH  18  21
HETATM   21  C2  UNL     1     -18.054  -9.410  11.320  1.00  0.00     0.305 C 
BRANCH  21  22
HETATM   22  O1  UNL     1     -16.922 -10.180  11.024  1.00  0.00    -0.269 OA
BRANCH  22  23
HETATM   23  N3  UNL     1     -16.545 -10.260   9.708  1.00  0.00    -0.240 N 
HETATM   24  C1  UNL     1     -15.991 -11.338   9.292  1.00  0.00     0.221 C 
HETATM   25  N1  UNL     1     -15.609 -11.399   7.926  1.00  0.00    -0.065 NA
HETATM   26  N2  UNL     1     -15.778 -12.414  10.172  1.00  0.00    -0.065 NA
ATOM     27  H3  UNL     1     -16.701  -9.477   9.074  1.00  0.00     0.196 HD
ENDBRANCH  22  23
ENDBRANCH  21  22
ENDBRANCH  18  21
ENDBRANCH   1  17
TORSDOF 7
ENDMDL
MODEL 4
REMARK VINA RESULT: -7.291355131      1.675      2.093
REMARK  7 active torsions:
REMARK  status: ('A' for Active; 'I' for Inactive)
REMARK    1  A    between atoms: N3_4  and  O1_6 
REMARK    2  A    between atoms: O1_6  and  C2_7 
REMARK    3  A    between atoms: C2_7  and  C3_8 
REMARK       I    between atoms: C3_8  and  N4_10 
REMARK    4  A    between atoms: N4_10  and  N5_12 
REMARK    5  A    between atoms: C4_14  and  C5_15 
REMARK    6  A    between atoms: C7_18  and  N6_19 
REMARK    7  A    between atoms: N7_25  and  O3_26 
ROOT
HETATM    1  N5  UNL     1     -16.642  -8.715   8.161  1.00  0.00    -0.307 N 
ATOM      2  H5  UNL     1     -15.830  -8.722   7.545  1.00  0.00     0.186 HD
HETATM    3  C4  UNL     1     -17.170  -7.592   8.165  1.00  0.00     0.139 C 
ENDROOT
BRANCH   3   4
HETATM    4  C5  UNL     1     -18.365  -7.171   8.924  1.00  0.00     0.088 A 
HETATM    5  C6  UNL     1     -19.423  -8.037   9.027  1.00  0.00     0.086 A 
HETATM    6  S1  UNL     1     -20.540  -7.149   9.964  1.00  0.00    -0.061 SA
HETATM    7  C7  UNL     1     -19.608  -5.732  10.174  1.00  0.00     0.174 A 
HETATM    8  N7  UNL     1     -18.486  -6.008   9.516  1.00  0.00    -0.200 N 
BRANCH   7   9
HETATM    9  N6  UNL     1     -19.954  -4.525  10.893  1.00  0.00    -0.360 N 
HETATM   10  C8  UNL     1     -19.004  -3.666  11.490  1.00  0.00     0.125 C 
HETATM   11  C9  UNL     1     -19.559  -2.462  12.172  1.00  0.00     0.020 C 
HETATM   12  C10 UNL     1     -20.929  -2.590  12.717  1.00  0.00     0.003 C 
HETATM   13  C11 UNL     1     -21.617  -3.880  12.439  1.00  0.00     0.020 C 
HETATM   14  C12 UNL     1     -21.367  -4.221  10.979  1.00  0.00     0.125 C 
ENDBRANCH   7   9
BRANCH   8  15
HETATM   15  O3  UNL     1     -17.477  -5.020   9.493  1.00  0.00    -0.280 OA
ATOM     16  H3  UNL     1     -16.624  -5.158   9.100  1.00  0.00     0.245 HD
ENDBRANCH   8  15
ENDBRANCH   3   4
BRANCH   1  17
HETATM   17  N4  UNL     1     -16.811  -9.921   8.717  1.00  0.00    -0.269 N 
HETATM   18  C3  UNL     1     -16.939 -10.184  10.125  1.00  0.00     0.262 C 
HETATM   19  O2  UNL     1     -16.897  -9.233  10.946  1.00  0.00    -0.269 OA
ATOM     20  H4  UNL     1     -16.852 -10.723   8.087  1.00  0.00     0.190 HD
BRANCH  18  21
HETATM   21  C2  UNL     1     -17.122 -11.550  10.652  1.00  0.00     0.305 C 
BRANCH  21  22
HETATM   22  O1  UNL     1     -15.950 -12.314  10.588  1.00  0.00    -0.269 OA
BRANCH  22  23
HETATM   23  N3  UNL     1     -15.994 -13.470   9.853  1.00  0.00    -0.240 N 
HETATM   24  C1  UNL     1     -15.361 -13.517   8.741  1.00  0.00     0.221 C 
HETATM   25  N1  UNL     1     -15.420 -14.725   7.998  1.00  0.00    -0.065 NA
HETATM   26  N2  UNL     1     -14.636 -12.401   8.288  1.00  0.00    -0.065 NA
ATOM     27  H3  UNL     1     -16.521 -14.278  10.186  1.00  0.00     0.196 HD
ENDBRANCH  22  23
ENDBRANCH  21  22
ENDBRANCH  18  21
ENDBRANCH   1  17
TORSDOF 7
ENDMDL
MODEL 5
REMARK VINA RESULT: -7.123926995      3.064      8.396
REMARK  7 active torsions:
REMARK  status: ('A' for Active; 'I' for Inactive)
REMARK    1  A    between atoms: N3_4  and  O1_6 
REMARK    2  A    between atoms: O1_6  and  C2_7 
REMARK    3  A    between atoms: C2_7  and  C3_8 
REMARK       I    between atoms: C3_8  and  N4_10 
REMARK    4  A    between atoms: N4_10  and  N5_12 
REMARK    5  A    between atoms: C4_14  and  C5_15 
REMARK    6  A    between atoms: C7_18  and  N6_19 
REMARK    7  A    between atoms: N7_25  and  O3_26 
ROOT
HETATM    1  N5  UNL     1     -19.468  -5.375   9.203  1.00  0.00    -0.307 N 
ATOM      2  H5  UNL     1     -19.393  -4.468   8.741  1.00  0.00     0.186 HD
HETATM    3  C4  UNL     1     -18.412  -6.014   9.070  1.00  0.00     0.139 C 
ENDROOT
BRANCH   3   4
HETATM    4  C5  UNL     1     -18.116  -7.364   9.591  1.00  0.00     0.088 A 
HETATM    5  C6  UNL     1     -18.602  -7.720  10.822  1.00  0.00     0.086 A 
HETATM    6  S1  UNL     1     -18.027  -9.318  11.001  1.00  0.00    -0.061 SA
HETATM    7  C7  UNL     1     -17.205  -9.447   9.508  1.00  0.00     0.174 A 
HETATM    8  N7  UNL     1     -17.411  -8.260   8.946  1.00  0.00    -0.200 N 
BRANCH   7   9
HETATM    9  N6  UNL     1     -16.465 -10.574   8.983  1.00  0.00    -0.360 N 
HETATM   10  C8  UNL     1     -16.341 -10.862   7.605  1.00  0.00     0.125 C 
HETATM   11  C9  UNL     1     -15.523 -12.059   7.264  1.00  0.00     0.020 C 
HETATM   12  C10 UNL     1     -15.478 -13.135   8.280  1.00  0.00     0.003 C 
HETATM   13  C11 UNL     1     -16.190 -12.848   9.556  1.00  0.00     0.020 C 
HETATM   14  C12 UNL     1     -15.830 -11.429   9.966  1.00  0.00     0.125 C 
ENDBRANCH   7   9
BRANCH   8  15
HETATM   15  O3  UNL     1     -16.850  -8.032   7.670  1.00  0.00    -0.280 OA
ATOM     16  H3  UNL     1     -16.348  -8.685   7.198  1.00  0.00     0.245 HD
ENDBRANCH   8  15
ENDBRANCH   3   4
BRANCH   1  17
HETATM   17  N4  UNL     1     -20.675  -5.508   9.765  1.00  0.00    -0.269 N 
HETATM   18  C3  UNL     1     -21.174  -4.738  10.872  1.00  0.00     0.262 C 
HETATM   19  O2  UNL     1     -20.453  -3.850  11.392  1.00  0.00    -0.269 OA
ATOM     20  H4  UNL     1     -21.295  -6.218   9.374  1.00  0.00     0.190 HD
BRANCH  18  21
HETATM   21  C2  UNL     1     -22.522  -4.953  11.431  1.00  0.00     0.305 C 
BRANCH  21  22
HETATM   22  O1  UNL     1     -23.178  -6.046  10.851  1.00  0.00    -0.269 OA
BRANCH  22  23
HETATM   23  N3  UNL     1     -24.358  -5.796  10.199  1.00  0.00    -0.240 N 
HETATM   24  C1  UNL     1     -25.445  -5.787  10.877  1.00  0.00     0.221 C 
HETATM   25  N1  UNL     1     -26.655  -5.525  10.182  1.00  0.00    -0.065 NA
HETATM   26  N2  UNL     1     -25.421  -6.028  12.262  1.00  0.00    -0.065 NA
ATOM     27  H3  UNL     1     -24.370  -5.622   9.194  1.00  0.00     0.196 HD
ENDBRANCH  22  23
ENDBRANCH  21  22
ENDBRANCH  18  21
ENDBRANCH   1  17
TORSDOF 7
ENDMDL
