MODEL 1
REMARK VINA RESULT: -6.590648241      0.000      0.000
REMARK  9 active torsions:
REMARK  status: ('A' for Active; 'I' for Inactive)
REMARK    1  A    between atoms: C5_6  and  N1_7 
REMARK    2  A    between atoms: N1_7  and  C7_9 
REMARK    3  A    between atoms: C7_9  and  C8_10 
REMARK    4  A    between atoms: C8_10  and  C9_11 
REMARK    5  A    between atoms: C9_11  and  O2_12 
REMARK    6  A    between atoms: O2_12  and  C10_13 
REMARK    7  A    between atoms: C12_15  and  O3_16 
REMARK    8  A    between atoms: C16_22  and  O5_23 
REMARK    9  A    between atoms: C17_25  and  O6_26 
ROOT
HETATM    1  C9  UNL     1     -18.270  -9.724  11.024  1.00  0.00     0.169 C 
ENDROOT
BRANCH   1   2
HETATM    2  C8  UNL     1     -17.922  -8.513  11.875  1.00  0.00     0.046 C 
BRANCH   2   3
HETATM    3  C7  UNL     1     -17.444  -7.443  10.928  1.00  0.00     0.119 C 
BRANCH   3   4
HETATM    4  N1  UNL     1     -18.360  -7.137   9.844  1.00  0.00    -0.407 N 
HETATM    5  C6  UNL     1     -17.687  -6.801   8.638  1.00  0.00     0.143 C 
BRANCH   4   6
HETATM    6  C5  UNL     1     -19.482  -6.413  10.254  1.00  0.00     0.138 C 
HETATM    7  C3  UNL     1     -19.384  -5.100  10.880  1.00  0.00     0.143 C 
HETATM    8  O1  UNL     1     -20.471  -4.323  10.441  1.00  0.00    -0.377 OA
HETATM    9  C4  UNL     1     -18.184  -4.262  10.765  1.00  0.00     0.042 C 
HETATM   10  C2  UNL     1     -21.403  -5.155   9.882  1.00  0.00     0.148 C 
HETATM   11  C1  UNL     1     -22.473  -5.657  10.786  1.00  0.00     0.042 C 
HETATM   12  C17 UNL     1     -20.598  -6.291   9.256  1.00  0.00     0.171 C 
BRANCH  12  13
HETATM   13  O6  UNL     1     -20.245  -5.883   8.002  1.00  0.00    -0.391 OA
ATOM     14  H6  UNL     1     -20.442  -6.601   7.412  1.00  0.00     0.210 HD
ENDBRANCH  12  13
ENDBRANCH   4   6
ENDBRANCH   3   4
ENDBRANCH   2   3
ENDBRANCH   1   2
BRANCH   1  15
HETATM   15  O2  UNL     1     -17.287 -10.661  10.898  1.00  0.00    -0.385 OA
BRANCH  15  16
HETATM   16  C10 UNL     1     -16.469 -10.524   9.802  1.00  0.00     0.132 C 
HETATM   17  C11 UNL     1     -17.349 -10.437   8.549  1.00  0.00     0.067 C 
HETATM   18  C12 UNL     1     -16.520 -10.468   7.305  1.00  0.00     0.152 C 
HETATM   19  C13 UNL     1     -15.488 -11.582   7.333  1.00  0.00     0.179 C 
HETATM   20  O4  UNL     1     -16.054 -12.786   7.642  1.00  0.00    -0.380 OA
HETATM   21  C16 UNL     1     -14.573 -11.335   8.537  1.00  0.00     0.158 C 
HETATM   22  C14 UNL     1     -16.261 -12.893   8.992  1.00  0.00     0.178 C 
HETATM   23  C15 UNL     1     -15.565 -11.716   9.651  1.00  0.00     0.070 C 
BRANCH  18  24
HETATM   24  O3  UNL     1     -15.867  -9.278   7.079  1.00  0.00    -0.393 OA
ATOM     25  H3  UNL     1     -15.353  -9.292   6.280  1.00  0.00     0.210 HD
ENDBRANCH  18  24
BRANCH  21  26
HETATM   26  O5  UNL     1     -13.545 -12.238   8.474  1.00  0.00    -0.392 OA
ATOM     27  H5  UNL     1     -12.952 -12.053   9.193  1.00  0.00     0.210 HD
ENDBRANCH  21  26
ENDBRANCH  15  16
ENDBRANCH   1  15
TORSDOF 9
ENDMDL
MODEL 2
REMARK VINA RESULT: -6.015223274      1.261      2.242
REMARK  9 active torsions:
REMARK  status: ('A' for Active; 'I' for Inactive)
REMARK    1  A    between atoms: C5_6  and  N1_7 
REMARK    2  A    between atoms: N1_7  and  C7_9 
REMARK    3  A    between atoms: C7_9  and  C8_10 
REMARK    4  A    between atoms: C8_10  and  C9_11 
REMARK    5  A    between atoms: C9_11  and  O2_12 
REMARK    6  A    between atoms: O2_12  and  C10_13 
REMARK    7  A    between atoms: C12_15  and  O3_16 
REMARK    8  A    between atoms: C16_22  and  O5_23 
REMARK    9  A    between atoms: C17_25  and  O6_26 
ROOT
HETATM    1  C9  UNL     1     -16.618  -8.544   7.798  1.00  0.00     0.169 C 
ENDROOT
BRANCH   1   2
HETATM    2  C8  UNL     1     -17.163  -7.154   8.088  1.00  0.00     0.046 C 
BRANCH   2   3
HETATM    3  C7  UNL     1     -18.405  -7.341   8.919  1.00  0.00     0.119 C 
BRANCH   3   4
HETATM    4  N1  UNL     1     -18.429  -6.579  10.155  1.00  0.00    -0.407 N 
HETATM    5  C6  UNL     1     -17.653  -7.181  11.183  1.00  0.00     0.143 C 
BRANCH   4   6
HETATM    6  C5  UNL     1     -19.681  -6.029  10.443  1.00  0.00     0.138 C 
HETATM    7  C3  UNL     1     -19.839  -4.752  11.126  1.00  0.00     0.143 C 
HETATM    8  O1  UNL     1     -20.957  -4.097  10.579  1.00  0.00    -0.377 OA
HETATM    9  C4  UNL     1     -18.758  -3.761  11.202  1.00  0.00     0.042 C 
HETATM   10  C2  UNL     1     -21.692  -5.010   9.871  1.00  0.00     0.148 C 
HETATM   11  C1  UNL     1     -22.789  -5.695  10.607  1.00  0.00     0.042 C 
HETATM   12  C17 UNL     1     -20.670  -5.996   9.312  1.00  0.00     0.171 C 
BRANCH  12  13
HETATM   13  O6  UNL     1     -20.221  -5.478   8.132  1.00  0.00    -0.391 OA
ATOM     14  H6  UNL     1     -20.985  -5.322   7.590  1.00  0.00     0.210 HD
ENDBRANCH  12  13
ENDBRANCH   4   6
ENDBRANCH   3   4
ENDBRANCH   2   3
ENDBRANCH   1   2
BRANCH   1  15
HETATM   15  O2  UNL     1     -17.133  -9.551   8.559  1.00  0.00    -0.385 OA
BRANCH  15  16
HETATM   16  C10 UNL     1     -16.266 -10.575   8.861  1.00  0.00     0.132 C 
HETATM   17  C11 UNL     1     -16.479 -11.703   7.844  1.00  0.00     0.067 C 
HETATM   18  C12 UNL     1     -15.698 -12.922   8.219  1.00  0.00     0.152 C 
HETATM   19  C13 UNL     1     -15.874 -13.286   9.683  1.00  0.00     0.179 C 
HETATM   20  O4  UNL     1     -17.194 -13.356  10.030  1.00  0.00    -0.380 OA
HETATM   21  C16 UNL     1     -15.382 -12.099  10.518  1.00  0.00     0.158 C 
HETATM   22  C14 UNL     1     -17.707 -12.103  10.240  1.00  0.00     0.178 C 
HETATM   23  C15 UNL     1     -16.542 -11.129  10.231  1.00  0.00     0.070 C 
BRANCH  18  24
HETATM   24  O3  UNL     1     -14.352 -12.781   7.966  1.00  0.00    -0.393 OA
ATOM     25  H3  UNL     1     -13.968 -12.056   8.444  1.00  0.00     0.210 HD
ENDBRANCH  18  24
BRANCH  21  26
HETATM   26  O5  UNL     1     -15.383 -12.483  11.833  1.00  0.00    -0.392 OA
ATOM     27  H5  UNL     1     -16.169 -12.133  12.236  1.00  0.00     0.210 HD
ENDBRANCH  21  26
ENDBRANCH  15  16
ENDBRANCH   1  15
TORSDOF 9
ENDMDL
MODEL 3
REMARK VINA RESULT: -5.964455966      1.808      7.069
REMARK  9 active torsions:
REMARK  status: ('A' for Active; 'I' for Inactive)
REMARK    1  A    between atoms: C5_6  and  N1_7 
REMARK    2  A    between atoms: N1_7  and  C7_9 
REMARK    3  A    between atoms: C7_9  and  C8_10 
REMARK    4  A    between atoms: C8_10  and  C9_11 
REMARK    5  A    between atoms: C9_11  and  O2_12 
REMARK    6  A    between atoms: O2_12  and  C10_13 
REMARK    7  A    between atoms: C12_15  and  O3_16 
REMARK    8  A    between atoms: C16_22  and  O5_23 
REMARK    9  A    between atoms: C17_25  and  O6_26 
ROOT
HETATM    1  C9  UNL     1     -18.055  -8.907  11.100  1.00  0.00     0.169 C 
ENDROOT
BRANCH   1   2
HETATM    2  C8  UNL     1     -17.954 -10.408  11.319  1.00  0.00     0.046 C 
BRANCH   2   3
HETATM    3  C7  UNL     1     -16.537 -10.799  10.990  1.00  0.00     0.119 C 
BRANCH   3   4
HETATM    4  N1  UNL     1     -16.411 -11.939  10.101  1.00  0.00    -0.407 N 
HETATM    5  C6  UNL     1     -16.091 -13.139  10.793  1.00  0.00     0.143 C 
BRANCH   4   6
HETATM    6  C5  UNL     1     -15.786 -11.632   8.889  1.00  0.00     0.138 C 
HETATM    7  C3  UNL     1     -15.271 -12.656   7.990  1.00  0.00     0.143 C 
HETATM    8  O1  UNL     1     -15.481 -12.225   6.668  1.00  0.00    -0.377 OA
HETATM    9  C4  UNL     1     -15.709 -14.056   8.058  1.00  0.00     0.042 C 
HETATM   10  C2  UNL     1     -15.760 -10.885   6.687  1.00  0.00     0.148 C 
HETATM   11  C1  UNL     1     -14.604  -9.963   6.520  1.00  0.00     0.042 C 
HETATM   12  C17 UNL     1     -16.498 -10.651   8.002  1.00  0.00     0.171 C 
BRANCH  12  13
HETATM   13  O6  UNL     1     -17.820 -10.898   7.766  1.00  0.00    -0.391 OA
ATOM     14  H6  UNL     1     -18.301 -10.564   8.513  1.00  0.00     0.210 HD
ENDBRANCH  12  13
ENDBRANCH   4   6
ENDBRANCH   3   4
ENDBRANCH   2   3
ENDBRANCH   1   2
BRANCH   1  15
HETATM   15  O2  UNL     1     -17.860  -8.481   9.819  1.00  0.00    -0.385 OA
BRANCH  15  16
HETATM   16  C10 UNL     1     -18.129  -7.153   9.584  1.00  0.00     0.132 C 
HETATM   17  C11 UNL     1     -18.088  -6.407  10.923  1.00  0.00     0.067 C 
HETATM   18  C12 UNL     1     -18.548  -4.993  10.768  1.00  0.00     0.152 C 
HETATM   19  C13 UNL     1     -19.841  -4.897   9.976  1.00  0.00     0.179 C 
HETATM   20  O4  UNL     1     -20.801  -5.731  10.475  1.00  0.00    -0.380 OA
HETATM   21  C16 UNL     1     -19.581  -5.494   8.589  1.00  0.00     0.158 C 
HETATM   22  C14 UNL     1     -20.594  -7.018  10.052  1.00  0.00     0.178 C 
HETATM   23  C15 UNL     1     -19.502  -6.977   8.997  1.00  0.00     0.070 C 
BRANCH  18  24
HETATM   24  O3  UNL     1     -17.606  -4.198  10.155  1.00  0.00    -0.393 OA
ATOM     25  H3  UNL     1     -16.765  -4.632  10.071  1.00  0.00     0.210 HD
ENDBRANCH  18  24
BRANCH  21  26
HETATM   26  O5  UNL     1     -20.689  -5.262   7.819  1.00  0.00    -0.392 OA
ATOM     27  H5  UNL     1     -21.329  -5.935   8.019  1.00  0.00     0.210 HD
ENDBRANCH  21  26
ENDBRANCH  15  16
ENDBRANCH   1  15
TORSDOF 9
ENDMDL
MODEL 4
REMARK VINA RESULT: -5.825984327      1.525      2.218
REMARK  9 active torsions:
REMARK  status: ('A' for Active; 'I' for Inactive)
REMARK    1  A    between atoms: C5_6  and  N1_7 
REMARK    2  A    between atoms: N1_7  and  C7_9 
REMARK    3  A    between atoms: C7_9  and  C8_10 
REMARK    4  A    between atoms: C8_10  and  C9_11 
REMARK    5  A    between atoms: C9_11  and  O2_12 
REMARK    6  A    between atoms: O2_12  and  C10_13 
REMARK    7  A    between atoms: C12_15  and  O3_16 
REMARK    8  A    between atoms: C16_22  and  O5_23 
REMARK    9  A    between atoms: C17_25  and  O6_26 
ROOT
HETATM    1  C9  UNL     1     -17.310  -8.027   8.724  1.00  0.00     0.169 C 
ENDROOT
BRANCH   1   2
HETATM    2  C8  UNL     1     -17.985  -7.465   9.965  1.00  0.00     0.046 C 
BRANCH   2   3
HETATM    3  C7  UNL     1     -19.469  -7.616   9.757  1.00  0.00     0.119 C 
BRANCH   3   4
HETATM    4  N1  UNL     1     -20.169  -6.381   9.454  1.00  0.00    -0.407 N 
HETATM    5  C6  UNL     1     -19.680  -5.750   8.278  1.00  0.00     0.143 C 
BRANCH   4   6
HETATM    6  C5  UNL     1     -20.475  -5.625  10.588  1.00  0.00     0.138 C 
HETATM    7  C3  UNL     1     -19.518  -4.719  11.210  1.00  0.00     0.143 C 
HETATM    8  O1  UNL     1     -20.219  -3.597  11.686  1.00  0.00    -0.377 OA
HETATM    9  C4  UNL     1     -18.335  -4.215  10.500  1.00  0.00     0.042 C 
HETATM   10  C2  UNL     1     -21.554  -3.900  11.716  1.00  0.00     0.148 C 
HETATM   11  C1  UNL     1     -22.084  -4.440  12.998  1.00  0.00     0.042 C 
HETATM   12  C17 UNL     1     -21.770  -4.864  10.552  1.00  0.00     0.171 C 
BRANCH  12  13
HETATM   13  O6  UNL     1     -21.993  -4.102   9.442  1.00  0.00    -0.391 OA
ATOM     14  H6  UNL     1     -22.914  -3.869   9.447  1.00  0.00     0.210 HD
ENDBRANCH  12  13
ENDBRANCH   4   6
ENDBRANCH   3   4
ENDBRANCH   2   3
ENDBRANCH   1   2
BRANCH   1  15
HETATM   15  O2  UNL     1     -17.599  -9.328   8.432  1.00  0.00    -0.385 OA
BRANCH  15  16
HETATM   16  C10 UNL     1     -16.584 -10.229   8.654  1.00  0.00     0.132 C 
HETATM   17  C11 UNL     1     -16.690 -11.344   7.607  1.00  0.00     0.067 C 
HETATM   18  C12 UNL     1     -15.729 -12.452   7.899  1.00  0.00     0.152 C 
HETATM   19  C13 UNL     1     -15.777 -12.881   9.355  1.00  0.00     0.179 C 
HETATM   20  O4  UNL     1     -17.055 -13.146   9.761  1.00  0.00    -0.380 OA
HETATM   21  C16 UNL     1     -15.412 -11.663  10.210  1.00  0.00     0.158 C 
HETATM   22  C14 UNL     1     -17.725 -11.984  10.042  1.00  0.00     0.178 C 
HETATM   23  C15 UNL     1     -16.709 -10.857  10.014  1.00  0.00     0.070 C 
BRANCH  18  24
HETATM   24  O3  UNL     1     -14.430 -12.116   7.590  1.00  0.00    -0.393 OA
ATOM     25  H3  UNL     1     -13.921 -12.864   7.300  1.00  0.00     0.210 HD
ENDBRANCH  18  24
BRANCH  21  26
HETATM   26  O5  UNL     1     -15.293 -12.082  11.508  1.00  0.00    -0.392 OA
ATOM     27  H5  UNL     1     -14.494 -12.593  11.576  1.00  0.00     0.210 HD
ENDBRANCH  21  26
ENDBRANCH  15  16
ENDBRANCH   1  15
TORSDOF 9
ENDMDL
MODEL 5
REMARK VINA RESULT: -5.789631228      1.830      6.882
REMARK  9 active torsions:
REMARK  status: ('A' for Active; 'I' for Inactive)
REMARK    1  A    between atoms: C5_6  and  N1_7 
REMARK    2  A    between atoms: N1_7  and  C7_9 
REMARK    3  A    between atoms: C7_9  and  C8_10 
REMARK    4  A    between atoms: C8_10  and  C9_11 
REMARK    5  A    between atoms: C9_11  and  O2_12 
REMARK    6  A    between atoms: O2_12  and  C10_13 
REMARK    7  A    between atoms: C12_15  and  O3_16 
REMARK    8  A    between atoms: C16_22  and  O5_23 
REMARK    9  A    between atoms: C17_25  and  O6_26 
ROOT
HETATM    1  C9  UNL     1     -18.762  -9.668  11.589  1.00  0.00     0.169 C 
ENDROOT
BRANCH   1   2
HETATM    2  C8  UNL     1     -18.040 -11.005  11.628  1.00  0.00     0.046 C 
BRANCH   2   3
HETATM    3  C7  UNL     1     -16.721 -10.806  10.929  1.00  0.00     0.119 C 
BRANCH   3   4
HETATM    4  N1  UNL     1     -16.262 -11.948  10.159  1.00  0.00    -0.407 N 
HETATM    5  C6  UNL     1     -15.639 -12.936  10.969  1.00  0.00     0.143 C 
BRANCH   4   6
HETATM    6  C5  UNL     1     -15.717 -11.599   8.921  1.00  0.00     0.138 C 
HETATM    7  C3  UNL     1     -15.269 -12.591   7.953  1.00  0.00     0.143 C 
HETATM    8  O1  UNL     1     -15.564 -12.112   6.664  1.00  0.00    -0.377 OA
HETATM    9  C4  UNL     1     -15.710 -13.991   7.999  1.00  0.00     0.042 C 
HETATM   10  C2  UNL     1     -15.833 -10.773   6.750  1.00  0.00     0.148 C 
HETATM   11  C1  UNL     1     -14.685  -9.849   6.540  1.00  0.00     0.042 C 
HETATM   12  C17 UNL     1     -16.480 -10.584   8.119  1.00  0.00     0.171 C 
BRANCH  12  13
HETATM   13  O6  UNL     1     -17.816 -10.817   7.963  1.00  0.00    -0.391 OA
ATOM     14  H6  UNL     1     -18.169 -10.084   7.473  1.00  0.00     0.210 HD
ENDBRANCH  12  13
ENDBRANCH   4   6
ENDBRANCH   3   4
ENDBRANCH   2   3
ENDBRANCH   1   2
BRANCH   1  15
HETATM   15  O2  UNL     1     -18.462  -8.865  10.529  1.00  0.00    -0.385 OA
BRANCH  15  16
HETATM   16  C10 UNL     1     -18.958  -7.583  10.591  1.00  0.00     0.132 C 
HETATM   17  C11 UNL     1     -20.232  -7.516   9.741  1.00  0.00     0.067 C 
HETATM   18  C12 UNL     1     -20.724  -6.110   9.616  1.00  0.00     0.152 C 
HETATM   19  C13 UNL     1     -19.611  -5.145   9.248  1.00  0.00     0.179 C 
HETATM   20  O4  UNL     1     -18.910  -5.576   8.157  1.00  0.00    -0.380 OA
HETATM   21  C16 UNL     1     -18.555  -5.210  10.357  1.00  0.00     0.158 C 
HETATM   22  C14 UNL     1     -18.007  -6.543   8.512  1.00  0.00     0.178 C 
HETATM   23  C15 UNL     1     -17.973  -6.597  10.029  1.00  0.00     0.070 C 
BRANCH  18  24
HETATM   24  O3  UNL     1     -21.323  -5.659  10.771  1.00  0.00    -0.393 OA
ATOM     25  H3  UNL     1     -21.825  -4.865  10.632  1.00  0.00     0.210 HD
ENDBRANCH  18  24
BRANCH  21  26
HETATM   26  O5  UNL     1     -17.633  -4.227  10.115  1.00  0.00    -0.392 OA
ATOM     27  H5  UNL     1     -17.800  -3.878   9.247  1.00  0.00     0.210 HD
ENDBRANCH  21  26
ENDBRANCH  15  16
ENDBRANCH   1  15
TORSDOF 9
ENDMDL
