MODEL 1
REMARK VINA RESULT: -5.560314705      0.000      0.000
REMARK  13 active torsions:
REMARK  status: ('A' for Active; 'I' for Inactive)
REMARK    1  A    between atoms: C2_2  and  C3_4 
REMARK    2  A    between atoms: C3_4  and  C4_5 
REMARK    3  A    between atoms: N2_9  and  C7_10 
REMARK    4  A    between atoms: C7_10  and  O1_11 
REMARK    5  A    between atoms: C7_10  and  C8_13 
REMARK    6  A    between atoms: C8_13  and  N3_14 
REMARK    7  A    between atoms: C8_13  and  S1_19 
REMARK    8  A    between atoms: N3_14  and  N4_16 
REMARK    9  A    between atoms: S1_19  and  C9_20 
REMARK   10  A    between atoms: C9_20  and  C10_21 
REMARK   11  A    between atoms: C10_21  and  O2_22 
REMARK   12  A    between atoms: C10_21  and  C11_24 
REMARK   13  A    between atoms: C11_24  and  O3_25 
ROOT
HETATM    1  C4  UNL     1     101.793  22.579  29.089  1.00  0.00     0.115 C 
HETATM    2  C5  UNL     1     100.402  22.151  29.166  1.00  0.00     0.082 C 
HETATM    3  N1  UNL     1      99.294  21.816  29.261  1.00  0.00    -0.196 NA
HETATM    4  C6  UNL     1     102.653  21.439  29.557  1.00  0.00     0.161 C 
HETATM    5  N2  UNL     1     103.240  21.749  30.884  1.00  0.00    -0.356 N 
HETATM    6  C12 UNL     1     104.326  22.680  30.842  1.00  0.00     0.135 C 
HETATM    7  C13 UNL     1     103.740  24.092  30.797  1.00  0.00     0.095 C 
HETATM    8  S2  UNL     1     102.029  23.966  30.296  1.00  0.00    -0.140 SA
ENDROOT
BRANCH   1   9
HETATM    9  C3  UNL     1     102.232  23.108  27.784  1.00  0.00     0.074 C 
BRANCH   9  10
HETATM   10  C2  UNL     1     103.401  22.523  27.105  1.00  0.00     0.168 C 
HETATM   11  C1  UNL     1     104.501  23.504  26.888  1.00  0.00     0.045 C 
HETATM   12  F1  UNL     1     103.131  21.767  25.980  1.00  0.00    -0.250 F 
ENDBRANCH   9  10
ENDBRANCH   1   9
BRANCH   5  13
HETATM   13  C7  UNL     1     102.665  21.099  31.992  1.00  0.00     0.174 C 
BRANCH  13  14
HETATM   14  O1  UNL     1     101.372  21.146  32.138  1.00  0.00    -0.344 OA
ATOM     15  H1  UNL     1     100.825  21.053  31.367  1.00  0.00     0.219 HD
ENDBRANCH  13  14
BRANCH  13  16
HETATM   16  C8  UNL     1     103.332  20.356  33.034  1.00  0.00     0.135 C 
BRANCH  16  17
HETATM   17  N3  UNL     1     103.976  19.274  32.766  1.00  0.00    -0.297 N 
ATOM     18  H3  UNL     1     103.412  18.464  32.506  1.00  0.00     0.187 HD
BRANCH  17  19
HETATM   19  N4  UNL     1     105.327  19.086  32.789  1.00  0.00    -0.344 N 
ATOM     20  H42 UNL     1     105.883  19.939  32.854  1.00  0.00     0.176 HD
ATOM     21  H41 UNL     1     105.831  18.199  32.749  1.00  0.00     0.176 HD
ENDBRANCH  17  19
ENDBRANCH  16  17
BRANCH  16  22
HETATM   22  S1  UNL     1     103.325  20.828  34.753  1.00  0.00    -0.104 SA
BRANCH  22  23
HETATM   23  C9  UNL     1     102.294  19.794  35.766  1.00  0.00     0.114 C 
BRANCH  23  24
HETATM   24  C10 UNL     1     102.923  18.516  36.209  1.00  0.00     0.151 C 
BRANCH  24  25
HETATM   25  O2  UNL     1     104.222  18.480  35.680  1.00  0.00    -0.393 OA
ATOM     26  H2  UNL     1     104.377  17.598  35.361  1.00  0.00     0.210 HD
ENDBRANCH  24  25
BRANCH  24  27
HETATM   27  C11 UNL     1     102.215  17.285  35.710  1.00  0.00     0.196 C 
BRANCH  27  28
HETATM   28  O3  UNL     1     102.655  17.053  34.389  1.00  0.00    -0.398 OA
ATOM     29  H3  UNL     1     102.374  17.793  33.862  1.00  0.00     0.209 HD
ENDBRANCH  27  28
ENDBRANCH  24  27
ENDBRANCH  23  24
ENDBRANCH  22  23
ENDBRANCH  16  22
ENDBRANCH  13  16
ENDBRANCH   5  13
TORSDOF 13
ENDMDL
MODEL 2
REMARK VINA RESULT: -5.415858555      8.621      9.834
REMARK  13 active torsions:
REMARK  status: ('A' for Active; 'I' for Inactive)
REMARK    1  A    between atoms: C2_2  and  C3_4 
REMARK    2  A    between atoms: C3_4  and  C4_5 
REMARK    3  A    between atoms: N2_9  and  C7_10 
REMARK    4  A    between atoms: C7_10  and  O1_11 
REMARK    5  A    between atoms: C7_10  and  C8_13 
REMARK    6  A    between atoms: C8_13  and  N3_14 
REMARK    7  A    between atoms: C8_13  and  S1_19 
REMARK    8  A    between atoms: N3_14  and  N4_16 
REMARK    9  A    between atoms: S1_19  and  C9_20 
REMARK   10  A    between atoms: C9_20  and  C10_21 
REMARK   11  A    between atoms: C10_21  and  O2_22 
REMARK   12  A    between atoms: C10_21  and  C11_24 
REMARK   13  A    between atoms: C11_24  and  O3_25 
ROOT
HETATM    1  C4  UNL     1      93.525  17.125  28.888  1.00  0.00     0.115 C 
HETATM    2  C5  UNL     1      93.230  16.191  27.809  1.00  0.00     0.082 C 
HETATM    3  N1  UNL     1      92.999  15.422  26.970  1.00  0.00    -0.196 NA
HETATM    4  C6  UNL     1      95.018  17.179  29.055  1.00  0.00     0.161 C 
HETATM    5  N2  UNL     1      95.419  16.504  30.315  1.00  0.00    -0.356 N 
HETATM    6  C12 UNL     1      95.161  17.268  31.497  1.00  0.00     0.135 C 
HETATM    7  C13 UNL     1      93.694  17.065  31.882  1.00  0.00     0.095 C 
HETATM    8  S2  UNL     1      92.830  16.421  30.456  1.00  0.00    -0.140 SA
ENDROOT
BRANCH   1   9
HETATM    9  C3  UNL     1      92.932  18.469  28.757  1.00  0.00     0.074 C 
BRANCH   9  10
HETATM   10  C2  UNL     1      91.592  18.743  29.305  1.00  0.00     0.168 C 
HETATM   11  C1  UNL     1      90.695  19.436  28.338  1.00  0.00     0.045 C 
HETATM   12  F1  UNL     1      91.560  19.312  30.564  1.00  0.00    -0.250 F 
ENDBRANCH   9  10
ENDBRANCH   1   9
BRANCH   5  13
HETATM   13  C7  UNL     1      95.992  15.226  30.186  1.00  0.00     0.174 C 
BRANCH  13  14
HETATM   14  O1  UNL     1      95.823  14.578  29.069  1.00  0.00    -0.344 OA
ATOM     15  H1  UNL     1      96.581  14.409  28.522  1.00  0.00     0.219 HD
ENDBRANCH  13  14
BRANCH  13  16
HETATM   16  C8  UNL     1      96.775  14.498  31.156  1.00  0.00     0.135 C 
BRANCH  16  17
HETATM   17  N3  UNL     1      96.216  13.670  31.969  1.00  0.00    -0.297 N 
ATOM     18  H3  UNL     1      96.580  12.717  31.964  1.00  0.00     0.187 HD
BRANCH  17  19
HETATM   19  N4  UNL     1      95.193  13.923  32.836  1.00  0.00    -0.344 N 
ATOM     20  H42 UNL     1      95.214  14.843  33.275  1.00  0.00     0.176 HD
ATOM     21  H41 UNL     1      94.425  13.299  33.087  1.00  0.00     0.176 HD
ENDBRANCH  17  19
ENDBRANCH  16  17
BRANCH  16  22
HETATM   22  S1  UNL     1      98.539  14.670  31.342  1.00  0.00    -0.104 SA
BRANCH  22  23
HETATM   23  C9  UNL     1      99.078  14.641  33.036  1.00  0.00     0.114 C 
BRANCH  23  24
HETATM   24  C10 UNL     1      99.387  13.286  33.576  1.00  0.00     0.151 C 
BRANCH  24  25
HETATM   25  O2  UNL     1      98.187  12.561  33.611  1.00  0.00    -0.393 OA
ATOM     26  H2  UNL     1      98.277  11.890  34.278  1.00  0.00     0.210 HD
ENDBRANCH  24  25
BRANCH  24  27
HETATM   27  C11 UNL     1      99.928  13.300  34.980  1.00  0.00     0.196 C 
BRANCH  27  28
HETATM   28  O3  UNL     1     100.297  14.631  35.276  1.00  0.00    -0.398 OA
ATOM     29  H3  UNL     1     101.145  14.602  35.703  1.00  0.00     0.209 HD
ENDBRANCH  27  28
ENDBRANCH  24  27
ENDBRANCH  23  24
ENDBRANCH  22  23
ENDBRANCH  16  22
ENDBRANCH  13  16
ENDBRANCH   5  13
TORSDOF 13
ENDMDL
MODEL 3
REMARK VINA RESULT: -5.216043753      3.690      7.675
REMARK  13 active torsions:
REMARK  status: ('A' for Active; 'I' for Inactive)
REMARK    1  A    between atoms: C2_2  and  C3_4 
REMARK    2  A    between atoms: C3_4  and  C4_5 
REMARK    3  A    between atoms: N2_9  and  C7_10 
REMARK    4  A    between atoms: C7_10  and  O1_11 
REMARK    5  A    between atoms: C7_10  and  C8_13 
REMARK    6  A    between atoms: C8_13  and  N3_14 
REMARK    7  A    between atoms: C8_13  and  S1_19 
REMARK    8  A    between atoms: N3_14  and  N4_16 
REMARK    9  A    between atoms: S1_19  and  C9_20 
REMARK   10  A    between atoms: C9_20  and  C10_21 
REMARK   11  A    between atoms: C10_21  and  O2_22 
REMARK   12  A    between atoms: C10_21  and  C11_24 
REMARK   13  A    between atoms: C11_24  and  O3_25 
ROOT
HETATM    1  C4  UNL     1     103.274  19.251  36.555  1.00  0.00     0.115 C 
HETATM    2  C5  UNL     1     103.045  17.956  35.926  1.00  0.00     0.082 C 
HETATM    3  N1  UNL     1     102.877  16.936  35.396  1.00  0.00    -0.196 NA
HETATM    4  C6  UNL     1     102.152  20.165  36.148  1.00  0.00     0.161 C 
HETATM    5  N2  UNL     1     102.645  21.193  35.198  1.00  0.00    -0.356 N 
HETATM    6  C12 UNL     1     103.407  22.239  35.810  1.00  0.00     0.135 C 
HETATM    7  C13 UNL     1     104.844  21.742  35.983  1.00  0.00     0.095 C 
HETATM    8  S2  UNL     1     104.834  19.960  35.847  1.00  0.00    -0.140 SA
ENDROOT
BRANCH   1   9
HETATM    9  C3  UNL     1     103.472  19.231  38.017  1.00  0.00     0.074 C 
BRANCH   9  10
HETATM   10  C2  UNL     1     103.968  18.012  38.679  1.00  0.00     0.168 C 
HETATM   11  C1  UNL     1     103.793  18.039  40.158  1.00  0.00     0.045 C 
HETATM   12  F1  UNL     1     105.227  17.588  38.298  1.00  0.00    -0.250 F 
ENDBRANCH   9  10
ENDBRANCH   1   9
BRANCH   5  13
HETATM   13  C7  UNL     1     102.306  21.012  33.845  1.00  0.00     0.174 C 
BRANCH  13  14
HETATM   14  O1  UNL     1     101.067  20.747  33.545  1.00  0.00    -0.344 OA
ATOM     15  H1  UNL     1     100.379  21.138  34.071  1.00  0.00     0.219 HD
ENDBRANCH  13  14
BRANCH  13  16
HETATM   16  C8  UNL     1     103.172  21.079  32.693  1.00  0.00     0.135 C 
BRANCH  16  17
HETATM   17  N3  UNL     1     104.012  20.137  32.441  1.00  0.00    -0.297 N 
ATOM     18  H3  UNL     1     104.856  20.406  31.935  1.00  0.00     0.187 HD
BRANCH  17  19
HETATM   19  N4  UNL     1     103.901  18.817  32.772  1.00  0.00    -0.344 N 
ATOM     20  H42 UNL     1     104.780  18.298  32.783  1.00  0.00     0.176 HD
ATOM     21  H41 UNL     1     103.049  18.306  33.004  1.00  0.00     0.176 HD
ENDBRANCH  17  19
ENDBRANCH  16  17
BRANCH  16  22
HETATM   22  S1  UNL     1     103.187  22.437  31.537  1.00  0.00    -0.104 SA
BRANCH  22  23
HETATM   23  C9  UNL     1     102.406  22.056  29.987  1.00  0.00     0.114 C 
BRANCH  23  24
HETATM   24  C10 UNL     1     101.024  22.592  29.829  1.00  0.00     0.151 C 
BRANCH  24  25
HETATM   25  O2  UNL     1     100.332  22.338  31.023  1.00  0.00    -0.393 OA
ATOM     26  H2  UNL     1      99.408  22.279  30.811  1.00  0.00     0.210 HD
ENDBRANCH  24  25
BRANCH  24  27
HETATM   27  C11 UNL     1     100.240  21.938  28.724  1.00  0.00     0.196 C 
BRANCH  27  28
HETATM   28  O3  UNL     1      99.035  21.463  29.286  1.00  0.00    -0.398 OA
ATOM     29  H3  UNL     1      98.358  21.557  28.626  1.00  0.00     0.209 HD
ENDBRANCH  27  28
ENDBRANCH  24  27
ENDBRANCH  23  24
ENDBRANCH  22  23
ENDBRANCH  16  22
ENDBRANCH  13  16
ENDBRANCH   5  13
TORSDOF 13
ENDMDL
MODEL 4
REMARK VINA RESULT: -4.950213813      3.643      7.686
REMARK  13 active torsions:
REMARK  status: ('A' for Active; 'I' for Inactive)
REMARK    1  A    between atoms: C2_2  and  C3_4 
REMARK    2  A    between atoms: C3_4  and  C4_5 
REMARK    3  A    between atoms: N2_9  and  C7_10 
REMARK    4  A    between atoms: C7_10  and  O1_11 
REMARK    5  A    between atoms: C7_10  and  C8_13 
REMARK    6  A    between atoms: C8_13  and  N3_14 
REMARK    7  A    between atoms: C8_13  and  S1_19 
REMARK    8  A    between atoms: N3_14  and  N4_16 
REMARK    9  A    between atoms: S1_19  and  C9_20 
REMARK   10  A    between atoms: C9_20  and  C10_21 
REMARK   11  A    between atoms: C10_21  and  O2_22 
REMARK   12  A    between atoms: C10_21  and  C11_24 
REMARK   13  A    between atoms: C11_24  and  O3_25 
ROOT
HETATM    1  C4  UNL     1     102.836  20.634  36.100  1.00  0.00     0.115 C 
HETATM    2  C5  UNL     1     101.523  21.089  36.538  1.00  0.00     0.082 C 
HETATM    3  N1  UNL     1     100.462  21.434  36.861  1.00  0.00    -0.196 NA
HETATM    4  C6  UNL     1     103.282  21.528  34.978  1.00  0.00     0.161 C 
HETATM    5  N2  UNL     1     103.243  20.793  33.688  1.00  0.00    -0.356 N 
HETATM    6  C12 UNL     1     104.319  19.867  33.509  1.00  0.00     0.135 C 
HETATM    7  C13 UNL     1     103.954  18.569  34.234  1.00  0.00     0.095 C 
HETATM    8  S2  UNL     1     102.642  18.931  35.393  1.00  0.00    -0.140 SA
ENDROOT
BRANCH   1   9
HETATM    9  C3  UNL     1     103.860  20.513  37.155  1.00  0.00     0.074 C 
BRANCH   9  10
HETATM   10  C2  UNL     1     103.656  19.586  38.282  1.00  0.00     0.168 C 
HETATM   11  C1  UNL     1     103.578  20.276  39.599  1.00  0.00     0.045 C 
HETATM   12  F1  UNL     1     104.481  18.477  38.308  1.00  0.00    -0.250 F 
ENDBRANCH   9  10
ENDBRANCH   1   9
BRANCH   5  13
HETATM   13  C7  UNL     1     102.175  21.098  32.825  1.00  0.00     0.174 C 
BRANCH  13  14
HETATM   14  O1  UNL     1     100.963  20.823  33.215  1.00  0.00    -0.344 OA
ATOM     15  H1  UNL     1     100.295  21.493  33.125  1.00  0.00     0.219 HD
ENDBRANCH  13  14
BRANCH  13  16
HETATM   16  C8  UNL     1     102.233  21.695  31.513  1.00  0.00     0.135 C 
BRANCH  16  17
HETATM   17  N3  UNL     1     101.416  21.333  30.585  1.00  0.00    -0.297 N 
ATOM     18  H3  UNL     1     101.663  20.487  30.071  1.00  0.00     0.187 HD
BRANCH  17  19
HETATM   19  N4  UNL     1     100.259  21.953  30.211  1.00  0.00    -0.344 N 
ATOM     20  H42 UNL     1     100.373  22.721  29.548  1.00  0.00     0.176 HD
ATOM     21  H41 UNL     1      99.311  21.733  30.518  1.00  0.00     0.176 HD
ENDBRANCH  17  19
ENDBRANCH  16  17
BRANCH  16  22
HETATM   22  S1  UNL     1     103.410  22.948  31.040  1.00  0.00    -0.104 SA
BRANCH  22  23
HETATM   23  C9  UNL     1     104.066  22.721  29.404  1.00  0.00     0.114 C 
BRANCH  23  24
HETATM   24  C10 UNL     1     103.259  23.334  28.310  1.00  0.00     0.151 C 
BRANCH  24  25
HETATM   25  O2  UNL     1     102.134  23.931  28.899  1.00  0.00    -0.393 OA
ATOM     26  H2  UNL     1     101.418  23.308  28.846  1.00  0.00     0.210 HD
ENDBRANCH  24  25
BRANCH  24  27
HETATM   27  C11 UNL     1     102.748  22.341  27.302  1.00  0.00     0.196 C 
BRANCH  27  28
HETATM   28  O3  UNL     1     101.352  22.236  27.486  1.00  0.00    -0.398 OA
ATOM     29  H3  UNL     1     101.006  23.119  27.544  1.00  0.00     0.209 HD
ENDBRANCH  27  28
ENDBRANCH  24  27
ENDBRANCH  23  24
ENDBRANCH  22  23
ENDBRANCH  16  22
ENDBRANCH  13  16
ENDBRANCH   5  13
TORSDOF 13
ENDMDL
MODEL 5
REMARK VINA RESULT: -4.862010367      3.687      7.469
REMARK  13 active torsions:
REMARK  status: ('A' for Active; 'I' for Inactive)
REMARK    1  A    between atoms: C2_2  and  C3_4 
REMARK    2  A    between atoms: C3_4  and  C4_5 
REMARK    3  A    between atoms: N2_9  and  C7_10 
REMARK    4  A    between atoms: C7_10  and  O1_11 
REMARK    5  A    between atoms: C7_10  and  C8_13 
REMARK    6  A    between atoms: C8_13  and  N3_14 
REMARK    7  A    between atoms: C8_13  and  S1_19 
REMARK    8  A    between atoms: N3_14  and  N4_16 
REMARK    9  A    between atoms: S1_19  and  C9_20 
REMARK   10  A    between atoms: C9_20  and  C10_21 
REMARK   11  A    between atoms: C10_21  and  O2_22 
REMARK   12  A    between atoms: C10_21  and  C11_24 
REMARK   13  A    between atoms: C11_24  and  O3_25 
ROOT
HETATM    1  C4  UNL     1     103.048  19.595  36.876  1.00  0.00     0.115 C 
HETATM    2  C5  UNL     1     102.681  18.238  36.494  1.00  0.00     0.082 C 
HETATM    3  N1  UNL     1     102.406  17.159  36.161  1.00  0.00    -0.196 NA
HETATM    4  C6  UNL     1     102.104  20.538  36.184  1.00  0.00     0.161 C 
HETATM    5  N2  UNL     1     102.809  21.275  35.106  1.00  0.00    -0.356 N 
HETATM    6  C12 UNL     1     103.667  22.320  35.575  1.00  0.00     0.135 C 
HETATM    7  C13 UNL     1     105.000  21.693  35.989  1.00  0.00     0.095 C 
HETATM    8  S2  UNL     1     104.742  19.937  36.206  1.00  0.00    -0.140 SA
ENDROOT
BRANCH   1   9
HETATM    9  C3  UNL     1     103.132  19.856  38.325  1.00  0.00     0.074 C 
BRANCH   9  10
HETATM   10  C2  UNL     1     102.624  21.123  38.879  1.00  0.00     0.168 C 
HETATM   11  C1  UNL     1     103.614  21.817  39.751  1.00  0.00     0.045 C 
HETATM   12  F1  UNL     1     101.361  21.075  39.438  1.00  0.00    -0.250 F 
ENDBRANCH   9  10
ENDBRANCH   1   9
BRANCH   5  13
HETATM   13  C7  UNL     1     102.549  20.859  33.788  1.00  0.00     0.174 C 
BRANCH  13  14
HETATM   14  O1  UNL     1     101.319  20.600  33.449  1.00  0.00    -0.344 OA
ATOM     15  H1  UNL     1     100.693  20.395  34.134  1.00  0.00     0.219 HD
ENDBRANCH  13  14
BRANCH  13  16
HETATM   16  C8  UNL     1     103.491  20.670  32.711  1.00  0.00     0.135 C 
BRANCH  16  17
HETATM   17  N3  UNL     1     104.033  19.521  32.502  1.00  0.00    -0.297 N 
ATOM     18  H3  UNL     1     103.411  18.777  32.187  1.00  0.00     0.187 HD
BRANCH  17  19
HETATM   19  N4  UNL     1     105.348  19.186  32.652  1.00  0.00    -0.344 N 
ATOM     20  H42 UNL     1     106.003  19.737  32.097  1.00  0.00     0.176 HD
ATOM     21  H41 UNL     1     105.736  18.455  33.249  1.00  0.00     0.176 HD
ENDBRANCH  17  19
ENDBRANCH  16  17
BRANCH  16  22
HETATM   22  S1  UNL     1     104.003  21.964  31.598  1.00  0.00    -0.104 SA
BRANCH  22  23
HETATM   23  C9  UNL     1     102.682  23.056  31.126  1.00  0.00     0.114 C 
BRANCH  23  24
HETATM   24  C10 UNL     1     101.807  22.551  30.029  1.00  0.00     0.151 C 
BRANCH  24  25
HETATM   25  O2  UNL     1     100.956  21.581  30.581  1.00  0.00    -0.393 OA
ATOM     26  H2  UNL     1     101.079  20.778  30.088  1.00  0.00     0.210 HD
ENDBRANCH  24  25
BRANCH  24  27
HETATM   27  C11 UNL     1     102.559  21.884  28.910  1.00  0.00     0.196 C 
BRANCH  27  28
HETATM   28  O3  UNL     1     102.133  20.539  28.859  1.00  0.00    -0.398 OA
ATOM     29  H3  UNL     1     102.577  20.128  28.126  1.00  0.00     0.209 HD
ENDBRANCH  27  28
ENDBRANCH  24  27
ENDBRANCH  23  24
ENDBRANCH  22  23
ENDBRANCH  16  22
ENDBRANCH  13  16
ENDBRANCH   5  13
TORSDOF 13
ENDMDL
