MODEL 1
REMARK VINA RESULT: -5.137594239      0.000      0.000
REMARK  9 active torsions:
REMARK  status: ('A' for Active; 'I' for Inactive)
REMARK    1  A    between atoms: C2_2  and  N1_3 
REMARK    2  A    between atoms: N1_3  and  N2_4 
REMARK    3  A    between atoms: N1_3  and  C5_9 
REMARK       I    between atoms: N2_4  and  C3_6 
REMARK    4  A    between atoms: C8_13  and  C9_14 
REMARK    5  A    between atoms: C8_13  and  C10_17 
REMARK    6  A    between atoms: C9_14  and  O2_15 
REMARK    7  A    between atoms: C10_17  and  O3_18 
REMARK    8  A    between atoms: O3_18  and  S2_19 
REMARK    9  A    between atoms: S2_19  and  N3_20 
ROOT
HETATM    1  C5  UNL     1     103.485  19.363  36.993  1.00  0.00     0.128 C 
HETATM    2  C6  UNL     1     104.155  18.191  37.634  1.00  0.00     0.056 C 
HETATM    3  S1  UNL     1     102.188  18.551  35.916  1.00  0.00    -0.132 SA
HETATM    4  C7  UNL     1     103.476  18.159  34.642  1.00  0.00     0.093 C 
HETATM    5  C8  UNL     1     104.073  19.552  34.621  1.00  0.00     0.046 C 
HETATM    6  C11 UNL     1     104.238  20.103  35.971  1.00  0.00     0.223 C 
HETATM    7  F1  UNL     1     105.584  20.247  36.330  1.00  0.00    -0.245 F 
ENDROOT
BRANCH   5   8
HETATM    8  C9  UNL     1     105.449  19.576  33.945  1.00  0.00     0.179 C 
BRANCH   8   9
HETATM    9  O2  UNL     1     105.465  18.377  33.178  1.00  0.00    -0.400 OA
ATOM     10  H2  UNL     1     104.551  18.240  32.957  1.00  0.00     0.209 HD
ENDBRANCH   8   9
ENDBRANCH   5   8
BRANCH   5  11
HETATM   11  C10 UNL     1     103.170  20.362  33.742  1.00  0.00     0.207 C 
BRANCH  11  12
HETATM   12  O3  UNL     1     103.581  20.487  32.436  1.00  0.00    -0.259 OA
BRANCH  12  13
HETATM   13  S2  UNL     1     102.519  21.507  31.579  1.00  0.00     0.355 S 
HETATM   14  O4  UNL     1     103.011  22.937  31.603  1.00  0.00    -0.176 OA
HETATM   15  O5  UNL     1     101.125  21.457  32.130  1.00  0.00    -0.176 OA
BRANCH  13  16
HETATM   16  N3  UNL     1     102.430  21.005  29.904  1.00  0.00    -0.306 N 
ATOM     17  H32 UNL     1     102.493  20.037  29.591  1.00  0.00     0.171 HD
ATOM     18  H31 UNL     1     102.309  21.820  29.302  1.00  0.00     0.171 HD
ENDBRANCH  13  16
ENDBRANCH  12  13
ENDBRANCH  11  12
ENDBRANCH   5  11
BRANCH   1  19
HETATM   19  N1  UNL     1     102.799  20.252  37.941  1.00  0.00    -0.282 N 
BRANCH  19  20
HETATM   20  C2  UNL     1     102.088  21.259  37.273  1.00  0.00     0.081 C 
HETATM   21  C1  UNL     1     100.654  21.497  37.645  1.00  0.00     0.057 C 
ENDBRANCH  19  20
BRANCH  19  22
HETATM   22  N2  UNL     1     103.579  20.504  39.013  1.00  0.00    -0.267 N 
HETATM   23  C3  UNL     1     103.281  20.601  40.376  1.00  0.00     0.232 C 
HETATM   24  C4  UNL     1     104.385  20.912  41.370  1.00  0.00     0.119 C 
HETATM   25  O1  UNL     1     102.150  20.440  40.830  1.00  0.00    -0.272 OA
ATOM     26  H2  UNL     1     104.563  20.651  38.789  1.00  0.00     0.190 HD
ENDBRANCH  19  22
ENDBRANCH   1  19
TORSDOF 9
ENDMDL
MODEL 2
REMARK VINA RESULT: -5.008638096      2.441      3.220
REMARK  9 active torsions:
REMARK  status: ('A' for Active; 'I' for Inactive)
REMARK    1  A    between atoms: C2_2  and  N1_3 
REMARK    2  A    between atoms: N1_3  and  N2_4 
REMARK    3  A    between atoms: N1_3  and  C5_9 
REMARK       I    between atoms: N2_4  and  C3_6 
REMARK    4  A    between atoms: C8_13  and  C9_14 
REMARK    5  A    between atoms: C8_13  and  C10_17 
REMARK    6  A    between atoms: C9_14  and  O2_15 
REMARK    7  A    between atoms: C10_17  and  O3_18 
REMARK    8  A    between atoms: O3_18  and  S2_19 
REMARK    9  A    between atoms: S2_19  and  N3_20 
ROOT
HETATM    1  C5  UNL     1     104.197  20.164  35.000  1.00  0.00     0.128 C 
HETATM    2  C6  UNL     1     105.478  20.420  35.725  1.00  0.00     0.056 C 
HETATM    3  S1  UNL     1     104.759  19.175  33.515  1.00  0.00    -0.132 SA
HETATM    4  C7  UNL     1     105.317  20.730  32.677  1.00  0.00     0.093 C 
HETATM    5  C8  UNL     1     104.038  21.496  32.949  1.00  0.00     0.046 C 
HETATM    6  C11 UNL     1     103.559  21.301  34.323  1.00  0.00     0.223 C 
HETATM    7  F1  UNL     1     103.643  22.468  35.091  1.00  0.00    -0.245 F 
ENDROOT
BRANCH   5   8
HETATM    8  C9  UNL     1     104.216  23.004  32.737  1.00  0.00     0.179 C 
BRANCH   8   9
HETATM    9  O2  UNL     1     104.619  23.105  31.376  1.00  0.00    -0.400 OA
ATOM     10  H2  UNL     1     104.341  23.978  31.124  1.00  0.00     0.209 HD
ENDBRANCH   8   9
ENDBRANCH   5   8
BRANCH   5  11
HETATM   11  C10 UNL     1     103.069  21.046  31.899  1.00  0.00     0.207 C 
BRANCH  11  12
HETATM   12  O3  UNL     1     101.866  21.712  31.887  1.00  0.00    -0.259 OA
BRANCH  12  13
HETATM   13  S2  UNL     1     101.434  22.119  30.290  1.00  0.00     0.355 S 
HETATM   14  O4  UNL     1     101.959  23.490  29.925  1.00  0.00    -0.176 OA
HETATM   15  O5  UNL     1      99.949  22.091  30.084  1.00  0.00    -0.176 OA
BRANCH  13  16
HETATM   16  N3  UNL     1     102.133  20.969  29.170  1.00  0.00    -0.306 N 
ATOM     17  H32 UNL     1     102.197  21.116  28.163  1.00  0.00     0.171 HD
ATOM     18  H31 UNL     1     102.461  20.146  29.676  1.00  0.00     0.171 HD
ENDBRANCH  13  16
ENDBRANCH  12  13
ENDBRANCH  11  12
ENDBRANCH   5  11
BRANCH   1  19
HETATM   19  N1  UNL     1     103.236  19.346  35.755  1.00  0.00    -0.282 N 
BRANCH  19  20
HETATM   20  C2  UNL     1     103.056  18.091  35.159  1.00  0.00     0.081 C 
HETATM   21  C1  UNL     1     102.025  17.162  35.730  1.00  0.00     0.057 C 
ENDBRANCH  19  20
BRANCH  19  22
HETATM   22  N2  UNL     1     102.202  20.099  36.188  1.00  0.00    -0.267 N 
HETATM   23  C3  UNL     1     101.957  20.723  37.415  1.00  0.00     0.232 C 
HETATM   24  C4  UNL     1     100.677  21.510  37.620  1.00  0.00     0.119 C 
HETATM   25  O1  UNL     1     102.741  20.675  38.360  1.00  0.00    -0.272 OA
ATOM     26  H2  UNL     1     101.466  20.237  35.495  1.00  0.00     0.190 HD
ENDBRANCH  19  22
ENDBRANCH   1  19
TORSDOF 9
ENDMDL
MODEL 3
REMARK VINA RESULT: -4.991386662      3.265      5.167
REMARK  9 active torsions:
REMARK  status: ('A' for Active; 'I' for Inactive)
REMARK    1  A    between atoms: C2_2  and  N1_3 
REMARK    2  A    between atoms: N1_3  and  N2_4 
REMARK    3  A    between atoms: N1_3  and  C5_9 
REMARK       I    between atoms: N2_4  and  C3_6 
REMARK    4  A    between atoms: C8_13  and  C9_14 
REMARK    5  A    between atoms: C8_13  and  C10_17 
REMARK    6  A    between atoms: C9_14  and  O2_15 
REMARK    7  A    between atoms: C10_17  and  O3_18 
REMARK    8  A    between atoms: O3_18  and  S2_19 
REMARK    9  A    between atoms: S2_19  and  N3_20 
ROOT
HETATM    1  C5  UNL     1     102.995  20.594  35.979  1.00  0.00     0.128 C 
HETATM    2  C6  UNL     1     102.542  21.056  34.632  1.00  0.00     0.056 C 
HETATM    3  S1  UNL     1     104.777  20.114  35.666  1.00  0.00    -0.132 SA
HETATM    4  C7  UNL     1     104.225  18.507  34.925  1.00  0.00     0.093 C 
HETATM    5  C8  UNL     1     103.272  18.160  36.052  1.00  0.00     0.046 C 
HETATM    6  C11 UNL     1     102.469  19.314  36.472  1.00  0.00     0.223 C 
HETATM    7  F1  UNL     1     101.112  19.164  36.163  1.00  0.00    -0.245 F 
ENDROOT
BRANCH   5   8
HETATM    8  C9  UNL     1     102.298  17.045  35.655  1.00  0.00     0.179 C 
BRANCH   8   9
HETATM    9  O2  UNL     1     102.459  16.946  34.244  1.00  0.00    -0.400 OA
ATOM     10  H2  UNL     1     101.961  16.169  34.016  1.00  0.00     0.209 HD
ENDBRANCH   8   9
ENDBRANCH   5   8
BRANCH   5  11
HETATM   11  C10 UNL     1     104.129  17.588  37.140  1.00  0.00     0.207 C 
BRANCH  11  12
HETATM   12  O3  UNL     1     103.765  17.940  38.418  1.00  0.00    -0.259 OA
BRANCH  12  13
HETATM   13  S2  UNL     1     105.096  17.791  39.472  1.00  0.00     0.355 S 
HETATM   14  O4  UNL     1     105.919  16.569  39.127  1.00  0.00    -0.176 OA
HETATM   15  O5  UNL     1     104.670  17.708  40.907  1.00  0.00    -0.176 OA
BRANCH  13  16
HETATM   16  N3  UNL     1     106.137  19.190  39.320  1.00  0.00    -0.306 N 
ATOM     17  H32 UNL     1     106.083  19.865  38.558  1.00  0.00     0.171 HD
ATOM     18  H31 UNL     1     106.794  19.222  40.101  1.00  0.00     0.171 HD
ENDBRANCH  13  16
ENDBRANCH  12  13
ENDBRANCH  11  12
ENDBRANCH   5  11
BRANCH   1  19
HETATM   19  N1  UNL     1     102.981  21.643  37.008  1.00  0.00    -0.282 N 
BRANCH  19  20
HETATM   20  C2  UNL     1     103.677  22.784  36.584  1.00  0.00     0.081 C 
HETATM   21  C1  UNL     1     103.319  24.112  37.183  1.00  0.00     0.057 C 
ENDBRANCH  19  20
BRANCH  19  22
HETATM   22  N2  UNL     1     103.141  21.111  38.238  1.00  0.00    -0.267 N 
HETATM   23  C3  UNL     1     102.380  21.223  39.406  1.00  0.00     0.232 C 
HETATM   24  C4  UNL     1     102.821  20.505  40.667  1.00  0.00     0.119 C 
HETATM   25  O1  UNL     1     101.345  21.883  39.471  1.00  0.00    -0.272 OA
ATOM     26  H2  UNL     1     103.967  20.520  38.334  1.00  0.00     0.190 HD
ENDBRANCH  19  22
ENDBRANCH   1  19
TORSDOF 9
ENDMDL
MODEL 4
REMARK VINA RESULT: -4.887021197      2.654      3.194
REMARK  9 active torsions:
REMARK  status: ('A' for Active; 'I' for Inactive)
REMARK    1  A    between atoms: C2_2  and  N1_3 
REMARK    2  A    between atoms: N1_3  and  N2_4 
REMARK    3  A    between atoms: N1_3  and  C5_9 
REMARK       I    between atoms: N2_4  and  C3_6 
REMARK    4  A    between atoms: C8_13  and  C9_14 
REMARK    5  A    between atoms: C8_13  and  C10_17 
REMARK    6  A    between atoms: C9_14  and  O2_15 
REMARK    7  A    between atoms: C10_17  and  O3_18 
REMARK    8  A    between atoms: O3_18  and  S2_19 
REMARK    9  A    between atoms: S2_19  and  N3_20 
ROOT
HETATM    1  C5  UNL     1     104.975  19.587  35.215  1.00  0.00     0.128 C 
HETATM    2  C6  UNL     1     106.225  19.909  35.968  1.00  0.00     0.056 C 
HETATM    3  S1  UNL     1     105.626  19.139  33.519  1.00  0.00    -0.132 SA
HETATM    4  C7  UNL     1     105.817  20.935  33.106  1.00  0.00     0.093 C 
HETATM    5  C8  UNL     1     104.433  21.330  33.580  1.00  0.00     0.046 C 
HETATM    6  C11 UNL     1     104.087  20.702  34.861  1.00  0.00     0.223 C 
HETATM    7  F1  UNL     1     103.990  21.631  35.903  1.00  0.00    -0.245 F 
ENDROOT
BRANCH   5   8
HETATM    8  C9  UNL     1     104.301  22.846  33.763  1.00  0.00     0.179 C 
BRANCH   8   9
HETATM    9  O2  UNL     1     104.729  23.373  32.511  1.00  0.00    -0.400 OA
ATOM     10  H2  UNL     1     104.782  24.309  32.669  1.00  0.00     0.209 HD
ENDBRANCH   8   9
ENDBRANCH   5   8
BRANCH   5  11
HETATM   11  C10 UNL     1     103.507  20.969  32.458  1.00  0.00     0.207 C 
BRANCH  11  12
HETATM   12  O3  UNL     1     102.248  21.517  32.539  1.00  0.00    -0.259 OA
BRANCH  12  13
HETATM   13  S2  UNL     1     101.779  22.141  31.025  1.00  0.00     0.355 S 
HETATM   14  O4  UNL     1     102.466  23.461  30.753  1.00  0.00    -0.176 OA
HETATM   15  O5  UNL     1     100.294  22.331  30.930  1.00  0.00    -0.176 OA
BRANCH  13  16
HETATM   16  N3  UNL     1     102.240  21.032  29.752  1.00  0.00    -0.306 N 
ATOM     17  H32 UNL     1     101.625  20.743  28.992  1.00  0.00     0.171 HD
ATOM     18  H31 UNL     1     103.204  20.726  29.888  1.00  0.00     0.171 HD
ENDBRANCH  13  16
ENDBRANCH  12  13
ENDBRANCH  11  12
ENDBRANCH   5  11
BRANCH   1  19
HETATM   19  N1  UNL     1     104.241  18.428  35.742  1.00  0.00    -0.282 N 
BRANCH  19  20
HETATM   20  C2  UNL     1     103.215  18.035  34.871  1.00  0.00     0.081 C 
HETATM   21  C1  UNL     1     102.038  17.291  35.432  1.00  0.00     0.057 C 
ENDBRANCH  19  20
BRANCH  19  22
HETATM   22  N2  UNL     1     104.058  18.541  37.075  1.00  0.00    -0.267 N 
HETATM   23  C3  UNL     1     104.547  17.788  38.147  1.00  0.00     0.232 C 
HETATM   24  C4  UNL     1     104.155  18.152  39.567  1.00  0.00     0.119 C 
HETATM   25  O1  UNL     1     105.299  16.827  38.004  1.00  0.00    -0.272 OA
ATOM     26  H2  UNL     1     103.453  19.316  37.350  1.00  0.00     0.190 HD
ENDBRANCH  19  22
ENDBRANCH   1  19
TORSDOF 9
ENDMDL
MODEL 5
REMARK VINA RESULT: -4.796989964      2.411      2.950
REMARK  9 active torsions:
REMARK  status: ('A' for Active; 'I' for Inactive)
REMARK    1  A    between atoms: C2_2  and  N1_3 
REMARK    2  A    between atoms: N1_3  and  N2_4 
REMARK    3  A    between atoms: N1_3  and  C5_9 
REMARK       I    between atoms: N2_4  and  C3_6 
REMARK    4  A    between atoms: C8_13  and  C9_14 
REMARK    5  A    between atoms: C8_13  and  C10_17 
REMARK    6  A    between atoms: C9_14  and  O2_15 
REMARK    7  A    between atoms: C10_17  and  O3_18 
REMARK    8  A    between atoms: O3_18  and  S2_19 
REMARK    9  A    between atoms: S2_19  and  N3_20 
ROOT
HETATM    1  C5  UNL     1     103.968  20.534  35.153  1.00  0.00     0.128 C 
HETATM    2  C6  UNL     1     105.237  20.682  35.927  1.00  0.00     0.056 C 
HETATM    3  S1  UNL     1     104.416  19.239  33.879  1.00  0.00    -0.132 SA
HETATM    4  C7  UNL     1     105.284  20.524  32.864  1.00  0.00     0.093 C 
HETATM    5  C8  UNL     1     104.151  21.528  32.921  1.00  0.00     0.046 C 
HETATM    6  C11 UNL     1     103.578  21.639  34.267  1.00  0.00     0.223 C 
HETATM    7  F1  UNL     1     103.831  22.883  34.857  1.00  0.00    -0.245 F 
ENDROOT
BRANCH   5   8
HETATM    8  C9  UNL     1     104.607  22.930  32.501  1.00  0.00     0.179 C 
BRANCH   8   9
HETATM    9  O2  UNL     1     104.733  22.832  31.086  1.00  0.00    -0.400 OA
ATOM     10  H2  UNL     1     105.514  23.339  30.895  1.00  0.00     0.209 HD
ENDBRANCH   8   9
ENDBRANCH   5   8
BRANCH   5  11
HETATM   11  C10 UNL     1     103.170  21.086  31.878  1.00  0.00     0.207 C 
BRANCH  11  12
HETATM   12  O3  UNL     1     101.953  21.726  31.909  1.00  0.00    -0.259 OA
BRANCH  12  13
HETATM   13  S2  UNL     1     101.456  22.124  30.329  1.00  0.00     0.355 S 
HETATM   14  O4  UNL     1     101.964  23.494  29.936  1.00  0.00    -0.176 OA
HETATM   15  O5  UNL     1      99.964  22.092  30.184  1.00  0.00    -0.176 OA
BRANCH  13  16
HETATM   16  N3  UNL     1     102.112  20.969  29.188  1.00  0.00    -0.306 N 
ATOM     17  H32 UNL     1     101.545  20.339  28.621  1.00  0.00     0.171 HD
ATOM     18  H31 UNL     1     103.130  21.027  29.180  1.00  0.00     0.171 HD
ENDBRANCH  13  16
ENDBRANCH  12  13
ENDBRANCH  11  12
ENDBRANCH   5  11
BRANCH   1  19
HETATM   19  N1  UNL     1     102.840  20.022  35.945  1.00  0.00    -0.282 N 
BRANCH  19  20
HETATM   20  C2  UNL     1     101.729  20.873  35.860  1.00  0.00     0.081 C 
HETATM   21  C1  UNL     1     100.963  21.185  37.112  1.00  0.00     0.057 C 
ENDBRANCH  19  20
BRANCH  19  22
HETATM   22  N2  UNL     1     103.271  19.505  37.115  1.00  0.00    -0.267 N 
HETATM   23  C3  UNL     1     103.533  18.190  37.509  1.00  0.00     0.232 C 
HETATM   24  C4  UNL     1     104.007  17.904  38.922  1.00  0.00     0.119 C 
HETATM   25  O1  UNL     1     103.404  17.226  36.758  1.00  0.00    -0.272 OA
ATOM     26  H2  UNL     1     103.434  20.200  37.844  1.00  0.00     0.190 HD
ENDBRANCH  19  22
ENDBRANCH   1  19
TORSDOF 9
ENDMDL
