MODEL 1
REMARK VINA RESULT: -6.469917115      0.000      0.000
REMARK  8 active torsions:
REMARK  status: ('A' for Active; 'I' for Inactive)
REMARK    1  A    between atoms: N1_2  and  C2_5 
REMARK    2  A    between atoms: C3_6  and  O1_7 
REMARK    3  A    between atoms: C4_9  and  C5_10 
REMARK    4  A    between atoms: C7_14  and  O3_15 
REMARK    5  A    between atoms: C9_17  and  O4_18 
REMARK    6  A    between atoms: O4_18  and  C10_19 
REMARK    7  A    between atoms: C10_19  and  C11_21 
REMARK    8  A    between atoms: C11_21  and  C12_22 
ROOT
HETATM    1  C2  UNL     1      94.164  15.609  28.407  1.00  0.00     0.250 C 
HETATM    2  C3  UNL     1      93.419  16.786  27.837  1.00  0.00     0.184 C 
HETATM    3  C4  UNL     1      93.076  17.699  29.021  1.00  0.00     0.179 C 
HETATM    4  O2  UNL     1      92.878  16.962  30.174  1.00  0.00    -0.347 OA
HETATM    5  C7  UNL     1      94.037  16.399  30.697  1.00  0.00     0.291 C 
HETATM    6  C9  UNL     1      95.011  16.136  29.560  1.00  0.00     0.220 C 
ENDROOT
BRANCH   6   7
HETATM    7  O4  UNL     1      96.017  15.234  29.927  1.00  0.00    -0.308 OA
BRANCH   7   8
HETATM    8  C10 UNL     1      96.809  15.427  31.081  1.00  0.00     0.269 C 
HETATM    9  O5  UNL     1      97.391  16.543  31.114  1.00  0.00    -0.265 OA
BRANCH   8  10
HETATM   10  C11 UNL     1      96.914  14.389  32.120  1.00  0.00     0.224 C 
BRANCH  10  11
HETATM   11  C12 UNL     1      98.026  13.474  31.815  1.00  0.00     0.182 C 
HETATM   12  O6  UNL     1      97.838  12.224  31.942  1.00  0.00    -0.648 OA
HETATM   13  O7  UNL     1      99.233  13.935  31.406  1.00  0.00    -0.648 OA
ENDBRANCH  10  11
ENDBRANCH   8  10
ENDBRANCH   7   8
ENDBRANCH   6   7
BRANCH   1  14
HETATM   14  N1  UNL     1      94.969  14.922  27.425  1.00  0.00    -0.070 N 
HETATM   15  C1  UNL     1      94.169  14.712  26.233  1.00  0.00     0.267 C 
ATOM     16  H12 UNL     1      95.368  14.055  27.784  1.00  0.00     0.277 HD
ATOM     17  H11 UNL     1      95.843  15.409  27.228  1.00  0.00     0.277 HD
ENDBRANCH   1  14
BRANCH   5  18
HETATM   18  O3  UNL     1      94.589  17.136  31.710  1.00  0.00    -0.363 OA
HETATM   19  C8  UNL     1      94.255  16.542  32.925  1.00  0.00     0.204 C 
ENDBRANCH   5  18
BRANCH   2  20
HETATM   20  O1  UNL     1      92.251  16.408  27.168  1.00  0.00    -0.390 OA
ATOM     21  H1  UNL     1      91.535  16.220  27.763  1.00  0.00     0.210 HD
ENDBRANCH   2  20
BRANCH   3  22
HETATM   22  C5  UNL     1      91.794  18.427  28.761  1.00  0.00     0.015 C 
HETATM   23  C6  UNL     1      91.252  19.194  29.694  1.00  0.00     0.054 C 
HETATM   24 BR1  UNL     1      92.128  19.357  31.381  1.00  0.00    -0.064 Br
ENDBRANCH   3  22
TORSDOF 8
ENDMDL
MODEL 2
REMARK VINA RESULT: -6.204893184      9.507     11.552
REMARK  8 active torsions:
REMARK  status: ('A' for Active; 'I' for Inactive)
REMARK    1  A    between atoms: N1_2  and  C2_5 
REMARK    2  A    between atoms: C3_6  and  O1_7 
REMARK    3  A    between atoms: C4_9  and  C5_10 
REMARK    4  A    between atoms: C7_14  and  O3_15 
REMARK    5  A    between atoms: C9_17  and  O4_18 
REMARK    6  A    between atoms: O4_18  and  C10_19 
REMARK    7  A    between atoms: C10_19  and  C11_21 
REMARK    8  A    between atoms: C11_21  and  C12_22 
ROOT
HETATM    1  C2  UNL     1     104.826  20.471  33.235  1.00  0.00     0.250 C 
HETATM    2  C3  UNL     1     104.973  19.104  33.848  1.00  0.00     0.184 C 
HETATM    3  C4  UNL     1     103.867  18.979  34.903  1.00  0.00     0.179 C 
HETATM    4  O2  UNL     1     103.578  20.208  35.467  1.00  0.00    -0.347 OA
HETATM    5  C7  UNL     1     102.926  21.088  34.611  1.00  0.00     0.291 C 
HETATM    6  C9  UNL     1     103.333  20.775  33.180  1.00  0.00     0.220 C 
ENDROOT
BRANCH   6   7
HETATM    7  O4  UNL     1     103.044  21.830  32.308  1.00  0.00    -0.308 OA
BRANCH   7   8
HETATM    8  C10 UNL     1     102.071  21.714  31.290  1.00  0.00     0.269 C 
HETATM    9  O5  UNL     1     100.889  21.848  31.704  1.00  0.00    -0.265 OA
BRANCH   8  10
HETATM   10  C11 UNL     1     102.452  21.458  29.891  1.00  0.00     0.224 C 
BRANCH  10  11
HETATM   11  C12 UNL     1     101.613  22.257  28.981  1.00  0.00     0.182 C 
HETATM   12  O6  UNL     1     101.864  23.496  28.854  1.00  0.00    -0.648 OA
HETATM   13  O7  UNL     1     100.593  21.700  28.285  1.00  0.00    -0.648 OA
ENDBRANCH  10  11
ENDBRANCH   8  10
ENDBRANCH   7   8
ENDBRANCH   6   7
BRANCH   1  14
HETATM   14  N1  UNL     1     105.439  20.574  31.932  1.00  0.00    -0.070 N 
HETATM   15  C1  UNL     1     106.212  21.800  31.877  1.00  0.00     0.267 C 
ATOM     16  H12 UNL     1     104.759  20.507  31.175  1.00  0.00     0.277 HD
ATOM     17  H11 UNL     1     105.994  19.751  31.696  1.00  0.00     0.277 HD
ENDBRANCH   1  14
BRANCH   5  18
HETATM   18  O3  UNL     1     101.569  21.109  34.785  1.00  0.00    -0.363 OA
HETATM   19  C8  UNL     1     101.294  21.097  36.150  1.00  0.00     0.204 C 
ENDBRANCH   5  18
BRANCH   2  20
HETATM   20  O1  UNL     1     106.225  18.913  34.439  1.00  0.00    -0.390 OA
ATOM     21  H1  UNL     1     106.935  19.255  33.908  1.00  0.00     0.210 HD
ENDBRANCH   2  20
BRANCH   3  22
HETATM   22  C5  UNL     1     104.317  18.095  36.024  1.00  0.00     0.015 C 
HETATM   23  C6  UNL     1     103.490  17.213  36.562  1.00  0.00     0.054 C 
HETATM   24 BR1  UNL     1     101.710  17.083  35.888  1.00  0.00    -0.064 Br
ENDBRANCH   3  22
TORSDOF 8
ENDMDL
MODEL 3
REMARK VINA RESULT: -6.194892478     10.651     12.410
REMARK  8 active torsions:
REMARK  status: ('A' for Active; 'I' for Inactive)
REMARK    1  A    between atoms: N1_2  and  C2_5 
REMARK    2  A    between atoms: C3_6  and  O1_7 
REMARK    3  A    between atoms: C4_9  and  C5_10 
REMARK    4  A    between atoms: C7_14  and  O3_15 
REMARK    5  A    between atoms: C9_17  and  O4_18 
REMARK    6  A    between atoms: O4_18  and  C10_19 
REMARK    7  A    between atoms: C10_19  and  C11_21 
REMARK    8  A    between atoms: C11_21  and  C12_22 
ROOT
HETATM    1  C2  UNL     1     103.078  18.821  36.539  1.00  0.00     0.250 C 
HETATM    2  C3  UNL     1     103.737  19.044  35.204  1.00  0.00     0.184 C 
HETATM    3  C4  UNL     1     103.324  20.449  34.745  1.00  0.00     0.179 C 
HETATM    4  O2  UNL     1     102.061  20.770  35.207  1.00  0.00    -0.347 OA
HETATM    5  C7  UNL     1     101.996  20.992  36.578  1.00  0.00     0.291 C 
HETATM    6  C9  UNL     1     103.072  20.164  37.261  1.00  0.00     0.220 C 
ENDROOT
BRANCH   6   7
HETATM    7  O4  UNL     1     102.835  20.021  38.633  1.00  0.00    -0.308 OA
BRANCH   7   8
HETATM    8  C10 UNL     1     103.705  20.567  39.603  1.00  0.00     0.269 C 
HETATM    9  O5  UNL     1     104.338  21.579  39.202  1.00  0.00    -0.265 OA
BRANCH   8  10
HETATM   10  C11 UNL     1     103.826  19.973  40.945  1.00  0.00     0.224 C 
BRANCH  10  11
HETATM   11  C12 UNL     1     104.695  18.784  40.899  1.00  0.00     0.182 C 
HETATM   12  O6  UNL     1     105.923  18.917  41.195  1.00  0.00    -0.648 OA
HETATM   13  O7  UNL     1     104.213  17.566  40.551  1.00  0.00    -0.648 OA
ENDBRANCH  10  11
ENDBRANCH   8  10
ENDBRANCH   7   8
ENDBRANCH   6   7
BRANCH   1  14
HETATM   14  N1  UNL     1     103.726  17.797  37.323  1.00  0.00    -0.070 N 
HETATM   15  C1  UNL     1     105.161  17.998  37.255  1.00  0.00     0.267 C 
ATOM     16  H12 UNL     1     103.451  16.856  37.042  1.00  0.00     0.277 HD
ATOM     17  H11 UNL     1     103.382  17.764  38.283  1.00  0.00     0.277 HD
ENDBRANCH   1  14
BRANCH   5  18
HETATM   18  O3  UNL     1     102.050  22.317  36.917  1.00  0.00    -0.363 OA
HETATM   19  C8  UNL     1     100.919  22.630  37.668  1.00  0.00     0.204 C 
ENDBRANCH   5  18
BRANCH   2  20
HETATM   20  O1  UNL     1     103.354  18.095  34.252  1.00  0.00    -0.390 OA
ATOM     21  H1  UNL     1     103.759  17.249  34.398  1.00  0.00     0.210 HD
ENDBRANCH   2  20
BRANCH   3  22
HETATM   22  C5  UNL     1     103.253  20.505  33.250  1.00  0.00     0.015 C 
HETATM   23  C6  UNL     1     103.733  21.548  32.592  1.00  0.00     0.054 C 
HETATM   24 BR1  UNL     1     104.518  22.982  33.575  1.00  0.00    -0.064 Br
ENDBRANCH   3  22
TORSDOF 8
ENDMDL
MODEL 4
REMARK VINA RESULT: -6.182742357      9.251     11.833
REMARK  8 active torsions:
REMARK  status: ('A' for Active; 'I' for Inactive)
REMARK    1  A    between atoms: N1_2  and  C2_5 
REMARK    2  A    between atoms: C3_6  and  O1_7 
REMARK    3  A    between atoms: C4_9  and  C5_10 
REMARK    4  A    between atoms: C7_14  and  O3_15 
REMARK    5  A    between atoms: C9_17  and  O4_18 
REMARK    6  A    between atoms: O4_18  and  C10_19 
REMARK    7  A    between atoms: C10_19  and  C11_21 
REMARK    8  A    between atoms: C11_21  and  C12_22 
ROOT
HETATM    1  C2  UNL     1     103.559  18.796  35.377  1.00  0.00     0.250 C 
HETATM    2  C3  UNL     1     103.134  18.653  36.814  1.00  0.00     0.184 C 
HETATM    3  C4  UNL     1     103.305  20.034  37.460  1.00  0.00     0.179 C 
HETATM    4  O2  UNL     1     104.355  20.724  36.881  1.00  0.00    -0.347 OA
HETATM    5  C7  UNL     1     104.107  21.151  35.581  1.00  0.00     0.291 C 
HETATM    6  C9  UNL     1     103.130  20.188  34.925  1.00  0.00     0.220 C 
ENDROOT
BRANCH   6   7
HETATM    7  O4  UNL     1     103.128  20.309  33.531  1.00  0.00    -0.308 OA
BRANCH   7   8
HETATM    8  C10 UNL     1     102.154  21.070  32.848  1.00  0.00     0.269 C 
HETATM    9  O5  UNL     1     100.979  20.870  33.256  1.00  0.00    -0.265 OA
BRANCH   8  10
HETATM   10  C11 UNL     1     102.525  21.996  31.765  1.00  0.00     0.224 C 
BRANCH  10  11
HETATM   11  C12 UNL     1     101.507  21.970  30.701  1.00  0.00     0.182 C 
HETATM   12  O6  UNL     1     101.815  21.464  29.577  1.00  0.00    -0.648 OA
HETATM   13  O7  UNL     1     100.263  22.469  30.898  1.00  0.00    -0.648 OA
ENDBRANCH  10  11
ENDBRANCH   8  10
ENDBRANCH   7   8
ENDBRANCH   6   7
BRANCH   1  14
HETATM   14  N1  UNL     1     103.016  17.767  34.523  1.00  0.00    -0.070 N 
HETATM   15  C1  UNL     1     101.804  17.251  35.130  1.00  0.00     0.267 C 
ATOM     16  H12 UNL     1     103.692  17.033  34.318  1.00  0.00     0.277 HD
ATOM     17  H11 UNL     1     102.866  18.092  33.568  1.00  0.00     0.277 HD
ENDBRANCH   1  14
BRANCH   5  18
HETATM   18  O3  UNL     1     103.698  22.455  35.505  1.00  0.00    -0.363 OA
HETATM   19  C8  UNL     1     104.689  23.195  34.866  1.00  0.00     0.204 C 
ENDBRANCH   5  18
BRANCH   2  20
HETATM   20  O1  UNL     1     103.890  17.702  37.505  1.00  0.00    -0.390 OA
ATOM     21  H1  UNL     1     103.357  17.142  38.057  1.00  0.00     0.210 HD
ENDBRANCH   2  20
BRANCH   3  22
HETATM   22  C5  UNL     1     103.645  19.890  38.910  1.00  0.00     0.015 C 
HETATM   23  C6  UNL     1     102.978  20.570  39.830  1.00  0.00     0.054 C 
HETATM   24 BR1  UNL     1     101.577  21.742  39.279  1.00  0.00    -0.064 Br
ENDBRANCH   3  22
TORSDOF 8
ENDMDL
MODEL 5
REMARK VINA RESULT: -6.146162651      9.666     11.203
REMARK  8 active torsions:
REMARK  status: ('A' for Active; 'I' for Inactive)
REMARK    1  A    between atoms: N1_2  and  C2_5 
REMARK    2  A    between atoms: C3_6  and  O1_7 
REMARK    3  A    between atoms: C4_9  and  C5_10 
REMARK    4  A    between atoms: C7_14  and  O3_15 
REMARK    5  A    between atoms: C9_17  and  O4_18 
REMARK    6  A    between atoms: O4_18  and  C10_19 
REMARK    7  A    between atoms: C10_19  and  C11_21 
REMARK    8  A    between atoms: C11_21  and  C12_22 
ROOT
HETATM    1  C2  UNL     1     102.627  21.504  32.367  1.00  0.00     0.250 C 
HETATM    2  C3  UNL     1     102.032  21.485  30.984  1.00  0.00     0.184 C 
HETATM    3  C4  UNL     1     102.840  22.487  30.148  1.00  0.00     0.179 C 
HETATM    4  O2  UNL     1     103.299  23.530  30.933  1.00  0.00    -0.347 OA
HETATM    5  C7  UNL     1     104.303  23.172  31.824  1.00  0.00     0.291 C 
HETATM    6  C9  UNL     1     104.128  21.710  32.201  1.00  0.00     0.220 C 
ENDROOT
BRANCH   6   7
HETATM    7  O4  UNL     1     104.834  21.377  33.363  1.00  0.00    -0.308 OA
BRANCH   7   8
HETATM    8  C10 UNL     1     105.734  20.289  33.405  1.00  0.00     0.269 C 
HETATM    9  O5  UNL     1     106.224  19.994  32.283  1.00  0.00    -0.265 OA
BRANCH   8  10
HETATM   10  C11 UNL     1     106.037  19.594  34.668  1.00  0.00     0.224 C 
BRANCH  10  11
HETATM   11  C12 UNL     1     104.869  18.816  35.114  1.00  0.00     0.182 C 
HETATM   12  O6  UNL     1     104.539  18.864  36.340  1.00  0.00    -0.648 OA
HETATM   13  O7  UNL     1     104.149  18.060  34.251  1.00  0.00    -0.648 OA
ENDBRANCH  10  11
ENDBRANCH   8  10
ENDBRANCH   7   8
ENDBRANCH   6   7
BRANCH   1  14
HETATM   14  N1  UNL     1     102.332  20.311  33.123  1.00  0.00    -0.070 N 
HETATM   15  C1  UNL     1     101.711  20.697  34.376  1.00  0.00     0.267 C 
ATOM     16  H12 UNL     1     103.153  19.723  33.260  1.00  0.00     0.277 HD
ATOM     17  H11 UNL     1     101.767  19.645  32.597  1.00  0.00     0.277 HD
ENDBRANCH   1  14
BRANCH   5  18
HETATM   18  O3  UNL     1     105.562  23.456  31.368  1.00  0.00    -0.363 OA
HETATM   19  C8  UNL     1     106.122  24.433  32.187  1.00  0.00     0.204 C 
ENDBRANCH   5  18
BRANCH   2  20
HETATM   20  O1  UNL     1     100.679  21.834  30.977  1.00  0.00    -0.390 OA
ATOM     21  H1  UNL     1     100.289  21.763  30.113  1.00  0.00     0.210 HD
ENDBRANCH   2  20
BRANCH   3  22
HETATM   22  C5  UNL     1     101.973  23.102  29.095  1.00  0.00     0.015 C 
HETATM   23  C6  UNL     1     102.225  22.900  27.811  1.00  0.00     0.054 C 
HETATM   24 BR1  UNL     1     103.715  21.814  27.321  1.00  0.00    -0.064 Br
ENDBRANCH   3  22
TORSDOF 8
ENDMDL
