MODEL 1
REMARK VINA RESULT: -7.613329624      0.000      0.000
REMARK  9 active torsions:
REMARK  status: ('A' for Active; 'I' for Inactive)
REMARK    1  A    between atoms: C2_2  and  N1_3 
REMARK       I    between atoms: N1_3  and  C3_5 
REMARK    2  A    between atoms: C3_5  and  C4_7 
REMARK    3  A    between atoms: C4_7  and  C5_9 
REMARK    4  A    between atoms: C5_9  and  O4_11 
REMARK    5  A    between atoms: O4_11  and  C6_12 
REMARK    6  A    between atoms: C6_12  and  C7_13 
REMARK    7  A    between atoms: C7_13  and  N2_14 
REMARK    8  A    between atoms: C9_19  and  O5_20 
REMARK    9  A    between atoms: O5_20  and  C10_21 
REMARK       I    between atoms: C10_21  and  N3_23 
ROOT
HETATM    1  C7  UNL     1      94.793  16.505  31.139  1.00  0.00     0.152 C 
HETATM    2  C8  UNL     1      94.764  16.110  29.699  1.00  0.00     0.074 C 
HETATM    3  C9  UNL     1      94.276  17.307  28.950  1.00  0.00     0.141 C 
HETATM    4  C12 UNL     1      93.826  18.301  29.962  1.00  0.00     0.031 A 
HETATM    5  C13 UNL     1      94.010  17.751  31.321  1.00  0.00     0.039 A 
HETATM    6  C14 UNL     1      92.660  17.996  30.824  1.00  0.00    -0.035 A 
HETATM    7  C15 UNL     1      91.952  19.226  31.362  1.00  0.00     0.016 C 
HETATM    8  C16 UNL     1      91.700  16.893  30.467  1.00  0.00     0.016 C 
ENDROOT
BRANCH   1   9
HETATM    9  C6  UNL     1      96.231  16.784  31.530  1.00  0.00     0.218 C 
BRANCH   9  10
HETATM   10  O4  UNL     1      97.109  15.817  30.943  1.00  0.00    -0.312 OA
BRANCH  10  11
HETATM   11  C5  UNL     1      97.561  14.719  31.619  1.00  0.00     0.339 C 
HETATM   12  O3  UNL     1      96.700  13.901  32.042  1.00  0.00    -0.255 OA
BRANCH  11  13
HETATM   13  C4  UNL     1      98.984  14.544  31.818  1.00  0.00     0.313 C 
HETATM   14  O2  UNL     1      99.791  14.556  30.860  1.00  0.00    -0.276 OA
BRANCH  13  15
HETATM   15  C3  UNL     1      99.512  14.349  33.159  1.00  0.00     0.298 C 
HETATM   16  N1  UNL     1      99.312  13.134  33.868  1.00  0.00    -0.354 N 
ATOM     17  H1  UNL     1      98.785  12.380  33.426  1.00  0.00     0.162 HD
HETATM   18  O1  UNL     1     100.170  15.269  33.735  1.00  0.00    -0.264 OA
BRANCH  16  19
HETATM   19  C2  UNL     1      99.835  12.940  35.196  1.00  0.00     0.118 C 
HETATM   20  C1  UNL     1      99.963  11.476  35.538  1.00  0.00     0.026 C 
ENDBRANCH  16  19
ENDBRANCH  13  15
ENDBRANCH  11  13
ENDBRANCH  10  11
ENDBRANCH   9  10
ENDBRANCH   1   9
BRANCH   1  21
HETATM   21  N2  UNL     1      94.343  15.412  32.011  1.00  0.00    -0.068 N 
ATOM     22  H23 UNL     1      94.990  15.205  32.771  1.00  0.00     0.275 HD
ATOM     23  H22 UNL     1      93.543  15.659  32.592  1.00  0.00     0.275 HD
ATOM     24  H21 UNL     1      94.170  14.617  31.396  1.00  0.00     0.275 HD
ENDBRANCH   1  21
BRANCH   3  25
HETATM   25  O5  UNL     1      93.191  16.964  28.083  1.00  0.00    -0.298 OA
BRANCH  25  26
HETATM   26  C10 UNL     1      93.409  16.329  26.866  1.00  0.00     0.360 C 
HETATM   27  O6  UNL     1      93.087  16.977  25.838  1.00  0.00    -0.239 OA
HETATM   28  N3  UNL     1      93.960  15.027  26.766  1.00  0.00    -0.341 N 
HETATM   29  C11 UNL     1      94.144  14.460  25.450  1.00  0.00     0.151 C 
ATOM     30  H3  UNL     1      94.219  14.503  27.602  1.00  0.00     0.164 HD
ENDBRANCH  25  26
ENDBRANCH   3  25
TORSDOF 9
ENDMDL
MODEL 2
REMARK VINA RESULT: -7.549255179      1.349      1.626
REMARK  9 active torsions:
REMARK  status: ('A' for Active; 'I' for Inactive)
REMARK    1  A    between atoms: C2_2  and  N1_3 
REMARK       I    between atoms: N1_3  and  C3_5 
REMARK    2  A    between atoms: C3_5  and  C4_7 
REMARK    3  A    between atoms: C4_7  and  C5_9 
REMARK    4  A    between atoms: C5_9  and  O4_11 
REMARK    5  A    between atoms: O4_11  and  C6_12 
REMARK    6  A    between atoms: C6_12  and  C7_13 
REMARK    7  A    between atoms: C7_13  and  N2_14 
REMARK    8  A    between atoms: C9_19  and  O5_20 
REMARK    9  A    between atoms: O5_20  and  C10_21 
REMARK       I    between atoms: C10_21  and  N3_23 
ROOT
HETATM    1  C7  UNL     1      95.145  16.195  31.337  1.00  0.00     0.152 C 
HETATM    2  C8  UNL     1      95.029  15.672  29.942  1.00  0.00     0.074 C 
HETATM    3  C9  UNL     1      94.575  16.821  29.104  1.00  0.00     0.141 C 
HETATM    4  C12 UNL     1      94.228  17.929  30.034  1.00  0.00     0.031 A 
HETATM    5  C13 UNL     1      94.441  17.497  31.431  1.00  0.00     0.039 A 
HETATM    6  C14 UNL     1      93.086  17.775  30.967  1.00  0.00    -0.035 A 
HETATM    7  C15 UNL     1      92.473  19.090  31.413  1.00  0.00     0.016 C 
HETATM    8  C16 UNL     1      92.051  16.703  30.754  1.00  0.00     0.016 C 
ENDROOT
BRANCH   1   9
HETATM    9  C6  UNL     1      96.612  16.423  31.641  1.00  0.00     0.218 C 
BRANCH   9  10
HETATM   10  O4  UNL     1      97.408  15.355  31.114  1.00  0.00    -0.312 OA
BRANCH  10  11
HETATM   11  C5  UNL     1      97.937  14.368  31.898  1.00  0.00     0.339 C 
HETATM   12  O3  UNL     1      97.146  13.495  32.346  1.00  0.00    -0.255 OA
BRANCH  11  13
HETATM   13  C4  UNL     1      99.358  14.367  32.174  1.00  0.00     0.313 C 
HETATM   14  O2  UNL     1     100.205  14.150  31.278  1.00  0.00    -0.276 OA
BRANCH  13  15
HETATM   15  C3  UNL     1      99.835  14.624  33.524  1.00  0.00     0.298 C 
HETATM   16  N1  UNL     1     100.504  15.831  33.861  1.00  0.00    -0.354 N 
ATOM     17  H1  UNL     1     100.653  16.536  33.138  1.00  0.00     0.162 HD
HETATM   18  O1  UNL     1      99.666  13.764  34.443  1.00  0.00    -0.264 OA
BRANCH  16  19
HETATM   19  C2  UNL     1     100.977  16.085  35.197  1.00  0.00     0.118 C 
HETATM   20  C1  UNL     1     101.931  17.254  35.240  1.00  0.00     0.026 C 
ENDBRANCH  16  19
ENDBRANCH  13  15
ENDBRANCH  11  13
ENDBRANCH  10  11
ENDBRANCH   9  10
ENDBRANCH   1   9
BRANCH   1  21
HETATM   21  N2  UNL     1      94.674  15.216  32.325  1.00  0.00    -0.068 N 
ATOM     22  H23 UNL     1      94.101  15.625  33.062  1.00  0.00     0.275 HD
ATOM     23  H22 UNL     1      93.969  14.576  31.960  1.00  0.00     0.275 HD
ATOM     24  H21 UNL     1      95.509  14.746  32.673  1.00  0.00     0.275 HD
ENDBRANCH   1  21
BRANCH   3  25
HETATM   25  O5  UNL     1      93.435  16.465  28.317  1.00  0.00    -0.298 OA
BRANCH  25  26
HETATM   26  C10 UNL     1      93.565  16.063  26.993  1.00  0.00     0.360 C 
HETATM   27  O6  UNL     1      93.134  16.864  26.125  1.00  0.00    -0.239 OA
HETATM   28  N3  UNL     1      94.146  14.825  26.619  1.00  0.00    -0.341 N 
HETATM   29  C11 UNL     1      94.232  14.506  25.213  1.00  0.00     0.151 C 
ATOM     30  H3  UNL     1      94.495  14.176  27.324  1.00  0.00     0.164 HD
ENDBRANCH  25  26
ENDBRANCH   3  25
TORSDOF 9
ENDMDL
MODEL 3
REMARK VINA RESULT: -7.373576040      0.546      1.078
REMARK  9 active torsions:
REMARK  status: ('A' for Active; 'I' for Inactive)
REMARK    1  A    between atoms: C2_2  and  N1_3 
REMARK       I    between atoms: N1_3  and  C3_5 
REMARK    2  A    between atoms: C3_5  and  C4_7 
REMARK    3  A    between atoms: C4_7  and  C5_9 
REMARK    4  A    between atoms: C5_9  and  O4_11 
REMARK    5  A    between atoms: O4_11  and  C6_12 
REMARK    6  A    between atoms: C6_12  and  C7_13 
REMARK    7  A    between atoms: C7_13  and  N2_14 
REMARK    8  A    between atoms: C9_19  and  O5_20 
REMARK    9  A    between atoms: O5_20  and  C10_21 
REMARK       I    between atoms: C10_21  and  N3_23 
ROOT
HETATM    1  C7  UNL     1      95.081  16.235  31.347  1.00  0.00     0.152 C 
HETATM    2  C8  UNL     1      94.954  15.767  29.934  1.00  0.00     0.074 C 
HETATM    3  C9  UNL     1      94.502  16.950  29.143  1.00  0.00     0.141 C 
HETATM    4  C12 UNL     1      94.166  18.024  30.118  1.00  0.00     0.031 A 
HETATM    5  C13 UNL     1      94.385  17.536  31.496  1.00  0.00     0.039 A 
HETATM    6  C14 UNL     1      93.029  17.840  31.051  1.00  0.00    -0.035 A 
HETATM    7  C15 UNL     1      92.426  19.139  31.553  1.00  0.00     0.016 C 
HETATM    8  C16 UNL     1      91.986  16.782  30.803  1.00  0.00     0.016 C 
ENDROOT
BRANCH   1   9
HETATM    9  C6  UNL     1      96.551  16.443  31.651  1.00  0.00     0.218 C 
BRANCH   9  10
HETATM   10  O4  UNL     1      97.365  15.705  30.732  1.00  0.00    -0.312 OA
BRANCH  10  11
HETATM   11  C5  UNL     1      98.295  14.788  31.135  1.00  0.00     0.339 C 
HETATM   12  O3  UNL     1      99.379  14.738  30.493  1.00  0.00    -0.255 OA
BRANCH  11  13
HETATM   13  C4  UNL     1      98.002  13.929  32.262  1.00  0.00     0.313 C 
HETATM   14  O2  UNL     1      96.952  13.250  32.319  1.00  0.00    -0.276 OA
BRANCH  13  15
HETATM   15  C3  UNL     1      98.940  13.839  33.370  1.00  0.00     0.298 C 
HETATM   16  N1  UNL     1      98.992  12.694  34.211  1.00  0.00    -0.354 N 
ATOM     17  H1  UNL     1      98.355  11.917  34.033  1.00  0.00     0.162 HD
HETATM   18  O1  UNL     1      99.743  14.792  33.616  1.00  0.00    -0.264 OA
BRANCH  16  19
HETATM   19  C2  UNL     1      99.921  12.605  35.307  1.00  0.00     0.118 C 
HETATM   20  C1  UNL     1     100.204  11.171  35.684  1.00  0.00     0.026 C 
ENDBRANCH  16  19
ENDBRANCH  13  15
ENDBRANCH  11  13
ENDBRANCH  10  11
ENDBRANCH   9  10
ENDBRANCH   1   9
BRANCH   1  21
HETATM   21  N2  UNL     1      94.611  15.221  32.298  1.00  0.00    -0.068 N 
ATOM     22  H23 UNL     1      94.984  14.289  32.119  1.00  0.00     0.275 HD
ATOM     23  H22 UNL     1      94.999  15.331  33.235  1.00  0.00     0.275 HD
ATOM     24  H21 UNL     1      93.592  15.263  32.273  1.00  0.00     0.275 HD
ENDBRANCH   1  21
BRANCH   3  25
HETATM   25  O5  UNL     1      93.354  16.632  28.350  1.00  0.00    -0.298 OA
BRANCH  25  26
HETATM   26  C10 UNL     1      93.479  16.211  27.032  1.00  0.00     0.360 C 
HETATM   27  O6  UNL     1      93.218  17.067  26.149  1.00  0.00    -0.239 OA
HETATM   28  N3  UNL     1      93.876  14.897  26.678  1.00  0.00    -0.341 N 
HETATM   29  C11 UNL     1      93.974  14.565  25.276  1.00  0.00     0.151 C 
ATOM     30  H3  UNL     1      94.087  14.204  27.396  1.00  0.00     0.164 HD
ENDBRANCH  25  26
ENDBRANCH   3  25
TORSDOF 9
ENDMDL
MODEL 4
REMARK VINA RESULT: -7.305881899      1.248      1.697
REMARK  9 active torsions:
REMARK  status: ('A' for Active; 'I' for Inactive)
REMARK    1  A    between atoms: C2_2  and  N1_3 
REMARK       I    between atoms: N1_3  and  C3_5 
REMARK    2  A    between atoms: C3_5  and  C4_7 
REMARK    3  A    between atoms: C4_7  and  C5_9 
REMARK    4  A    between atoms: C5_9  and  O4_11 
REMARK    5  A    between atoms: O4_11  and  C6_12 
REMARK    6  A    between atoms: C6_12  and  C7_13 
REMARK    7  A    between atoms: C7_13  and  N2_14 
REMARK    8  A    between atoms: C9_19  and  O5_20 
REMARK    9  A    between atoms: O5_20  and  C10_21 
REMARK       I    between atoms: C10_21  and  N3_23 
ROOT
HETATM    1  C7  UNL     1      95.321  16.040  31.269  1.00  0.00     0.152 C 
HETATM    2  C8  UNL     1      95.116  15.510  29.887  1.00  0.00     0.074 C 
HETATM    3  C9  UNL     1      94.652  16.666  29.063  1.00  0.00     0.141 C 
HETATM    4  C12 UNL     1      94.387  17.792  30.001  1.00  0.00     0.031 A 
HETATM    5  C13 UNL     1      94.662  17.364  31.388  1.00  0.00     0.039 A 
HETATM    6  C14 UNL     1      93.293  17.679  30.994  1.00  0.00    -0.035 A 
HETATM    7  C15 UNL     1      92.743  19.015  31.461  1.00  0.00     0.016 C 
HETATM    8  C16 UNL     1      92.217  16.636  30.846  1.00  0.00     0.016 C 
ENDROOT
BRANCH   1   9
HETATM    9  C6  UNL     1      96.809  16.227  31.493  1.00  0.00     0.218 C 
BRANCH   9  10
HETATM   10  O4  UNL     1      97.556  15.260  30.747  1.00  0.00    -0.312 OA
BRANCH  10  11
HETATM   11  C5  UNL     1      98.537  14.490  31.304  1.00  0.00     0.339 C 
HETATM   12  O3  UNL     1      99.703  14.607  30.839  1.00  0.00    -0.255 OA
BRANCH  11  13
HETATM   13  C4  UNL     1      98.204  13.589  32.386  1.00  0.00     0.313 C 
HETATM   14  O2  UNL     1      97.244  12.789  32.307  1.00  0.00    -0.276 OA
BRANCH  13  15
HETATM   15  C3  UNL     1      98.993  13.597  33.608  1.00  0.00     0.298 C 
HETATM   16  N1  UNL     1      99.778  14.721  33.980  1.00  0.00    -0.354 N 
ATOM     17  H1  UNL     1      99.789  15.543  33.375  1.00  0.00     0.162 HD
HETATM   18  O1  UNL     1      99.000  12.588  34.379  1.00  0.00    -0.264 OA
BRANCH  16  19
HETATM   19  C2  UNL     1     100.559  14.729  35.190  1.00  0.00     0.118 C 
HETATM   20  C1  UNL     1     100.903  16.133  35.623  1.00  0.00     0.026 C 
ENDBRANCH  16  19
ENDBRANCH  13  15
ENDBRANCH  11  13
ENDBRANCH  10  11
ENDBRANCH   9  10
ENDBRANCH   1   9
BRANCH   1  21
HETATM   21  N2  UNL     1      94.876  15.084  32.289  1.00  0.00    -0.068 N 
ATOM     22  H23 UNL     1      95.639  14.561  32.718  1.00  0.00     0.275 HD
ATOM     23  H22 UNL     1      94.535  15.528  33.142  1.00  0.00     0.275 HD
ATOM     24  H21 UNL     1      94.181  14.491  31.834  1.00  0.00     0.275 HD
ENDBRANCH   1  21
BRANCH   3  25
HETATM   25  O5  UNL     1      93.461  16.338  28.342  1.00  0.00    -0.298 OA
BRANCH  25  26
HETATM   26  C10 UNL     1      93.506  15.944  27.010  1.00  0.00     0.360 C 
HETATM   27  O6  UNL     1      92.865  16.658  26.198  1.00  0.00    -0.239 OA
HETATM   28  N3  UNL     1      94.227  14.806  26.569  1.00  0.00    -0.341 N 
HETATM   29  C11 UNL     1      94.208  14.486  25.161  1.00  0.00     0.151 C 
ATOM     30  H3  UNL     1      94.746  14.228  27.229  1.00  0.00     0.164 HD
ENDBRANCH  25  26
ENDBRANCH   3  25
TORSDOF 9
ENDMDL
MODEL 5
REMARK VINA RESULT: -7.211003809      2.074      3.097
REMARK  9 active torsions:
REMARK  status: ('A' for Active; 'I' for Inactive)
REMARK    1  A    between atoms: C2_2  and  N1_3 
REMARK       I    between atoms: N1_3  and  C3_5 
REMARK    2  A    between atoms: C3_5  and  C4_7 
REMARK    3  A    between atoms: C4_7  and  C5_9 
REMARK    4  A    between atoms: C5_9  and  O4_11 
REMARK    5  A    between atoms: O4_11  and  C6_12 
REMARK    6  A    between atoms: C6_12  and  C7_13 
REMARK    7  A    between atoms: C7_13  and  N2_14 
REMARK    8  A    between atoms: C9_19  and  O5_20 
REMARK    9  A    between atoms: O5_20  and  C10_21 
REMARK       I    between atoms: C10_21  and  N3_23 
ROOT
HETATM    1  C7  UNL     1      95.584  16.234  31.167  1.00  0.00     0.152 C 
HETATM    2  C8  UNL     1      94.749  17.143  32.008  1.00  0.00     0.074 C 
HETATM    3  C9  UNL     1      93.396  17.168  31.375  1.00  0.00     0.141 C 
HETATM    4  C12 UNL     1      93.512  16.458  30.071  1.00  0.00     0.031 A 
HETATM    5  C13 UNL     1      94.903  16.002  29.871  1.00  0.00     0.039 A 
HETATM    6  C14 UNL     1      94.353  17.031  28.995  1.00  0.00    -0.035 A 
HETATM    7  C15 UNL     1      93.953  16.590  27.598  1.00  0.00     0.016 C 
HETATM    8  C16 UNL     1      94.792  18.471  29.037  1.00  0.00     0.016 C 
ENDROOT
BRANCH   1   9
HETATM    9  C6  UNL     1      95.712  14.903  31.883  1.00  0.00     0.218 C 
BRANCH   9  10
HETATM   10  O4  UNL     1      96.580  14.024  31.159  1.00  0.00    -0.312 OA
BRANCH  10  11
HETATM   11  C5  UNL     1      97.692  13.456  31.716  1.00  0.00     0.339 C 
HETATM   12  O3  UNL     1      97.674  12.210  31.907  1.00  0.00    -0.255 OA
BRANCH  11  13
HETATM   13  C4  UNL     1      98.822  14.293  32.056  1.00  0.00     0.313 C 
HETATM   14  O2  UNL     1      99.259  15.164  31.269  1.00  0.00    -0.276 OA
BRANCH  13  15
HETATM   15  C3  UNL     1      99.482  14.135  33.342  1.00  0.00     0.298 C 
HETATM   16  N1  UNL     1      99.346  12.946  34.108  1.00  0.00    -0.354 N 
ATOM     17  H1  UNL     1      98.771  12.185  33.747  1.00  0.00     0.162 HD
HETATM   18  O1  UNL     1     100.203  15.067  33.817  1.00  0.00    -0.264 OA
BRANCH  16  19
HETATM   19  C2  UNL     1     100.000  12.790  35.382  1.00  0.00     0.118 C 
HETATM   20  C1  UNL     1     100.143  11.336  35.762  1.00  0.00     0.026 C 
ENDBRANCH  16  19
ENDBRANCH  13  15
ENDBRANCH  11  13
ENDBRANCH  10  11
ENDBRANCH   9  10
ENDBRANCH   1   9
BRANCH   1  21
HETATM   21  N2  UNL     1      96.953  16.742  31.013  1.00  0.00    -0.068 N 
ATOM     22  H23 UNL     1      97.671  16.040  31.189  1.00  0.00     0.275 HD
ATOM     23  H22 UNL     1      97.207  16.939  30.045  1.00  0.00     0.275 HD
ATOM     24  H21 UNL     1      97.021  17.555  31.625  1.00  0.00     0.275 HD
ENDBRANCH   1  21
BRANCH   3  25
HETATM   25  O5  UNL     1      92.952  18.511  31.164  1.00  0.00    -0.298 OA
BRANCH  25  26
HETATM   26  C10 UNL     1      91.764  18.785  30.496  1.00  0.00     0.360 C 
HETATM   27  O6  UNL     1      90.712  18.695  31.176  1.00  0.00    -0.239 OA
HETATM   28  N3  UNL     1      91.719  19.146  29.126  1.00  0.00    -0.341 N 
HETATM   29  C11 UNL     1      90.431  19.411  28.529  1.00  0.00     0.151 C 
ATOM     30  H3  UNL     1      92.575  19.218  28.575  1.00  0.00     0.164 HD
ENDBRANCH  25  26
ENDBRANCH   3  25
TORSDOF 9
ENDMDL
