MODEL 1
REMARK VINA RESULT: -7.754966619      0.000      0.000
REMARK  6 active torsions:
REMARK  status: ('A' for Active; 'I' for Inactive)
REMARK    1  A    between atoms: C2_2  and  C3_3 
REMARK    2  A    between atoms: C3_3  and  O2_5 
REMARK    3  A    between atoms: O2_5  and  C4_6 
REMARK    4  A    between atoms: C6_8  and  O3_9 
REMARK    5  A    between atoms: C14_19  and  O5_20 
REMARK    6  A    between atoms: O5_20  and  C15_21 
ROOT
HETATM    1  C4  UNL     1      11.907 -27.899  58.130  1.00  0.00     0.145 C 
HETATM    2  C5  UNL     1      12.783 -27.656  59.323  1.00  0.00     0.075 C 
HETATM    3  C6  UNL     1      14.041 -27.001  58.939  1.00  0.00     0.098 C 
HETATM    4  C7  UNL     1      15.074 -26.923  60.039  1.00  0.00     0.153 C 
HETATM    5  C8  UNL     1      14.790 -25.717  60.922  1.00  0.00     0.042 C 
HETATM    6  O4  UNL     1      16.183 -26.628  59.259  1.00  0.00    -0.372 OA
HETATM    7  C9  UNL     1      16.141 -27.527  58.148  1.00  0.00     0.067 C 
HETATM    8  C10 UNL     1      17.108 -28.624  58.665  1.00  0.00     0.046 C 
HETATM    9  C11 UNL     1      16.956 -26.841  57.117  1.00  0.00     0.046 C 
HETATM   10  C12 UNL     1      14.783 -27.934  57.964  1.00  0.00     0.048 C 
HETATM   11  C13 UNL     1      14.701 -29.373  58.529  1.00  0.00     0.024 C 
HETATM   12  C14 UNL     1      14.023 -27.852  56.673  1.00  0.00     0.156 C 
HETATM   13  C17 UNL     1      12.532 -27.871  56.800  1.00  0.00     0.007 C 
HETATM   14  C18 UNL     1      11.801 -26.778  56.029  1.00  0.00     0.020 C 
HETATM   15  C19 UNL     1      11.927 -29.093  56.045  1.00  0.00     0.020 C 
ENDROOT
BRANCH   1  16
HETATM   16  O2  UNL     1      10.801 -27.014  58.279  1.00  0.00    -0.315 OA
BRANCH  16  17
HETATM   17  C3  UNL     1       9.692 -27.252  59.044  1.00  0.00     0.258 C 
HETATM   18  O1  UNL     1       9.319 -28.448  59.154  1.00  0.00    -0.265 OA
BRANCH  17  19
HETATM   19  C2  UNL     1       8.906 -26.212  59.743  1.00  0.00     0.106 C 
HETATM   20  C1  UNL     1       9.793 -25.090  60.201  1.00  0.00     0.015 C 
ENDBRANCH  17  19
ENDBRANCH  16  17
ENDBRANCH   1  16
BRANCH   3  21
HETATM   21  O3  UNL     1      13.942 -25.739  58.447  1.00  0.00    -0.386 OA
ATOM     22  H3  UNL     1      14.047 -25.030  59.071  1.00  0.00     0.210 HD
ENDBRANCH   3  21
BRANCH  12  23
HETATM   23  O5  UNL     1      14.571 -27.219  55.610  1.00  0.00    -0.314 OA
BRANCH  23  24
HETATM   24  C15 UNL     1      15.007 -27.542  54.387  1.00  0.00     0.255 C 
HETATM   25  C16 UNL     1      16.389 -27.487  53.875  1.00  0.00     0.126 C 
HETATM   26  O6  UNL     1      14.037 -27.910  53.726  1.00  0.00    -0.266 OA
ENDBRANCH  23  24
ENDBRANCH  12  23
TORSDOF 6
ENDMDL
MODEL 2
REMARK VINA RESULT: -7.406810554      1.621      5.870
REMARK  6 active torsions:
REMARK  status: ('A' for Active; 'I' for Inactive)
REMARK    1  A    between atoms: C2_2  and  C3_3 
REMARK    2  A    between atoms: C3_3  and  O2_5 
REMARK    3  A    between atoms: O2_5  and  C4_6 
REMARK    4  A    between atoms: C6_8  and  O3_9 
REMARK    5  A    between atoms: C14_19  and  O5_20 
REMARK    6  A    between atoms: O5_20  and  C15_21 
ROOT
HETATM    1  C4  UNL     1      14.934 -28.358  55.871  1.00  0.00     0.145 C 
HETATM    2  C5  UNL     1      13.463 -28.638  55.797  1.00  0.00     0.075 C 
HETATM    3  C6  UNL     1      12.683 -27.584  56.461  1.00  0.00     0.098 C 
HETATM    4  C7  UNL     1      11.214 -27.896  56.632  1.00  0.00     0.153 C 
HETATM    5  C8  UNL     1      10.468 -27.554  55.352  1.00  0.00     0.042 C 
HETATM    6  O4  UNL     1      10.907 -26.928  57.577  1.00  0.00    -0.372 OA
HETATM    7  C9  UNL     1      11.944 -26.985  58.560  1.00  0.00     0.067 C 
HETATM    8  C10 UNL     1      11.248 -27.881  59.618  1.00  0.00     0.046 C 
HETATM    9  C11 UNL     1      11.895 -25.645  59.192  1.00  0.00     0.046 C 
HETATM   10  C12 UNL     1      13.105 -27.543  57.941  1.00  0.00     0.048 C 
HETATM   11  C13 UNL     1      13.186 -29.003  58.452  1.00  0.00     0.024 C 
HETATM   12  C14 UNL     1      14.472 -26.926  57.953  1.00  0.00     0.156 C 
HETATM   13  C17 UNL     1      15.404 -27.401  56.882  1.00  0.00     0.007 C 
HETATM   14  C18 UNL     1      16.112 -26.298  56.102  1.00  0.00     0.020 C 
HETATM   15  C19 UNL     1      16.672 -28.060  57.503  1.00  0.00     0.020 C 
ENDROOT
BRANCH   1  16
HETATM   16  O2  UNL     1      15.333 -28.048  54.538  1.00  0.00    -0.315 OA
BRANCH  16  17
HETATM   17  C3  UNL     1      15.700 -28.962  53.588  1.00  0.00     0.258 C 
HETATM   18  O1  UNL     1      15.265 -28.780  52.421  1.00  0.00    -0.265 OA
BRANCH  17  19
HETATM   19  C2  UNL     1      16.562 -30.138  53.832  1.00  0.00     0.106 C 
HETATM   20  C1  UNL     1      17.959 -29.712  54.184  1.00  0.00     0.015 C 
ENDBRANCH  17  19
ENDBRANCH  16  17
ENDBRANCH   1  16
BRANCH   3  21
HETATM   21  O3  UNL     1      12.726 -26.350  55.894  1.00  0.00    -0.386 OA
ATOM     22  H3  UNL     1      12.167 -25.686  56.280  1.00  0.00     0.210 HD
ENDBRANCH   3  21
BRANCH  12  23
HETATM   23  O5  UNL     1      14.641 -25.677  58.446  1.00  0.00    -0.314 OA
BRANCH  23  24
HETATM   24  C15 UNL     1      15.339 -25.091  59.426  1.00  0.00     0.255 C 
HETATM   25  C16 UNL     1      15.500 -25.545  60.820  1.00  0.00     0.126 C 
HETATM   26  O6  UNL     1      15.848 -24.070  58.967  1.00  0.00    -0.266 OA
ENDBRANCH  23  24
ENDBRANCH  12  23
TORSDOF 6
ENDMDL
MODEL 3
REMARK VINA RESULT: -6.919321440      1.995      4.304
REMARK  6 active torsions:
REMARK  status: ('A' for Active; 'I' for Inactive)
REMARK    1  A    between atoms: C2_2  and  C3_3 
REMARK    2  A    between atoms: C3_3  and  O2_5 
REMARK    3  A    between atoms: O2_5  and  C4_6 
REMARK    4  A    between atoms: C6_8  and  O3_9 
REMARK    5  A    between atoms: C14_19  and  O5_20 
REMARK    6  A    between atoms: O5_20  and  C15_21 
ROOT
HETATM    1  C4  UNL     1      12.089 -27.588  57.120  1.00  0.00     0.145 C 
HETATM    2  C5  UNL     1      12.809 -28.471  56.144  1.00  0.00     0.075 C 
HETATM    3  C6  UNL     1      13.946 -29.153  56.776  1.00  0.00     0.098 C 
HETATM    4  C7  UNL     1      14.858 -29.883  55.818  1.00  0.00     0.153 C 
HETATM    5  C8  UNL     1      14.284 -31.258  55.514  1.00  0.00     0.042 C 
HETATM    6  O4  UNL     1      15.948 -30.052  56.660  1.00  0.00    -0.372 OA
HETATM    7  C9  UNL     1      16.162 -28.789  57.296  1.00  0.00     0.067 C 
HETATM    8  C10 UNL     1      17.276 -28.222  56.378  1.00  0.00     0.046 C 
HETATM    9  C11 UNL     1      16.909 -29.144  58.526  1.00  0.00     0.046 C 
HETATM   10  C12 UNL     1      14.923 -28.075  57.282  1.00  0.00     0.048 C 
HETATM   11  C13 UNL     1      15.072 -27.010  56.168  1.00  0.00     0.024 C 
HETATM   12  C14 UNL     1      14.264 -27.466  58.483  1.00  0.00     0.156 C 
HETATM   13  C17 UNL     1      12.797 -27.197  58.346  1.00  0.00     0.007 C 
HETATM   14  C18 UNL     1      11.934 -27.705  59.495  1.00  0.00     0.020 C 
HETATM   15  C19 UNL     1      12.494 -25.677  58.519  1.00  0.00     0.020 C 
ENDROOT
BRANCH   1  16
HETATM   16  O2  UNL     1      10.827 -28.212  57.343  1.00  0.00    -0.315 OA
BRANCH  16  17
HETATM   17  C3  UNL     1       9.659 -27.886  56.710  1.00  0.00     0.258 C 
HETATM   18  O1  UNL     1       8.826 -27.204  57.360  1.00  0.00    -0.265 OA
BRANCH  17  19
HETATM   19  C2  UNL     1       9.308 -28.277  55.327  1.00  0.00     0.106 C 
HETATM   20  C1  UNL     1       9.987 -27.382  54.330  1.00  0.00     0.015 C 
ENDBRANCH  17  19
ENDBRANCH  16  17
ENDBRANCH   1  16
BRANCH   3  21
HETATM   21  O3  UNL     1      13.648 -30.054  57.749  1.00  0.00    -0.386 OA
ATOM     22  H3  UNL     1      14.090 -30.894  57.699  1.00  0.00     0.210 HD
ENDBRANCH   3  21
BRANCH  12  23
HETATM   23  O5  UNL     1      14.762 -27.705  59.718  1.00  0.00    -0.314 OA
BRANCH  23  24
HETATM   24  C15 UNL     1      15.334 -27.004  60.703  1.00  0.00     0.255 C 
HETATM   25  C16 UNL     1      15.029 -25.625  61.128  1.00  0.00     0.126 C 
HETATM   26  O6  UNL     1      16.190 -27.717  61.225  1.00  0.00    -0.266 OA
ENDBRANCH  23  24
ENDBRANCH  12  23
TORSDOF 6
ENDMDL
MODEL 4
REMARK VINA RESULT: -6.907054300      1.724      4.014
REMARK  6 active torsions:
REMARK  status: ('A' for Active; 'I' for Inactive)
REMARK    1  A    between atoms: C2_2  and  C3_3 
REMARK    2  A    between atoms: C3_3  and  O2_5 
REMARK    3  A    between atoms: O2_5  and  C4_6 
REMARK    4  A    between atoms: C6_8  and  O3_9 
REMARK    5  A    between atoms: C14_19  and  O5_20 
REMARK    6  A    between atoms: O5_20  and  C15_21 
ROOT
HETATM    1  C4  UNL     1      12.072 -27.586  57.455  1.00  0.00     0.145 C 
HETATM    2  C5  UNL     1      12.639 -28.458  56.374  1.00  0.00     0.075 C 
HETATM    3  C6  UNL     1      13.852 -29.152  56.827  1.00  0.00     0.098 C 
HETATM    4  C7  UNL     1      14.613 -29.872  55.738  1.00  0.00     0.153 C 
HETATM    5  C8  UNL     1      13.994 -31.242  55.504  1.00  0.00     0.042 C 
HETATM    6  O4  UNL     1      15.812 -30.055  56.411  1.00  0.00    -0.372 OA
HETATM    7  C9  UNL     1      16.121 -28.801  57.025  1.00  0.00     0.067 C 
HETATM    8  C10 UNL     1      17.094 -28.225  55.963  1.00  0.00     0.046 C 
HETATM    9  C11 UNL     1      17.037 -29.173  58.130  1.00  0.00     0.046 C 
HETATM   10  C12 UNL     1      14.897 -28.084  57.200  1.00  0.00     0.048 C 
HETATM   11  C13 UNL     1      14.888 -27.004  56.089  1.00  0.00     0.024 C 
HETATM   12  C14 UNL     1      14.421 -27.487  58.490  1.00  0.00     0.156 C 
HETATM   13  C17 UNL     1      12.952 -27.212  58.571  1.00  0.00     0.007 C 
HETATM   14  C18 UNL     1      12.261 -27.733  59.826  1.00  0.00     0.020 C 
HETATM   15  C19 UNL     1      12.684 -25.694  58.804  1.00  0.00     0.020 C 
ENDROOT
BRANCH   1  16
HETATM   16  O2  UNL     1      10.853 -28.209  57.851  1.00  0.00    -0.315 OA
BRANCH  16  17
HETATM   17  C3  UNL     1       9.627 -27.601  57.886  1.00  0.00     0.258 C 
HETATM   18  O1  UNL     1       9.104 -27.303  56.782  1.00  0.00    -0.265 OA
BRANCH  17  19
HETATM   19  C2  UNL     1       8.881 -27.271  59.119  1.00  0.00     0.106 C 
HETATM   20  C1  UNL     1       9.109 -25.840  59.515  1.00  0.00     0.015 C 
ENDBRANCH  17  19
ENDBRANCH  16  17
ENDBRANCH   1  16
BRANCH   3  21
HETATM   21  O3  UNL     1      13.694 -30.064  57.822  1.00  0.00    -0.386 OA
ATOM     22  H3  UNL     1      14.115 -29.866  58.650  1.00  0.00     0.210 HD
ENDBRANCH   3  21
BRANCH  12  23
HETATM   23  O5  UNL     1      15.092 -27.744  59.637  1.00  0.00    -0.314 OA
BRANCH  23  24
HETATM   24  C15 UNL     1      15.697 -27.044  60.603  1.00  0.00     0.255 C 
HETATM   25  C16 UNL     1      15.544 -25.610  60.913  1.00  0.00     0.126 C 
HETATM   26  O6  UNL     1      16.432 -27.812  61.222  1.00  0.00    -0.266 OA
ENDBRANCH  23  24
ENDBRANCH  12  23
TORSDOF 6
ENDMDL
MODEL 5
REMARK VINA RESULT: -6.862050257      1.254      1.495
REMARK  6 active torsions:
REMARK  status: ('A' for Active; 'I' for Inactive)
REMARK    1  A    between atoms: C2_2  and  C3_3 
REMARK    2  A    between atoms: C3_3  and  O2_5 
REMARK    3  A    between atoms: O2_5  and  C4_6 
REMARK    4  A    between atoms: C6_8  and  O3_9 
REMARK    5  A    between atoms: C14_19  and  O5_20 
REMARK    6  A    between atoms: O5_20  and  C15_21 
ROOT
HETATM    1  C4  UNL     1      12.746 -28.088  58.347  1.00  0.00     0.145 C 
HETATM    2  C5  UNL     1      13.436 -27.674  59.612  1.00  0.00     0.075 C 
HETATM    3  C6  UNL     1      14.651 -26.898  59.331  1.00  0.00     0.098 C 
HETATM    4  C7  UNL     1      15.526 -26.634  60.534  1.00  0.00     0.153 C 
HETATM    5  C8  UNL     1      15.004 -25.421  61.289  1.00  0.00     0.042 C 
HETATM    6  O4  UNL     1      16.683 -26.257  59.868  1.00  0.00    -0.372 OA
HETATM    7  C9  UNL     1      16.877 -27.217  58.827  1.00  0.00     0.067 C 
HETATM    8  C10 UNL     1      17.889 -28.160  59.530  1.00  0.00     0.046 C 
HETATM    9  C11 UNL     1      17.732 -26.501  57.850  1.00  0.00     0.046 C 
HETATM   10  C12 UNL     1      15.606 -27.792  58.517  1.00  0.00     0.048 C 
HETATM   11  C13 UNL     1      15.615 -29.195  59.172  1.00  0.00     0.024 C 
HETATM   12  C14 UNL     1      15.007 -27.876  57.145  1.00  0.00     0.156 C 
HETATM   13  C17 UNL     1      13.522 -28.064  57.099  1.00  0.00     0.007 C 
HETATM   14  C18 UNL     1      12.775 -27.112  56.172  1.00  0.00     0.020 C 
HETATM   15  C19 UNL     1      13.154 -29.391  56.369  1.00  0.00     0.020 C 
ENDROOT
BRANCH   1  16
HETATM   16  O2  UNL     1      11.539 -27.332  58.302  1.00  0.00    -0.315 OA
BRANCH  16  17
HETATM   17  C3  UNL     1      10.282 -27.833  58.507  1.00  0.00     0.258 C 
HETATM   18  O1  UNL     1      10.124 -28.597  59.493  1.00  0.00    -0.265 OA
BRANCH  17  19
HETATM   19  C2  UNL     1       9.106 -27.543  57.658  1.00  0.00     0.106 C 
HETATM   20  C1  UNL     1       9.365 -27.942  56.233  1.00  0.00     0.015 C 
ENDBRANCH  17  19
ENDBRANCH  16  17
ENDBRANCH   1  16
BRANCH   3  21
HETATM   21  O3  UNL     1      14.474 -25.687  58.740  1.00  0.00    -0.386 OA
ATOM     22  H3  UNL     1      14.688 -24.925  59.264  1.00  0.00     0.210 HD
ENDBRANCH   3  21
BRANCH  12  23
HETATM   23  O5  UNL     1      15.608 -27.246  56.109  1.00  0.00    -0.314 OA
BRANCH  23  24
HETATM   24  C15 UNL     1      16.171 -27.582  54.943  1.00  0.00     0.255 C 
HETATM   25  C16 UNL     1      17.423 -28.330  54.725  1.00  0.00     0.126 C 
HETATM   26  O6  UNL     1      15.452 -27.156  54.040  1.00  0.00    -0.266 OA
ENDBRANCH  23  24
ENDBRANCH  12  23
TORSDOF 6
ENDMDL
