MODEL 1
REMARK VINA RESULT: -8.153534809      0.000      0.000
REMARK  3 active torsions:
REMARK  status: ('A' for Active; 'I' for Inactive)
REMARK    1  A    between atoms: O1_2  and  C2_3 
REMARK    2  A    between atoms: C2_3  and  C3_4 
REMARK    3  A    between atoms: C7_9  and  O3_10 
ROOT
HETATM    1  C3  UNL     1      10.439 -27.305  58.377  1.00  0.00    -0.003 C 
HETATM    2  C4  UNL     1      11.754 -27.409  58.337  1.00  0.00     0.023 C 
HETATM    3  C5  UNL     1      12.359 -28.009  57.110  1.00  0.00     0.108 A 
HETATM    4  C6  UNL     1      11.508 -27.877  55.891  1.00  0.00     0.214 C 
HETATM    5  O2  UNL     1      10.314 -27.189  56.086  1.00  0.00    -0.354 OA
HETATM    6  C7  UNL     1       9.686 -27.790  57.202  1.00  0.00     0.289 C 
HETATM    7  O4  UNL     1      12.766 -29.345  57.295  1.00  0.00    -0.362 OA
HETATM    8  C8  UNL     1      14.114 -29.084  57.009  1.00  0.00     0.066 A 
HETATM    9  C9  UNL     1      14.476 -29.761  55.707  1.00  0.00     0.046 C 
HETATM   10  C10 UNL     1      14.960 -29.528  58.152  1.00  0.00     0.041 C 
HETATM   11  C11 UNL     1      16.454 -29.485  57.816  1.00  0.00     0.036 C 
HETATM   12  C12 UNL     1      17.158 -28.592  58.753  1.00  0.00     0.133 C 
HETATM   13  O5  UNL     1      16.268 -27.659  59.332  1.00  0.00    -0.374 OA
HETATM   14  C13 UNL     1      16.753 -26.631  58.508  1.00  0.00     0.067 C 
HETATM   15  C14 UNL     1      17.086 -25.357  59.290  1.00  0.00     0.047 C 
HETATM   16  C15 UNL     1      15.827 -26.382  57.386  1.00  0.00     0.039 C 
HETATM   17  C16 UNL     1      14.417 -26.723  57.851  1.00  0.00     0.014 C 
HETATM   18  C17 UNL     1      13.805 -27.665  56.895  1.00  0.00     0.061 A 
HETATM   19  C18 UNL     1      17.943 -27.479  58.214  1.00  0.00     0.009 C 
HETATM   20  C19 UNL     1      19.066 -27.108  59.204  1.00  0.00     0.020 C 
HETATM   21  C20 UNL     1      18.473 -27.513  56.843  1.00  0.00     0.020 C 
ENDROOT
BRANCH   1  22
HETATM   22  C2  UNL     1       9.769 -26.721  59.559  1.00  0.00     0.206 C 
BRANCH  22  23
HETATM   23  O1  UNL     1       8.867 -25.730  59.267  1.00  0.00    -0.392 OA
HETATM   24  C1  UNL     1       9.145 -24.533  59.923  1.00  0.00     0.201 C 
ENDBRANCH  22  23
ENDBRANCH   1  22
BRANCH   6  25
HETATM   25  O3  UNL     1       8.336 -27.471  57.249  1.00  0.00    -0.367 OA
ATOM     26  H3  UNL     1       7.827 -27.899  56.572  1.00  0.00     0.213 HD
ENDBRANCH   6  25
TORSDOF 3
ENDMDL
MODEL 2
REMARK VINA RESULT: -7.944128905      1.658      3.418
REMARK  3 active torsions:
REMARK  status: ('A' for Active; 'I' for Inactive)
REMARK    1  A    between atoms: O1_2  and  C2_3 
REMARK    2  A    between atoms: C2_3  and  C3_4 
REMARK    3  A    between atoms: C7_9  and  O3_10 
ROOT
HETATM    1  C3  UNL     1      10.766 -27.798  56.987  1.00  0.00    -0.003 C 
HETATM    2  C4  UNL     1      12.035 -27.867  57.345  1.00  0.00     0.023 C 
HETATM    3  C5  UNL     1      12.399 -27.337  58.692  1.00  0.00     0.108 A 
HETATM    4  C6  UNL     1      11.269 -27.342  59.668  1.00  0.00     0.214 C 
HETATM    5  O2  UNL     1      10.078 -27.869  59.177  1.00  0.00    -0.354 OA
HETATM    6  C7  UNL     1       9.822 -27.204  57.956  1.00  0.00     0.289 C 
HETATM    7  O4  UNL     1      13.009 -26.069  58.639  1.00  0.00    -0.362 OA
HETATM    8  C8  UNL     1      14.202 -26.500  59.235  1.00  0.00     0.066 A 
HETATM    9  C9  UNL     1      14.324 -25.862  60.600  1.00  0.00     0.046 C 
HETATM   10  C10 UNL     1      15.349 -26.185  58.339  1.00  0.00     0.041 C 
HETATM   11  C11 UNL     1      16.699 -26.419  59.024  1.00  0.00     0.036 C 
HETATM   12  C12 UNL     1      17.486 -27.408  58.265  1.00  0.00     0.133 C 
HETATM   13  O5  UNL     1      16.649 -28.223  57.469  1.00  0.00    -0.374 OA
HETATM   14  C13 UNL     1      16.783 -29.296  58.365  1.00  0.00     0.067 C 
HETATM   15  C14 UNL     1      17.125 -30.612  57.659  1.00  0.00     0.047 C 
HETATM   16  C15 UNL     1      15.589 -29.409  59.226  1.00  0.00     0.039 C 
HETATM   17  C16 UNL     1      14.390 -28.890  58.442  1.00  0.00     0.014 C 
HETATM   18  C17 UNL     1      13.693 -27.865  59.242  1.00  0.00     0.061 A 
HETATM   19  C18 UNL     1      17.967 -28.608  58.954  1.00  0.00     0.009 C 
HETATM   20  C19 UNL     1      19.237 -29.135  58.256  1.00  0.00     0.020 C 
HETATM   21  C20 UNL     1      18.150 -28.629  60.412  1.00  0.00     0.020 C 
ENDROOT
BRANCH   1  22
HETATM   22  C2  UNL     1      10.331 -28.302  55.667  1.00  0.00     0.206 C 
BRANCH  22  23
HETATM   23  O1  UNL     1       9.909 -27.328  54.798  1.00  0.00    -0.392 OA
HETATM   24  C1  UNL     1      10.894 -26.948  53.890  1.00  0.00     0.201 C 
ENDBRANCH  22  23
ENDBRANCH   1  22
BRANCH   6  25
HETATM   25  O3  UNL     1       8.494 -27.344  57.578  1.00  0.00    -0.367 OA
ATOM     26  H3  UNL     1       7.945 -27.697  58.269  1.00  0.00     0.213 HD
ENDBRANCH   6  25
TORSDOF 3
ENDMDL
MODEL 3
REMARK VINA RESULT: -7.691108707      1.269      1.519
REMARK  3 active torsions:
REMARK  status: ('A' for Active; 'I' for Inactive)
REMARK    1  A    between atoms: O1_2  and  C2_3 
REMARK    2  A    between atoms: C2_3  and  C3_4 
REMARK    3  A    between atoms: C7_9  and  O3_10 
ROOT
HETATM    1  C3  UNL     1      10.122 -27.798  56.904  1.00  0.00    -0.003 C 
HETATM    2  C4  UNL     1      11.360 -27.964  57.331  1.00  0.00     0.023 C 
HETATM    3  C5  UNL     1      12.427 -28.128  56.299  1.00  0.00     0.108 A 
HETATM    4  C6  UNL     1      12.088 -27.520  54.979  1.00  0.00     0.214 C 
HETATM    5  O2  UNL     1      10.857 -26.871  54.935  1.00  0.00    -0.354 OA
HETATM    6  C7  UNL     1       9.907 -27.788  55.443  1.00  0.00     0.289 C 
HETATM    7  O4  UNL     1      12.840 -29.466  56.143  1.00  0.00    -0.362 OA
HETATM    8  C8  UNL     1      14.171 -29.207  56.499  1.00  0.00     0.066 A 
HETATM    9  C9  UNL     1      15.048 -29.400  55.284  1.00  0.00     0.046 C 
HETATM   10  C10 UNL     1      14.559 -30.079  57.643  1.00  0.00     0.041 C 
HETATM   11  C11 UNL     1      16.061 -30.015  57.935  1.00  0.00     0.036 C 
HETATM   12  C12 UNL     1      16.289 -29.558  59.318  1.00  0.00     0.133 C 
HETATM   13  O5  UNL     1      15.175 -28.836  59.805  1.00  0.00    -0.374 OA
HETATM   14  C13 UNL     1      15.851 -27.616  59.642  1.00  0.00     0.067 C 
HETATM   15  C14 UNL     1      15.762 -26.725  60.886  1.00  0.00     0.047 C 
HETATM   16  C15 UNL     1      15.397 -26.927  58.418  1.00  0.00     0.039 C 
HETATM   17  C16 UNL     1      13.947 -27.321  58.164  1.00  0.00     0.014 C 
HETATM   18  C17 UNL     1      13.816 -27.823  56.782  1.00  0.00     0.061 A 
HETATM   19  C18 UNL     1      17.127 -28.378  59.544  1.00  0.00     0.009 C 
HETATM   20  C19 UNL     1      17.763 -28.453  60.947  1.00  0.00     0.020 C 
HETATM   21  C20 UNL     1      18.134 -27.958  58.558  1.00  0.00     0.020 C 
ENDROOT
BRANCH   1  22
HETATM   22  C2  UNL     1       9.014 -27.629  57.868  1.00  0.00     0.206 C 
BRANCH  22  23
HETATM   23  O1  UNL     1       8.991 -26.411  58.499  1.00  0.00    -0.392 OA
HETATM   24  C1  UNL     1       8.997 -26.521  59.888  1.00  0.00     0.201 C 
ENDBRANCH  22  23
ENDBRANCH   1  22
BRANCH   6  25
HETATM   25  O3  UNL     1       8.617 -27.420  55.084  1.00  0.00    -0.367 OA
ATOM     26  H3  UNL     1       8.564 -26.540  54.731  1.00  0.00     0.213 HD
ENDBRANCH   6  25
TORSDOF 3
ENDMDL
MODEL 4
REMARK VINA RESULT: -7.430107772      2.091      3.731
REMARK  3 active torsions:
REMARK  status: ('A' for Active; 'I' for Inactive)
REMARK    1  A    between atoms: O1_2  and  C2_3 
REMARK    2  A    between atoms: C2_3  and  C3_4 
REMARK    3  A    between atoms: C7_9  and  O3_10 
ROOT
HETATM    1  C3  UNL     1      11.401 -27.429  58.142  1.00  0.00    -0.003 C 
HETATM    2  C4  UNL     1      12.638 -26.979  58.048  1.00  0.00     0.023 C 
HETATM    3  C5  UNL     1      13.551 -27.234  59.202  1.00  0.00     0.108 A 
HETATM    4  C6  UNL     1      13.168 -28.419  60.025  1.00  0.00     0.214 C 
HETATM    5  O2  UNL     1      12.051 -29.110  59.565  1.00  0.00    -0.354 OA
HETATM    6  C7  UNL     1      11.034 -28.145  59.381  1.00  0.00     0.289 C 
HETATM    7  O4  UNL     1      13.740 -26.099  60.015  1.00  0.00    -0.362 OA
HETATM    8  C8  UNL     1      15.125 -26.049  59.805  1.00  0.00     0.066 A 
HETATM    9  C9  UNL     1      15.828 -26.380  61.102  1.00  0.00     0.046 C 
HETATM   10  C10 UNL     1      15.499 -24.712  59.265  1.00  0.00     0.041 C 
HETATM   11  C11 UNL     1      17.016 -24.506  59.227  1.00  0.00     0.036 C 
HETATM   12  C12 UNL     1      17.456 -24.237  57.847  1.00  0.00     0.133 C 
HETATM   13  O5  UNL     1      16.523 -24.732  56.909  1.00  0.00    -0.374 OA
HETATM   14  C13 UNL     1      17.352 -25.825  56.608  1.00  0.00     0.067 C 
HETATM   15  C14 UNL     1      17.532 -26.028  55.099  1.00  0.00     0.047 C 
HETATM   16  C15 UNL     1      16.878 -27.044  57.291  1.00  0.00     0.039 C 
HETATM   17  C16 UNL     1      15.367 -26.938  57.454  1.00  0.00     0.014 C 
HETATM   18  C17 UNL     1      15.014 -27.159  58.869  1.00  0.00     0.061 A 
HETATM   19  C18 UNL     1      18.482 -25.097  57.251  1.00  0.00     0.009 C 
HETATM   20  C19 UNL     1      19.246 -24.317  56.162  1.00  0.00     0.020 C 
HETATM   21  C20 UNL     1      19.428 -25.847  58.088  1.00  0.00     0.020 C 
ENDROOT
BRANCH   1  22
HETATM   22  C2  UNL     1      10.440 -27.214  57.039  1.00  0.00     0.206 C 
BRANCH  22  23
HETATM   23  O1  UNL     1      10.190 -28.328  56.279  1.00  0.00    -0.392 OA
HETATM   24  C1  UNL     1       9.523 -28.036  55.092  1.00  0.00     0.201 C 
ENDBRANCH  22  23
ENDBRANCH   1  22
BRANCH   6  25
HETATM   25  O3  UNL     1       9.783 -28.742  59.315  1.00  0.00    -0.367 OA
ATOM     26  H3  UNL     1       9.808 -29.621  58.955  1.00  0.00     0.213 HD
ENDBRANCH   6  25
TORSDOF 3
ENDMDL
MODEL 5
REMARK VINA RESULT: -7.332999667      1.059      1.196
REMARK  3 active torsions:
REMARK  status: ('A' for Active; 'I' for Inactive)
REMARK    1  A    between atoms: O1_2  and  C2_3 
REMARK    2  A    between atoms: C2_3  and  C3_4 
REMARK    3  A    between atoms: C7_9  and  O3_10 
ROOT
HETATM    1  C3  UNL     1      10.440 -27.861  57.032  1.00  0.00    -0.003 C 
HETATM    2  C4  UNL     1      11.748 -27.913  57.202  1.00  0.00     0.023 C 
HETATM    3  C5  UNL     1      12.598 -27.963  55.975  1.00  0.00     0.108 A 
HETATM    4  C6  UNL     1      11.950 -27.375  54.766  1.00  0.00     0.214 C 
HETATM    5  O2  UNL     1      10.681 -26.846  54.986  1.00  0.00    -0.354 OA
HETATM    6  C7  UNL     1       9.938 -27.855  55.643  1.00  0.00     0.289 C 
HETATM    7  O4  UNL     1      13.093 -29.253  55.701  1.00  0.00    -0.362 OA
HETATM    8  C8  UNL     1      14.439 -28.873  55.796  1.00  0.00     0.066 A 
HETATM    9  C9  UNL     1      15.070 -28.968  54.426  1.00  0.00     0.046 C 
HETATM   10  C10 UNL     1      15.124 -29.717  56.814  1.00  0.00     0.041 C 
HETATM   11  C11 UNL     1      16.642 -29.513  56.806  1.00  0.00     0.036 C 
HETATM   12  C12 UNL     1      17.098 -29.052  58.130  1.00  0.00     0.133 C 
HETATM   13  O5  UNL     1      16.042 -28.446  58.848  1.00  0.00    -0.374 OA
HETATM   14  C13 UNL     1      16.558 -27.165  58.593  1.00  0.00     0.067 C 
HETATM   15  C14 UNL     1      16.637 -26.300  59.855  1.00  0.00     0.047 C 
HETATM   16  C15 UNL     1      15.809 -26.509  57.503  1.00  0.00     0.039 C 
HETATM   17  C16 UNL     1      14.379 -27.036  57.527  1.00  0.00     0.014 C 
HETATM   18  C17 UNL     1      14.022 -27.533  56.185  1.00  0.00     0.061 A 
HETATM   19  C18 UNL     1      17.853 -27.801  58.222  1.00  0.00     0.009 C 
HETATM   20  C19 UNL     1      18.760 -27.831  59.469  1.00  0.00     0.020 C 
HETATM   21  C20 UNL     1      18.601 -27.275  57.070  1.00  0.00     0.020 C 
ENDROOT
BRANCH   1  22
HETATM   22  C2  UNL     1       9.535 -27.809  58.200  1.00  0.00     0.206 C 
BRANCH  22  23
HETATM   23  O1  UNL     1       8.877 -26.616  58.355  1.00  0.00    -0.392 OA
HETATM   24  C1  UNL     1       8.951 -26.122  59.656  1.00  0.00     0.201 C 
ENDBRANCH  22  23
ENDBRANCH   1  22
BRANCH   6  25
HETATM   25  O3  UNL     1       8.575 -27.608  55.557  1.00  0.00    -0.367 OA
ATOM     26  H3  UNL     1       8.304 -26.837  56.042  1.00  0.00     0.213 HD
ENDBRANCH   6  25
TORSDOF 3
ENDMDL
