MODEL 1
REMARK VINA RESULT: -7.771964305      0.000      0.000
REMARK  5 active torsions:
REMARK  status: ('A' for Active; 'I' for Inactive)
REMARK    1  A    between atoms: C2_2  and  C3_3 
REMARK    2  A    between atoms: C3_3  and  O1_4 
REMARK    3  A    between atoms: C5_7  and  C6_8 
REMARK    4  A    between atoms: C7_11  and  C9_13 
REMARK    5  A    between atoms: C10_14  and  C11_15 
ROOT
HETATM    1  C3  UNL     1      10.217 -27.648  58.535  1.00  0.00     0.124 C 
HETATM    2  C4  UNL     1       9.763 -27.694  57.110  1.00  0.00     0.085 C 
HETATM    3  C5  UNL     1      10.942 -27.818  56.172  1.00  0.00     0.188 C 
HETATM    4  O3  UNL     1      12.043 -27.124  56.648  1.00  0.00    -0.356 OA
HETATM    5  C7  UNL     1      12.642 -27.822  57.697  1.00  0.00     0.139 C 
HETATM    6  C8  UNL     1      13.734 -26.909  58.245  1.00  0.00     0.059 C 
HETATM    7  C20 UNL     1      11.622 -28.101  58.715  1.00  0.00     0.198 C 
HETATM    8  O5  UNL     1      11.929 -28.708  59.718  1.00  0.00    -0.291 OA
ENDROOT
BRANCH   5   9
HETATM    9  C9  UNL     1      13.319 -29.043  57.206  1.00  0.00     0.019 C 
HETATM   10  C10 UNL     1      14.569 -28.954  56.804  1.00  0.00     0.007 C 
BRANCH  10  11
HETATM   11  C11 UNL     1      15.342 -30.092  56.299  1.00  0.00    -0.056 C 
HETATM   12  C12 UNL     1      16.142 -30.782  57.094  1.00  0.00    -0.071 C 
HETATM   13  C13 UNL     1      16.230 -30.363  58.517  1.00  0.00     0.044 C 
HETATM   14  C14 UNL     1      16.961 -31.935  56.688  1.00  0.00     0.046 C 
HETATM   15  C15 UNL     1      16.938 -32.940  57.820  1.00  0.00     0.038 C 
HETATM   16  C17 UNL     1      16.442 -32.705  55.535  1.00  0.00     0.130 C 
HETATM   17  C16 UNL     1      16.768 -34.256  57.096  1.00  0.00     0.169 C 
HETATM   18  O4  UNL     1      15.942 -33.920  56.048  1.00  0.00    -0.385 OA
HETATM   19  C18 UNL     1      15.353 -32.061  54.764  1.00  0.00     0.037 C 
HETATM   20  C19 UNL     1      15.292 -30.558  54.892  1.00  0.00     0.041 C 
ENDBRANCH  10  11
ENDBRANCH   5   9
BRANCH   3  21
HETATM   21  C6  UNL     1      10.548 -27.210  54.872  1.00  0.00     0.263 C 
HETATM   22  O2  UNL     1      11.254 -26.442  54.243  1.00  0.00    -0.304 OA
ENDBRANCH   3  21
BRANCH   1  23
HETATM   23  C2  UNL     1      10.023 -26.269  59.139  1.00  0.00     0.042 C 
HETATM   24  C1  UNL     1       9.032 -26.270  60.255  1.00  0.00     0.009 C 
ENDBRANCH   1  23
BRANCH   1  25
HETATM   25  O1  UNL     1       9.406 -28.520  59.277  1.00  0.00    -0.382 OA
ATOM     26  H1  UNL     1       8.771 -28.876  58.666  1.00  0.00     0.211 HD
ENDBRANCH   1  25
TORSDOF 5
ENDMDL
MODEL 2
REMARK VINA RESULT: -7.715312504      1.589      2.151
REMARK  5 active torsions:
REMARK  status: ('A' for Active; 'I' for Inactive)
REMARK    1  A    between atoms: C2_2  and  C3_3 
REMARK    2  A    between atoms: C3_3  and  O1_4 
REMARK    3  A    between atoms: C5_7  and  C6_8 
REMARK    4  A    between atoms: C7_11  and  C9_13 
REMARK    5  A    between atoms: C10_14  and  C11_15 
ROOT
HETATM    1  C3  UNL     1      10.129 -27.569  58.551  1.00  0.00     0.124 C 
HETATM    2  C4  UNL     1      10.045 -27.640  57.059  1.00  0.00     0.085 C 
HETATM    3  C5  UNL     1      11.418 -27.520  56.436  1.00  0.00     0.188 C 
HETATM    4  O3  UNL     1      12.230 -26.663  57.162  1.00  0.00    -0.356 OA
HETATM    5  C7  UNL     1      12.675 -27.284  58.329  1.00  0.00     0.139 C 
HETATM    6  C8  UNL     1      13.421 -26.215  59.121  1.00  0.00     0.059 C 
HETATM    7  C20 UNL     1      11.507 -27.775  59.070  1.00  0.00     0.198 C 
HETATM    8  O5  UNL     1      11.667 -28.357  60.121  1.00  0.00    -0.291 OA
ENDROOT
BRANCH   5   9
HETATM    9  C9  UNL     1      13.657 -28.348  58.025  1.00  0.00     0.019 C 
HETATM   10  C10 UNL     1      14.785 -28.379  58.702  1.00  0.00     0.007 C 
BRANCH  10  11
HETATM   11  C11 UNL     1      15.831 -29.383  58.490  1.00  0.00    -0.056 C 
HETATM   12  C12 UNL     1      16.864 -29.478  59.310  1.00  0.00    -0.071 C 
HETATM   13  C13 UNL     1      16.926 -28.530  60.454  1.00  0.00     0.044 C 
HETATM   14  C14 UNL     1      17.966 -30.444  59.186  1.00  0.00     0.046 C 
HETATM   15  C15 UNL     1      18.343 -30.899  60.581  1.00  0.00     0.038 C 
HETATM   16  C17 UNL     1      17.625 -31.708  58.495  1.00  0.00     0.130 C 
HETATM   17  C16 UNL     1      18.533 -32.388  60.408  1.00  0.00     0.169 C 
HETATM   18  O4  UNL     1      17.566 -32.712  59.484  1.00  0.00    -0.385 OA
HETATM   19  C18 UNL     1      16.334 -31.719  57.767  1.00  0.00     0.037 C 
HETATM   20  C19 UNL     1      15.821 -30.355  57.370  1.00  0.00     0.041 C 
ENDBRANCH  10  11
ENDBRANCH   5   9
BRANCH   3  21
HETATM   21  C6  UNL     1      11.246 -26.942  55.076  1.00  0.00     0.263 C 
HETATM   22  O2  UNL     1      11.839 -27.343  54.090  1.00  0.00    -0.304 OA
ENDBRANCH   3  21
BRANCH   1  23
HETATM   23  C2  UNL     1       9.551 -26.270  59.081  1.00  0.00     0.042 C 
HETATM   24  C1  UNL     1       8.958 -26.423  60.442  1.00  0.00     0.009 C 
ENDBRANCH   1  23
BRANCH   1  25
HETATM   25  O1  UNL     1       9.332 -28.597  59.079  1.00  0.00    -0.382 OA
ATOM     26  H1  UNL     1       9.188 -28.379  59.993  1.00  0.00     0.211 HD
ENDBRANCH   1  25
TORSDOF 5
ENDMDL
MODEL 3
REMARK VINA RESULT: -7.370973278      1.305      2.136
REMARK  5 active torsions:
REMARK  status: ('A' for Active; 'I' for Inactive)
REMARK    1  A    between atoms: C2_2  and  C3_3 
REMARK    2  A    between atoms: C3_3  and  O1_4 
REMARK    3  A    between atoms: C5_7  and  C6_8 
REMARK    4  A    between atoms: C7_11  and  C9_13 
REMARK    5  A    between atoms: C10_14  and  C11_15 
ROOT
HETATM    1  C3  UNL     1      10.213 -27.655  58.485  1.00  0.00     0.124 C 
HETATM    2  C4  UNL     1       9.736 -27.720  57.069  1.00  0.00     0.085 C 
HETATM    3  C5  UNL     1      10.901 -27.843  56.113  1.00  0.00     0.188 C 
HETATM    4  O3  UNL     1      12.003 -27.135  56.565  1.00  0.00    -0.356 OA
HETATM    5  C7  UNL     1      12.626 -27.817  57.611  1.00  0.00     0.139 C 
HETATM    6  C8  UNL     1      13.718 -26.888  58.132  1.00  0.00     0.059 C 
HETATM    7  C20 UNL     1      11.624 -28.094  58.647  1.00  0.00     0.198 C 
HETATM    8  O5  UNL     1      11.952 -28.687  59.652  1.00  0.00    -0.291 OA
ENDROOT
BRANCH   5   9
HETATM    9  C9  UNL     1      13.305 -29.037  57.121  1.00  0.00     0.019 C 
HETATM   10  C10 UNL     1      14.066 -28.950  56.050  1.00  0.00     0.007 C 
BRANCH  10  11
HETATM   11  C11 UNL     1      14.788 -30.086  55.474  1.00  0.00    -0.056 C 
HETATM   12  C12 UNL     1      15.514 -29.950  54.377  1.00  0.00    -0.071 C 
HETATM   13  C13 UNL     1      15.572 -28.604  53.751  1.00  0.00     0.044 C 
HETATM   14  C14 UNL     1      16.272 -31.024  53.717  1.00  0.00     0.046 C 
HETATM   15  C15 UNL     1      17.573 -30.431  53.215  1.00  0.00     0.038 C 
HETATM   16  C17 UNL     1      16.718 -32.122  54.605  1.00  0.00     0.130 C 
HETATM   17  C16 UNL     1      18.586 -31.493  53.576  1.00  0.00     0.169 C 
HETATM   18  O4  UNL     1      18.110 -31.972  54.774  1.00  0.00    -0.385 OA
HETATM   19  C18 UNL     1      16.102 -32.155  55.952  1.00  0.00     0.037 C 
HETATM   20  C19 UNL     1      14.770 -31.451  56.056  1.00  0.00     0.041 C 
ENDBRANCH  10  11
ENDBRANCH   5   9
BRANCH   3  21
HETATM   21  C6  UNL     1      10.481 -27.252  54.814  1.00  0.00     0.263 C 
HETATM   22  O2  UNL     1      11.259 -26.787  53.999  1.00  0.00    -0.304 OA
ENDBRANCH   3  21
BRANCH   1  23
HETATM   23  C2  UNL     1      10.016 -26.272  59.079  1.00  0.00     0.042 C 
HETATM   24  C1  UNL     1       9.290 -26.309  60.382  1.00  0.00     0.009 C 
ENDBRANCH   1  23
BRANCH   1  25
HETATM   25  O1  UNL     1       9.421 -28.526  59.249  1.00  0.00    -0.382 OA
ATOM     26  H1  UNL     1       9.777 -28.505  60.130  1.00  0.00     0.211 HD
ENDBRANCH   1  25
TORSDOF 5
ENDMDL
MODEL 4
REMARK VINA RESULT: -7.231214555      2.378      7.526
REMARK  5 active torsions:
REMARK  status: ('A' for Active; 'I' for Inactive)
REMARK    1  A    between atoms: C2_2  and  C3_3 
REMARK    2  A    between atoms: C3_3  and  O1_4 
REMARK    3  A    between atoms: C5_7  and  C6_8 
REMARK    4  A    between atoms: C7_11  and  C9_13 
REMARK    5  A    between atoms: C10_14  and  C11_15 
ROOT
HETATM    1  C3  UNL     1      16.003 -29.205  53.289  1.00  0.00     0.124 C 
HETATM    2  C4  UNL     1      16.305 -30.464  54.039  1.00  0.00     0.085 C 
HETATM    3  C5  UNL     1      15.844 -30.359  55.475  1.00  0.00     0.188 C 
HETATM    4  O3  UNL     1      15.994 -29.070  55.962  1.00  0.00    -0.356 OA
HETATM    5  C7  UNL     1      15.000 -28.236  55.450  1.00  0.00     0.139 C 
HETATM    6  C8  UNL     1      15.346 -26.826  55.918  1.00  0.00     0.059 C 
HETATM    7  C20 UNL     1      15.023 -28.330  53.985  1.00  0.00     0.198 C 
HETATM    8  O5  UNL     1      14.231 -27.685  53.332  1.00  0.00    -0.291 OA
ENDROOT
BRANCH   5   9
HETATM    9  C9  UNL     1      13.679 -28.562  56.031  1.00  0.00     0.019 C 
HETATM   10  C10 UNL     1      12.989 -27.603  56.609  1.00  0.00     0.007 C 
BRANCH  10  11
HETATM   11  C11 UNL     1      11.672 -27.804  57.218  1.00  0.00    -0.056 C 
HETATM   12  C12 UNL     1      11.473 -27.586  58.506  1.00  0.00    -0.071 C 
HETATM   13  C13 UNL     1      12.633 -27.128  59.315  1.00  0.00     0.044 C 
HETATM   14  C14 UNL     1      10.196 -27.760  59.215  1.00  0.00     0.046 C 
HETATM   15  C15 UNL     1      10.072 -26.642  60.229  1.00  0.00     0.038 C 
HETATM   16  C17 UNL     1       8.983 -27.602  58.381  1.00  0.00     0.130 C 
HETATM   17  C16 UNL     1       8.628 -26.220  60.086  1.00  0.00     0.169 C 
HETATM   18  O4  UNL     1       8.399 -26.368  58.738  1.00  0.00    -0.385 OA
HETATM   19  C18 UNL     1       9.203 -27.587  56.916  1.00  0.00     0.037 C 
HETATM   20  C19 UNL     1      10.478 -28.256  56.461  1.00  0.00     0.041 C 
ENDBRANCH  10  11
ENDBRANCH   5   9
BRANCH   3  21
HETATM   21  C6  UNL     1      16.705 -31.257  56.291  1.00  0.00     0.263 C 
HETATM   22  O2  UNL     1      16.274 -32.032  57.127  1.00  0.00    -0.304 OA
ENDBRANCH   3  21
BRANCH   1  23
HETATM   23  C2  UNL     1      17.269 -28.431  52.965  1.00  0.00     0.042 C 
HETATM   24  C1  UNL     1      17.275 -27.907  51.568  1.00  0.00     0.009 C 
ENDBRANCH   1  23
BRANCH   1  25
HETATM   25  O1  UNL     1      15.435 -29.561  52.056  1.00  0.00    -0.382 OA
ATOM     26  H1  UNL     1      14.498 -29.437  52.150  1.00  0.00     0.211 HD
ENDBRANCH   1  25
TORSDOF 5
ENDMDL
MODEL 5
REMARK VINA RESULT: -7.194164550      3.038      4.719
REMARK  5 active torsions:
REMARK  status: ('A' for Active; 'I' for Inactive)
REMARK    1  A    between atoms: C2_2  and  C3_3 
REMARK    2  A    between atoms: C3_3  and  O1_4 
REMARK    3  A    between atoms: C5_7  and  C6_8 
REMARK    4  A    between atoms: C7_11  and  C9_13 
REMARK    5  A    between atoms: C10_14  and  C11_15 
ROOT
HETATM    1  C3  UNL     1      11.984 -27.066  56.167  1.00  0.00     0.124 C 
HETATM    2  C4  UNL     1      11.311 -26.872  57.488  1.00  0.00     0.085 C 
HETATM    3  C5  UNL     1      12.041 -27.622  58.579  1.00  0.00     0.188 C 
HETATM    4  O3  UNL     1      12.571 -28.813  58.108  1.00  0.00    -0.356 OA
HETATM    5  C7  UNL     1      13.710 -28.568  57.340  1.00  0.00     0.139 C 
HETATM    6  C8  UNL     1      14.118 -29.913  56.748  1.00  0.00     0.059 C 
HETATM    7  C20 UNL     1      13.364 -27.607  56.287  1.00  0.00     0.198 C 
HETATM    8  O5  UNL     1      14.215 -27.248  55.502  1.00  0.00    -0.291 OA
ENDROOT
BRANCH   5   9
HETATM    9  C9  UNL     1      14.837 -28.119  58.187  1.00  0.00     0.019 C 
HETATM   10  C10 UNL     1      16.018 -28.674  58.013  1.00  0.00     0.007 C 
BRANCH  10  11
HETATM   11  C11 UNL     1      17.207 -28.311  58.789  1.00  0.00    -0.056 C 
HETATM   12  C12 UNL     1      17.935 -29.233  59.394  1.00  0.00    -0.071 C 
HETATM   13  C13 UNL     1      17.507 -30.650  59.258  1.00  0.00     0.044 C 
HETATM   14  C14 UNL     1      19.141 -28.977  60.198  1.00  0.00     0.046 C 
HETATM   15  C15 UNL     1      20.130 -30.088  59.915  1.00  0.00     0.038 C 
HETATM   16  C17 UNL     1      19.891 -27.752  59.841  1.00  0.00     0.130 C 
HETATM   17  C16 UNL     1      21.441 -29.346  59.792  1.00  0.00     0.169 C 
HETATM   18  O4  UNL     1      21.067 -28.170  59.184  1.00  0.00    -0.385 OA
HETATM   19  C18 UNL     1      19.190 -26.802  58.945  1.00  0.00     0.037 C 
HETATM   20  C19 UNL     1      17.684 -26.917  58.956  1.00  0.00     0.041 C 
ENDBRANCH  10  11
ENDBRANCH   5   9
BRANCH   3  21
HETATM   21  C6  UNL     1      11.049 -27.953  59.638  1.00  0.00     0.263 C 
HETATM   22  O2  UNL     1      10.086 -28.679  59.461  1.00  0.00    -0.304 OA
ENDBRANCH   3  21
BRANCH   1  23
HETATM   23  C2  UNL     1      11.153 -27.935  55.239  1.00  0.00     0.042 C 
HETATM   24  C1  UNL     1       9.711 -27.964  55.624  1.00  0.00     0.009 C 
ENDBRANCH   1  23
BRANCH   1  25
HETATM   25  O1  UNL     1      12.085 -25.813  55.543  1.00  0.00    -0.382 OA
ATOM     26  H1  UNL     1      12.994 -25.547  55.629  1.00  0.00     0.211 HD
ENDBRANCH   1  25
TORSDOF 5
ENDMDL
