MODEL 1
REMARK VINA RESULT: -6.985790596      0.000      0.000
REMARK  6 active torsions:
REMARK  status: ('A' for Active; 'I' for Inactive)
REMARK    1  A    between atoms: C4_4  and  N1_5 
REMARK    2  A    between atoms: N2_7  and  C5_9 
REMARK    3  A    between atoms: C5_9  and  N3_11 
REMARK    4  A    between atoms: C11_17  and  O1_18 
REMARK    5  A    between atoms: N4_20  and  C12_21 
REMARK    6  A    between atoms: C12_21  and  N5_22 
ROOT
HETATM    1  C1  UNL     1      16.274 -26.987  55.380  1.00  0.00     0.068 C 
HETATM    2  C2  UNL     1      15.251 -27.880  55.988  1.00  0.00     0.014 A 
HETATM    3  C3  UNL     1      14.185 -28.411  55.314  1.00  0.00     0.060 A 
HETATM    4  C4  UNL     1      13.461 -29.181  56.192  1.00  0.00     0.101 A 
HETATM    5  C11 UNL     1      14.149 -29.074  57.403  1.00  0.00     0.172 A 
HETATM    6  N4  UNL     1      15.225 -28.287  57.261  1.00  0.00    -0.313 N 
ENDROOT
BRANCH   4   7
HETATM    7  N1  UNL     1      12.282 -29.920  55.930  1.00  0.00    -0.294 N 
HETATM    8  N2  UNL     1      11.178 -29.377  55.796  1.00  0.00    -0.276 N 
ATOM      9  H2  UNL     1      10.362 -29.960  55.609  1.00  0.00     0.189 HD
ATOM     10  H1  UNL     1      12.344 -30.935  55.850  1.00  0.00     0.187 HD
BRANCH   8  11
HETATM   11  C5  UNL     1      11.006 -27.978  55.892  1.00  0.00     0.188 C 
HETATM   12  S1  UNL     1      11.135 -27.062  54.544  1.00  0.00    -0.039 SA
BRANCH  11  13
HETATM   13  N3  UNL     1      10.715 -27.367  57.155  1.00  0.00    -0.357 N 
HETATM   14  C6  UNL     1       9.468 -27.672  57.778  1.00  0.00     0.125 C 
HETATM   15  C7  UNL     1       9.402 -27.464  59.247  1.00  0.00     0.020 C 
HETATM   16  C8  UNL     1      10.513 -26.673  59.841  1.00  0.00     0.003 C 
HETATM   17  C9  UNL     1      11.851 -26.903  59.193  1.00  0.00     0.020 C 
HETATM   18  C10 UNL     1      11.702 -26.475  57.734  1.00  0.00     0.125 C 
ENDBRANCH  11  13
ENDBRANCH   8  11
ENDBRANCH   4   7
BRANCH   5  19
HETATM   19  O1  UNL     1      13.699 -29.735  58.549  1.00  0.00    -0.344 OA
ATOM     20  H1  UNL     1      14.246 -29.802  59.322  1.00  0.00     0.219 HD
ENDBRANCH   5  19
BRANCH   6  21
HETATM   21  C12 UNL     1      16.193 -27.922  58.300  1.00  0.00     0.256 C 
BRANCH  21  22
HETATM   22  N5  UNL     1      15.769 -26.744  58.971  1.00  0.00    -0.373 N 
HETATM   23  C13 UNL     1      16.507 -25.576  58.712  1.00  0.00     0.086 C 
HETATM   24  C14 UNL     1      16.174 -24.413  59.608  1.00  0.00     0.212 C 
HETATM   25  O2  UNL     1      16.013 -24.795  60.935  1.00  0.00    -0.385 OA
HETATM   26  C15 UNL     1      14.917 -25.651  60.987  1.00  0.00     0.187 C 
HETATM   27  C16 UNL     1      15.374 -26.948  60.331  1.00  0.00     0.150 C 
ENDBRANCH  21  22
ENDBRANCH   6  21
TORSDOF 6
ENDMDL
MODEL 2
REMARK VINA RESULT: -6.364082960      2.874      6.163
REMARK  6 active torsions:
REMARK  status: ('A' for Active; 'I' for Inactive)
REMARK    1  A    between atoms: C4_4  and  N1_5 
REMARK    2  A    between atoms: N2_7  and  C5_9 
REMARK    3  A    between atoms: C5_9  and  N3_11 
REMARK    4  A    between atoms: C11_17  and  O1_18 
REMARK    5  A    between atoms: N4_20  and  C12_21 
REMARK    6  A    between atoms: C12_21  and  N5_22 
ROOT
HETATM    1  C1  UNL     1      13.453 -29.148  59.391  1.00  0.00     0.068 C 
HETATM    2  C2  UNL     1      14.199 -28.528  58.263  1.00  0.00     0.014 A 
HETATM    3  C3  UNL     1      15.350 -29.036  57.722  1.00  0.00     0.060 A 
HETATM    4  C4  UNL     1      15.751 -28.203  56.706  1.00  0.00     0.101 A 
HETATM    5  C11 UNL     1      14.788 -27.191  56.680  1.00  0.00     0.172 A 
HETATM    6  N4  UNL     1      13.861 -27.404  57.625  1.00  0.00    -0.313 N 
ENDROOT
BRANCH   4   7
HETATM    7  N1  UNL     1      16.884 -28.339  55.868  1.00  0.00    -0.294 N 
HETATM    8  N2  UNL     1      18.027 -28.061  56.253  1.00  0.00    -0.276 N 
ATOM      9  H2  UNL     1      18.806 -28.178  55.606  1.00  0.00     0.189 HD
ATOM     10  H1  UNL     1      16.754 -28.677  54.914  1.00  0.00     0.187 HD
BRANCH   8  11
HETATM   11  C5  UNL     1      18.291 -27.588  57.557  1.00  0.00     0.188 C 
HETATM   12  S1  UNL     1      18.901 -28.615  58.673  1.00  0.00    -0.039 SA
BRANCH  11  13
HETATM   13  N3  UNL     1      18.036 -26.220  57.899  1.00  0.00    -0.357 N 
HETATM   14  C6  UNL     1      18.295 -25.220  56.914  1.00  0.00     0.125 C 
HETATM   15  C7  UNL     1      17.573 -23.934  57.081  1.00  0.00     0.020 C 
HETATM   16  C8  UNL     1      16.926 -23.720  58.403  1.00  0.00     0.003 C 
HETATM   17  C9  UNL     1      16.353 -24.967  59.021  1.00  0.00     0.020 C 
HETATM   18  C10 UNL     1      17.527 -25.923  59.225  1.00  0.00     0.125 C 
ENDBRANCH  11  13
ENDBRANCH   8  11
ENDBRANCH   4   7
BRANCH   5  19
HETATM   19  O1  UNL     1      14.866 -26.144  55.758  1.00  0.00    -0.344 OA
ATOM     20  H1  UNL     1      14.254 -25.419  55.787  1.00  0.00     0.219 HD
ENDBRANCH   5  19
BRANCH   6  21
HETATM   21  C12 UNL     1      12.697 -26.564  57.922  1.00  0.00     0.256 C 
BRANCH  21  22
HETATM   22  N5  UNL     1      11.500 -27.241  57.565  1.00  0.00    -0.373 N 
HETATM   23  C13 UNL     1      11.194 -27.292  56.194  1.00  0.00     0.086 C 
HETATM   24  C14 UNL     1       9.817 -27.812  55.879  1.00  0.00     0.212 C 
HETATM   25  O2  UNL     1       8.849 -27.306  56.738  1.00  0.00    -0.385 OA
HETATM   26  C15 UNL     1       9.154 -27.765  58.016  1.00  0.00     0.187 C 
HETATM   27  C16 UNL     1      10.398 -26.999  58.446  1.00  0.00     0.150 C 
ENDBRANCH  21  22
ENDBRANCH   6  21
TORSDOF 6
ENDMDL
MODEL 3
REMARK VINA RESULT: -6.356343765      1.848      2.557
REMARK  6 active torsions:
REMARK  status: ('A' for Active; 'I' for Inactive)
REMARK    1  A    between atoms: C4_4  and  N1_5 
REMARK    2  A    between atoms: N2_7  and  C5_9 
REMARK    3  A    between atoms: C5_9  and  N3_11 
REMARK    4  A    between atoms: C11_17  and  O1_18 
REMARK    5  A    between atoms: N4_20  and  C12_21 
REMARK    6  A    between atoms: C12_21  and  N5_22 
ROOT
HETATM    1  C1  UNL     1      16.250 -26.603  56.230  1.00  0.00     0.068 C 
HETATM    2  C2  UNL     1      15.241 -27.610  56.654  1.00  0.00     0.014 A 
HETATM    3  C3  UNL     1      14.290 -28.149  55.831  1.00  0.00     0.060 A 
HETATM    4  C4  UNL     1      13.541 -29.038  56.564  1.00  0.00     0.101 A 
HETATM    5  C11 UNL     1      14.095 -28.992  57.846  1.00  0.00     0.172 A 
HETATM    6  N4  UNL     1      15.119 -28.127  57.880  1.00  0.00    -0.313 N 
ENDROOT
BRANCH   4   7
HETATM    7  N1  UNL     1      12.452 -29.828  56.121  1.00  0.00    -0.294 N 
HETATM    8  N2  UNL     1      11.354 -29.335  55.831  1.00  0.00    -0.276 N 
ATOM      9  H2  UNL     1      10.605 -29.952  55.519  1.00  0.00     0.189 HD
ATOM     10  H1  UNL     1      12.576 -30.837  56.039  1.00  0.00     0.187 HD
BRANCH   8  11
HETATM   11  C5  UNL     1      11.101 -27.948  55.918  1.00  0.00     0.188 C 
HETATM   12  S1  UNL     1      11.215 -27.028  54.571  1.00  0.00    -0.039 SA
BRANCH  11  13
HETATM   13  N3  UNL     1      10.739 -27.352  57.170  1.00  0.00    -0.357 N 
HETATM   14  C6  UNL     1       9.531 -27.782  57.796  1.00  0.00     0.125 C 
HETATM   15  C7  UNL     1       9.436 -27.559  59.260  1.00  0.00     0.020 C 
HETATM   16  C8  UNL     1      10.452 -26.640  59.843  1.00  0.00     0.003 C 
HETATM   17  C9  UNL     1      11.810 -26.732  59.202  1.00  0.00     0.020 C 
HETATM   18  C10 UNL     1      11.620 -26.347  57.735  1.00  0.00     0.125 C 
ENDBRANCH  11  13
ENDBRANCH   8  11
ENDBRANCH   4   7
BRANCH   5  19
HETATM   19  O1  UNL     1      13.584 -29.777  58.881  1.00  0.00    -0.344 OA
ATOM     20  H1  UNL     1      13.931 -29.713  59.763  1.00  0.00     0.219 HD
ENDBRANCH   5  19
BRANCH   6  21
HETATM   21  C12 UNL     1      15.949 -27.790  59.041  1.00  0.00     0.256 C 
BRANCH  21  22
HETATM   22  N5  UNL     1      16.743 -28.908  59.415  1.00  0.00    -0.373 N 
HETATM   23  C13 UNL     1      17.026 -29.045  60.785  1.00  0.00     0.086 C 
HETATM   24  C14 UNL     1      18.050 -30.100  61.110  1.00  0.00     0.212 C 
HETATM   25  O2  UNL     1      19.123 -30.088  60.227  1.00  0.00    -0.385 OA
HETATM   26  C15 UNL     1      18.623 -30.408  58.968  1.00  0.00     0.187 C 
HETATM   27  C16 UNL     1      17.823 -29.192  58.519  1.00  0.00     0.150 C 
ENDBRANCH  21  22
ENDBRANCH   6  21
TORSDOF 6
ENDMDL
MODEL 4
REMARK VINA RESULT: -6.310373405      2.350      6.118
REMARK  6 active torsions:
REMARK  status: ('A' for Active; 'I' for Inactive)
REMARK    1  A    between atoms: C4_4  and  N1_5 
REMARK    2  A    between atoms: N2_7  and  C5_9 
REMARK    3  A    between atoms: C5_9  and  N3_11 
REMARK    4  A    between atoms: C11_17  and  O1_18 
REMARK    5  A    between atoms: N4_20  and  C12_21 
REMARK    6  A    between atoms: C12_21  and  N5_22 
ROOT
HETATM    1  C1  UNL     1      11.947 -25.124  59.626  1.00  0.00     0.068 C 
HETATM    2  C2  UNL     1      12.675 -26.417  59.513  1.00  0.00     0.014 A 
HETATM    3  C3  UNL     1      13.989 -26.599  59.849  1.00  0.00     0.060 A 
HETATM    4  C4  UNL     1      14.315 -27.912  59.614  1.00  0.00     0.101 A 
HETATM    5  C11 UNL     1      13.137 -28.486  59.128  1.00  0.00     0.172 A 
HETATM    6  N4  UNL     1      12.160 -27.569  59.075  1.00  0.00    -0.313 N 
ENDROOT
BRANCH   4   7
HETATM    7  N1  UNL     1      15.564 -28.548  59.821  1.00  0.00    -0.294 N 
HETATM    8  N2  UNL     1      16.518 -28.396  59.047  1.00  0.00    -0.276 N 
ATOM      9  H2  UNL     1      17.393 -28.879  59.246  1.00  0.00     0.189 HD
ATOM     10  H1  UNL     1      15.681 -29.151  60.635  1.00  0.00     0.187 HD
BRANCH   8  11
HETATM   11  C5  UNL     1      16.437 -27.578  57.898  1.00  0.00     0.188 C 
HETATM   12  S1  UNL     1      15.661 -28.136  56.572  1.00  0.00    -0.039 SA
BRANCH  11  13
HETATM   13  N3  UNL     1      17.021 -26.270  57.896  1.00  0.00    -0.357 N 
HETATM   14  C6  UNL     1      17.215 -25.622  56.639  1.00  0.00     0.125 C 
HETATM   15  C7  UNL     1      17.326 -24.142  56.675  1.00  0.00     0.020 C 
HETATM   16  C8  UNL     1      17.542 -23.541  58.019  1.00  0.00     0.003 C 
HETATM   17  C9  UNL     1      16.827 -24.250  59.137  1.00  0.00     0.020 C 
HETATM   18  C10 UNL     1      17.382 -25.673  59.168  1.00  0.00     0.125 C 
ENDBRANCH  11  13
ENDBRANCH   8  11
ENDBRANCH   4   7
BRANCH   5  19
HETATM   19  O1  UNL     1      13.085 -29.836  58.775  1.00  0.00    -0.344 OA
ATOM     20  H1  UNL     1      12.695 -30.479  59.354  1.00  0.00     0.219 HD
ENDBRANCH   5  19
BRANCH   6  21
HETATM   21  C12 UNL     1      10.784 -27.776  58.613  1.00  0.00     0.256 C 
BRANCH  21  22
HETATM   22  N5  UNL     1      10.758 -27.916  57.199  1.00  0.00    -0.373 N 
HETATM   23  C13 UNL     1      11.767 -27.248  56.484  1.00  0.00     0.086 C 
HETATM   24  C14 UNL     1      11.571 -27.233  54.992  1.00  0.00     0.212 C 
HETATM   25  O2  UNL     1      10.252 -26.987  54.631  1.00  0.00    -0.385 OA
HETATM   26  C15 UNL     1       9.489 -28.047  55.112  1.00  0.00     0.187 C 
HETATM   27  C16 UNL     1       9.448 -27.874  56.625  1.00  0.00     0.150 C 
ENDBRANCH  21  22
ENDBRANCH   6  21
TORSDOF 6
ENDMDL
MODEL 5
REMARK VINA RESULT: -6.279924873      3.071      6.367
REMARK  6 active torsions:
REMARK  status: ('A' for Active; 'I' for Inactive)
REMARK    1  A    between atoms: C4_4  and  N1_5 
REMARK    2  A    between atoms: N2_7  and  C5_9 
REMARK    3  A    between atoms: C5_9  and  N3_11 
REMARK    4  A    between atoms: C11_17  and  O1_18 
REMARK    5  A    between atoms: N4_20  and  C12_21 
REMARK    6  A    between atoms: C12_21  and  N5_22 
ROOT
HETATM    1  C1  UNL     1      14.058 -27.179  59.594  1.00  0.00     0.068 C 
HETATM    2  C2  UNL     1      14.227 -28.293  58.622  1.00  0.00     0.014 A 
HETATM    3  C3  UNL     1      14.970 -29.419  58.856  1.00  0.00     0.060 A 
HETATM    4  C4  UNL     1      14.897 -30.221  57.742  1.00  0.00     0.101 A 
HETATM    5  C11 UNL     1      14.083 -29.514  56.853  1.00  0.00     0.172 A 
HETATM    6  N4  UNL     1      13.689 -28.356  57.401  1.00  0.00    -0.313 N 
ENDROOT
BRANCH   4   7
HETATM    7  N1  UNL     1      15.506 -31.483  57.539  1.00  0.00    -0.294 N 
HETATM    8  N2  UNL     1      16.716 -31.602  57.306  1.00  0.00    -0.276 N 
ATOM      9  H2  UNL     1      17.100 -32.536  57.168  1.00  0.00     0.189 HD
ATOM     10  H1  UNL     1      14.928 -32.322  57.587  1.00  0.00     0.187 HD
BRANCH   8  11
HETATM   11  C5  UNL     1      17.583 -30.490  57.224  1.00  0.00     0.188 C 
HETATM   12  S1  UNL     1      17.790 -29.741  55.786  1.00  0.00    -0.039 SA
BRANCH  11  13
HETATM   13  N3  UNL     1      18.270 -30.017  58.389  1.00  0.00    -0.357 N 
HETATM   14  C6  UNL     1      18.668 -28.647  58.426  1.00  0.00     0.125 C 
HETATM   15  C7  UNL     1      18.896 -28.068  59.774  1.00  0.00     0.020 C 
HETATM   16  C8  UNL     1      18.997 -29.045  60.891  1.00  0.00     0.003 C 
HETATM   17  C9  UNL     1      18.095 -30.241  60.751  1.00  0.00     0.020 C 
HETATM   18  C10 UNL     1      18.522 -30.953  59.469  1.00  0.00     0.125 C 
ENDBRANCH  11  13
ENDBRANCH   8  11
ENDBRANCH   4   7
BRANCH   5  19
HETATM   19  O1  UNL     1      13.779 -30.028  55.591  1.00  0.00    -0.344 OA
ATOM     20  H1  UNL     1      13.660 -29.453  54.844  1.00  0.00     0.219 HD
ENDBRANCH   5  19
BRANCH   6  21
HETATM   21  C12 UNL     1      12.838 -27.334  56.784  1.00  0.00     0.256 C 
BRANCH  21  22
HETATM   22  N5  UNL     1      11.478 -27.745  56.816  1.00  0.00    -0.373 N 
HETATM   23  C13 UNL     1      10.801 -27.769  55.584  1.00  0.00     0.086 C 
HETATM   24  C14 UNL     1       9.315 -27.986  55.691  1.00  0.00     0.212 C 
HETATM   25  O2  UNL     1       8.745 -27.255  56.727  1.00  0.00    -0.385 OA
HETATM   26  C15 UNL     1       9.292 -27.731  57.915  1.00  0.00     0.187 C 
HETATM   27  C16 UNL     1      10.735 -27.241  57.931  1.00  0.00     0.150 C 
ENDBRANCH  21  22
ENDBRANCH   6  21
TORSDOF 6
ENDMDL
