MODEL 1
REMARK VINA RESULT: -7.372998335      0.000      0.000
REMARK  4 active torsions:
REMARK  status: ('A' for Active; 'I' for Inactive)
REMARK    1  A    between atoms: C2_2  and  O1_3 
REMARK    2  A    between atoms: O1_3  and  N1_4 
REMARK    3  A    between atoms: C3_6  and  O2_7 
REMARK    4  A    between atoms: C3_6  and  C5_9 
ROOT
HETATM    1  C5  UNL     1      12.723 -28.106  57.320  1.00  0.00     0.089 C 
HETATM    2  C6  UNL     1      13.675 -27.000  57.707  1.00  0.00     0.042 C 
HETATM    3  C7  UNL     1      13.311 -26.493  59.060  1.00  0.00    -0.030 C 
HETATM    4  C8  UNL     1      14.132 -25.847  59.876  1.00  0.00    -0.031 C 
HETATM    5  C9  UNL     1      15.559 -25.533  59.541  1.00  0.00     0.027 C 
HETATM    6  C10 UNL     1      16.483 -26.688  59.709  1.00  0.00     0.004 C 
HETATM    7  C11 UNL     1      15.936 -27.796  60.586  1.00  0.00     0.000 C 
HETATM    8  C12 UNL     1      17.116 -28.566  61.177  1.00  0.00     0.002 C 
HETATM    9  C13 UNL     1      18.036 -29.099  60.115  1.00  0.00     0.027 C 
HETATM   10  C14 UNL     1      17.437 -30.205  59.301  1.00  0.00     0.232 C 
HETATM   11  N2  UNL     1      18.039 -30.185  57.982  1.00  0.00    -0.073 N 
ATOM     12  H21 UNL     1      18.996 -30.536  58.005  1.00  0.00     0.277 HD
ATOM     13  H22 UNL     1      18.226 -29.232  57.673  1.00  0.00     0.277 HD
HETATM   14  C15 UNL     1      17.226 -30.914  57.004  1.00  0.00     0.258 C 
HETATM   15  C16 UNL     1      17.401 -30.188  55.689  1.00  0.00     0.195 C 
HETATM   16  O3  UNL     1      16.582 -30.632  54.683  1.00  0.00    -0.387 OA
HETATM   17  C17 UNL     1      15.243 -30.378  54.839  1.00  0.00     0.193 C 
HETATM   18  C18 UNL     1      14.908 -28.911  54.782  1.00  0.00     0.193 C 
HETATM   19  O4  UNL     1      13.572 -28.717  55.131  1.00  0.00    -0.388 OA
HETATM   20  C19 UNL     1      13.411 -29.136  56.430  1.00  0.00     0.180 C 
ENDROOT
BRANCH   1  21
HETATM   21  C3  UNL     1      11.440 -27.645  56.766  1.00  0.00     0.143 C 
HETATM   22  N1  UNL     1      10.279 -27.768  57.228  1.00  0.00    -0.248 N 
ATOM     23  H1  UNL     1       9.561 -27.352  56.635  1.00  0.00     0.196 HD
BRANCH  22  24
HETATM   24  O1  UNL     1       9.790 -28.328  58.333  1.00  0.00    -0.279 OA
BRANCH  24  25
HETATM   25  C2  UNL     1       9.947 -27.840  59.651  1.00  0.00     0.197 C 
HETATM   26  C1  UNL     1       9.561 -26.399  59.781  1.00  0.00     0.036 C 
ENDBRANCH  24  25
ENDBRANCH  22  24
BRANCH  21  27
HETATM   27  O2  UNL     1      11.549 -26.967  55.532  1.00  0.00    -0.342 OA
HETATM   28  C4  UNL     1      10.613 -27.237  54.501  1.00  0.00     0.211 C 
ENDBRANCH  21  27
ENDBRANCH   1  21
TORSDOF 4
ENDMDL
MODEL 2
REMARK VINA RESULT: -6.963601405      3.154      6.144
REMARK  4 active torsions:
REMARK  status: ('A' for Active; 'I' for Inactive)
REMARK    1  A    between atoms: C2_2  and  O1_3 
REMARK    2  A    between atoms: O1_3  and  N1_4 
REMARK    3  A    between atoms: C3_6  and  O2_7 
REMARK    4  A    between atoms: C3_6  and  C5_9 
ROOT
HETATM    1  C5  UNL     1      16.879 -25.194  56.730  1.00  0.00     0.089 C 
HETATM    2  C6  UNL     1      16.751 -25.739  58.132  1.00  0.00     0.042 C 
HETATM    3  C7  UNL     1      16.486 -24.613  59.070  1.00  0.00    -0.030 C 
HETATM    4  C8  UNL     1      15.923 -24.734  60.264  1.00  0.00    -0.031 C 
HETATM    5  C9  UNL     1      15.469 -26.042  60.839  1.00  0.00     0.027 C 
HETATM    6  C10 UNL     1      14.165 -26.514  60.300  1.00  0.00     0.004 C 
HETATM    7  C11 UNL     1      13.337 -25.430  59.643  1.00  0.00     0.000 C 
HETATM    8  C12 UNL     1      11.868 -25.844  59.704  1.00  0.00     0.002 C 
HETATM    9  C13 UNL     1      11.629 -27.187  59.073  1.00  0.00     0.027 C 
HETATM   10  C14 UNL     1      11.795 -27.188  57.584  1.00  0.00     0.232 C 
HETATM   11  N2  UNL     1      12.209 -28.514  57.167  1.00  0.00    -0.073 N 
ATOM     12  H21 UNL     1      11.437 -29.178  57.219  1.00  0.00     0.277 HD
ATOM     13  H22 UNL     1      12.832 -28.941  57.852  1.00  0.00     0.277 HD
HETATM   14  C15 UNL     1      12.813 -28.500  55.831  1.00  0.00     0.258 C 
HETATM   15  C16 UNL     1      13.883 -29.568  55.844  1.00  0.00     0.195 C 
HETATM   16  O3  UNL     1      14.673 -29.591  54.723  1.00  0.00    -0.387 OA
HETATM   17  C17 UNL     1      15.508 -28.517  54.550  1.00  0.00     0.193 C 
HETATM   18  C18 UNL     1      16.589 -28.433  55.595  1.00  0.00     0.193 C 
HETATM   19  O4  UNL     1      17.278 -27.228  55.468  1.00  0.00    -0.388 OA
HETATM   20  C19 UNL     1      16.387 -26.208  55.701  1.00  0.00     0.180 C 
ENDROOT
BRANCH   1  21
HETATM   21  C3  UNL     1      18.207 -24.652  56.401  1.00  0.00     0.143 C 
HETATM   22  N1  UNL     1      19.345 -25.111  56.662  1.00  0.00    -0.248 N 
ATOM     23  H1  UNL     1      20.107 -24.527  56.315  1.00  0.00     0.196 HD
BRANCH  22  24
HETATM   24  O1  UNL     1      19.766 -26.202  57.300  1.00  0.00    -0.279 OA
BRANCH  24  25
HETATM   25  C2  UNL     1      20.343 -26.238  58.590  1.00  0.00     0.197 C 
HETATM   26  C1  UNL     1      19.862 -27.400  59.404  1.00  0.00     0.036 C 
ENDBRANCH  24  25
ENDBRANCH  22  24
BRANCH  21  27
HETATM   27  O2  UNL     1      18.177 -23.434  55.686  1.00  0.00    -0.342 OA
HETATM   28  C4  UNL     1      18.613 -22.241  56.318  1.00  0.00     0.211 C 
ENDBRANCH  21  27
ENDBRANCH   1  21
TORSDOF 4
ENDMDL
MODEL 3
REMARK VINA RESULT: -6.909696898      1.339      2.476
REMARK  4 active torsions:
REMARK  status: ('A' for Active; 'I' for Inactive)
REMARK    1  A    between atoms: C2_2  and  O1_3 
REMARK    2  A    between atoms: O1_3  and  N1_4 
REMARK    3  A    between atoms: C3_6  and  O2_7 
REMARK    4  A    between atoms: C3_6  and  C5_9 
ROOT
HETATM    1  C5  UNL     1      13.157 -28.301  58.840  1.00  0.00     0.089 C 
HETATM    2  C6  UNL     1      14.349 -27.387  58.695  1.00  0.00     0.042 C 
HETATM    3  C7  UNL     1      14.576 -26.673  59.983  1.00  0.00    -0.030 C 
HETATM    4  C8  UNL     1      15.725 -26.132  60.361  1.00  0.00    -0.031 C 
HETATM    5  C9  UNL     1      16.972 -26.164  59.528  1.00  0.00     0.027 C 
HETATM    6  C10 UNL     1      17.696 -27.464  59.583  1.00  0.00     0.004 C 
HETATM    7  C11 UNL     1      17.324 -28.330  60.768  1.00  0.00     0.000 C 
HETATM    8  C12 UNL     1      18.496 -29.265  61.065  1.00  0.00     0.002 C 
HETATM    9  C13 UNL     1      18.881 -30.091  59.870  1.00  0.00     0.027 C 
HETATM   10  C14 UNL     1      17.862 -31.126  59.502  1.00  0.00     0.232 C 
HETATM   11  N2  UNL     1      17.951 -31.375  58.076  1.00  0.00    -0.073 N 
ATOM     12  H21 UNL     1      18.785 -31.916  57.845  1.00  0.00     0.277 HD
ATOM     13  H22 UNL     1      18.168 -30.522  57.562  1.00  0.00     0.277 HD
HETATM   14  C15 UNL     1      16.738 -32.016  57.560  1.00  0.00     0.258 C 
HETATM   15  C16 UNL     1      16.551 -31.489  56.155  1.00  0.00     0.195 C 
HETATM   16  O3  UNL     1      15.368 -31.854  55.566  1.00  0.00    -0.387 OA
HETATM   17  C17 UNL     1      14.231 -31.307  56.104  1.00  0.00     0.193 C 
HETATM   18  C18 UNL     1      14.139 -29.817  55.908  1.00  0.00     0.193 C 
HETATM   19  O4  UNL     1      13.064 -29.309  56.635  1.00  0.00    -0.388 OA
HETATM   20  C19 UNL     1      13.309 -29.543  57.966  1.00  0.00     0.180 C 
ENDROOT
BRANCH   1  21
HETATM   21  C3  UNL     1      11.853 -27.641  58.665  1.00  0.00     0.143 C 
HETATM   22  N1  UNL     1      11.449 -26.902  57.734  1.00  0.00    -0.248 N 
ATOM     23  H1  UNL     1      10.492 -26.574  57.864  1.00  0.00     0.196 HD
BRANCH  22  24
HETATM   24  O1  UNL     1      12.011 -26.458  56.611  1.00  0.00    -0.279 OA
BRANCH  24  25
HETATM   25  C2  UNL     1      11.621 -26.801  55.296  1.00  0.00     0.197 C 
HETATM   26  C1  UNL     1      10.342 -27.579  55.259  1.00  0.00     0.036 C 
ENDBRANCH  24  25
ENDBRANCH  22  24
BRANCH  21  27
HETATM   27  O2  UNL     1      10.933 -27.885  59.709  1.00  0.00    -0.342 OA
HETATM   28  C4  UNL     1       9.783 -27.064  59.833  1.00  0.00     0.211 C 
ENDBRANCH  21  27
ENDBRANCH   1  21
TORSDOF 4
ENDMDL
MODEL 4
REMARK VINA RESULT: -6.896409818      3.607      6.464
REMARK  4 active torsions:
REMARK  status: ('A' for Active; 'I' for Inactive)
REMARK    1  A    between atoms: C2_2  and  O1_3 
REMARK    2  A    between atoms: O1_3  and  N1_4 
REMARK    3  A    between atoms: C3_6  and  O2_7 
REMARK    4  A    between atoms: C3_6  and  C5_9 
ROOT
HETATM    1  C5  UNL     1      17.059 -25.384  56.876  1.00  0.00     0.089 C 
HETATM    2  C6  UNL     1      16.817 -25.927  58.263  1.00  0.00     0.042 C 
HETATM    3  C7  UNL     1      16.579 -24.792  59.197  1.00  0.00    -0.030 C 
HETATM    4  C8  UNL     1      15.943 -24.881  60.357  1.00  0.00    -0.031 C 
HETATM    5  C9  UNL     1      15.369 -26.158  60.893  1.00  0.00     0.027 C 
HETATM    6  C10 UNL     1      14.067 -26.536  60.277  1.00  0.00     0.004 C 
HETATM    7  C11 UNL     1      13.353 -25.392  59.587  1.00  0.00     0.000 C 
HETATM    8  C12 UNL     1      11.858 -25.704  59.564  1.00  0.00     0.002 C 
HETATM    9  C13 UNL     1      11.563 -27.023  58.906  1.00  0.00     0.027 C 
HETATM   10  C14 UNL     1      11.811 -27.026  57.428  1.00  0.00     0.232 C 
HETATM   11  N2  UNL     1      12.155 -28.375  57.022  1.00  0.00    -0.073 N 
ATOM     12  H21 UNL     1      11.337 -28.984  57.024  1.00  0.00     0.277 HD
ATOM     13  H22 UNL     1      12.708 -28.848  57.735  1.00  0.00     0.277 HD
HETATM   14  C15 UNL     1      12.831 -28.393  55.721  1.00  0.00     0.258 C 
HETATM   15  C16 UNL     1      13.823 -29.533  55.781  1.00  0.00     0.195 C 
HETATM   16  O3  UNL     1      14.670 -29.603  54.705  1.00  0.00    -0.387 OA
HETATM   17  C17 UNL     1      15.586 -28.589  54.590  1.00  0.00     0.193 C 
HETATM   18  C18 UNL     1      16.611 -28.587  55.693  1.00  0.00     0.193 C 
HETATM   19  O4  UNL     1      17.387 -27.431  55.616  1.00  0.00    -0.388 OA
HETATM   20  C19 UNL     1      16.557 -26.354  55.811  1.00  0.00     0.180 C 
ENDROOT
BRANCH   1  21
HETATM   21  C3  UNL     1      18.438 -24.932  56.626  1.00  0.00     0.143 C 
HETATM   22  N1  UNL     1      18.853 -23.993  55.904  1.00  0.00    -0.248 N 
ATOM     23  H1  UNL     1      19.869 -23.897  55.910  1.00  0.00     0.196 HD
BRANCH  22  24
HETATM   24  O1  UNL     1      18.243 -23.095  55.132  1.00  0.00    -0.279 OA
BRANCH  24  25
HETATM   25  C2  UNL     1      18.652 -21.756  54.934  1.00  0.00     0.197 C 
HETATM   26  C1  UNL     1      19.489 -21.237  56.062  1.00  0.00     0.036 C 
ENDBRANCH  24  25
ENDBRANCH  22  24
BRANCH  21  27
HETATM   27  O2  UNL     1      19.426 -25.677  57.306  1.00  0.00    -0.342 OA
HETATM   28  C4  UNL     1      20.434 -24.998  58.038  1.00  0.00     0.211 C 
ENDBRANCH  21  27
ENDBRANCH   1  21
TORSDOF 4
ENDMDL
MODEL 5
REMARK VINA RESULT: -6.805376255      2.345      5.944
REMARK  4 active torsions:
REMARK  status: ('A' for Active; 'I' for Inactive)
REMARK    1  A    between atoms: C2_2  and  O1_3 
REMARK    2  A    between atoms: O1_3  and  N1_4 
REMARK    3  A    between atoms: C3_6  and  O2_7 
REMARK    4  A    between atoms: C3_6  and  C5_9 
ROOT
HETATM    1  C5  UNL     1      15.038 -28.261  55.237  1.00  0.00     0.089 C 
HETATM    2  C6  UNL     1      15.394 -29.015  56.495  1.00  0.00     0.042 C 
HETATM    3  C7  UNL     1      16.838 -28.808  56.797  1.00  0.00    -0.030 C 
HETATM    4  C8  UNL     1      17.394 -28.955  57.991  1.00  0.00    -0.031 C 
HETATM    5  C9  UNL     1      16.633 -29.358  59.218  1.00  0.00     0.027 C 
HETATM    6  C10 UNL     1      15.863 -28.244  59.838  1.00  0.00     0.004 C 
HETATM    7  C11 UNL     1      16.324 -26.864  59.418  1.00  0.00     0.000 C 
HETATM    8  C12 UNL     1      15.939 -25.875  60.517  1.00  0.00     0.002 C 
HETATM    9  C13 UNL     1      14.466 -25.904  60.817  1.00  0.00     0.027 C 
HETATM   10  C14 UNL     1      13.617 -25.348  59.714  1.00  0.00     0.232 C 
HETATM   11  N2  UNL     1      12.319 -25.993  59.762  1.00  0.00    -0.073 N 
ATOM     12  H21 UNL     1      11.764 -25.651  60.547  1.00  0.00     0.277 HD
ATOM     13  H22 UNL     1      12.400 -26.971  60.038  1.00  0.00     0.277 HD
HETATM   14  C15 UNL     1      11.596 -25.852  58.495  1.00  0.00     0.258 C 
HETATM   15  C16 UNL     1      10.792 -27.122  58.328  1.00  0.00     0.195 C 
HETATM   16  O3  UNL     1      10.172 -27.244  57.111  1.00  0.00    -0.387 OA
HETATM   17  C17 UNL     1      10.996 -27.423  56.029  1.00  0.00     0.193 C 
HETATM   18  C18 UNL     1      11.727 -28.739  56.052  1.00  0.00     0.193 C 
HETATM   19  O4  UNL     1      12.676 -28.772  55.031  1.00  0.00    -0.388 OA
HETATM   20  C19 UNL     1      13.592 -27.778  55.277  1.00  0.00     0.180 C 
ENDROOT
BRANCH   1  21
HETATM   21  C3  UNL     1      15.367 -28.965  53.987  1.00  0.00     0.143 C 
HETATM   22  N1  UNL     1      15.618 -28.498  52.849  1.00  0.00    -0.248 N 
ATOM     23  H1  UNL     1      15.814 -29.217  52.151  1.00  0.00     0.196 HD
BRANCH  22  24
HETATM   24  O1  UNL     1      15.683 -27.260  52.363  1.00  0.00    -0.279 OA
BRANCH  24  25
HETATM   25  C2  UNL     1      16.835 -26.635  51.833  1.00  0.00     0.197 C 
HETATM   26  C1  UNL     1      17.901 -26.423  52.864  1.00  0.00     0.036 C 
ENDBRANCH  24  25
ENDBRANCH  22  24
BRANCH  21  27
HETATM   27  O2  UNL     1      15.398 -30.372  54.102  1.00  0.00    -0.342 OA
HETATM   28  C4  UNL     1      16.480 -31.096  53.539  1.00  0.00     0.211 C 
ENDBRANCH  21  27
ENDBRANCH   1  21
TORSDOF 4
ENDMDL
