MODEL 1
REMARK VINA RESULT: -6.958350975      0.000      0.000
REMARK  6 active torsions:
REMARK  status: ('A' for Active; 'I' for Inactive)
REMARK    1  A    between atoms: C5_6  and  C6_7 
REMARK    2  A    between atoms: C6_7  and  N2_8 
REMARK    3  A    between atoms: C8_11  and  C9_12 
REMARK    4  A    between atoms: N3_13  and  N4_15 
REMARK       I    between atoms: N4_15  and  C10_17 
REMARK    5  A    between atoms: C10_17  and  O3_19 
REMARK    6  A    between atoms: O3_19  and  C11_20 
ROOT
HETATM    1  N2  UNL     1     -32.713  -3.677   3.734  1.00  0.00    -0.216 N 
HETATM    2  O1  UNL     1     -31.996  -4.047   4.736  1.00  0.00    -0.244 OA
HETATM    3  C7  UNL     1     -30.768  -4.316   4.376  1.00  0.00     0.186 A 
HETATM    4  C8  UNL     1     -30.706  -4.091   3.003  1.00  0.00     0.075 A 
HETATM    5  C15 UNL     1     -31.964  -3.684   2.622  1.00  0.00     0.281 A 
HETATM    6  O4  UNL     1     -32.359  -3.371   1.447  1.00  0.00    -0.265 OA
ENDROOT
BRANCH   4   7
HETATM    7  C9  UNL     1     -29.567  -4.244   2.125  1.00  0.00     0.126 C 
HETATM    8  N3  UNL     1     -29.713  -4.858   1.010  1.00  0.00    -0.306 N 
ATOM      9  H3  UNL     1     -30.638  -5.221   0.778  1.00  0.00     0.186 HD
BRANCH   8  10
HETATM   10  N4  UNL     1     -28.687  -5.058   0.102  1.00  0.00    -0.246 N 
HETATM   11  C10 UNL     1     -28.957  -5.407  -1.226  1.00  0.00     0.380 C 
HETATM   12  O2  UNL     1     -30.138  -5.545  -1.611  1.00  0.00    -0.237 OA
ATOM     13  H4  UNL     1     -27.719  -4.948   0.406  1.00  0.00     0.192 HD
BRANCH  11  14
HETATM   14  O3  UNL     1     -27.978  -5.621  -2.183  1.00  0.00    -0.293 OA
BRANCH  14  15
HETATM   15  C11 UNL     1     -27.102  -4.676  -2.666  1.00  0.00     0.061 C 
HETATM   16  C12 UNL     1     -27.567  -3.265  -2.364  1.00  0.00     0.046 C 
HETATM   17  C13 UNL     1     -27.076  -4.794  -4.195  1.00  0.00     0.046 C 
HETATM   18  C14 UNL     1     -25.683  -4.795  -2.195  1.00  0.00     0.046 C 
ENDBRANCH  14  15
ENDBRANCH  11  14
ENDBRANCH   8  10
ENDBRANCH   4   7
BRANCH   1  19
HETATM   19  C6  UNL     1     -34.133  -3.293   3.732  1.00  0.00     0.166 C 
BRANCH  19  20
HETATM   20  C5  UNL     1     -34.430  -2.401   4.904  1.00  0.00     0.034 C 
HETATM   21  C4  UNL     1     -33.879  -1.032   4.593  1.00  0.00     0.010 C 
HETATM   22  C3  UNL     1     -34.860   0.067   4.951  1.00  0.00     0.031 C 
HETATM   23  C2  UNL     1     -35.489  -0.290   6.261  1.00  0.00     0.272 C 
HETATM   24  N1  UNL     1     -36.312  -1.445   6.161  1.00  0.00     0.084 N 
HETATM   25  C1  UNL     1     -37.718  -1.195   6.124  1.00  0.00     0.309 C 
HETATM   26  C16 UNL     1     -35.903  -2.397   5.167  1.00  0.00     0.278 C 
ENDBRANCH  19  20
ENDBRANCH   1  19
TORSDOF 6
ENDMDL
MODEL 2
REMARK VINA RESULT: -6.812838344      1.016      1.511
REMARK  6 active torsions:
REMARK  status: ('A' for Active; 'I' for Inactive)
REMARK    1  A    between atoms: C5_6  and  C6_7 
REMARK    2  A    between atoms: C6_7  and  N2_8 
REMARK    3  A    between atoms: C8_11  and  C9_12 
REMARK    4  A    between atoms: N3_13  and  N4_15 
REMARK       I    between atoms: N4_15  and  C10_17 
REMARK    5  A    between atoms: C10_17  and  O3_19 
REMARK    6  A    between atoms: O3_19  and  C11_20 
ROOT
HETATM    1  N2  UNL     1     -32.766  -3.707   3.735  1.00  0.00    -0.216 N 
HETATM    2  O1  UNL     1     -32.060  -4.091   4.739  1.00  0.00    -0.244 OA
HETATM    3  C7  UNL     1     -30.836  -4.384   4.385  1.00  0.00     0.186 A 
HETATM    4  C8  UNL     1     -30.765  -4.159   3.012  1.00  0.00     0.075 A 
HETATM    5  C15 UNL     1     -32.013  -3.728   2.626  1.00  0.00     0.281 A 
HETATM    6  O4  UNL     1     -32.397  -3.407   1.450  1.00  0.00    -0.265 OA
ENDROOT
BRANCH   4   7
HETATM    7  C9  UNL     1     -29.625  -4.333   2.139  1.00  0.00     0.126 C 
HETATM    8  N3  UNL     1     -29.786  -4.909   1.005  1.00  0.00    -0.306 N 
ATOM      9  H3  UNL     1     -30.723  -5.226   0.755  1.00  0.00     0.186 HD
BRANCH   8  10
HETATM   10  N4  UNL     1     -28.760  -5.124   0.100  1.00  0.00    -0.246 N 
HETATM   11  C10 UNL     1     -29.032  -5.376  -1.250  1.00  0.00     0.380 C 
HETATM   12  O2  UNL     1     -30.213  -5.410  -1.657  1.00  0.00    -0.237 OA
ATOM     13  H4  UNL     1     -27.793  -5.098   0.422  1.00  0.00     0.192 HD
BRANCH  11  14
HETATM   14  O3  UNL     1     -28.054  -5.600  -2.206  1.00  0.00    -0.293 OA
BRANCH  14  15
HETATM   15  C11 UNL     1     -27.133  -4.678  -2.648  1.00  0.00     0.061 C 
HETATM   16  C12 UNL     1     -27.569  -3.255  -2.357  1.00  0.00     0.046 C 
HETATM   17  C13 UNL     1     -27.050  -4.790  -4.176  1.00  0.00     0.046 C 
HETATM   18  C14 UNL     1     -25.738  -4.840  -2.123  1.00  0.00     0.046 C 
ENDBRANCH  14  15
ENDBRANCH  11  14
ENDBRANCH   8  10
ENDBRANCH   4   7
BRANCH   1  19
HETATM   19  C6  UNL     1     -34.179  -3.296   3.727  1.00  0.00     0.166 C 
BRANCH  19  20
HETATM   20  C5  UNL     1     -34.281  -1.797   3.708  1.00  0.00     0.034 C 
HETATM   21  C4  UNL     1     -35.742  -1.434   3.806  1.00  0.00     0.010 C 
HETATM   22  C3  UNL     1     -35.978  -0.309   4.796  1.00  0.00     0.031 C 
HETATM   23  C2  UNL     1     -34.890   0.699   4.612  1.00  0.00     0.272 C 
HETATM   24  N1  UNL     1     -33.618   0.189   4.994  1.00  0.00     0.084 N 
HETATM   25  C1  UNL     1     -33.134   0.636   6.261  1.00  0.00     0.309 C 
HETATM   26  C16 UNL     1     -33.457  -1.228   4.819  1.00  0.00     0.278 C 
ENDBRANCH  19  20
ENDBRANCH   1  19
TORSDOF 6
ENDMDL
MODEL 3
REMARK VINA RESULT: -6.807013149      0.982      1.133
REMARK  6 active torsions:
REMARK  status: ('A' for Active; 'I' for Inactive)
REMARK    1  A    between atoms: C5_6  and  C6_7 
REMARK    2  A    between atoms: C6_7  and  N2_8 
REMARK    3  A    between atoms: C8_11  and  C9_12 
REMARK    4  A    between atoms: N3_13  and  N4_15 
REMARK       I    between atoms: N4_15  and  C10_17 
REMARK    5  A    between atoms: C10_17  and  O3_19 
REMARK    6  A    between atoms: O3_19  and  C11_20 
ROOT
HETATM    1  N2  UNL     1     -33.425  -3.389   3.243  1.00  0.00    -0.216 N 
HETATM    2  O1  UNL     1     -32.832  -3.791   4.310  1.00  0.00    -0.244 OA
HETATM    3  C7  UNL     1     -31.573  -4.067   4.088  1.00  0.00     0.186 A 
HETATM    4  C8  UNL     1     -31.352  -3.811   2.737  1.00  0.00     0.075 A 
HETATM    5  C15 UNL     1     -32.553  -3.379   2.224  1.00  0.00     0.281 A 
HETATM    6  O4  UNL     1     -32.807  -3.034   1.020  1.00  0.00    -0.265 OA
ENDROOT
BRANCH   4   7
HETATM    7  C9  UNL     1     -30.121  -3.957   1.992  1.00  0.00     0.126 C 
HETATM    8  N3  UNL     1     -30.079  -4.771   1.004  1.00  0.00    -0.306 N 
ATOM      9  H3  UNL     1     -30.925  -5.293   0.774  1.00  0.00     0.186 HD
BRANCH   8  10
HETATM   10  N4  UNL     1     -28.950  -4.984   0.230  1.00  0.00    -0.246 N 
HETATM   11  C10 UNL     1     -29.058  -5.340  -1.119  1.00  0.00     0.380 C 
HETATM   12  O2  UNL     1     -30.184  -5.471  -1.646  1.00  0.00    -0.237 OA
ATOM     13  H4  UNL     1     -28.026  -4.879   0.650  1.00  0.00     0.192 HD
BRANCH  11  14
HETATM   14  O3  UNL     1     -27.970  -5.567  -1.948  1.00  0.00    -0.293 OA
BRANCH  14  15
HETATM   15  C11 UNL     1     -27.136  -4.603  -2.465  1.00  0.00     0.061 C 
HETATM   16  C12 UNL     1     -27.616  -3.202  -2.140  1.00  0.00     0.046 C 
HETATM   17  C13 UNL     1     -27.173  -4.717  -3.994  1.00  0.00     0.046 C 
HETATM   18  C14 UNL     1     -25.696  -4.694  -2.055  1.00  0.00     0.046 C 
ENDBRANCH  14  15
ENDBRANCH  11  14
ENDBRANCH   8  10
ENDBRANCH   4   7
BRANCH   1  19
HETATM   19  C6  UNL     1     -34.832  -2.988   3.086  1.00  0.00     0.166 C 
BRANCH  19  20
HETATM   20  C5  UNL     1     -35.435  -2.682   4.428  1.00  0.00     0.034 C 
HETATM   21  C4  UNL     1     -35.456  -1.182   4.592  1.00  0.00     0.010 C 
HETATM   22  C3  UNL     1     -36.780  -0.693   5.146  1.00  0.00     0.031 C 
HETATM   23  C2  UNL     1     -37.208  -1.645   6.218  1.00  0.00     0.272 C 
HETATM   24  N1  UNL     1     -37.525  -2.929   5.697  1.00  0.00     0.084 N 
HETATM   25  C1  UNL     1     -38.919  -3.217   5.581  1.00  0.00     0.309 C 
HETATM   26  C16 UNL     1     -36.793  -3.303   4.518  1.00  0.00     0.278 C 
ENDBRANCH  19  20
ENDBRANCH   1  19
TORSDOF 6
ENDMDL
MODEL 4
REMARK VINA RESULT: -6.768405150      0.875      1.296
REMARK  6 active torsions:
REMARK  status: ('A' for Active; 'I' for Inactive)
REMARK    1  A    between atoms: C5_6  and  C6_7 
REMARK    2  A    between atoms: C6_7  and  N2_8 
REMARK    3  A    between atoms: C8_11  and  C9_12 
REMARK    4  A    between atoms: N3_13  and  N4_15 
REMARK       I    between atoms: N4_15  and  C10_17 
REMARK    5  A    between atoms: C10_17  and  O3_19 
REMARK    6  A    between atoms: O3_19  and  C11_20 
ROOT
HETATM    1  N2  UNL     1     -32.866  -3.665   3.649  1.00  0.00    -0.216 N 
HETATM    2  O1  UNL     1     -32.153  -4.055   4.646  1.00  0.00    -0.244 OA
HETATM    3  C7  UNL     1     -30.920  -4.305   4.288  1.00  0.00     0.186 A 
HETATM    4  C8  UNL     1     -30.851  -4.044   2.922  1.00  0.00     0.075 A 
HETATM    5  C15 UNL     1     -32.109  -3.637   2.542  1.00  0.00     0.281 A 
HETATM    6  O4  UNL     1     -32.498  -3.297   1.373  1.00  0.00    -0.265 OA
ENDROOT
BRANCH   4   7
HETATM    7  C9  UNL     1     -29.704  -4.165   2.049  1.00  0.00     0.126 C 
HETATM    8  N3  UNL     1     -29.794  -4.884   0.992  1.00  0.00    -0.306 N 
ATOM      9  H3  UNL     1     -30.681  -5.350   0.801  1.00  0.00     0.186 HD
BRANCH   8  10
HETATM   10  N4  UNL     1     -28.756  -5.064   0.094  1.00  0.00    -0.246 N 
HETATM   11  C10 UNL     1     -29.008  -5.400  -1.241  1.00  0.00     0.380 C 
HETATM   12  O2  UNL     1     -30.183  -5.542  -1.642  1.00  0.00    -0.237 OA
ATOM     13  H4  UNL     1     -27.793  -4.951   0.411  1.00  0.00     0.192 HD
BRANCH  11  14
HETATM   14  O3  UNL     1     -28.015  -5.595  -2.189  1.00  0.00    -0.293 OA
BRANCH  14  15
HETATM   15  C11 UNL     1     -27.195  -4.621  -2.710  1.00  0.00     0.061 C 
HETATM   16  C12 UNL     1     -27.013  -4.773  -4.208  1.00  0.00     0.046 C 
HETATM   17  C13 UNL     1     -25.801  -4.799  -2.095  1.00  0.00     0.046 C 
HETATM   18  C14 UNL     1     -27.611  -3.204  -2.447  1.00  0.00     0.046 C 
ENDBRANCH  14  15
ENDBRANCH  11  14
ENDBRANCH   8  10
ENDBRANCH   4   7
BRANCH   1  19
HETATM   19  C6  UNL     1     -34.289  -3.292   3.646  1.00  0.00     0.166 C 
BRANCH  19  20
HETATM   20  C5  UNL     1     -34.440  -1.825   3.933  1.00  0.00     0.034 C 
HETATM   21  C4  UNL     1     -34.974  -1.164   2.686  1.00  0.00     0.010 C 
HETATM   22  C3  UNL     1     -36.091  -0.188   2.999  1.00  0.00     0.031 C 
HETATM   23  C2  UNL     1     -35.707   0.568   4.231  1.00  0.00     0.272 C 
HETATM   24  N1  UNL     1     -35.672  -0.269   5.381  1.00  0.00     0.084 N 
HETATM   25  C1  UNL     1     -36.791  -0.149   6.261  1.00  0.00     0.309 C 
HETATM   26  C16 UNL     1     -35.327  -1.639   5.123  1.00  0.00     0.278 C 
ENDBRANCH  19  20
ENDBRANCH   1  19
TORSDOF 6
ENDMDL
MODEL 5
REMARK VINA RESULT: -6.716580126      3.481      4.017
REMARK  6 active torsions:
REMARK  status: ('A' for Active; 'I' for Inactive)
REMARK    1  A    between atoms: C5_6  and  C6_7 
REMARK    2  A    between atoms: C6_7  and  N2_8 
REMARK    3  A    between atoms: C8_11  and  C9_12 
REMARK    4  A    between atoms: N3_13  and  N4_15 
REMARK       I    between atoms: N4_15  and  C10_17 
REMARK    5  A    between atoms: C10_17  and  O3_19 
REMARK    6  A    between atoms: O3_19  and  C11_20 
ROOT
HETATM    1  N2  UNL     1     -34.661  -2.375   1.902  1.00  0.00    -0.216 N 
HETATM    2  O1  UNL     1     -34.385  -3.273   2.781  1.00  0.00    -0.244 OA
HETATM    3  C7  UNL     1     -33.132  -3.642   2.716  1.00  0.00     0.186 A 
HETATM    4  C8  UNL     1     -32.559  -2.896   1.688  1.00  0.00     0.075 A 
HETATM    5  C15 UNL     1     -33.561  -2.097   1.188  1.00  0.00     0.281 A 
HETATM    6  O4  UNL     1     -33.478  -1.252   0.232  1.00  0.00    -0.265 OA
ENDROOT
BRANCH   4   7
HETATM    7  C9  UNL     1     -31.193  -2.931   1.218  1.00  0.00     0.126 C 
HETATM    8  N3  UNL     1     -30.574  -4.053   1.168  1.00  0.00    -0.306 N 
ATOM      9  H3  UNL     1     -31.075  -4.891   1.465  1.00  0.00     0.186 HD
BRANCH   8  10
HETATM   10  N4  UNL     1     -29.267  -4.192   0.735  1.00  0.00    -0.246 N 
HETATM   11  C10 UNL     1     -28.956  -4.987  -0.374  1.00  0.00     0.380 C 
HETATM   12  O2  UNL     1     -29.862  -5.587  -0.991  1.00  0.00    -0.237 OA
ATOM     13  H4  UNL     1     -28.519  -3.707   1.231  1.00  0.00     0.192 HD
BRANCH  11  14
HETATM   14  O3  UNL     1     -27.670  -5.168  -0.858  1.00  0.00    -0.293 OA
BRANCH  14  15
HETATM   15  C11 UNL     1     -27.108  -4.503  -1.923  1.00  0.00     0.061 C 
HETATM   16  C12 UNL     1     -27.667  -3.101  -2.075  1.00  0.00     0.046 C 
HETATM   17  C13 UNL     1     -27.494  -5.252  -3.205  1.00  0.00     0.046 C 
HETATM   18  C14 UNL     1     -25.613  -4.395  -1.914  1.00  0.00     0.046 C 
ENDBRANCH  14  15
ENDBRANCH  11  14
ENDBRANCH   8  10
ENDBRANCH   4   7
BRANCH   1  19
HETATM   19  C6  UNL     1     -35.952  -1.714   1.659  1.00  0.00     0.166 C 
BRANCH  19  20
HETATM   20  C5  UNL     1     -36.918  -2.679   1.031  1.00  0.00     0.034 C 
HETATM   21  C4  UNL     1     -38.089  -2.834   1.968  1.00  0.00     0.010 C 
HETATM   22  C3  UNL     1     -39.413  -2.783   1.231  1.00  0.00     0.031 C 
HETATM   23  C2  UNL     1     -39.263  -3.564  -0.036  1.00  0.00     0.272 C 
HETATM   24  N1  UNL     1     -38.358  -2.944  -0.942  1.00  0.00     0.084 N 
HETATM   25  C1  UNL     1     -38.964  -2.248  -2.032  1.00  0.00     0.309 C 
HETATM   26  C16 UNL     1     -37.310  -2.181  -0.324  1.00  0.00     0.278 C 
ENDBRANCH  19  20
ENDBRANCH   1  19
TORSDOF 6
ENDMDL
