MODEL 1
REMARK VINA RESULT: -7.804915885      0.000      0.000
REMARK  4 active torsions:
REMARK  status: ('A' for Active; 'I' for Inactive)
REMARK    1  A    between atoms: C3_5  and  C4_6 
REMARK    2  A    between atoms: C4_6  and  N2_7 
REMARK    3  A    between atoms: N2_7  and  C5_9 
REMARK    4  A    between atoms: C12_17  and  C13_18 
ROOT
HETATM    1  C13 UNL     1     -30.626  -3.546   3.280  1.00  0.00     0.101 C 
HETATM    2  C14 UNL     1     -29.551  -3.713   2.234  1.00  0.00     0.202 C 
HETATM    3  N3  UNL     1     -29.178  -5.099   2.084  1.00  0.00    -0.312 N 
HETATM    4  C15 UNL     1     -28.661  -5.579   0.848  1.00  0.00     0.180 C 
HETATM    5  N4  UNL     1     -28.205  -5.946  -0.144  1.00  0.00    -0.172 NA
HETATM    6  C16 UNL     1     -29.299  -5.985   3.226  1.00  0.00     0.161 C 
HETATM    7  C17 UNL     1     -30.462  -5.597   4.124  1.00  0.00     0.196 C 
HETATM    8  O2  UNL     1     -30.329  -4.196   4.438  1.00  0.00    -0.349 OA
ENDROOT
BRANCH   1   9
HETATM    9  C12 UNL     1     -31.302  -2.261   3.317  1.00  0.00     0.136 A 
HETATM   10  C3  UNL     1     -32.266  -1.796   2.417  1.00  0.00     0.086 A 
HETATM   11  N1  UNL     1     -32.587  -0.579   2.836  1.00  0.00    -0.337 N 
HETATM   12  C2  UNL     1     -31.868  -0.284   3.938  1.00  0.00     0.121 A 
ATOM     13  H1  UNL     1     -33.269   0.036   2.394  1.00  0.00     0.168 HD
HETATM   14  C1  UNL     1     -31.909   0.995   4.732  1.00  0.00     0.098 C 
HETATM   15  O3  UNL     1     -31.115  -1.312   4.198  1.00  0.00    -0.293 OA
BRANCH  10  16
HETATM   16  C4  UNL     1     -32.695  -2.595   1.263  1.00  0.00     0.120 C 
BRANCH  16  17
HETATM   17  N2  UNL     1     -33.002  -1.874   0.091  1.00  0.00    -0.370 N 
ATOM     18  H2  UNL     1     -33.777  -1.211   0.094  1.00  0.00     0.165 HD
BRANCH  17  19
HETATM   19  C5  UNL     1     -32.246  -2.060  -1.085  1.00  0.00    -0.009 C 
HETATM   20  C6  UNL     1     -31.111  -2.999  -0.861  1.00  0.00     0.078 C 
HETATM   21  C7  UNL     1     -29.959  -2.639  -1.763  1.00  0.00     0.174 C 
HETATM   22  O1  UNL     1     -29.625  -1.320  -1.832  1.00  0.00    -0.380 OA
HETATM   23  C8  UNL     1     -30.587  -0.382  -1.908  1.00  0.00     0.058 C 
HETATM   24  C9  UNL     1     -30.410   0.426  -3.210  1.00  0.00     0.046 C 
HETATM   25  C10 UNL     1     -30.407   0.609  -0.765  1.00  0.00     0.046 C 
HETATM   26  C11 UNL     1     -31.997  -0.900  -1.958  1.00  0.00     0.089 C 
ENDBRANCH  17  19
ENDBRANCH  16  17
ENDBRANCH  10  16
ENDBRANCH   1   9
TORSDOF 4
ENDMDL
MODEL 2
REMARK VINA RESULT: -7.438737305      2.027      5.430
REMARK  4 active torsions:
REMARK  status: ('A' for Active; 'I' for Inactive)
REMARK    1  A    between atoms: C3_5  and  C4_6 
REMARK    2  A    between atoms: C4_6  and  N2_7 
REMARK    3  A    between atoms: N2_7  and  C5_9 
REMARK    4  A    between atoms: C12_17  and  C13_18 
ROOT
HETATM    1  C13 UNL     1     -29.695  -2.515  -1.345  1.00  0.00     0.101 C 
HETATM    2  C14 UNL     1     -28.329  -3.041  -0.976  1.00  0.00     0.202 C 
HETATM    3  N3  UNL     1     -28.133  -4.380  -1.475  1.00  0.00    -0.312 N 
HETATM    4  C15 UNL     1     -26.825  -4.857  -1.769  1.00  0.00     0.180 C 
HETATM    5  N4  UNL     1     -25.758  -5.246  -1.963  1.00  0.00    -0.172 NA
HETATM    6  C16 UNL     1     -29.286  -5.246  -1.631  1.00  0.00     0.161 C 
HETATM    7  C17 UNL     1     -30.535  -4.465  -2.004  1.00  0.00     0.196 C 
HETATM    8  O2  UNL     1     -30.689  -3.396  -1.049  1.00  0.00    -0.349 OA
ENDROOT
BRANCH   1   9
HETATM    9  C12 UNL     1     -29.910  -1.089  -1.174  1.00  0.00     0.136 A 
HETATM   10  C3  UNL     1     -30.793  -0.476  -0.279  1.00  0.00     0.086 A 
HETATM   11  N1  UNL     1     -30.661   0.827  -0.484  1.00  0.00    -0.337 N 
HETATM   12  C2  UNL     1     -29.749   1.036  -1.454  1.00  0.00     0.121 A 
ATOM     13  H1  UNL     1     -31.169   1.557   0.014  1.00  0.00     0.168 HD
HETATM   14  C1  UNL     1     -29.300   2.362  -2.009  1.00  0.00     0.098 C 
HETATM   15  O3  UNL     1     -29.319  -0.130  -1.840  1.00  0.00    -0.293 OA
BRANCH  10  16
HETATM   16  C4  UNL     1     -31.659  -1.260   0.610  1.00  0.00     0.120 C 
BRANCH  16  17
HETATM   17  N2  UNL     1     -31.016  -1.921   1.676  1.00  0.00    -0.370 N 
ATOM     18  H2  UNL     1     -30.121  -1.574   2.019  1.00  0.00     0.165 HD
BRANCH  17  19
HETATM   19  C5  UNL     1     -31.601  -3.058   2.272  1.00  0.00    -0.009 C 
HETATM   20  C6  UNL     1     -32.406  -2.692   3.471  1.00  0.00     0.078 C 
HETATM   21  C7  UNL     1     -32.384  -3.821   4.469  1.00  0.00     0.174 C 
HETATM   22  O1  UNL     1     -31.172  -4.387   4.726  1.00  0.00    -0.380 OA
HETATM   23  C8  UNL     1     -30.316  -4.640   3.718  1.00  0.00     0.058 C 
HETATM   24  C9  UNL     1     -30.011  -6.151   3.675  1.00  0.00     0.046 C 
HETATM   25  C10 UNL     1     -28.990  -3.946   4.005  1.00  0.00     0.046 C 
HETATM   26  C11 UNL     1     -30.817  -4.303   2.342  1.00  0.00     0.089 C 
ENDBRANCH  17  19
ENDBRANCH  16  17
ENDBRANCH  10  16
ENDBRANCH   1   9
TORSDOF 4
ENDMDL
MODEL 3
REMARK VINA RESULT: -7.429725559      2.346      5.224
REMARK  4 active torsions:
REMARK  status: ('A' for Active; 'I' for Inactive)
REMARK    1  A    between atoms: C3_5  and  C4_6 
REMARK    2  A    between atoms: C4_6  and  N2_7 
REMARK    3  A    between atoms: N2_7  and  C5_9 
REMARK    4  A    between atoms: C12_17  and  C13_18 
ROOT
HETATM    1  C13 UNL     1     -32.589  -2.777   3.688  1.00  0.00     0.101 C 
HETATM    2  C14 UNL     1     -33.981  -3.358   3.638  1.00  0.00     0.202 C 
HETATM    3  N3  UNL     1     -34.980  -2.318   3.598  1.00  0.00    -0.312 N 
HETATM    4  C15 UNL     1     -36.246  -2.555   2.991  1.00  0.00     0.180 C 
HETATM    5  N4  UNL     1     -37.281  -2.771   2.535  1.00  0.00    -0.172 NA
HETATM    6  C16 UNL     1     -34.690  -1.042   4.223  1.00  0.00     0.161 C 
HETATM    7  C17 UNL     1     -33.214  -0.690   4.135  1.00  0.00     0.196 C 
HETATM    8  O2  UNL     1     -32.462  -1.812   4.639  1.00  0.00    -0.349 OA
ENDROOT
BRANCH   1   9
HETATM    9  C12 UNL     1     -31.493  -3.693   3.427  1.00  0.00     0.136 A 
HETATM   10  C3  UNL     1     -30.471  -3.531   2.487  1.00  0.00     0.086 A 
HETATM   11  N1  UNL     1     -29.712  -4.614   2.594  1.00  0.00    -0.337 N 
HETATM   12  C2  UNL     1     -30.220  -5.421   3.547  1.00  0.00     0.121 A 
ATOM     13  H1  UNL     1     -28.876  -4.805   2.043  1.00  0.00     0.168 HD
HETATM   14  C1  UNL     1     -29.681  -6.757   3.987  1.00  0.00     0.098 C 
HETATM   15  O3  UNL     1     -31.280  -4.838   4.025  1.00  0.00    -0.293 OA
BRANCH  10  16
HETATM   16  C4  UNL     1     -30.417  -2.364   1.598  1.00  0.00     0.120 C 
BRANCH  16  17
HETATM   17  N2  UNL     1     -29.323  -2.312   0.711  1.00  0.00    -0.370 N 
ATOM     18  H2  UNL     1     -28.416  -1.988   1.045  1.00  0.00     0.165 HD
BRANCH  17  19
HETATM   19  C5  UNL     1     -29.472  -2.706  -0.635  1.00  0.00    -0.009 C 
HETATM   20  C6  UNL     1     -30.881  -3.081  -0.941  1.00  0.00     0.078 C 
HETATM   21  C7  UNL     1     -30.910  -4.139  -2.014  1.00  0.00     0.174 C 
HETATM   22  O1  UNL     1     -30.042  -5.180  -1.872  1.00  0.00    -0.380 OA
HETATM   23  C8  UNL     1     -28.776  -4.955  -1.473  1.00  0.00     0.058 C 
HETATM   24  C9  UNL     1     -27.803  -5.460  -2.558  1.00  0.00     0.046 C 
HETATM   25  C10 UNL     1     -28.492  -5.785  -0.227  1.00  0.00     0.046 C 
HETATM   26  C11 UNL     1     -28.410  -3.514  -1.259  1.00  0.00     0.089 C 
ENDBRANCH  17  19
ENDBRANCH  16  17
ENDBRANCH  10  16
ENDBRANCH   1   9
TORSDOF 4
ENDMDL
MODEL 4
REMARK VINA RESULT: -7.347460237      1.783      4.568
REMARK  4 active torsions:
REMARK  status: ('A' for Active; 'I' for Inactive)
REMARK    1  A    between atoms: C3_5  and  C4_6 
REMARK    2  A    between atoms: C4_6  and  N2_7 
REMARK    3  A    between atoms: N2_7  and  C5_9 
REMARK    4  A    between atoms: C12_17  and  C13_18 
ROOT
HETATM    1  C13 UNL     1     -31.505  -3.252   3.565  1.00  0.00     0.101 C 
HETATM    2  C14 UNL     1     -32.869  -3.666   4.058  1.00  0.00     0.202 C 
HETATM    3  N3  UNL     1     -33.817  -2.584   3.944  1.00  0.00    -0.312 N 
HETATM    4  C15 UNL     1     -35.205  -2.853   3.787  1.00  0.00     0.180 C 
HETATM    5  N4  UNL     1     -36.331  -3.083   3.703  1.00  0.00    -0.172 NA
HETATM    6  C16 UNL     1     -33.336  -1.219   4.035  1.00  0.00     0.161 C 
HETATM    7  C17 UNL     1     -31.934  -1.072   3.468  1.00  0.00     0.196 C 
HETATM    8  O2  UNL     1     -31.098  -2.066   4.094  1.00  0.00    -0.349 OA
ENDROOT
BRANCH   1   9
HETATM    9  C12 UNL     1     -30.544  -4.318   3.340  1.00  0.00     0.136 A 
HETATM   10  C3  UNL     1     -29.655  -4.431   2.267  1.00  0.00     0.086 A 
HETATM   11  N1  UNL     1     -28.990  -5.560   2.473  1.00  0.00    -0.337 N 
HETATM   12  C2  UNL     1     -29.429  -6.135   3.610  1.00  0.00     0.121 A 
ATOM     13  H1  UNL     1     -28.260  -5.934   1.866  1.00  0.00     0.168 HD
HETATM   14  C1  UNL     1     -28.957  -7.432   4.213  1.00  0.00     0.098 C 
HETATM   15  O3  UNL     1     -30.354  -5.365   4.103  1.00  0.00    -0.293 OA
BRANCH  10  16
HETATM   16  C4  UNL     1     -29.620  -3.441   1.184  1.00  0.00     0.120 C 
BRANCH  16  17
HETATM   17  N2  UNL     1     -30.310  -3.790   0.005  1.00  0.00    -0.370 N 
ATOM     18  H2  UNL     1     -30.962  -4.573   0.014  1.00  0.00     0.165 HD
BRANCH  17  19
HETATM   19  C5  UNL     1     -30.105  -3.064  -1.187  1.00  0.00    -0.009 C 
HETATM   20  C6  UNL     1     -28.693  -2.602  -1.309  1.00  0.00     0.078 C 
HETATM   21  C7  UNL     1     -28.641  -1.306  -2.076  1.00  0.00     0.174 C 
HETATM   22  O1  UNL     1     -29.544  -0.348  -1.722  1.00  0.00    -0.380 OA
HETATM   23  C8  UNL     1     -30.821  -0.686  -1.464  1.00  0.00     0.058 C 
HETATM   24  C9  UNL     1     -31.752   0.064  -2.439  1.00  0.00     0.046 C 
HETATM   25  C10 UNL     1     -31.191  -0.205  -0.067  1.00  0.00     0.046 C 
HETATM   26  C11 UNL     1     -31.157  -2.140  -1.643  1.00  0.00     0.089 C 
ENDBRANCH  17  19
ENDBRANCH  16  17
ENDBRANCH  10  16
ENDBRANCH   1   9
TORSDOF 4
ENDMDL
MODEL 5
REMARK VINA RESULT: -7.309582890      1.149      1.490
REMARK  4 active torsions:
REMARK  status: ('A' for Active; 'I' for Inactive)
REMARK    1  A    between atoms: C3_5  and  C4_6 
REMARK    2  A    between atoms: C4_6  and  N2_7 
REMARK    3  A    between atoms: N2_7  and  C5_9 
REMARK    4  A    between atoms: C12_17  and  C13_18 
ROOT
HETATM    1  C13 UNL     1     -30.613  -3.530   3.233  1.00  0.00     0.101 C 
HETATM    2  C14 UNL     1     -29.448  -3.818   2.320  1.00  0.00     0.202 C 
HETATM    3  N3  UNL     1     -29.199  -5.235   2.218  1.00  0.00    -0.312 N 
HETATM    4  C15 UNL     1     -28.593  -5.781   1.052  1.00  0.00     0.180 C 
HETATM    5  N4  UNL     1     -28.065  -6.206   0.121  1.00  0.00    -0.172 NA
HETATM    6  C16 UNL     1     -29.538  -6.088   3.341  1.00  0.00     0.161 C 
HETATM    7  C17 UNL     1     -30.753  -5.575   4.097  1.00  0.00     0.196 C 
HETATM    8  O2  UNL     1     -30.519  -4.189   4.420  1.00  0.00    -0.349 OA
ENDROOT
BRANCH   1   9
HETATM    9  C12 UNL     1     -31.159  -2.185   3.188  1.00  0.00     0.136 A 
HETATM   10  C3  UNL     1     -31.720  -1.545   2.078  1.00  0.00     0.086 A 
HETATM   11  N1  UNL     1     -32.066  -0.337   2.500  1.00  0.00    -0.337 N 
HETATM   12  C2  UNL     1     -31.744  -0.211   3.803  1.00  0.00     0.121 A 
ATOM     13  H1  UNL     1     -32.507   0.384   1.930  1.00  0.00     0.168 HD
HETATM   14  C1  UNL     1     -31.950   0.999   4.677  1.00  0.00     0.098 C 
HETATM   15  O3  UNL     1     -31.207  -1.334   4.181  1.00  0.00    -0.293 OA
BRANCH  10  16
HETATM   16  C4  UNL     1     -31.793  -2.198   0.766  1.00  0.00     0.120 C 
BRANCH  16  17
HETATM   17  N2  UNL     1     -30.711  -1.961  -0.105  1.00  0.00    -0.370 N 
ATOM     18  H2  UNL     1     -29.756  -2.045   0.241  1.00  0.00     0.165 HD
BRANCH  17  19
HETATM   19  C5  UNL     1     -30.937  -1.608  -1.452  1.00  0.00    -0.009 C 
HETATM   20  C6  UNL     1     -29.748  -0.936  -2.048  1.00  0.00     0.078 C 
HETATM   21  C7  UNL     1     -30.187   0.048  -3.101  1.00  0.00     0.174 C 
HETATM   22  O1  UNL     1     -31.225   0.870  -2.776  1.00  0.00    -0.380 OA
HETATM   23  C8  UNL     1     -32.294   0.383  -2.120  1.00  0.00     0.058 C 
HETATM   24  C9  UNL     1     -33.559   0.600  -2.975  1.00  0.00     0.046 C 
HETATM   25  C10 UNL     1     -32.501   1.184  -0.841  1.00  0.00     0.046 C 
HETATM   26  C11 UNL     1     -32.263  -1.093  -1.836  1.00  0.00     0.089 C 
ENDBRANCH  17  19
ENDBRANCH  16  17
ENDBRANCH  10  16
ENDBRANCH   1   9
TORSDOF 4
ENDMDL
