MODEL 1
REMARK VINA RESULT: -7.819521005      0.000      0.000
REMARK  5 active torsions:
REMARK  status: ('A' for Active; 'I' for Inactive)
REMARK    1  A    between atoms: C2_2  and  C4_4 
REMARK    2  A    between atoms: C5_7  and  N2_8 
REMARK    3  A    between atoms: C8_12  and  C9_13 
REMARK    4  A    between atoms: C9_13  and  O2_15 
REMARK    5  A    between atoms: C12_22  and  N5_23 
ROOT
HETATM    1  C4  UNL     1     -30.417   0.092  -1.041  1.00  0.00     0.075 A 
HETATM    2  N1  UNL     1     -29.821  -1.138  -1.153  1.00  0.00    -0.190 N 
ATOM      3  H1  UNL     1     -29.251  -1.331  -1.977  1.00  0.00     0.184 HD
HETATM    4  C5  UNL     1     -29.955  -2.100  -0.226  1.00  0.00     0.695 A 
HETATM    5  N3  UNL     1     -30.723  -1.804   0.860  1.00  0.00    -0.130 N 
ATOM      6  H3  UNL     1     -30.854  -2.502   1.591  1.00  0.00     0.205 HD
HETATM    7  N4  UNL     1     -31.299  -0.623   0.973  1.00  0.00    -0.270 N 
ATOM      8  H4  UNL     1     -31.867  -0.443   1.801  1.00  0.00     0.189 HD
HETATM    9  C12 UNL     1     -31.182   0.361   0.059  1.00  0.00     0.142 A 
ENDROOT
BRANCH   4  10
HETATM   10  N2  UNL     1     -29.325  -3.347  -0.383  1.00  0.00    -0.212 N 
HETATM   11  C6  UNL     1     -29.461  -4.348   0.631  1.00  0.00     0.167 C 
HETATM   12  C7  UNL     1     -28.994  -5.713   0.185  1.00  0.00     0.188 C 
HETATM   13  O1  UNL     1     -29.126  -5.933  -1.154  1.00  0.00    -0.380 OA
HETATM   14  C8  UNL     1     -28.543  -5.040  -1.996  1.00  0.00     0.168 C 
HETATM   15  C11 UNL     1     -28.551  -3.609  -1.557  1.00  0.00     0.175 C 
BRANCH  14  16
HETATM   16  C9  UNL     1     -27.123  -5.447  -2.397  1.00  0.00     0.144 C 
HETATM   17  C10 UNL     1     -26.219  -4.250  -2.265  1.00  0.00     0.042 C 
BRANCH  16  18
HETATM   18  O2  UNL     1     -26.684  -6.554  -1.708  1.00  0.00    -0.393 OA
ATOM     19  H2  UNL     1     -25.744  -6.544  -1.573  1.00  0.00     0.210 HD
ENDBRANCH  16  18
ENDBRANCH  14  16
ENDBRANCH   4  10
BRANCH   1  20
HETATM   20  C2  UNL     1     -30.215   1.089  -2.128  1.00  0.00     0.032 C 
HETATM   21  C1  UNL     1     -28.922   1.870  -1.832  1.00  0.00     0.016 C 
HETATM   22  C3  UNL     1     -29.963   0.403  -3.459  1.00  0.00     0.016 C 
ENDBRANCH   1  20
BRANCH   9  23
HETATM   23  N5  UNL     1     -31.803   1.615   0.212  1.00  0.00    -0.365 N 
HETATM   24  C13 UNL     1     -33.132   1.805  -0.326  1.00  0.00     0.124 C 
HETATM   25  C14 UNL     1     -33.068   3.074  -1.168  1.00  0.00     0.020 C 
HETATM   26  C15 UNL     1     -32.612   4.240  -0.348  1.00  0.00     0.003 C 
HETATM   27  C16 UNL     1     -32.201   3.808   1.035  1.00  0.00     0.020 C 
HETATM   28  C17 UNL     1     -31.160   2.709   0.880  1.00  0.00     0.124 C 
ENDBRANCH   9  23
TORSDOF 5
ENDMDL
MODEL 2
REMARK VINA RESULT: -7.774979246      1.553      1.772
REMARK  5 active torsions:
REMARK  status: ('A' for Active; 'I' for Inactive)
REMARK    1  A    between atoms: C2_2  and  C4_4 
REMARK    2  A    between atoms: C5_7  and  N2_8 
REMARK    3  A    between atoms: C8_12  and  C9_13 
REMARK    4  A    between atoms: C9_13  and  O2_15 
REMARK    5  A    between atoms: C12_22  and  N5_23 
ROOT
HETATM    1  C4  UNL     1     -31.419  -0.395  -1.658  1.00  0.00     0.075 A 
HETATM    2  N1  UNL     1     -30.529  -1.431  -1.532  1.00  0.00    -0.190 N 
ATOM      3  H1  UNL     1     -29.586  -1.312  -1.903  1.00  0.00     0.184 HD
HETATM    4  C5  UNL     1     -30.844  -2.595  -0.942  1.00  0.00     0.695 A 
HETATM    5  N3  UNL     1     -32.112  -2.715  -0.459  1.00  0.00    -0.130 N 
ATOM      6  H3  UNL     1     -32.398  -3.580  -0.002  1.00  0.00     0.205 HD
HETATM    7  N4  UNL     1     -32.973  -1.723  -0.577  1.00  0.00    -0.270 N 
ATOM      8  H4  UNL     1     -33.912  -1.855  -0.203  1.00  0.00     0.189 HD
HETATM    9  C12 UNL     1     -32.684  -0.544  -1.164  1.00  0.00     0.142 A 
ENDROOT
BRANCH   4  10
HETATM   10  N2  UNL     1     -29.897  -3.630  -0.835  1.00  0.00    -0.212 N 
HETATM   11  C6  UNL     1     -29.773  -4.358   0.391  1.00  0.00     0.167 C 
HETATM   12  C7  UNL     1     -28.948  -5.616   0.253  1.00  0.00     0.188 C 
HETATM   13  O1  UNL     1     -28.997  -6.177  -0.988  1.00  0.00    -0.380 OA
HETATM   14  C8  UNL     1     -28.665  -5.389  -2.045  1.00  0.00     0.168 C 
HETATM   15  C11 UNL     1     -29.065  -3.949  -1.953  1.00  0.00     0.175 C 
BRANCH  14  16
HETATM   16  C9  UNL     1     -27.182  -5.487  -2.412  1.00  0.00     0.144 C 
HETATM   17  C10 UNL     1     -26.552  -4.129  -2.258  1.00  0.00     0.042 C 
BRANCH  16  18
HETATM   18  O2  UNL     1     -26.538  -6.482  -1.714  1.00  0.00    -0.393 OA
ATOM     19  H2  UNL     1     -25.613  -6.298  -1.596  1.00  0.00     0.210 HD
ENDBRANCH  16  18
ENDBRANCH  14  16
ENDBRANCH   4  10
BRANCH   1  20
HETATM   20  C2  UNL     1     -30.975   0.853  -2.338  1.00  0.00     0.032 C 
HETATM   21  C1  UNL     1     -30.123   1.665  -1.345  1.00  0.00     0.016 C 
HETATM   22  C3  UNL     1     -30.043   0.545  -3.495  1.00  0.00     0.016 C 
ENDBRANCH   1  20
BRANCH   9  23
HETATM   23  N5  UNL     1     -33.623   0.500  -1.269  1.00  0.00    -0.365 N 
HETATM   24  C13 UNL     1     -34.525   0.516  -2.399  1.00  0.00     0.124 C 
HETATM   25  C14 UNL     1     -34.420   1.912  -3.002  1.00  0.00     0.020 C 
HETATM   26  C15 UNL     1     -34.757   2.960  -1.989  1.00  0.00     0.003 C 
HETATM   27  C16 UNL     1     -34.957   2.357  -0.623  1.00  0.00     0.020 C 
HETATM   28  C17 UNL     1     -33.710   1.549  -0.294  1.00  0.00     0.124 C 
ENDBRANCH   9  23
TORSDOF 5
ENDMDL
MODEL 3
REMARK VINA RESULT: -7.617232370      1.824      2.370
REMARK  5 active torsions:
REMARK  status: ('A' for Active; 'I' for Inactive)
REMARK    1  A    between atoms: C2_2  and  C4_4 
REMARK    2  A    between atoms: C5_7  and  N2_8 
REMARK    3  A    between atoms: C8_12  and  C9_13 
REMARK    4  A    between atoms: C9_13  and  O2_15 
REMARK    5  A    between atoms: C12_22  and  N5_23 
ROOT
HETATM    1  C4  UNL     1     -31.462  -0.472  -1.837  1.00  0.00     0.075 A 
HETATM    2  N1  UNL     1     -30.537  -1.459  -1.613  1.00  0.00    -0.190 N 
ATOM      3  H1  UNL     1     -29.562  -1.277  -1.852  1.00  0.00     0.184 HD
HETATM    4  C5  UNL     1     -30.858  -2.653  -1.092  1.00  0.00     0.695 A 
HETATM    5  N3  UNL     1     -32.170  -2.857  -0.785  1.00  0.00    -0.130 N 
ATOM      6  H3  UNL     1     -32.463  -3.749  -0.386  1.00  0.00     0.205 HD
HETATM    7  N4  UNL     1     -33.065  -1.912  -0.999  1.00  0.00    -0.270 N 
ATOM      8  H4  UNL     1     -34.036  -2.107  -0.756  1.00  0.00     0.189 HD
HETATM    9  C12 UNL     1     -32.771  -0.704  -1.520  1.00  0.00     0.142 A 
ENDROOT
BRANCH   4  10
HETATM   10  N2  UNL     1     -29.875  -3.636  -0.878  1.00  0.00    -0.212 N 
HETATM   11  C6  UNL     1     -29.696  -4.194   0.428  1.00  0.00     0.167 C 
HETATM   12  C7  UNL     1     -28.832  -5.432   0.431  1.00  0.00     0.188 C 
HETATM   13  O1  UNL     1     -28.892  -6.153  -0.724  1.00  0.00    -0.380 OA
HETATM   14  C8  UNL     1     -28.614  -5.500  -1.884  1.00  0.00     0.168 C 
HETATM   15  C11 UNL     1     -29.060  -4.074  -1.969  1.00  0.00     0.175 C 
BRANCH  14  16
HETATM   16  C9  UNL     1     -27.138  -5.601  -2.279  1.00  0.00     0.144 C 
HETATM   17  C10 UNL     1     -26.503  -4.244  -2.134  1.00  0.00     0.042 C 
BRANCH  16  18
HETATM   18  O2  UNL     1     -26.483  -6.598  -1.593  1.00  0.00    -0.393 OA
ATOM     19  H2  UNL     1     -25.818  -6.255  -1.008  1.00  0.00     0.210 HD
ENDBRANCH  16  18
ENDBRANCH  14  16
ENDBRANCH   4  10
BRANCH   1  20
HETATM   20  C2  UNL     1     -31.007   0.817  -2.428  1.00  0.00     0.032 C 
HETATM   21  C1  UNL     1     -30.288   1.623  -1.331  1.00  0.00     0.016 C 
HETATM   22  C3  UNL     1     -29.957   0.588  -3.499  1.00  0.00     0.016 C 
ENDBRANCH   1  20
BRANCH   9  23
HETATM   23  N5  UNL     1     -33.747   0.288  -1.730  1.00  0.00    -0.365 N 
HETATM   24  C13 UNL     1     -34.229   1.044  -0.594  1.00  0.00     0.124 C 
HETATM   25  C14 UNL     1     -35.750   0.968  -0.653  1.00  0.00     0.020 C 
HETATM   26  C15 UNL     1     -36.264   1.502  -1.953  1.00  0.00     0.003 C 
HETATM   27  C16 UNL     1     -35.135   1.823  -2.897  1.00  0.00     0.020 C 
HETATM   28  C17 UNL     1     -34.282   0.570  -3.031  1.00  0.00     0.124 C 
ENDBRANCH   9  23
TORSDOF 5
ENDMDL
MODEL 4
REMARK VINA RESULT: -7.552367571      4.608      7.751
REMARK  5 active torsions:
REMARK  status: ('A' for Active; 'I' for Inactive)
REMARK    1  A    between atoms: C2_2  and  C4_4 
REMARK    2  A    between atoms: C5_7  and  N2_8 
REMARK    3  A    between atoms: C8_12  and  C9_13 
REMARK    4  A    between atoms: C9_13  and  O2_15 
REMARK    5  A    between atoms: C12_22  and  N5_23 
ROOT
HETATM    1  C4  UNL     1     -30.366  -3.570   0.782  1.00  0.00     0.075 A 
HETATM    2  N1  UNL     1     -31.503  -3.287   1.495  1.00  0.00    -0.190 N 
ATOM      3  H1  UNL     1     -31.482  -3.393   2.509  1.00  0.00     0.184 HD
HETATM    4  C5  UNL     1     -32.642  -2.876   0.916  1.00  0.00     0.695 A 
HETATM    5  N3  UNL     1     -32.631  -2.746  -0.440  1.00  0.00    -0.130 N 
ATOM      6  H3  UNL     1     -33.473  -2.436  -0.925  1.00  0.00     0.205 HD
HETATM    7  N4  UNL     1     -31.541  -3.017  -1.132  1.00  0.00    -0.270 N 
ATOM      8  H4  UNL     1     -31.576  -2.908  -2.145  1.00  0.00     0.189 HD
HETATM    9  C12 UNL     1     -30.384  -3.430  -0.578  1.00  0.00     0.142 A 
ENDROOT
BRANCH   4  10
HETATM   10  N2  UNL     1     -33.785  -2.597   1.688  1.00  0.00    -0.212 N 
HETATM   11  C6  UNL     1     -34.993  -2.175   1.047  1.00  0.00     0.167 C 
HETATM   12  C7  UNL     1     -36.194  -2.212   1.962  1.00  0.00     0.188 C 
HETATM   13  O1  UNL     1     -36.117  -3.159   2.938  1.00  0.00    -0.380 OA
HETATM   14  C8  UNL     1     -35.026  -3.136   3.749  1.00  0.00     0.168 C 
HETATM   15  C11 UNL     1     -33.732  -2.737   3.110  1.00  0.00     0.175 C 
BRANCH  14  16
HETATM   16  C9  UNL     1     -35.249  -2.310   5.018  1.00  0.00     0.144 C 
HETATM   17  C10 UNL     1     -36.523  -2.768   5.677  1.00  0.00     0.042 C 
BRANCH  16  18
HETATM   18  O2  UNL     1     -34.154  -2.327   5.850  1.00  0.00    -0.393 OA
ATOM     19  H2  UNL     1     -34.303  -1.836   6.650  1.00  0.00     0.210 HD
ENDBRANCH  16  18
ENDBRANCH  14  16
ENDBRANCH   4  10
BRANCH   1  20
HETATM   20  C2  UNL     1     -29.154  -4.027   1.516  1.00  0.00     0.032 C 
HETATM   21  C1  UNL     1     -29.154  -3.366   2.906  1.00  0.00     0.016 C 
HETATM   22  C3  UNL     1     -29.212  -5.519   1.791  1.00  0.00     0.016 C 
ENDBRANCH   1  20
BRANCH   9  23
HETATM   23  N5  UNL     1     -29.234  -3.704  -1.342  1.00  0.00    -0.365 N 
HETATM   24  C13 UNL     1     -29.119  -4.992  -1.993  1.00  0.00     0.124 C 
HETATM   25  C14 UNL     1     -27.753  -5.541  -1.600  1.00  0.00     0.020 C 
HETATM   26  C15 UNL     1     -26.660  -4.600  -2.001  1.00  0.00     0.003 C 
HETATM   27  C16 UNL     1     -27.221  -3.311  -2.541  1.00  0.00     0.020 C 
HETATM   28  C17 UNL     1     -28.172  -2.752  -1.493  1.00  0.00     0.124 C 
ENDBRANCH   9  23
TORSDOF 5
ENDMDL
MODEL 5
REMARK VINA RESULT: -7.287999107      4.800      7.782
REMARK  5 active torsions:
REMARK  status: ('A' for Active; 'I' for Inactive)
REMARK    1  A    between atoms: C2_2  and  C4_4 
REMARK    2  A    between atoms: C5_7  and  N2_8 
REMARK    3  A    between atoms: C8_12  and  C9_13 
REMARK    4  A    between atoms: C9_13  and  O2_15 
REMARK    5  A    between atoms: C12_22  and  N5_23 
ROOT
HETATM    1  C4  UNL     1     -30.392  -3.710   0.973  1.00  0.00     0.075 A 
HETATM    2  N1  UNL     1     -31.522  -3.541   1.731  1.00  0.00    -0.190 N 
ATOM      3  H1  UNL     1     -31.466  -3.715   2.735  1.00  0.00     0.184 HD
HETATM    4  C5  UNL     1     -32.698  -3.158   1.211  1.00  0.00     0.695 A 
HETATM    5  N3  UNL     1     -32.732  -2.936  -0.133  1.00  0.00    -0.130 N 
ATOM      6  H3  UNL     1     -33.603  -2.642  -0.575  1.00  0.00     0.205 HD
HETATM    7  N4  UNL     1     -31.649  -3.096  -0.868  1.00  0.00    -0.270 N 
ATOM      8  H4  UNL     1     -31.718  -2.920  -1.870  1.00  0.00     0.189 HD
HETATM    9  C12 UNL     1     -30.455  -3.479  -0.373  1.00  0.00     0.142 A 
ENDROOT
BRANCH   4  10
HETATM   10  N2  UNL     1     -33.832  -2.998   2.028  1.00  0.00    -0.212 N 
HETATM   11  C6  UNL     1     -33.748  -3.282   3.428  1.00  0.00     0.167 C 
HETATM   12  C7  UNL     1     -34.938  -2.776   4.209  1.00  0.00     0.188 C 
HETATM   13  O1  UNL     1     -35.524  -1.669   3.669  1.00  0.00    -0.380 OA
HETATM   14  C8  UNL     1     -35.926  -1.743   2.373  1.00  0.00     0.168 C 
HETATM   15  C11 UNL     1     -35.063  -2.550   1.454  1.00  0.00     0.175 C 
BRANCH  14  16
HETATM   16  C9  UNL     1     -37.384  -2.188   2.231  1.00  0.00     0.144 C 
HETATM   17  C10 UNL     1     -38.229  -0.984   1.909  1.00  0.00     0.042 C 
BRANCH  16  18
HETATM   18  O2  UNL     1     -37.528  -3.224   1.338  1.00  0.00    -0.393 OA
ATOM     19  H2  UNL     1     -37.800  -2.923   0.479  1.00  0.00     0.210 HD
ENDBRANCH  16  18
ENDBRANCH  14  16
ENDBRANCH   4  10
BRANCH   1  20
HETATM   20  C2  UNL     1     -29.136  -4.146   1.644  1.00  0.00     0.032 C 
HETATM   21  C1  UNL     1     -29.151  -3.613   3.088  1.00  0.00     0.016 C 
HETATM   22  C3  UNL     1     -29.088  -5.657   1.784  1.00  0.00     0.016 C 
ENDBRANCH   1  20
BRANCH   9  23
HETATM   23  N5  UNL     1     -29.314  -3.635  -1.181  1.00  0.00    -0.365 N 
HETATM   24  C13 UNL     1     -29.156  -4.859  -1.937  1.00  0.00     0.124 C 
HETATM   25  C14 UNL     1     -27.755  -5.370  -1.620  1.00  0.00     0.020 C 
HETATM   26  C15 UNL     1     -26.719  -4.348  -1.968  1.00  0.00     0.003 C 
HETATM   27  C16 UNL     1     -27.353  -3.048  -2.389  1.00  0.00     0.020 C 
HETATM   28  C17 UNL     1     -28.303  -2.622  -1.279  1.00  0.00     0.124 C 
ENDBRANCH   9  23
TORSDOF 5
ENDMDL
