MODEL 1
REMARK VINA RESULT: -6.625639177      0.000      0.000
REMARK  4 active torsions:
REMARK  status: ('A' for Active; 'I' for Inactive)
REMARK    1  A    between atoms: C13_15  and  O3_16 
REMARK    2  A    between atoms: O3_16  and  C14_17 
REMARK    3  A    between atoms: C14_17  and  C15_18 
REMARK    4  A    between atoms: C15_18  and  O4_19 
ROOT
HETATM    1  C1  UNL     1     -30.120   0.384  -3.739  1.00  0.00     0.043 C 
HETATM    2  C2  UNL     1     -30.173  -0.554  -2.572  1.00  0.00    -0.086 C 
HETATM    3  C3  UNL     1     -29.039  -1.028  -2.076  1.00  0.00    -0.024 C 
HETATM    4  C4  UNL     1     -29.080  -1.941  -0.942  1.00  0.00     0.027 C 
HETATM    5  C5  UNL     1     -29.010  -3.400  -1.301  1.00  0.00     0.004 C 
HETATM    6  C6  UNL     1     -29.829  -4.257  -0.398  1.00  0.00     0.001 C 
HETATM    7  C7  UNL     1     -29.292  -4.464   0.959  1.00  0.00     0.008 C 
HETATM    8  C8  UNL     1     -29.743  -3.469   1.993  1.00  0.00     0.087 C 
HETATM    9  C9  UNL     1     -31.201  -3.526   2.225  1.00  0.00     0.195 C 
HETATM   10  O1  UNL     1     -31.722  -4.693   2.196  1.00  0.00    -0.289 OA
HETATM   11  C10 UNL     1     -32.042  -2.375   2.474  1.00  0.00     0.203 C 
HETATM   12  O2  UNL     1     -33.165  -2.590   3.009  1.00  0.00    -0.289 OA
HETATM   13  C11 UNL     1     -31.698  -0.981   2.157  1.00  0.00     0.115 C 
HETATM   14  C12 UNL     1     -31.699  -0.194   3.473  1.00  0.00     0.023 C 
HETATM   15  C13 UNL     1     -32.716  -0.309   1.267  1.00  0.00     0.270 C 
HETATM   16  O5  UNL     1     -32.705  -0.736  -0.028  1.00  0.00    -0.360 OA
HETATM   17  C16 UNL     1     -31.921   0.026  -0.885  1.00  0.00     0.175 C 
HETATM   18  C17 UNL     1     -31.501  -0.920  -2.014  1.00  0.00     0.059 C 
ENDROOT
BRANCH  15  19
HETATM   19  O3  UNL     1     -33.980  -0.631   1.804  1.00  0.00    -0.358 OA
BRANCH  19  20
HETATM   20  C14 UNL     1     -34.990  -0.414   0.881  1.00  0.00     0.197 C 
BRANCH  20  21
HETATM   21  C15 UNL     1     -35.841  -1.667   0.847  1.00  0.00     0.190 C 
BRANCH  21  22
HETATM   22  O4  UNL     1     -35.021  -2.781   0.656  1.00  0.00    -0.399 OA
ATOM     23  H4  UNL     1     -35.499  -3.449   0.180  1.00  0.00     0.209 HD
ENDBRANCH  21  22
ENDBRANCH  20  21
ENDBRANCH  19  20
ENDBRANCH  15  19
TORSDOF 4
ENDMDL
MODEL 2
REMARK VINA RESULT: -6.380975592      2.526      5.375
REMARK  4 active torsions:
REMARK  status: ('A' for Active; 'I' for Inactive)
REMARK    1  A    between atoms: C13_15  and  O3_16 
REMARK    2  A    between atoms: O3_16  and  C14_17 
REMARK    3  A    between atoms: C14_17  and  C15_18 
REMARK    4  A    between atoms: C15_18  and  O4_19 
ROOT
HETATM    1  C1  UNL     1     -31.351   2.485  -1.578  1.00  0.00     0.043 C 
HETATM    2  C2  UNL     1     -31.321   1.240  -0.745  1.00  0.00    -0.086 C 
HETATM    3  C3  UNL     1     -32.456   0.778  -0.239  1.00  0.00    -0.024 C 
HETATM    4  C4  UNL     1     -32.438  -0.432   0.572  1.00  0.00     0.027 C 
HETATM    5  C5  UNL     1     -32.395  -0.197   2.057  1.00  0.00     0.004 C 
HETATM    6  C6  UNL     1     -31.589  -1.222   2.779  1.00  0.00     0.001 C 
HETATM    7  C7  UNL     1     -32.204  -2.555   2.909  1.00  0.00     0.008 C 
HETATM    8  C8  UNL     1     -31.887  -3.525   1.803  1.00  0.00     0.087 C 
HETATM    9  C9  UNL     1     -30.449  -3.853   1.745  1.00  0.00     0.195 C 
HETATM   10  O1  UNL     1     -29.856  -3.959   2.873  1.00  0.00    -0.289 OA
HETATM   11  C10 UNL     1     -29.698  -4.054   0.523  1.00  0.00     0.203 C 
HETATM   12  O2  UNL     1     -28.603  -4.676   0.618  1.00  0.00    -0.289 OA
HETATM   13  C11 UNL     1     -30.103  -3.596  -0.814  1.00  0.00     0.115 C 
HETATM   14  C12 UNL     1     -30.241  -4.835  -1.705  1.00  0.00     0.023 C 
HETATM   15  C13 UNL     1     -29.069  -2.717  -1.476  1.00  0.00     0.270 C 
HETATM   16  O5  UNL     1     -28.965  -1.466  -0.943  1.00  0.00    -0.360 OA
HETATM   17  C16 UNL     1     -29.732  -0.498  -1.578  1.00  0.00     0.175 C 
HETATM   18  C17 UNL     1     -30.015   0.569  -0.516  1.00  0.00     0.059 C 
ENDROOT
BRANCH  15  19
HETATM   19  O3  UNL     1     -27.828  -3.359  -1.284  1.00  0.00    -0.358 OA
BRANCH  19  20
HETATM   20  C14 UNL     1     -27.182  -3.580  -2.490  1.00  0.00     0.197 C 
BRANCH  20  21
HETATM   21  C15 UNL     1     -26.036  -4.531  -2.215  1.00  0.00     0.190 C 
BRANCH  21  22
HETATM   22  O4  UNL     1     -26.480  -5.571  -1.397  1.00  0.00    -0.399 OA
ATOM     23  H4  UNL     1     -26.357  -6.400  -1.843  1.00  0.00     0.209 HD
ENDBRANCH  21  22
ENDBRANCH  20  21
ENDBRANCH  19  20
ENDBRANCH  15  19
TORSDOF 4
ENDMDL
MODEL 3
REMARK VINA RESULT: -6.227366133      1.427      4.486
REMARK  4 active torsions:
REMARK  status: ('A' for Active; 'I' for Inactive)
REMARK    1  A    between atoms: C13_15  and  O3_16 
REMARK    2  A    between atoms: O3_16  and  C14_17 
REMARK    3  A    between atoms: C14_17  and  C15_18 
REMARK    4  A    between atoms: C15_18  and  O4_19 
ROOT
HETATM    1  C1  UNL     1     -28.642  -5.983   1.058  1.00  0.00     0.043 C 
HETATM    2  C2  UNL     1     -29.161  -4.711   0.460  1.00  0.00    -0.086 C 
HETATM    3  C3  UNL     1     -29.292  -4.626  -0.856  1.00  0.00    -0.024 C 
HETATM    4  C4  UNL     1     -29.796  -3.393  -1.447  1.00  0.00     0.027 C 
HETATM    5  C5  UNL     1     -28.735  -2.449  -1.943  1.00  0.00     0.004 C 
HETATM    6  C6  UNL     1     -29.105  -1.017  -1.756  1.00  0.00     0.001 C 
HETATM    7  C7  UNL     1     -30.137  -0.492  -2.667  1.00  0.00     0.008 C 
HETATM    8  C8  UNL     1     -31.554  -0.607  -2.176  1.00  0.00     0.087 C 
HETATM    9  C9  UNL     1     -31.788   0.189  -0.954  1.00  0.00     0.195 C 
HETATM   10  O1  UNL     1     -31.186   1.316  -0.900  1.00  0.00    -0.289 OA
HETATM   11  C10 UNL     1     -32.630  -0.223   0.150  1.00  0.00     0.203 C 
HETATM   12  O2  UNL     1     -33.027   0.681   0.936  1.00  0.00    -0.289 OA
HETATM   13  C11 UNL     1     -33.060  -1.601   0.428  1.00  0.00     0.115 C 
HETATM   14  C12 UNL     1     -34.591  -1.628   0.367  1.00  0.00     0.023 C 
HETATM   15  C13 UNL     1     -32.688  -2.066   1.816  1.00  0.00     0.270 C 
HETATM   16  O5  UNL     1     -31.358  -2.314   1.992  1.00  0.00    -0.360 OA
HETATM   17  C16 UNL     1     -30.982  -3.637   1.791  1.00  0.00     0.175 C 
HETATM   18  C17 UNL     1     -29.509  -3.589   1.370  1.00  0.00     0.059 C 
ENDROOT
BRANCH  15  19
HETATM   19  O3  UNL     1     -33.038  -1.017   2.689  1.00  0.00    -0.358 OA
BRANCH  19  20
HETATM   20  C14 UNL     1     -32.584  -1.258   3.976  1.00  0.00     0.197 C 
BRANCH  20  21
HETATM   21  C15 UNL     1     -31.897   0.005   4.452  1.00  0.00     0.190 C 
BRANCH  21  22
HETATM   22  O4  UNL     1     -31.173   0.566   3.399  1.00  0.00    -0.399 OA
ATOM     23  H4  UNL     1     -31.763   1.037   2.823  1.00  0.00     0.209 HD
ENDBRANCH  21  22
ENDBRANCH  20  21
ENDBRANCH  19  20
ENDBRANCH  15  19
TORSDOF 4
ENDMDL
MODEL 4
REMARK VINA RESULT: -6.117751660      1.977      4.425
REMARK  4 active torsions:
REMARK  status: ('A' for Active; 'I' for Inactive)
REMARK    1  A    between atoms: C13_15  and  O3_16 
REMARK    2  A    between atoms: O3_16  and  C14_17 
REMARK    3  A    between atoms: C14_17  and  C15_18 
REMARK    4  A    between atoms: C15_18  and  O4_19 
ROOT
HETATM    1  C1  UNL     1     -29.389   0.094  -3.791  1.00  0.00     0.043 C 
HETATM    2  C2  UNL     1     -29.933   0.247  -2.404  1.00  0.00    -0.086 C 
HETATM    3  C3  UNL     1     -30.777   1.238  -2.150  1.00  0.00    -0.024 C 
HETATM    4  C4  UNL     1     -31.311   1.395  -0.805  1.00  0.00     0.027 C 
HETATM    5  C5  UNL     1     -30.584   2.395   0.053  1.00  0.00     0.004 C 
HETATM    6  C6  UNL     1     -30.532   1.995   1.487  1.00  0.00     0.001 C 
HETATM    7  C7  UNL     1     -31.793   2.120   2.239  1.00  0.00     0.008 C 
HETATM    8  C8  UNL     1     -32.670   0.898   2.244  1.00  0.00     0.087 C 
HETATM    9  C9  UNL     1     -32.024  -0.249   2.914  1.00  0.00     0.195 C 
HETATM   10  O1  UNL     1     -31.320   0.033   3.944  1.00  0.00    -0.289 OA
HETATM   11  C10 UNL     1     -32.139  -1.627   2.484  1.00  0.00     0.203 C 
HETATM   12  O2  UNL     1     -31.855  -2.518   3.332  1.00  0.00    -0.289 OA
HETATM   13  C11 UNL     1     -32.557  -2.072   1.147  1.00  0.00     0.115 C 
HETATM   14  C12 UNL     1     -33.826  -2.915   1.317  1.00  0.00     0.023 C 
HETATM   15  C13 UNL     1     -31.543  -2.971   0.480  1.00  0.00     0.270 C 
HETATM   16  O5  UNL     1     -30.417  -2.333   0.051  1.00  0.00    -0.360 OA
HETATM   17  C16 UNL     1     -30.453  -1.920  -1.276  1.00  0.00     0.175 C 
HETATM   18  C17 UNL     1     -29.503  -0.720  -1.362  1.00  0.00     0.059 C 
ENDROOT
BRANCH  15  19
HETATM   19  O3  UNL     1     -31.148  -3.908   1.456  1.00  0.00    -0.358 OA
BRANCH  19  20
HETATM   20  C14 UNL     1     -29.845  -4.333   1.250  1.00  0.00     0.197 C 
BRANCH  20  21
HETATM   21  C15 UNL     1     -29.080  -4.065   2.530  1.00  0.00     0.190 C 
BRANCH  21  22
HETATM   22  O4  UNL     1     -28.728  -2.716   2.588  1.00  0.00    -0.399 OA
ATOM     23  H4  UNL     1     -29.383  -2.197   2.136  1.00  0.00     0.209 HD
ENDBRANCH  21  22
ENDBRANCH  20  21
ENDBRANCH  19  20
ENDBRANCH  15  19
TORSDOF 4
ENDMDL
MODEL 5
REMARK VINA RESULT: -6.092144893      2.151      3.293
REMARK  4 active torsions:
REMARK  status: ('A' for Active; 'I' for Inactive)
REMARK    1  A    between atoms: C13_15  and  O3_16 
REMARK    2  A    between atoms: O3_16  and  C14_17 
REMARK    3  A    between atoms: C14_17  and  C15_18 
REMARK    4  A    between atoms: C15_18  and  O4_19 
ROOT
HETATM    1  C1  UNL     1     -31.972   4.568  -0.573  1.00  0.00     0.043 C 
HETATM    2  C2  UNL     1     -31.546   3.147  -0.778  1.00  0.00    -0.086 C 
HETATM    3  C3  UNL     1     -30.259   2.880  -0.952  1.00  0.00    -0.024 C 
HETATM    4  C4  UNL     1     -29.835   1.501  -1.152  1.00  0.00     0.027 C 
HETATM    5  C5  UNL     1     -29.652   1.097  -2.589  1.00  0.00     0.004 C 
HETATM    6  C6  UNL     1     -30.038  -0.319  -2.844  1.00  0.00     0.001 C 
HETATM    7  C7  UNL     1     -29.110  -1.345  -2.335  1.00  0.00     0.008 C 
HETATM    8  C8  UNL     1     -29.390  -1.837  -0.941  1.00  0.00     0.087 C 
HETATM    9  C9  UNL     1     -30.693  -2.525  -0.843  1.00  0.00     0.195 C 
HETATM   10  O1  UNL     1     -31.019  -3.244  -1.849  1.00  0.00    -0.289 OA
HETATM   11  C10 UNL     1     -31.591  -2.433   0.288  1.00  0.00     0.203 C 
HETATM   12  O2  UNL     1     -32.467  -3.334   0.400  1.00  0.00    -0.289 OA
HETATM   13  C11 UNL     1     -31.566  -1.380   1.314  1.00  0.00     0.115 C 
HETATM   14  C12 UNL     1     -31.308  -2.058   2.665  1.00  0.00     0.023 C 
HETATM   15  C13 UNL     1     -32.886  -0.660   1.453  1.00  0.00     0.270 C 
HETATM   16  O5  UNL     1     -33.183   0.181   0.422  1.00  0.00    -0.360 OA
HETATM   17  C16 UNL     1     -32.803   1.502   0.620  1.00  0.00     0.175 C 
HETATM   18  C17 UNL     1     -32.587   2.087  -0.779  1.00  0.00     0.059 C 
ENDROOT
BRANCH  15  19
HETATM   19  O3  UNL     1     -33.879  -1.661   1.478  1.00  0.00    -0.358 OA
BRANCH  19  20
HETATM   20  C14 UNL     1     -34.884  -1.354   2.381  1.00  0.00     0.197 C 
BRANCH  20  21
HETATM   21  C15 UNL     1     -35.150  -2.604   3.195  1.00  0.00     0.190 C 
BRANCH  21  22
HETATM   22  O4  UNL     1     -34.400  -3.663   2.680  1.00  0.00    -0.399 OA
ATOM     23  H4  UNL     1     -33.479  -3.514   2.856  1.00  0.00     0.209 HD
ENDBRANCH  21  22
ENDBRANCH  20  21
ENDBRANCH  19  20
ENDBRANCH  15  19
TORSDOF 4
ENDMDL
