MODEL 1
REMARK VINA RESULT: -6.681937468      0.000      0.000
REMARK  3 active torsions:
REMARK  status: ('A' for Active; 'I' for Inactive)
REMARK    1  A    between atoms: C5_6  and  C7_8 
REMARK       I    between atoms: C7_8  and  N2_10 
REMARK    2  A    between atoms: N2_10  and  C8_12 
REMARK    3  A    between atoms: C12_16  and  C13_17 
ROOT
HETATM    1  C8  UNL     1     -29.695  -1.816  -1.688  1.00  0.00     0.157 C 
HETATM    2  C9  UNL     1     -28.318  -2.324  -2.258  1.00  0.00     0.116 C 
HETATM    3  C10 UNL     1     -28.099  -3.575  -1.634  1.00  0.00    -0.179 C 
HETATM    4  C11 UNL     1     -28.249  -4.742  -0.850  1.00  0.00     0.101 C 
HETATM    5  C12 UNL     1     -29.614  -4.551  -0.090  1.00  0.00     0.111 C 
HETATM    6  S2  UNL     1     -30.334  -2.950  -0.445  1.00  0.00    -0.131 SA
ENDROOT
BRANCH   1   7
HETATM    7  N2  UNL     1     -29.532  -0.484  -1.181  1.00  0.00    -0.345 N 
HETATM    8  C7  UNL     1     -30.645   0.391  -1.141  1.00  0.00     0.257 C 
HETATM    9  O1  UNL     1     -31.790   0.007  -1.551  1.00  0.00    -0.271 OA
ATOM     10  H2  UNL     1     -28.620  -0.169  -0.850  1.00  0.00     0.163 HD
BRANCH   8  11
HETATM   11  C5  UNL     1     -30.573   1.782  -0.636  1.00  0.00     0.235 C 
HETATM   12  N1  UNL     1     -30.310   1.872   0.757  1.00  0.00     0.102 N 
HETATM   13  C1  UNL     1     -31.456   1.697   1.603  1.00  0.00     0.311 C 
HETATM   14  C2  UNL     1     -29.795   3.211   0.973  1.00  0.00     0.273 C 
HETATM   15  C3  UNL     1     -29.081   3.564  -0.294  1.00  0.00     0.033 C 
HETATM   16  C4  UNL     1     -29.369   2.442  -1.273  1.00  0.00     0.053 C 
HETATM   17  C6  UNL     1     -31.800   2.547  -1.074  1.00  0.00     0.060 C 
ENDBRANCH   8  11
ENDBRANCH   1   7
BRANCH   5  18
HETATM   18  C13 UNL     1     -29.339  -4.728   1.390  1.00  0.00     0.047 A 
HETATM   19  C14 UNL     1     -29.023  -5.894   1.973  1.00  0.00     0.123 A 
HETATM   20  N3  UNL     1     -28.810  -5.879   3.290  1.00  0.00    -0.321 N 
HETATM   21  S1  UNL     1     -29.047  -4.269   3.707  1.00  0.00     0.067 SA
ATOM     22  H3  UNL     1     -28.562  -6.658   3.899  1.00  0.00     0.175 HD
HETATM   23  N4  UNL     1     -29.412  -3.658   2.187  1.00  0.00    -0.314 N 
ATOM     24  H4  UNL     1     -29.636  -2.696   1.932  1.00  0.00     0.175 HD
ENDBRANCH   5  18
TORSDOF 3
ENDMDL
MODEL 2
REMARK VINA RESULT: -6.388279238      4.278      6.916
REMARK  3 active torsions:
REMARK  status: ('A' for Active; 'I' for Inactive)
REMARK    1  A    between atoms: C5_6  and  C7_8 
REMARK       I    between atoms: C7_8  and  N2_10 
REMARK    2  A    between atoms: N2_10  and  C8_12 
REMARK    3  A    between atoms: C12_16  and  C13_17 
ROOT
HETATM    1  C8  UNL     1     -31.473  -3.364   1.972  1.00  0.00     0.157 C 
HETATM    2  C9  UNL     1     -31.154  -1.911   2.485  1.00  0.00     0.116 C 
HETATM    3  C10 UNL     1     -32.395  -1.392   2.923  1.00  0.00    -0.179 C 
HETATM    4  C11 UNL     1     -33.761  -1.251   3.256  1.00  0.00     0.101 C 
HETATM    5  C12 UNL     1     -34.427  -2.615   2.840  1.00  0.00     0.111 C 
HETATM    6  S2  UNL     1     -33.239  -3.701   2.055  1.00  0.00    -0.131 SA
ENDROOT
BRANCH   1   7
HETATM    7  N2  UNL     1     -30.948  -3.522   0.646  1.00  0.00    -0.345 N 
HETATM    8  C7  UNL     1     -29.675  -4.115   0.463  1.00  0.00     0.257 C 
HETATM    9  O1  UNL     1     -28.991  -4.511   1.465  1.00  0.00    -0.271 OA
ATOM     10  H2  UNL     1     -31.489  -3.209  -0.160  1.00  0.00     0.163 HD
BRANCH   8  11
HETATM   11  C5  UNL     1     -29.052  -4.319  -0.865  1.00  0.00     0.235 C 
HETATM   12  N1  UNL     1     -28.082  -3.336  -1.199  1.00  0.00     0.102 N 
HETATM   13  C1  UNL     1     -28.617  -2.108  -1.716  1.00  0.00     0.311 C 
HETATM   14  C2  UNL     1     -27.257  -3.933  -2.233  1.00  0.00     0.273 C 
HETATM   15  C3  UNL     1     -27.261  -5.400  -1.936  1.00  0.00     0.033 C 
HETATM   16  C4  UNL     1     -28.254  -5.605  -0.808  1.00  0.00     0.053 C 
HETATM   17  C6  UNL     1     -30.127  -4.493  -1.911  1.00  0.00     0.060 C 
ENDBRANCH   8  11
ENDBRANCH   1   7
BRANCH   5  18
HETATM   18  C13 UNL     1     -35.587  -2.292   1.920  1.00  0.00     0.047 A 
HETATM   19  C14 UNL     1     -36.842  -2.051   2.329  1.00  0.00     0.123 A 
HETATM   20  N3  UNL     1     -37.749  -1.781   1.388  1.00  0.00    -0.321 N 
HETATM   21  S1  UNL     1     -36.869  -1.864  -0.040  1.00  0.00     0.067 SA
ATOM     22  H3  UNL     1     -38.740  -1.574   1.508  1.00  0.00     0.175 HD
HETATM   23  N4  UNL     1     -35.365  -2.240   0.602  1.00  0.00    -0.314 N 
ATOM     24  H4  UNL     1     -34.488  -2.393   0.105  1.00  0.00     0.175 HD
ENDBRANCH   5  18
TORSDOF 3
ENDMDL
MODEL 3
REMARK VINA RESULT: -6.266633659      1.627      2.149
REMARK  3 active torsions:
REMARK  status: ('A' for Active; 'I' for Inactive)
REMARK    1  A    between atoms: C5_6  and  C7_8 
REMARK       I    between atoms: C7_8  and  N2_10 
REMARK    2  A    between atoms: N2_10  and  C8_12 
REMARK    3  A    between atoms: C12_16  and  C13_17 
ROOT
HETATM    1  C8  UNL     1     -30.555   0.164  -1.209  1.00  0.00     0.157 C 
HETATM    2  C9  UNL     1     -29.376  -0.212  -2.181  1.00  0.00     0.116 C 
HETATM    3  C10 UNL     1     -29.178  -1.601  -2.003  1.00  0.00    -0.179 C 
HETATM    4  C11 UNL     1     -29.301  -2.942  -1.572  1.00  0.00     0.101 C 
HETATM    5  C12 UNL     1     -30.468  -2.926  -0.515  1.00  0.00     0.111 C 
HETATM    6  S2  UNL     1     -31.065  -1.261  -0.236  1.00  0.00    -0.131 SA
ENDROOT
BRANCH   1   7
HETATM    7  N2  UNL     1     -30.156   1.272  -0.390  1.00  0.00    -0.345 N 
HETATM    8  C7  UNL     1     -30.864   2.496  -0.474  1.00  0.00     0.257 C 
HETATM    9  O1  UNL     1     -31.852   2.623  -1.269  1.00  0.00    -0.271 OA
ATOM     10  H2  UNL     1     -29.367   1.178   0.250  1.00  0.00     0.163 HD
BRANCH   8  11
HETATM   11  C5  UNL     1     -30.525   3.692   0.331  1.00  0.00     0.235 C 
HETATM   12  N1  UNL     1     -30.485   3.449   1.730  1.00  0.00     0.102 N 
HETATM   13  C1  UNL     1     -31.764   3.458   2.382  1.00  0.00     0.311 C 
HETATM   14  C2  UNL     1     -29.689   4.523   2.293  1.00  0.00     0.273 C 
HETATM   15  C3  UNL     1     -28.706   4.882   1.224  1.00  0.00     0.033 C 
HETATM   16  C4  UNL     1     -29.102   4.086  -0.005  1.00  0.00     0.053 C 
HETATM   17  C6  UNL     1     -31.423   4.842  -0.062  1.00  0.00     0.060 C 
ENDBRANCH   8  11
ENDBRANCH   1   7
BRANCH   5  18
HETATM   18  C13 UNL     1     -29.936  -3.554   0.758  1.00  0.00     0.047 A 
HETATM   19  C14 UNL     1     -29.438  -2.869   1.797  1.00  0.00     0.123 A 
HETATM   20  N3  UNL     1     -29.010  -3.577   2.845  1.00  0.00    -0.321 N 
HETATM   21  S1  UNL     1     -29.297  -5.167   2.388  1.00  0.00     0.067 SA
ATOM     22  H3  UNL     1     -28.606  -3.233   3.716  1.00  0.00     0.175 HD
HETATM   23  N4  UNL     1     -29.956  -4.887   0.870  1.00  0.00    -0.314 N 
ATOM     24  H4  UNL     1     -30.292  -5.571   0.193  1.00  0.00     0.175 HD
ENDBRANCH   5  18
TORSDOF 3
ENDMDL
MODEL 4
REMARK VINA RESULT: -6.191874439      1.644      2.411
REMARK  3 active torsions:
REMARK  status: ('A' for Active; 'I' for Inactive)
REMARK    1  A    between atoms: C5_6  and  C7_8 
REMARK       I    between atoms: C7_8  and  N2_10 
REMARK    2  A    between atoms: N2_10  and  C8_12 
REMARK    3  A    between atoms: C12_16  and  C13_17 
ROOT
HETATM    1  C8  UNL     1     -30.886  -1.385  -1.952  1.00  0.00     0.157 C 
HETATM    2  C9  UNL     1     -29.401  -0.989  -2.291  1.00  0.00     0.116 C 
HETATM    3  C10 UNL     1     -28.611  -2.052  -1.794  1.00  0.00    -0.179 C 
HETATM    4  C11 UNL     1     -28.193  -3.267  -1.205  1.00  0.00     0.101 C 
HETATM    5  C12 UNL     1     -29.518  -3.963  -0.718  1.00  0.00     0.111 C 
HETATM    6  S2  UNL     1     -30.942  -2.920  -1.012  1.00  0.00    -0.131 SA
ENDROOT
BRANCH   1   7
HETATM    7  N2  UNL     1     -31.519  -0.298  -1.263  1.00  0.00    -0.345 N 
HETATM    8  C7  UNL     1     -32.333   0.609  -1.985  1.00  0.00     0.257 C 
HETATM    9  O1  UNL     1     -32.509   0.469  -3.240  1.00  0.00    -0.271 OA
ATOM     10  H2  UNL     1     -31.384  -0.179  -0.259  1.00  0.00     0.163 HD
BRANCH   8  11
HETATM   11  C5  UNL     1     -33.025   1.760  -1.360  1.00  0.00     0.235 C 
HETATM   12  N1  UNL     1     -32.226   2.932  -1.277  1.00  0.00     0.102 N 
HETATM   13  C1  UNL     1     -31.317   2.966  -0.167  1.00  0.00     0.311 C 
HETATM   14  C2  UNL     1     -33.159   4.033  -1.123  1.00  0.00     0.273 C 
HETATM   15  C3  UNL     1     -34.390   3.606  -1.860  1.00  0.00     0.033 C 
HETATM   16  C4  UNL     1     -34.162   2.165  -2.274  1.00  0.00     0.053 C 
HETATM   17  C6  UNL     1     -33.627   1.338  -0.041  1.00  0.00     0.060 C 
ENDBRANCH   8  11
ENDBRANCH   1   7
BRANCH   5  18
HETATM   18  C13 UNL     1     -29.348  -4.283   0.754  1.00  0.00     0.047 A 
HETATM   19  C14 UNL     1     -29.063  -5.498   1.243  1.00  0.00     0.123 A 
HETATM   20  N3  UNL     1     -28.946  -5.610   2.568  1.00  0.00    -0.321 N 
HETATM   21  S1  UNL     1     -29.230  -4.050   3.120  1.00  0.00     0.067 SA
ATOM     22  H3  UNL     1     -28.735  -6.445   3.114  1.00  0.00     0.175 HD
HETATM   23  N4  UNL     1     -29.490  -3.295   1.643  1.00  0.00    -0.314 N 
ATOM     24  H4  UNL     1     -29.705  -2.314   1.467  1.00  0.00     0.175 HD
ENDBRANCH   5  18
TORSDOF 3
ENDMDL
MODEL 5
REMARK VINA RESULT: -6.112624538      1.892      2.365
REMARK  3 active torsions:
REMARK  status: ('A' for Active; 'I' for Inactive)
REMARK    1  A    between atoms: C5_6  and  C7_8 
REMARK       I    between atoms: C7_8  and  N2_10 
REMARK    2  A    between atoms: N2_10  and  C8_12 
REMARK    3  A    between atoms: C12_16  and  C13_17 
ROOT
HETATM    1  C8  UNL     1     -30.895  -1.153  -2.044  1.00  0.00     0.157 C 
HETATM    2  C9  UNL     1     -29.407  -0.736  -2.343  1.00  0.00     0.116 C 
HETATM    3  C10 UNL     1     -28.619  -1.808  -1.863  1.00  0.00    -0.179 C 
HETATM    4  C11 UNL     1     -28.203  -3.037  -1.304  1.00  0.00     0.101 C 
HETATM    5  C12 UNL     1     -29.531  -3.757  -0.862  1.00  0.00     0.111 C 
HETATM    6  S2  UNL     1     -30.958  -2.715  -1.151  1.00  0.00    -0.131 SA
ENDROOT
BRANCH   1   7
HETATM    7  N2  UNL     1     -31.549  -0.091  -1.335  1.00  0.00    -0.345 N 
HETATM    8  C7  UNL     1     -32.532   0.689  -1.992  1.00  0.00     0.257 C 
HETATM    9  O1  UNL     1     -32.842   0.456  -3.207  1.00  0.00    -0.271 OA
ATOM     10  H2  UNL     1     -31.308   0.101  -0.363  1.00  0.00     0.163 HD
BRANCH   8  11
HETATM   11  C5  UNL     1     -33.259   1.804  -1.343  1.00  0.00     0.235 C 
HETATM   12  N1  UNL     1     -33.757   1.488  -0.051  1.00  0.00     0.102 N 
HETATM   13  C1  UNL     1     -34.998   0.766  -0.041  1.00  0.00     0.311 C 
HETATM   14  C2  UNL     1     -33.977   2.761   0.609  1.00  0.00     0.273 C 
HETATM   15  C3  UNL     1     -32.942   3.680   0.037  1.00  0.00     0.033 C 
HETATM   16  C4  UNL     1     -32.262   2.914  -1.081  1.00  0.00     0.053 C 
HETATM   17  C6  UNL     1     -34.309   2.346  -2.284  1.00  0.00     0.060 C 
ENDBRANCH   8  11
ENDBRANCH   1   7
BRANCH   5  18
HETATM   18  C13 UNL     1     -29.386  -4.119   0.603  1.00  0.00     0.047 A 
HETATM   19  C14 UNL     1     -29.093  -5.345   1.060  1.00  0.00     0.123 A 
HETATM   20  N3  UNL     1     -29.001  -5.496   2.383  1.00  0.00    -0.321 N 
HETATM   21  S1  UNL     1     -29.319  -3.957   2.977  1.00  0.00     0.067 SA
ATOM     22  H3  UNL     1     -28.788  -6.344   2.908  1.00  0.00     0.175 HD
HETATM   23  N4  UNL     1     -29.560  -3.161   1.519  1.00  0.00    -0.314 N 
ATOM     24  H4  UNL     1     -29.787  -2.179   1.368  1.00  0.00     0.175 HD
ENDBRANCH   5  18
TORSDOF 3
ENDMDL
