MODEL 1
REMARK VINA RESULT: -6.826778163      0.000      0.000
REMARK  4 active torsions:
REMARK  status: ('A' for Active; 'I' for Inactive)
REMARK    1  A    between atoms: C2_2  and  C3_3 
REMARK    2  A    between atoms: C3_3  and  N1_4 
REMARK       I    between atoms: N1_4  and  C4_6 
REMARK    3  A    between atoms: C4_6  and  O2_8 
REMARK    4  A    between atoms: O2_8  and  C5_9 
ROOT
HETATM    1  C5  UNL     1      -4.234   1.721  13.208  1.00  0.00     0.181 C 
HETATM    2 CL1  UNL     1      -4.673   3.361  13.567  1.00  0.00    -0.054 Cl
HETATM    3  C6  UNL     1      -4.128   1.326  11.968  1.00  0.00     0.170 C 
HETATM    4  C7  UNL     1      -4.376   2.250  10.872  1.00  0.00     0.114 C 
HETATM    5  N2  UNL     1      -4.584   2.981   9.998  1.00  0.00    -0.190 NA
HETATM    6  C8  UNL     1      -3.769  -0.019  11.617  1.00  0.00     0.114 C 
HETATM    7  N3  UNL     1      -3.479  -1.112  11.351  1.00  0.00    -0.190 NA
ENDROOT
BRANCH   1   8
HETATM    8  O2  UNL     1      -3.999   0.842  14.234  1.00  0.00    -0.247 OA
BRANCH   8   9
HETATM    9  C4  UNL     1      -4.235   1.066  15.563  1.00  0.00     0.366 C 
HETATM   10  N1  UNL     1      -5.538   0.859  16.147  1.00  0.00    -0.333 N 
ATOM     11  H1  UNL     1      -6.305   0.538  15.557  1.00  0.00     0.165 HD
HETATM   12  O1  UNL     1      -3.263   1.466  16.273  1.00  0.00    -0.238 OA
BRANCH  10  13
HETATM   13  C3  UNL     1      -5.772   1.094  17.524  1.00  0.00     0.151 C 
BRANCH  13  14
HETATM   14  C2  UNL     1      -6.512   2.316  17.812  1.00  0.00    -0.018 C 
HETATM   15  C1  UNL     1      -6.934   3.171  16.917  1.00  0.00     0.008 C 
ENDBRANCH  13  14
ENDBRANCH  10  13
ENDBRANCH   8   9
ENDBRANCH   1   8
TORSDOF 4
ENDMDL
MODEL 2
REMARK VINA RESULT: -6.399862875      0.971      1.086
REMARK  4 active torsions:
REMARK  status: ('A' for Active; 'I' for Inactive)
REMARK    1  A    between atoms: C2_2  and  C3_3 
REMARK    2  A    between atoms: C3_3  and  N1_4 
REMARK       I    between atoms: N1_4  and  C4_6 
REMARK    3  A    between atoms: C4_6  and  O2_8 
REMARK    4  A    between atoms: O2_8  and  C5_9 
ROOT
HETATM    1  C5  UNL     1      -3.891   2.231  13.203  1.00  0.00     0.181 C 
HETATM    2 CL1  UNL     1      -3.842   3.945  13.470  1.00  0.00    -0.054 Cl
HETATM    3  C6  UNL     1      -4.177   1.760  12.019  1.00  0.00     0.170 C 
HETATM    4  C7  UNL     1      -4.460   2.659  10.911  1.00  0.00     0.114 C 
HETATM    5  N2  UNL     1      -4.697   3.373  10.031  1.00  0.00    -0.190 NA
HETATM    6  C8  UNL     1      -4.232   0.351  11.744  1.00  0.00     0.114 C 
HETATM    7  N3  UNL     1      -4.273  -0.792  11.540  1.00  0.00    -0.190 NA
ENDROOT
BRANCH   1   8
HETATM    8  O2  UNL     1      -3.627   1.375  14.240  1.00  0.00    -0.247 OA
BRANCH   8   9
HETATM    9  C4  UNL     1      -4.445   1.117  15.306  1.00  0.00     0.366 C 
HETATM   10  N1  UNL     1      -4.610   2.066  16.382  1.00  0.00    -0.333 N 
ATOM     11  H1  UNL     1      -4.106   2.951  16.349  1.00  0.00     0.165 HD
HETATM   12  O1  UNL     1      -5.059   0.007  15.321  1.00  0.00    -0.238 OA
BRANCH  10  13
HETATM   13  C3  UNL     1      -5.459   1.789  17.481  1.00  0.00     0.151 C 
BRANCH  13  14
HETATM   14  C2  UNL     1      -6.828   2.264  17.323  1.00  0.00    -0.018 C 
HETATM   15  C1  UNL     1      -7.807   1.579  16.792  1.00  0.00     0.008 C 
ENDBRANCH  13  14
ENDBRANCH  10  13
ENDBRANCH   8   9
ENDBRANCH   1   8
TORSDOF 4
ENDMDL
MODEL 3
REMARK VINA RESULT: -6.339065226      2.015      2.519
REMARK  4 active torsions:
REMARK  status: ('A' for Active; 'I' for Inactive)
REMARK    1  A    between atoms: C2_2  and  C3_3 
REMARK    2  A    between atoms: C3_3  and  N1_4 
REMARK       I    between atoms: N1_4  and  C4_6 
REMARK    3  A    between atoms: C4_6  and  O2_8 
REMARK    4  A    between atoms: O2_8  and  C5_9 
ROOT
HETATM    1  C5  UNL     1      -3.979   1.654  12.649  1.00  0.00     0.181 C 
HETATM    2 CL1  UNL     1      -4.790   0.554  11.579  1.00  0.00    -0.054 Cl
HETATM    3  C6  UNL     1      -3.759   2.887  12.279  1.00  0.00     0.170 C 
HETATM    4  C7  UNL     1      -4.186   3.355  10.970  1.00  0.00     0.114 C 
HETATM    5  N2  UNL     1      -4.515   3.728   9.923  1.00  0.00    -0.190 NA
HETATM    6  C8  UNL     1      -3.092   3.837  13.124  1.00  0.00     0.114 C 
HETATM    7  N3  UNL     1      -2.549   4.592  13.821  1.00  0.00    -0.190 NA
ENDROOT
BRANCH   1   8
HETATM    8  O2  UNL     1      -3.572   1.222  13.884  1.00  0.00    -0.247 OA
BRANCH   8   9
HETATM    9  C4  UNL     1      -4.365   1.053  14.986  1.00  0.00     0.366 C 
HETATM   10  N1  UNL     1      -4.469   2.066  16.008  1.00  0.00    -0.333 N 
ATOM     11  H1  UNL     1      -3.939   2.932  15.910  1.00  0.00     0.165 HD
HETATM   12  O1  UNL     1      -5.013  -0.034  15.083  1.00  0.00    -0.238 OA
BRANCH  10  13
HETATM   13  C3  UNL     1      -5.293   1.881  17.145  1.00  0.00     0.151 C 
BRANCH  13  14
HETATM   14  C2  UNL     1      -6.663   2.351  16.983  1.00  0.00    -0.018 C 
HETATM   15  C1  UNL     1      -7.706   1.584  16.795  1.00  0.00     0.008 C 
ENDBRANCH  13  14
ENDBRANCH  10  13
ENDBRANCH   8   9
ENDBRANCH   1   8
TORSDOF 4
ENDMDL
MODEL 4
REMARK VINA RESULT: -6.198748204      1.773      5.407
REMARK  4 active torsions:
REMARK  status: ('A' for Active; 'I' for Inactive)
REMARK    1  A    between atoms: C2_2  and  C3_3 
REMARK    2  A    between atoms: C3_3  and  N1_4 
REMARK       I    between atoms: N1_4  and  C4_6 
REMARK    3  A    between atoms: C4_6  and  O2_8 
REMARK    4  A    between atoms: O2_8  and  C5_9 
ROOT
HETATM    1  C5  UNL     1      -4.823   2.749  15.267  1.00  0.00     0.181 C 
HETATM    2 CL1  UNL     1      -4.584   4.332  14.598  1.00  0.00    -0.054 Cl
HETATM    3  C6  UNL     1      -5.763   2.545  16.151  1.00  0.00     0.170 C 
HETATM    4  C7  UNL     1      -6.618   3.637  16.589  1.00  0.00     0.114 C 
HETATM    5  N2  UNL     1      -7.292   4.507  16.948  1.00  0.00    -0.190 NA
HETATM    6  C8  UNL     1      -6.002   1.256  16.736  1.00  0.00     0.114 C 
HETATM    7  N3  UNL     1      -6.181   0.205  17.200  1.00  0.00    -0.190 NA
ENDROOT
BRANCH   1   8
HETATM    8  O2  UNL     1      -4.022   1.713  14.861  1.00  0.00    -0.247 OA
BRANCH   8   9
HETATM    9  C4  UNL     1      -4.270   0.854  13.825  1.00  0.00     0.366 C 
HETATM   10  N1  UNL     1      -4.036   1.235  12.453  1.00  0.00    -0.333 N 
ATOM     11  H1  UNL     1      -3.678   2.168  12.247  1.00  0.00     0.165 HD
HETATM   12  O1  UNL     1      -4.715  -0.299  14.110  1.00  0.00    -0.238 OA
BRANCH  10  13
HETATM   13  C3  UNL     1      -4.296   0.339  11.387  1.00  0.00     0.151 C 
BRANCH  13  14
HETATM   14  C2  UNL     1      -3.184  -0.543  11.054  1.00  0.00    -0.018 C 
HETATM   15  C1  UNL     1      -3.140  -1.827  11.303  1.00  0.00     0.008 C 
ENDBRANCH  13  14
ENDBRANCH  10  13
ENDBRANCH   8   9
ENDBRANCH   1   8
TORSDOF 4
ENDMDL
MODEL 5
REMARK VINA RESULT: -6.097360600      1.914      2.456
REMARK  4 active torsions:
REMARK  status: ('A' for Active; 'I' for Inactive)
REMARK    1  A    between atoms: C2_2  and  C3_3 
REMARK    2  A    between atoms: C3_3  and  N1_4 
REMARK       I    between atoms: N1_4  and  C4_6 
REMARK    3  A    between atoms: C4_6  and  O2_8 
REMARK    4  A    between atoms: O2_8  and  C5_9 
ROOT
HETATM    1  C5  UNL     1      -3.909   0.823  12.693  1.00  0.00     0.181 C 
HETATM    2 CL1  UNL     1      -3.361  -0.777  12.302  1.00  0.00    -0.054 Cl
HETATM    3  C6  UNL     1      -4.537   1.538  11.798  1.00  0.00     0.170 C 
HETATM    4  C7  UNL     1      -4.784   1.008  10.466  1.00  0.00     0.114 C 
HETATM    5  N2  UNL     1      -4.972   0.593   9.401  1.00  0.00    -0.190 NA
HETATM    6  C8  UNL     1      -5.010   2.866  12.069  1.00  0.00     0.114 C 
HETATM    7  N3  UNL     1      -5.385   3.940  12.305  1.00  0.00    -0.190 NA
ENDROOT
BRANCH   1   8
HETATM    8  O2  UNL     1      -3.679   1.331  13.944  1.00  0.00    -0.247 OA
BRANCH   8   9
HETATM    9  C4  UNL     1      -4.435   1.105  15.062  1.00  0.00     0.366 C 
HETATM   10  N1  UNL     1      -4.561   2.095  16.105  1.00  0.00    -0.333 N 
ATOM     11  H1  UNL     1      -4.076   2.986  16.010  1.00  0.00     0.165 HD
HETATM   12  O1  UNL     1      -5.028  -0.013  15.155  1.00  0.00    -0.238 OA
BRANCH  10  13
HETATM   13  C3  UNL     1      -5.346   1.851  17.259  1.00  0.00     0.151 C 
BRANCH  13  14
HETATM   14  C2  UNL     1      -6.730   2.295  17.154  1.00  0.00    -0.018 C 
HETATM   15  C1  UNL     1      -7.739   1.542  16.799  1.00  0.00     0.008 C 
ENDBRANCH  13  14
ENDBRANCH  10  13
ENDBRANCH   8   9
ENDBRANCH   1   8
TORSDOF 4
ENDMDL
