MODEL 1
REMARK VINA RESULT: -4.984202737      0.000      0.000
REMARK  4 active torsions:
REMARK  status: ('A' for Active; 'I' for Inactive)
REMARK       I    between atoms: C2_2  and  N1_4 
REMARK    1  A    between atoms: N1_4  and  C3_6 
REMARK    2  A    between atoms: C3_6  and  C4_7 
REMARK    3  A    between atoms: C4_7  and  S1_8 
REMARK    4  A    between atoms: S1_8  and  C5_9 
ROOT
HETATM    1  C4  UNL     1      -3.919   3.603  14.548  1.00  0.00     0.101 C 
ENDROOT
BRANCH   1   2
HETATM    2  C3  UNL     1      -3.943   2.668  15.726  1.00  0.00     0.133 C 
BRANCH   2   3
HETATM    3  N1  UNL     1      -5.248   2.608  16.295  1.00  0.00    -0.361 N 
HETATM    4  C2  UNL     1      -6.029   1.424  16.383  1.00  0.00     0.213 C 
HETATM    5  C1  UNL     1      -7.380   1.391  16.982  1.00  0.00     0.117 C 
HETATM    6  O1  UNL     1      -5.557   0.350  15.932  1.00  0.00    -0.274 OA
ATOM      7  H1  UNL     1      -5.648   3.471  16.664  1.00  0.00     0.162 HD
ENDBRANCH   2   3
ENDBRANCH   1   2
BRANCH   1   8
HETATM    8  S1  UNL     1      -5.091   3.181  13.275  1.00  0.00    -0.103 SA
BRANCH   8   9
HETATM    9  C5  UNL     1      -4.628   1.562  12.558  1.00  0.00     0.113 A 
HETATM   10  N2  UNL     1      -4.246   0.547  13.205  1.00  0.00    -0.349 N 
HETATM   11  C6  UNL     1      -4.088  -0.236  12.081  1.00  0.00     0.142 A 
ATOM     12  H2  UNL     1      -4.105   0.370  14.200  1.00  0.00     0.167 HD
HETATM   13  S2  UNL     1      -4.584   0.973  10.889  1.00  0.00    -0.060 SA
ENDBRANCH   8   9
ENDBRANCH   1   8
TORSDOF 4
ENDMDL
MODEL 2
REMARK VINA RESULT: -4.967671163      1.060      1.247
REMARK  4 active torsions:
REMARK  status: ('A' for Active; 'I' for Inactive)
REMARK       I    between atoms: C2_2  and  N1_4 
REMARK    1  A    between atoms: N1_4  and  C3_6 
REMARK    2  A    between atoms: C3_6  and  C4_7 
REMARK    3  A    between atoms: C4_7  and  S1_8 
REMARK    4  A    between atoms: S1_8  and  C5_9 
ROOT
HETATM    1  C4  UNL     1      -3.775   4.107  13.466  1.00  0.00     0.101 C 
ENDROOT
BRANCH   1   2
HETATM    2  C3  UNL     1      -3.449   3.889  14.919  1.00  0.00     0.133 C 
BRANCH   2   3
HETATM    3  N1  UNL     1      -4.540   3.268  15.592  1.00  0.00    -0.361 N 
HETATM    4  C2  UNL     1      -4.478   1.987  16.202  1.00  0.00     0.213 C 
HETATM    5  C1  UNL     1      -5.627   1.368  16.897  1.00  0.00     0.117 C 
HETATM    6  O1  UNL     1      -3.401   1.341  16.153  1.00  0.00    -0.274 OA
ATOM      7  H1  UNL     1      -5.423   3.777  15.639  1.00  0.00     0.162 HD
ENDBRANCH   2   3
ENDBRANCH   1   2
BRANCH   1   8
HETATM    8  S1  UNL     1      -5.199   3.195  12.906  1.00  0.00    -0.103 SA
BRANCH   8   9
HETATM    9  C5  UNL     1      -4.658   1.535  12.356  1.00  0.00     0.113 A 
HETATM   10  N2  UNL     1      -4.130   0.648  13.084  1.00  0.00    -0.349 N 
HETATM   11  C6  UNL     1      -4.003  -0.264  12.057  1.00  0.00     0.142 A 
ATOM     12  H2  UNL     1      -3.885   0.617  14.074  1.00  0.00     0.167 HD
HETATM   13  S2  UNL     1      -4.711   0.733  10.778  1.00  0.00    -0.060 SA
ENDBRANCH   8   9
ENDBRANCH   1   8
TORSDOF 4
ENDMDL
MODEL 3
REMARK VINA RESULT: -4.946355513      1.589      1.705
REMARK  4 active torsions:
REMARK  status: ('A' for Active; 'I' for Inactive)
REMARK       I    between atoms: C2_2  and  N1_4 
REMARK    1  A    between atoms: N1_4  and  C3_6 
REMARK    2  A    between atoms: C3_6  and  C4_7 
REMARK    3  A    between atoms: C4_7  and  S1_8 
REMARK    4  A    between atoms: S1_8  and  C5_9 
ROOT
HETATM    1  C4  UNL     1      -3.886   4.398  13.633  1.00  0.00     0.101 C 
ENDROOT
BRANCH   1   2
HETATM    2  C3  UNL     1      -3.511   3.854  14.985  1.00  0.00     0.133 C 
BRANCH   2   3
HETATM    3  N1  UNL     1      -4.611   3.165  15.573  1.00  0.00    -0.361 N 
HETATM    4  C2  UNL     1      -4.526   1.870  16.151  1.00  0.00     0.213 C 
HETATM    5  C1  UNL     1      -5.685   1.180  16.757  1.00  0.00     0.117 C 
HETATM    6  O1  UNL     1      -3.420   1.275  16.150  1.00  0.00    -0.274 OA
ATOM      7  H1  UNL     1      -5.518   3.632  15.580  1.00  0.00     0.162 HD
ENDBRANCH   2   3
ENDBRANCH   1   2
BRANCH   1   8
HETATM    8  S1  UNL     1      -5.416   3.745  12.997  1.00  0.00    -0.103 SA
BRANCH   8   9
HETATM    9  C5  UNL     1      -5.058   2.226  12.040  1.00  0.00     0.113 A 
HETATM   10  N2  UNL     1      -5.435   1.989  10.858  1.00  0.00    -0.349 N 
HETATM   11  C6  UNL     1      -4.836   0.748  10.808  1.00  0.00     0.142 A 
ATOM     12  H2  UNL     1      -5.983   2.523  10.184  1.00  0.00     0.167 HD
HETATM   13  S2  UNL     1      -4.152   0.759  12.439  1.00  0.00    -0.060 SA
ENDBRANCH   8   9
ENDBRANCH   1   8
TORSDOF 4
ENDMDL
MODEL 4
REMARK VINA RESULT: -4.844558843      2.324      2.553
REMARK  4 active torsions:
REMARK  status: ('A' for Active; 'I' for Inactive)
REMARK       I    between atoms: C2_2  and  N1_4 
REMARK    1  A    between atoms: N1_4  and  C3_6 
REMARK    2  A    between atoms: C3_6  and  C4_7 
REMARK    3  A    between atoms: C4_7  and  S1_8 
REMARK    4  A    between atoms: S1_8  and  C5_9 
ROOT
HETATM    1  C4  UNL     1      -4.591   1.536  13.834  1.00  0.00     0.101 C 
ENDROOT
BRANCH   1   2
HETATM    2  C3  UNL     1      -4.308   0.665  15.028  1.00  0.00     0.133 C 
BRANCH   2   3
HETATM    3  N1  UNL     1      -4.599   1.358  16.238  1.00  0.00    -0.361 N 
HETATM    4  C2  UNL     1      -5.836   1.270  16.932  1.00  0.00     0.213 C 
HETATM    5  C1  UNL     1      -6.110   1.999  18.188  1.00  0.00     0.117 C 
HETATM    6  O1  UNL     1      -6.746   0.541  16.463  1.00  0.00    -0.274 OA
ATOM      7  H1  UNL     1      -3.873   1.957  16.631  1.00  0.00     0.162 HD
ENDBRANCH   2   3
ENDBRANCH   1   2
BRANCH   1   8
HETATM    8  S1  UNL     1      -4.029   0.843  12.292  1.00  0.00    -0.103 SA
BRANCH   8   9
HETATM    9  C5  UNL     1      -2.722   1.922  11.601  1.00  0.00     0.113 A 
HETATM   10  N2  UNL     1      -1.553   1.562  11.286  1.00  0.00    -0.349 N 
HETATM   11  C6  UNL     1      -1.169   2.819  10.868  1.00  0.00     0.142 A 
ATOM     12  H2  UNL     1      -1.069   0.665  11.325  1.00  0.00     0.167 HD
HETATM   13  S2  UNL     1      -2.698   3.646  11.195  1.00  0.00    -0.060 SA
ENDBRANCH   8   9
ENDBRANCH   1   8
TORSDOF 4
ENDMDL
MODEL 5
REMARK VINA RESULT: -4.734849906      2.167      4.239
REMARK  4 active torsions:
REMARK  status: ('A' for Active; 'I' for Inactive)
REMARK       I    between atoms: C2_2  and  N1_4 
REMARK    1  A    between atoms: N1_4  and  C3_6 
REMARK    2  A    between atoms: C3_6  and  C4_7 
REMARK    3  A    between atoms: C4_7  and  S1_8 
REMARK    4  A    between atoms: S1_8  and  C5_9 
ROOT
HETATM    1  C4  UNL     1      -5.388   3.448  13.528  1.00  0.00     0.101 C 
ENDROOT
BRANCH   1   2
HETATM    2  C3  UNL     1      -4.011   2.856  13.672  1.00  0.00     0.133 C 
BRANCH   2   3
HETATM    3  N1  UNL     1      -3.824   1.786  12.751  1.00  0.00    -0.361 N 
HETATM    4  C2  UNL     1      -4.209   0.441  12.999  1.00  0.00     0.213 C 
HETATM    5  C1  UNL     1      -4.005  -0.650  12.022  1.00  0.00     0.117 C 
HETATM    6  O1  UNL     1      -4.748   0.155  14.098  1.00  0.00    -0.274 OA
ATOM      7  H1  UNL     1      -3.385   1.999  11.855  1.00  0.00     0.162 HD
ENDBRANCH   2   3
ENDBRANCH   1   2
BRANCH   1   8
HETATM    8  S1  UNL     1      -6.112   3.961  15.072  1.00  0.00    -0.103 SA
BRANCH   8   9
HETATM    9  C5  UNL     1      -6.111   2.540  16.227  1.00  0.00     0.113 A 
HETATM   10  N2  UNL     1      -5.092   2.020  16.761  1.00  0.00    -0.349 N 
HETATM   11  C6  UNL     1      -5.814   1.071  17.454  1.00  0.00     0.142 A 
ATOM     12  H2  UNL     1      -4.095   2.227  16.701  1.00  0.00     0.167 HD
HETATM   13  S2  UNL     1      -7.421   1.554  16.894  1.00  0.00    -0.060 SA
ENDBRANCH   8   9
ENDBRANCH   1   8
TORSDOF 4
ENDMDL
