MODEL 1
REMARK VINA RESULT: -5.329834072      0.000      0.000
REMARK  4 active torsions:
REMARK  status: ('A' for Active; 'I' for Inactive)
REMARK    1  A    between atoms: C2_2  and  C4_4 
REMARK    2  A    between atoms: N1_8  and  C7_9 
REMARK    3  A    between atoms: C7_9  and  C8_10 
REMARK    4  A    between atoms: N2_12  and  O1_13 
ROOT
HETATM    1  C4  UNL     1      -4.254   3.062  14.244  1.00  0.00     0.144 C 
HETATM    2  C5  UNL     1      -3.250   4.224  14.213  1.00  0.00     0.060 C 
HETATM    3  S1  UNL     1      -5.901   3.844  14.210  1.00  0.00    -0.108 SA
HETATM    4  C6  UNL     1      -6.186   3.554  15.997  1.00  0.00     0.221 C 
HETATM    5  N1  UNL     1      -5.300   2.478  16.228  1.00  0.00    -0.293 N 
HETATM    6  N2  UNL     1      -4.202   2.476  15.514  1.00  0.00    -0.178 N 
ENDROOT
BRANCH   1   7
HETATM    7  C2  UNL     1      -4.079   2.158  13.105  1.00  0.00    -0.051 C 
HETATM    8  C1  UNL     1      -3.800   2.653  11.915  1.00  0.00     0.017 C 
HETATM    9  C3  UNL     1      -4.207   0.685  13.245  1.00  0.00     0.046 C 
ENDBRANCH   1   7
BRANCH   6  10
HETATM   10  O1  UNL     1      -3.017   2.341  16.088  1.00  0.00    -0.271 OA
ATOM     11  H1  UNL     1      -2.822   1.518  16.521  1.00  0.00     0.246 HD
ENDBRANCH   6  10
BRANCH   5  12
HETATM   12  C7  UNL     1      -5.996   1.250  16.444  1.00  0.00     0.177 C 
BRANCH  12  13
HETATM   13  C8  UNL     1      -7.245   1.417  17.276  1.00  0.00     0.243 C 
HETATM   14  F1  UNL     1      -8.344   1.392  16.438  1.00  0.00    -0.254 F 
ENDBRANCH  12  13
ENDBRANCH   5  12
TORSDOF 4
ENDMDL
MODEL 2
REMARK VINA RESULT: -5.162578131      1.047      1.407
REMARK  4 active torsions:
REMARK  status: ('A' for Active; 'I' for Inactive)
REMARK    1  A    between atoms: C2_2  and  C4_4 
REMARK    2  A    between atoms: N1_8  and  C7_9 
REMARK    3  A    between atoms: C7_9  and  C8_10 
REMARK    4  A    between atoms: N2_12  and  O1_13 
ROOT
HETATM    1  C4  UNL     1      -4.265   3.110  14.156  1.00  0.00     0.144 C 
HETATM    2  C5  UNL     1      -3.215   4.230  14.171  1.00  0.00     0.060 C 
HETATM    3  S1  UNL     1      -5.874   3.955  14.008  1.00  0.00    -0.108 SA
HETATM    4  C6  UNL     1      -6.280   3.709  15.777  1.00  0.00     0.221 C 
HETATM    5  N1  UNL     1      -5.455   2.603  16.080  1.00  0.00    -0.293 N 
HETATM    6  N2  UNL     1      -4.316   2.545  15.436  1.00  0.00    -0.178 N 
ENDROOT
BRANCH   1   7
HETATM    7  C2  UNL     1      -4.057   2.179  13.045  1.00  0.00    -0.051 C 
HETATM    8  C1  UNL     1      -4.265   0.889  13.226  1.00  0.00     0.017 C 
HETATM    9  C3  UNL     1      -3.615   2.642  11.705  1.00  0.00     0.046 C 
ENDBRANCH   1   7
BRANCH   6  10
HETATM   10  O1  UNL     1      -3.175   2.373  16.085  1.00  0.00    -0.271 OA
ATOM     11  H1  UNL     1      -3.163   1.763  16.813  1.00  0.00     0.246 HD
ENDBRANCH   6  10
BRANCH   5  12
HETATM   12  C7  UNL     1      -6.212   1.408  16.271  1.00  0.00     0.177 C 
BRANCH  12  13
HETATM   13  C8  UNL     1      -6.008   0.790  17.634  1.00  0.00     0.243 C 
HETATM   14  F1  UNL     1      -5.661   1.787  18.526  1.00  0.00    -0.254 F 
ENDBRANCH  12  13
ENDBRANCH   5  12
TORSDOF 4
ENDMDL
MODEL 3
REMARK VINA RESULT: -5.091800901      3.934      5.041
REMARK  4 active torsions:
REMARK  status: ('A' for Active; 'I' for Inactive)
REMARK    1  A    between atoms: C2_2  and  C4_4 
REMARK    2  A    between atoms: N1_8  and  C7_9 
REMARK    3  A    between atoms: C7_9  and  C8_10 
REMARK    4  A    between atoms: N2_12  and  O1_13 
ROOT
HETATM    1  C4  UNL     1      -4.496   3.042  12.111  1.00  0.00     0.144 C 
HETATM    2  C5  UNL     1      -4.708   4.358  11.346  1.00  0.00     0.060 C 
HETATM    3  S1  UNL     1      -2.705   2.712  12.021  1.00  0.00    -0.108 SA
HETATM    4  C6  UNL     1      -2.904   1.420  10.738  1.00  0.00     0.221 C 
HETATM    5  N1  UNL     1      -4.250   1.049  10.954  1.00  0.00    -0.293 N 
HETATM    6  N2  UNL     1      -5.052   2.005  11.353  1.00  0.00    -0.178 N 
ENDROOT
BRANCH   1   7
HETATM    7  C2  UNL     1      -4.943   3.140  13.502  1.00  0.00    -0.051 C 
HETATM    8  C1  UNL     1      -5.780   4.096  13.853  1.00  0.00     0.017 C 
HETATM    9  C3  UNL     1      -4.481   2.187  14.543  1.00  0.00     0.046 C 
ENDBRANCH   1   7
BRANCH   6  10
HETATM   10  O1  UNL     1      -6.200   2.233  10.735  1.00  0.00    -0.271 OA
ATOM     11  H1  UNL     1      -6.937   2.528  11.257  1.00  0.00     0.246 HD
ENDBRANCH   6  10
BRANCH   5  12
HETATM   12  C7  UNL     1      -4.359  -0.247  11.543  1.00  0.00     0.177 C 
BRANCH  12  13
HETATM   13  C8  UNL     1      -3.153  -1.118  11.283  1.00  0.00     0.243 C 
HETATM   14  F1  UNL     1      -3.557  -2.440  11.259  1.00  0.00    -0.254 F 
ENDBRANCH  12  13
ENDBRANCH   5  12
TORSDOF 4
ENDMDL
MODEL 4
REMARK VINA RESULT: -4.977838711      3.968      5.056
REMARK  4 active torsions:
REMARK  status: ('A' for Active; 'I' for Inactive)
REMARK    1  A    between atoms: C2_2  and  C4_4 
REMARK    2  A    between atoms: N1_8  and  C7_9 
REMARK    3  A    between atoms: C7_9  and  C8_10 
REMARK    4  A    between atoms: N2_12  and  O1_13 
ROOT
HETATM    1  C4  UNL     1      -4.366   3.446  11.977  1.00  0.00     0.144 C 
HETATM    2  C5  UNL     1      -4.656   4.595  11.000  1.00  0.00     0.060 C 
HETATM    3  S1  UNL     1      -2.572   3.143  11.851  1.00  0.00    -0.108 SA
HETATM    4  C6  UNL     1      -2.795   1.635  10.836  1.00  0.00     0.221 C 
HETATM    5  N1  UNL     1      -4.117   1.280  11.188  1.00  0.00    -0.293 N 
HETATM    6  N2  UNL     1      -4.926   2.276  11.450  1.00  0.00    -0.178 N 
ENDROOT
BRANCH   1   7
HETATM    7  C2  UNL     1      -4.746   3.786  13.350  1.00  0.00    -0.051 C 
HETATM    8  C1  UNL     1      -4.244   3.096  14.355  1.00  0.00     0.017 C 
HETATM    9  C3  UNL     1      -5.688   4.893  13.652  1.00  0.00     0.046 C 
ENDBRANCH   1   7
BRANCH   6  10
HETATM   10  O1  UNL     1      -6.111   2.363  10.865  1.00  0.00    -0.271 OA
ATOM     11  H1  UNL     1      -6.648   1.581  10.827  1.00  0.00     0.246 HD
ENDBRANCH   6  10
BRANCH   5  12
HETATM   12  C7  UNL     1      -4.156   0.112  12.007  1.00  0.00     0.177 C 
BRANCH  12  13
HETATM   13  C8  UNL     1      -3.878  -1.158  11.239  1.00  0.00     0.243 C 
HETATM   14  F1  UNL     1      -2.632  -1.633  11.602  1.00  0.00    -0.254 F 
ENDBRANCH  12  13
ENDBRANCH   5  12
TORSDOF 4
ENDMDL
MODEL 5
REMARK VINA RESULT: -4.970749248      2.666      4.082
REMARK  4 active torsions:
REMARK  status: ('A' for Active; 'I' for Inactive)
REMARK    1  A    between atoms: C2_2  and  C4_4 
REMARK    2  A    between atoms: N1_8  and  C7_9 
REMARK    3  A    between atoms: C7_9  and  C8_10 
REMARK    4  A    between atoms: N2_12  and  O1_13 
ROOT
HETATM    1  C4  UNL     1      -4.939   3.822  14.275  1.00  0.00     0.144 C 
HETATM    2  C5  UNL     1      -5.873   5.039  14.194  1.00  0.00     0.060 C 
HETATM    3  S1  UNL     1      -3.249   4.505  14.257  1.00  0.00    -0.108 SA
HETATM    4  C6  UNL     1      -2.973   4.045  12.506  1.00  0.00     0.221 C 
HETATM    5  N1  UNL     1      -3.920   3.006  12.360  1.00  0.00    -0.293 N 
HETATM    6  N2  UNL     1      -5.020   3.131  13.060  1.00  0.00    -0.178 N 
ENDROOT
BRANCH   1   7
HETATM    7  C2  UNL     1      -5.174   3.032  15.486  1.00  0.00    -0.051 C 
HETATM    8  C1  UNL     1      -4.199   2.296  15.983  1.00  0.00     0.017 C 
HETATM    9  C3  UNL     1      -6.486   3.032  16.182  1.00  0.00     0.046 C 
ENDBRANCH   1   7
BRANCH   6  10
HETATM   10  O1  UNL     1      -6.208   3.017  12.488  1.00  0.00    -0.271 OA
ATOM     11  H1  UNL     1      -6.260   3.115  11.544  1.00  0.00     0.246 HD
ENDBRANCH   6  10
BRANCH   5  12
HETATM   12  C7  UNL     1      -3.297   1.726  12.258  1.00  0.00     0.177 C 
BRANCH  12  13
HETATM   13  C8  UNL     1      -4.287   0.585  12.262  1.00  0.00     0.243 C 
HETATM   14  F1  UNL     1      -4.317   0.027  13.526  1.00  0.00    -0.254 F 
ENDBRANCH  12  13
ENDBRANCH   5  12
TORSDOF 4
ENDMDL
