MODEL 1
REMARK VINA RESULT: -6.899610245      0.000      0.000
REMARK  5 active torsions:
REMARK  status: ('A' for Active; 'I' for Inactive)
REMARK    1  A    between atoms: N1_2  and  C2_5 
REMARK    2  A    between atoms: C2_5  and  C3_6 
REMARK    3  A    between atoms: C7_10  and  C8_11 
REMARK    4  A    between atoms: C8_11  and  C9_12 
REMARK    5  A    between atoms: C9_12  and  C10_13 
ROOT
HETATM    1  C3  UNL     1      -2.335   2.345  10.966  1.00  0.00     0.147 C 
HETATM    2  C4  UNL     1      -2.236   0.856  11.195  1.00  0.00     0.034 C 
HETATM    3  C5  UNL     1      -3.562   0.152  11.065  1.00  0.00     0.005 C 
HETATM    4  C6  UNL     1      -4.632   1.074  11.600  1.00  0.00     0.032 C 
HETATM    5  C7  UNL     1      -3.971   2.077  12.526  1.00  0.00     0.122 C 
HETATM    6  O1  UNL     1      -3.236   2.982  11.778  1.00  0.00    -0.379 OA
ENDROOT
BRANCH   5   7
HETATM    7  C8  UNL     1      -5.008   2.770  13.383  1.00  0.00     0.032 C 
BRANCH   7   8
HETATM    8  C9  UNL     1      -4.321   3.325  14.610  1.00  0.00     0.007 C 
BRANCH   8   9
HETATM    9  C10 UNL     1      -5.068   2.992  15.876  1.00  0.00    -0.014 C 
HETATM   10  C11 UNL     1      -6.432   3.593  15.932  1.00  0.00     0.004 C 
HETATM   11  C12 UNL     1      -6.883   3.620  17.379  1.00  0.00     0.000 C 
HETATM   12  C13 UNL     1      -6.147   2.574  18.165  1.00  0.00     0.000 C 
HETATM   13  C14 UNL     1      -6.000   1.290  17.359  1.00  0.00     0.000 C 
HETATM   14  C15 UNL     1      -5.180   1.511  16.113  1.00  0.00     0.004 C 
ENDBRANCH   8   9
ENDBRANCH   7   8
ENDBRANCH   5   7
BRANCH   1  15
HETATM   15  C2  UNL     1      -0.929   2.906  11.094  1.00  0.00     0.263 C 
BRANCH  15  16
HETATM   16  N1  UNL     1      -0.801   3.699  12.321  1.00  0.00    -0.077 N 
HETATM   17  C1  UNL     1      -0.507   5.053  11.943  1.00  0.00     0.267 C 
ATOM     18  H12 UNL     1      -0.116   3.314  12.971  1.00  0.00     0.276 HD
ATOM     19  H11 UNL     1      -1.619   3.626  12.925  1.00  0.00     0.276 HD
ENDBRANCH  15  16
ENDBRANCH   1  15
TORSDOF 5
ENDMDL
MODEL 2
REMARK VINA RESULT: -6.889419899      0.489      1.311
REMARK  5 active torsions:
REMARK  status: ('A' for Active; 'I' for Inactive)
REMARK    1  A    between atoms: N1_2  and  C2_5 
REMARK    2  A    between atoms: C2_5  and  C3_6 
REMARK    3  A    between atoms: C7_10  and  C8_11 
REMARK    4  A    between atoms: C8_11  and  C9_12 
REMARK    5  A    between atoms: C9_12  and  C10_13 
ROOT
HETATM    1  C3  UNL     1      -2.200   2.258  10.836  1.00  0.00     0.147 C 
HETATM    2  C4  UNL     1      -2.018   0.795  11.158  1.00  0.00     0.034 C 
HETATM    3  C5  UNL     1      -3.272  -0.014  10.948  1.00  0.00     0.005 C 
HETATM    4  C6  UNL     1      -4.452   0.849  11.328  1.00  0.00     0.032 C 
HETATM    5  C7  UNL     1      -3.955   1.946  12.251  1.00  0.00     0.122 C 
HETATM    6  O1  UNL     1      -3.218   2.865  11.524  1.00  0.00    -0.379 OA
ENDROOT
BRANCH   5   7
HETATM    7  C8  UNL     1      -5.116   2.599  12.967  1.00  0.00     0.032 C 
BRANCH   7   8
HETATM    8  C9  UNL     1      -4.630   3.103  14.308  1.00  0.00     0.007 C 
BRANCH   8   9
HETATM    9  C10 UNL     1      -5.525   2.661  15.437  1.00  0.00    -0.014 C 
HETATM   10  C11 UNL     1      -4.845   1.759  16.411  1.00  0.00     0.004 C 
HETATM   11  C12 UNL     1      -5.909   1.005  17.186  1.00  0.00     0.000 C 
HETATM   12  C13 UNL     1      -7.198   1.774  17.166  1.00  0.00     0.000 C 
HETATM   13  C14 UNL     1      -6.945   3.267  17.329  1.00  0.00     0.000 C 
HETATM   14  C15 UNL     1      -6.130   3.816  16.185  1.00  0.00     0.004 C 
ENDBRANCH   8   9
ENDBRANCH   7   8
ENDBRANCH   5   7
BRANCH   1  15
HETATM   15  C2  UNL     1      -0.856   2.930  11.061  1.00  0.00     0.263 C 
BRANCH  15  16
HETATM   16  N1  UNL     1      -0.863   3.686  12.318  1.00  0.00    -0.077 N 
HETATM   17  C1  UNL     1      -0.613   5.065  12.006  1.00  0.00     0.267 C 
ATOM     18  H12 UNL     1      -0.209   3.313  13.007  1.00  0.00     0.276 HD
ATOM     19  H11 UNL     1      -1.719   3.551  12.856  1.00  0.00     0.276 HD
ENDBRANCH  15  16
ENDBRANCH   1  15
TORSDOF 5
ENDMDL
MODEL 3
REMARK VINA RESULT: -6.778276235      1.861      3.251
REMARK  5 active torsions:
REMARK  status: ('A' for Active; 'I' for Inactive)
REMARK    1  A    between atoms: N1_2  and  C2_5 
REMARK    2  A    between atoms: C2_5  and  C3_6 
REMARK    3  A    between atoms: C7_10  and  C8_11 
REMARK    4  A    between atoms: C8_11  and  C9_12 
REMARK    5  A    between atoms: C9_12  and  C10_13 
ROOT
HETATM    1  C3  UNL     1      -3.704   2.216  11.684  1.00  0.00     0.147 C 
HETATM    2  C4  UNL     1      -4.216   3.304  10.772  1.00  0.00     0.034 C 
HETATM    3  C5  UNL     1      -3.447   4.593  10.905  1.00  0.00     0.005 C 
HETATM    4  C6  UNL     1      -3.049   4.749  12.354  1.00  0.00     0.032 C 
HETATM    5  C7  UNL     1      -3.981   3.896  13.194  1.00  0.00     0.122 C 
HETATM    6  O1  UNL     1      -3.676   2.558  13.010  1.00  0.00    -0.379 OA
ENDROOT
BRANCH   5   7
HETATM    7  C8  UNL     1      -3.895   4.296  14.650  1.00  0.00     0.032 C 
BRANCH   7   8
HETATM    8  C9  UNL     1      -5.297   4.545  15.162  1.00  0.00     0.007 C 
BRANCH   8   9
HETATM    9  C10 UNL     1      -5.832   3.371  15.940  1.00  0.00    -0.014 C 
HETATM   10  C11 UNL     1      -4.771   2.420  16.380  1.00  0.00     0.004 C 
HETATM   11  C12 UNL     1      -5.424   1.089  16.697  1.00  0.00     0.000 C 
HETATM   12  C13 UNL     1      -6.873   1.295  17.028  1.00  0.00     0.000 C 
HETATM   13  C14 UNL     1      -7.065   2.544  17.879  1.00  0.00     0.000 C 
HETATM   14  C15 UNL     1      -6.640   3.786  17.137  1.00  0.00     0.004 C 
ENDBRANCH   8   9
ENDBRANCH   7   8
ENDBRANCH   5   7
BRANCH   1  15
HETATM   15  C2  UNL     1      -4.547   0.981  11.414  1.00  0.00     0.263 C 
BRANCH  15  16
HETATM   16  N1  UNL     1      -4.096  -0.141  12.244  1.00  0.00    -0.077 N 
HETATM   17  C1  UNL     1      -3.383  -1.058  11.400  1.00  0.00     0.267 C 
ATOM     18  H12 UNL     1      -4.859  -0.587  12.754  1.00  0.00     0.276 HD
ATOM     19  H11 UNL     1      -3.550   0.159  13.052  1.00  0.00     0.276 HD
ENDBRANCH  15  16
ENDBRANCH   1  15
TORSDOF 5
ENDMDL
MODEL 4
REMARK VINA RESULT: -6.774870269      1.644      2.839
REMARK  5 active torsions:
REMARK  status: ('A' for Active; 'I' for Inactive)
REMARK    1  A    between atoms: N1_2  and  C2_5 
REMARK    2  A    between atoms: C2_5  and  C3_6 
REMARK    3  A    between atoms: C7_10  and  C8_11 
REMARK    4  A    between atoms: C8_11  and  C9_12 
REMARK    5  A    between atoms: C9_12  and  C10_13 
ROOT
HETATM    1  C3  UNL     1      -2.628   1.500  11.514  1.00  0.00     0.147 C 
HETATM    2  C4  UNL     1      -2.174   2.577  10.558  1.00  0.00     0.034 C 
HETATM    3  C5  UNL     1      -1.599   3.780  11.259  1.00  0.00     0.005 C 
HETATM    4  C6  UNL     1      -2.369   3.984  12.542  1.00  0.00     0.032 C 
HETATM    5  C7  UNL     1      -3.713   3.294  12.400  1.00  0.00     0.122 C 
HETATM    6  O1  UNL     1      -3.535   1.922  12.449  1.00  0.00    -0.379 OA
ENDROOT
BRANCH   5   7
HETATM    7  C8  UNL     1      -4.670   3.775  13.468  1.00  0.00     0.032 C 
BRANCH   7   8
HETATM    8  C9  UNL     1      -3.951   3.755  14.799  1.00  0.00     0.007 C 
BRANCH   8   9
HETATM    9  C10 UNL     1      -4.826   3.231  15.907  1.00  0.00    -0.014 C 
HETATM   10  C11 UNL     1      -6.249   3.665  15.793  1.00  0.00     0.004 C 
HETATM   11  C12 UNL     1      -6.903   3.514  17.152  1.00  0.00     0.000 C 
HETATM   12  C13 UNL     1      -6.164   2.494  17.968  1.00  0.00     0.000 C 
HETATM   13  C14 UNL     1      -5.742   1.310  17.107  1.00  0.00     0.000 C 
HETATM   14  C15 UNL     1      -4.784   1.732  16.022  1.00  0.00     0.004 C 
ENDBRANCH   8   9
ENDBRANCH   7   8
ENDBRANCH   5   7
BRANCH   1  15
HETATM   15  C2  UNL     1      -3.147   0.349  10.668  1.00  0.00     0.263 C 
BRANCH  15  16
HETATM   16  N1  UNL     1      -3.844  -0.632  11.506  1.00  0.00    -0.077 N 
HETATM   17  C1  UNL     1      -3.145  -1.881  11.397  1.00  0.00     0.267 C 
ATOM     18  H12 UNL     1      -4.835  -0.713  11.279  1.00  0.00     0.276 HD
ATOM     19  H11 UNL     1      -3.950  -0.322  12.472  1.00  0.00     0.276 HD
ENDBRANCH  15  16
ENDBRANCH   1  15
TORSDOF 5
ENDMDL
MODEL 5
REMARK VINA RESULT: -6.745555971      1.858      3.605
REMARK  5 active torsions:
REMARK  status: ('A' for Active; 'I' for Inactive)
REMARK    1  A    between atoms: N1_2  and  C2_5 
REMARK    2  A    between atoms: C2_5  and  C3_6 
REMARK    3  A    between atoms: C7_10  and  C8_11 
REMARK    4  A    between atoms: C8_11  and  C9_12 
REMARK    5  A    between atoms: C9_12  and  C10_13 
ROOT
HETATM    1  C3  UNL     1      -2.009   5.245  13.428  1.00  0.00     0.147 C 
HETATM    2  C4  UNL     1      -2.226   6.732  13.294  1.00  0.00     0.034 C 
HETATM    3  C5  UNL     1      -3.015   7.317  14.436  1.00  0.00     0.005 C 
HETATM    4  C6  UNL     1      -4.042   6.295  14.864  1.00  0.00     0.032 C 
HETATM    5  C7  UNL     1      -4.266   5.340  13.707  1.00  0.00     0.122 C 
HETATM    6  O1  UNL     1      -3.161   4.517  13.565  1.00  0.00    -0.379 OA
ENDROOT
BRANCH   5   7
HETATM    7  C8  UNL     1      -5.535   4.543  13.917  1.00  0.00     0.032 C 
BRANCH   7   8
HETATM    8  C9  UNL     1      -5.997   4.747  15.342  1.00  0.00     0.007 C 
BRANCH   8   9
HETATM    9  C10 UNL     1      -6.078   3.448  16.102  1.00  0.00    -0.014 C 
HETATM   10  C11 UNL     1      -4.788   2.700  16.132  1.00  0.00     0.004 C 
HETATM   11  C12 UNL     1      -5.086   1.251  16.465  1.00  0.00     0.000 C 
HETATM   12  C13 UNL     1      -6.392   1.151  17.197  1.00  0.00     0.000 C 
HETATM   13  C14 UNL     1      -6.543   2.287  18.200  1.00  0.00     0.000 C 
HETATM   14  C15 UNL     1      -6.567   3.629  17.512  1.00  0.00     0.004 C 
ENDBRANCH   8   9
ENDBRANCH   7   8
ENDBRANCH   5   7
BRANCH   1  15
HETATM   15  C2  UNL     1      -1.178   4.810  12.233  1.00  0.00     0.263 C 
BRANCH  15  16
HETATM   16  N1  UNL     1      -0.723   3.425  12.398  1.00  0.00    -0.077 N 
HETATM   17  C1  UNL     1      -1.096   2.694  11.221  1.00  0.00     0.267 C 
ATOM     18  H12 UNL     1      -1.070   2.996  13.256  1.00  0.00     0.276 HD
ATOM     19  H11 UNL     1       0.273   3.359  12.606  1.00  0.00     0.276 HD
ENDBRANCH  15  16
ENDBRANCH   1  15
TORSDOF 5
ENDMDL
