MODEL 1
REMARK VINA RESULT: -6.217881279      0.000      0.000
REMARK  2 active torsions:
REMARK  status: ('A' for Active; 'I' for Inactive)
REMARK    1  A    between atoms: C5_6  and  C6_7 
REMARK    2  A    between atoms: C6_7  and  C7_8 
ROOT
HETATM    1  C7  UNL     1      -4.137   2.099  12.022  1.00  0.00     0.186 C 
HETATM    2  C8  UNL     1      -2.865   2.214  11.237  1.00  0.00     0.033 C 
HETATM    3  C9  UNL     1      -2.341   0.828  10.962  1.00  0.00     0.004 C 
HETATM    4  C10 UNL     1      -3.512   0.003  10.446  1.00  0.00     0.027 C 
HETATM    5  C11 UNL     1      -4.428  -0.259  11.620  1.00  0.00     0.232 C 
HETATM    6  N1  UNL     1      -4.375   0.799  12.599  1.00  0.00    -0.071 N 
ATOM      7  H11 UNL     1      -5.219   0.806  13.172  1.00  0.00     0.277 HD
ATOM      8  H12 UNL     1      -3.684   0.591  13.321  1.00  0.00     0.277 HD
ENDROOT
BRANCH   1   9
HETATM    9  C6  UNL     1      -4.056   3.063  13.187  1.00  0.00     0.039 C 
BRANCH   9  10
HETATM   10  C5  UNL     1      -4.829   2.604  14.385  1.00  0.00     0.006 C 
HETATM   11  C1  UNL     1      -5.835   3.681  14.738  1.00  0.00     0.086 C 
HETATM   12 CL1  UNL     1      -4.945   5.195  14.970  1.00  0.00    -0.125 Cl
HETATM   13  C2  UNL     1      -6.316   3.175  16.097  1.00  0.00     0.020 C 
HETATM   14  C3  UNL     1      -5.108   2.485  16.700  1.00  0.00     0.002 C 
HETATM   15  C4  UNL     1      -4.026   2.520  15.638  1.00  0.00     0.006 C 
ENDBRANCH   9  10
ENDBRANCH   1   9
TORSDOF 2
ENDMDL
MODEL 2
REMARK VINA RESULT: -6.069706785      0.921      1.409
REMARK  2 active torsions:
REMARK  status: ('A' for Active; 'I' for Inactive)
REMARK    1  A    between atoms: C5_6  and  C6_7 
REMARK    2  A    between atoms: C6_7  and  C7_8 
ROOT
HETATM    1  C7  UNL     1      -3.673   1.703  12.513  1.00  0.00     0.186 C 
HETATM    2  C8  UNL     1      -4.753   0.881  11.875  1.00  0.00     0.033 C 
HETATM    3  C9  UNL     1      -4.312   0.503  10.483  1.00  0.00     0.004 C 
HETATM    4  C10 UNL     1      -2.887  -0.020  10.595  1.00  0.00     0.027 C 
HETATM    5  C11 UNL     1      -1.993   1.168  10.870  1.00  0.00     0.232 C 
HETATM    6  N1  UNL     1      -2.678   2.207  11.599  1.00  0.00    -0.071 N 
ATOM      7  H11 UNL     1      -2.013   2.809  12.084  1.00  0.00     0.277 HD
ATOM      8  H12 UNL     1      -3.087   2.889  10.959  1.00  0.00     0.277 HD
ENDROOT
BRANCH   1   9
HETATM    9  C6  UNL     1      -4.320   2.921  13.137  1.00  0.00     0.039 C 
BRANCH   9  10
HETATM   10  C5  UNL     1      -5.079   2.606  14.390  1.00  0.00     0.006 C 
HETATM   11  C1  UNL     1      -5.830   3.853  14.811  1.00  0.00     0.086 C 
HETATM   12 CL1  UNL     1      -4.650   5.165  14.973  1.00  0.00    -0.125 Cl
HETATM   13  C2  UNL     1      -6.300   3.434  16.204  1.00  0.00     0.020 C 
HETATM   14  C3  UNL     1      -5.208   2.519  16.720  1.00  0.00     0.002 C 
HETATM   15  C4  UNL     1      -4.219   2.355  15.581  1.00  0.00     0.006 C 
ENDBRANCH   9  10
ENDBRANCH   1   9
TORSDOF 2
ENDMDL
MODEL 3
REMARK VINA RESULT: -5.895502965      1.155      1.657
REMARK  2 active torsions:
REMARK  status: ('A' for Active; 'I' for Inactive)
REMARK    1  A    between atoms: C5_6  and  C6_7 
REMARK    2  A    between atoms: C6_7  and  C7_8 
ROOT
HETATM    1  C7  UNL     1      -4.415   1.603  12.484  1.00  0.00     0.186 C 
HETATM    2  C8  UNL     1      -3.277   2.113  11.652  1.00  0.00     0.033 C 
HETATM    3  C9  UNL     1      -2.605   0.941  10.983  1.00  0.00     0.004 C 
HETATM    4  C10 UNL     1      -3.706   0.085  10.373  1.00  0.00     0.027 C 
HETATM    5  C11 UNL     1      -4.425  -0.601  11.511  1.00  0.00     0.232 C 
HETATM    6  N1  UNL     1      -4.398   0.181  12.723  1.00  0.00    -0.071 N 
ATOM      7  H11 UNL     1      -5.158  -0.091  13.347  1.00  0.00     0.277 HD
ATOM      8  H12 UNL     1      -3.602  -0.079  13.305  1.00  0.00     0.277 HD
ENDROOT
BRANCH   1   9
HETATM    9  C6  UNL     1      -4.325   2.255  13.848  1.00  0.00     0.039 C 
BRANCH   9  10
HETATM   10  C5  UNL     1      -5.267   3.407  14.012  1.00  0.00     0.006 C 
HETATM   11  C1  UNL     1      -4.501   4.685  13.740  1.00  0.00     0.086 C 
HETATM   12 CL1  UNL     1      -3.101   4.717  14.826  1.00  0.00    -0.125 Cl
HETATM   13  C2  UNL     1      -5.518   5.723  14.212  1.00  0.00     0.020 C 
HETATM   14  C3  UNL     1      -6.261   5.046  15.346  1.00  0.00     0.002 C 
HETATM   15  C4  UNL     1      -5.731   3.626  15.412  1.00  0.00     0.006 C 
ENDBRANCH   9  10
ENDBRANCH   1   9
TORSDOF 2
ENDMDL
MODEL 4
REMARK VINA RESULT: -5.663647170      1.680      5.046
REMARK  2 active torsions:
REMARK  status: ('A' for Active; 'I' for Inactive)
REMARK    1  A    between atoms: C5_6  and  C6_7 
REMARK    2  A    between atoms: C6_7  and  C7_8 
ROOT
HETATM    1  C7  UNL     1      -4.791   2.928  14.597  1.00  0.00     0.186 C 
HETATM    2  C8  UNL     1      -5.930   3.758  15.106  1.00  0.00     0.033 C 
HETATM    3  C9  UNL     1      -6.636   2.992  16.196  1.00  0.00     0.004 C 
HETATM    4  C10 UNL     1      -5.562   2.467  17.138  1.00  0.00     0.027 C 
HETATM    5  C11 UNL     1      -4.840   1.351  16.419  1.00  0.00     0.232 C 
HETATM    6  N1  UNL     1      -4.833   1.541  14.989  1.00  0.00    -0.071 N 
ATOM      7  H11 UNL     1      -4.069   1.019  14.557  1.00  0.00     0.277 HD
ATOM      8  H12 UNL     1      -5.626   1.066  14.556  1.00  0.00     0.277 HD
ENDROOT
BRANCH   1   9
HETATM    9  C6  UNL     1      -4.847   2.936  13.084  1.00  0.00     0.039 C 
BRANCH   9  10
HETATM   10  C5  UNL     1      -4.106   1.792  12.463  1.00  0.00     0.006 C 
HETATM   11  C1  UNL     1      -2.944   2.358  11.673  1.00  0.00     0.086 C 
HETATM   12 CL1  UNL     1      -3.597   3.530  10.516  1.00  0.00    -0.125 Cl
HETATM   13  C2  UNL     1      -2.492   1.111  10.914  1.00  0.00     0.020 C 
HETATM   14  C3  UNL     1      -3.763   0.320  10.683  1.00  0.00     0.002 C 
HETATM   15  C4  UNL     1      -4.867   1.071  11.403  1.00  0.00     0.006 C 
ENDBRANCH   9  10
ENDBRANCH   1   9
TORSDOF 2
ENDMDL
MODEL 5
REMARK VINA RESULT: -5.658939500      3.165      4.911
REMARK  2 active torsions:
REMARK  status: ('A' for Active; 'I' for Inactive)
REMARK    1  A    between atoms: C5_6  and  C6_7 
REMARK    2  A    between atoms: C6_7  and  C7_8 
ROOT
HETATM    1  C7  UNL     1      -5.404   3.208  16.142  1.00  0.00     0.186 C 
HETATM    2  C8  UNL     1      -6.710   3.311  16.870  1.00  0.00     0.033 C 
HETATM    3  C9  UNL     1      -7.311   1.932  16.981  1.00  0.00     0.004 C 
HETATM    4  C10 UNL     1      -6.207   1.004  17.469  1.00  0.00     0.027 C 
HETATM    5  C11 UNL     1      -5.242   0.811  16.321  1.00  0.00     0.232 C 
HETATM    6  N1  UNL     1      -5.195   1.960  15.451  1.00  0.00    -0.071 N 
ATOM      7  H11 UNL     1      -4.321   1.980  14.924  1.00  0.00     0.277 HD
ATOM      8  H12 UNL     1      -5.854   1.858  14.679  1.00  0.00     0.277 HD
ENDROOT
BRANCH   1   9
HETATM    9  C6  UNL     1      -5.379   4.283  15.076  1.00  0.00     0.039 C 
BRANCH   9  10
HETATM   10  C5  UNL     1      -4.070   5.008  15.003  1.00  0.00     0.006 C 
HETATM   11  C1  UNL     1      -4.344   6.432  14.564  1.00  0.00     0.086 C 
HETATM   12 CL1  UNL     1      -5.236   6.364  13.035  1.00  0.00    -0.125 Cl
HETATM   13  C2  UNL     1      -2.920   6.914  14.287  1.00  0.00     0.020 C 
HETATM   14  C3  UNL     1      -2.184   5.682  13.801  1.00  0.00     0.002 C 
HETATM   15  C4  UNL     1      -3.163   4.529  13.921  1.00  0.00     0.006 C 
ENDBRANCH   9  10
ENDBRANCH   1   9
TORSDOF 2
ENDMDL
