MODEL 1
REMARK VINA RESULT: -6.075308856      0.000      0.000
REMARK  3 active torsions:
REMARK  status: ('A' for Active; 'I' for Inactive)
REMARK    1  A    between atoms: C2_2  and  N1_3 
REMARK    2  A    between atoms: C2_2  and  N2_11 
REMARK    3  A    between atoms: N1_3  and  C3_5 
ROOT
HETATM    1  N1  UNL     1      -3.785   2.510  13.803  1.00  0.00    -0.359 N 
ATOM      2  H1  UNL     1      -3.232   1.672  13.624  1.00  0.00     0.158 HD
ENDROOT
BRANCH   1   3
HETATM    3  C2  UNL     1      -3.963   3.509  12.801  1.00  0.00     0.316 C 
HETATM    4  C1  UNL     1      -2.911   4.564  12.752  1.00  0.00     0.066 C 
BRANCH   3   5
HETATM    5  N2  UNL     1      -3.998   2.831  11.516  1.00  0.00     0.110 N 
HETATM    6  C8  UNL     1      -5.082   1.887  11.426  1.00  0.00     0.275 C 
HETATM    7  C9  UNL     1      -4.501   0.505  11.483  1.00  0.00     0.032 C 
HETATM    8  C10 UNL     1      -3.063   0.693  11.094  1.00  0.00     0.032 C 
HETATM    9  C11 UNL     1      -2.783   2.177  11.165  1.00  0.00     0.275 C 
ENDBRANCH   3   5
ENDBRANCH   1   3
BRANCH   1  10
HETATM   10  C3  UNL     1      -4.401   2.724  15.045  1.00  0.00     0.173 C 
HETATM   11  F1  UNL     1      -3.582   3.261  16.016  1.00  0.00    -0.220 F 
HETATM   12  C4  UNL     1      -4.847   1.366  15.596  1.00  0.00     0.066 C 
HETATM   13  C5  UNL     1      -5.551   1.821  16.855  1.00  0.00     0.005 C 
HETATM   14  C6  UNL     1      -6.329   3.020  16.379  1.00  0.00     0.005 C 
HETATM   15  C7  UNL     1      -5.700   3.462  15.057  1.00  0.00     0.066 C 
ENDBRANCH   1  10
TORSDOF 3
ENDMDL
MODEL 2
REMARK VINA RESULT: -5.818767673      1.986      4.826
REMARK  3 active torsions:
REMARK  status: ('A' for Active; 'I' for Inactive)
REMARK    1  A    between atoms: C2_2  and  N1_3 
REMARK    2  A    between atoms: C2_2  and  N2_11 
REMARK    3  A    between atoms: N1_3  and  C3_5 
ROOT
HETATM    1  N1  UNL     1      -3.522   2.712  13.001  1.00  0.00    -0.359 N 
ATOM      2  H1  UNL     1      -2.675   3.278  13.065  1.00  0.00     0.158 HD
ENDROOT
BRANCH   1   3
HETATM    3  C2  UNL     1      -4.511   2.740  14.026  1.00  0.00     0.316 C 
HETATM    4  C1  UNL     1      -3.990   2.818  15.420  1.00  0.00     0.066 C 
BRANCH   3   5
HETATM    5  N2  UNL     1      -5.355   3.897  13.783  1.00  0.00     0.110 N 
HETATM    6  C8  UNL     1      -4.594   5.050  13.372  1.00  0.00     0.275 C 
HETATM    7  C9  UNL     1      -4.582   6.027  14.512  1.00  0.00     0.032 C 
HETATM    8  C10 UNL     1      -5.757   5.626  15.355  1.00  0.00     0.032 C 
HETATM    9  C11 UNL     1      -6.188   4.257  14.880  1.00  0.00     0.275 C 
ENDBRANCH   3   5
ENDBRANCH   1   3
BRANCH   1  10
HETATM   10  C3  UNL     1      -3.756   1.876  11.899  1.00  0.00     0.173 C 
HETATM   11  F1  UNL     1      -4.612   2.390  10.949  1.00  0.00    -0.220 F 
HETATM   12  C4  UNL     1      -4.433   0.598  12.406  1.00  0.00     0.066 C 
HETATM   13  C5  UNL     1      -4.506  -0.182  11.112  1.00  0.00     0.005 C 
HETATM   14  C6  UNL     1      -3.150   0.067  10.505  1.00  0.00     0.005 C 
HETATM   15  C7  UNL     1      -2.567   1.295  11.204  1.00  0.00     0.066 C 
ENDBRANCH   1  10
TORSDOF 3
ENDMDL
MODEL 3
REMARK VINA RESULT: -5.807737733      1.661      3.395
REMARK  3 active torsions:
REMARK  status: ('A' for Active; 'I' for Inactive)
REMARK    1  A    between atoms: C2_2  and  N1_3 
REMARK    2  A    between atoms: C2_2  and  N2_11 
REMARK    3  A    between atoms: N1_3  and  C3_5 
ROOT
HETATM    1  N1  UNL     1      -5.725   3.095  14.731  1.00  0.00    -0.359 N 
ATOM      2  H1  UNL     1      -6.626   3.306  14.301  1.00  0.00     0.158 HD
ENDROOT
BRANCH   1   3
HETATM    3  C2  UNL     1      -4.526   3.062  13.960  1.00  0.00     0.316 C 
HETATM    4  C1  UNL     1      -4.487   2.039  12.877  1.00  0.00     0.066 C 
BRANCH   3   5
HETATM    5  N2  UNL     1      -4.359   4.375  13.362  1.00  0.00     0.110 N 
HETATM    6  C8  UNL     1      -2.972   4.748  13.242  1.00  0.00     0.275 C 
HETATM    7  C9  UNL     1      -2.690   5.816  14.258  1.00  0.00     0.032 C 
HETATM    8  C10 UNL     1      -4.041   6.382  14.584  1.00  0.00     0.032 C 
HETATM    9  C11 UNL     1      -5.064   5.417  14.029  1.00  0.00     0.275 C 
ENDBRANCH   3   5
ENDBRANCH   1   3
BRANCH   1  10
HETATM   10  C3  UNL     1      -5.619   2.827  16.103  1.00  0.00     0.173 C 
HETATM   11  F1  UNL     1      -4.356   2.995  16.633  1.00  0.00    -0.220 F 
HETATM   12  C4  UNL     1      -5.960   1.350  16.329  1.00  0.00     0.066 C 
HETATM   13  C5  UNL     1      -5.881   1.299  17.838  1.00  0.00     0.005 C 
HETATM   14  C6  UNL     1      -6.583   2.569  18.245  1.00  0.00     0.005 C 
HETATM   15  C7  UNL     1      -6.608   3.477  17.015  1.00  0.00     0.066 C 
ENDBRANCH   1  10
TORSDOF 3
ENDMDL
MODEL 4
REMARK VINA RESULT: -5.792567450      1.795      4.677
REMARK  3 active torsions:
REMARK  status: ('A' for Active; 'I' for Inactive)
REMARK    1  A    between atoms: C2_2  and  N1_3 
REMARK    2  A    between atoms: C2_2  and  N2_11 
REMARK    3  A    between atoms: N1_3  and  C3_5 
ROOT
HETATM    1  N1  UNL     1      -3.819   2.256  13.856  1.00  0.00    -0.359 N 
ATOM      2  H1  UNL     1      -2.871   2.563  14.076  1.00  0.00     0.158 HD
ENDROOT
BRANCH   1   3
HETATM    3  C2  UNL     1      -4.854   2.288  14.836  1.00  0.00     0.316 C 
HETATM    4  C1  UNL     1      -4.773   1.238  15.890  1.00  0.00     0.066 C 
BRANCH   3   5
HETATM    5  N2  UNL     1      -4.803   3.591  15.477  1.00  0.00     0.110 N 
HETATM    6  C8  UNL     1      -6.097   4.222  15.534  1.00  0.00     0.275 C 
HETATM    7  C9  UNL     1      -6.106   5.354  14.549  1.00  0.00     0.032 C 
HETATM    8  C10 UNL     1      -4.654   5.657  14.321  1.00  0.00     0.032 C 
HETATM    9  C11 UNL     1      -3.871   4.496  14.893  1.00  0.00     0.275 C 
ENDBRANCH   3   5
ENDBRANCH   1   3
BRANCH   1  10
HETATM   10  C3  UNL     1      -4.154   1.786  12.578  1.00  0.00     0.173 C 
HETATM   11  F1  UNL     1      -5.321   2.303  12.055  1.00  0.00    -0.220 F 
HETATM   12  C4  UNL     1      -4.386   0.274  12.672  1.00  0.00     0.066 C 
HETATM   13  C5  UNL     1      -4.633  -0.036  11.212  1.00  0.00     0.005 C 
HETATM   14  C6  UNL     1      -3.571   0.779  10.521  1.00  0.00     0.005 C 
HETATM   15  C7  UNL     1      -3.098   1.833  11.523  1.00  0.00     0.066 C 
ENDBRANCH   1  10
TORSDOF 3
ENDMDL
MODEL 5
REMARK VINA RESULT: -5.773937979      2.370      4.800
REMARK  3 active torsions:
REMARK  status: ('A' for Active; 'I' for Inactive)
REMARK    1  A    between atoms: C2_2  and  N1_3 
REMARK    2  A    between atoms: C2_2  and  N2_11 
REMARK    3  A    between atoms: N1_3  and  C3_5 
ROOT
HETATM    1  N1  UNL     1      -4.978   1.754  11.506  1.00  0.00    -0.359 N 
ATOM      2  H1  UNL     1      -5.986   1.831  11.365  1.00  0.00     0.158 HD
ENDROOT
BRANCH   1   3
HETATM    3  C2  UNL     1      -4.254   2.746  12.230  1.00  0.00     0.316 C 
HETATM    4  C1  UNL     1      -4.118   4.066  11.551  1.00  0.00     0.066 C 
BRANCH   3   5
HETATM    5  N2  UNL     1      -4.940   2.946  13.495  1.00  0.00     0.110 N 
HETATM    6  C8  UNL     1      -4.796   4.293  13.986  1.00  0.00     0.275 C 
HETATM    7  C9  UNL     1      -3.864   4.262  15.162  1.00  0.00     0.032 C 
HETATM    8  C10 UNL     1      -3.900   2.834  15.624  1.00  0.00     0.032 C 
HETATM    9  C11 UNL     1      -4.557   2.035  14.520  1.00  0.00     0.275 C 
ENDBRANCH   3   5
ENDBRANCH   1   3
BRANCH   1  10
HETATM   10  C3  UNL     1      -4.252   0.668  10.995  1.00  0.00     0.173 C 
HETATM   11  F1  UNL     1      -4.695   0.193   9.779  1.00  0.00    -0.220 F 
HETATM   12  C4  UNL     1      -4.402  -0.506  11.969  1.00  0.00     0.066 C 
HETATM   13  C5  UNL     1      -3.492  -1.510  11.298  1.00  0.00     0.005 C 
HETATM   14  C6  UNL     1      -2.305  -0.667  10.912  1.00  0.00     0.005 C 
HETATM   15  C7  UNL     1      -2.764   0.791  10.946  1.00  0.00     0.066 C 
ENDBRANCH   1  10
TORSDOF 3
ENDMDL
