MODEL 1
REMARK VINA RESULT: -5.927725124      0.000      0.000
REMARK  3 active torsions:
REMARK  status: ('A' for Active; 'I' for Inactive)
REMARK    1  A    between atoms: N1_2  and  C2_5 
REMARK    2  A    between atoms: C9_12  and  C10_13 
REMARK    3  A    between atoms: C11_14  and  C12_15 
ROOT
HETATM    1  C2  UNL     1      -2.723   3.095  11.444  1.00  0.00     0.129 C 
HETATM    2  C3  UNL     1      -3.343   3.884  10.334  1.00  0.00     0.047 C 
HETATM    3  C4  UNL     1      -1.598   2.261  10.839  1.00  0.00     0.039 C 
HETATM    4  C5  UNL     1      -1.924   0.798  10.793  1.00  0.00     0.003 C 
HETATM    5  C6  UNL     1      -3.356   0.671  10.355  1.00  0.00     0.005 C 
HETATM    6  C7  UNL     1      -4.180   1.045  11.568  1.00  0.00    -0.009 C 
HETATM    7  C8  UNL     1      -4.190  -0.168  12.479  1.00  0.00     0.011 C 
HETATM    8  C9  UNL     1      -3.635   2.269  12.269  1.00  0.00     0.047 C 
ENDROOT
BRANCH   1   9
HETATM    9  N1  UNL     1      -2.051   4.074  12.277  1.00  0.00    -0.070 N 
HETATM   10  C1  UNL     1      -0.946   4.717  11.664  1.00  0.00     0.267 C 
ATOM     11  H12 UNL     1      -1.769   3.652  13.162  1.00  0.00     0.277 HD
ATOM     12  H11 UNL     1      -2.719   4.766  12.618  1.00  0.00     0.277 HD
ENDBRANCH   1   9
BRANCH   8  13
HETATM   13  C10 UNL     1      -4.710   2.887  13.003  1.00  0.00    -0.023 C 
HETATM   14  C11 UNL     1      -4.890   3.170  14.258  1.00  0.00    -0.026 C 
BRANCH  14  15
HETATM   15  C12 UNL     1      -6.084   3.821  14.847  1.00  0.00    -0.001 C 
HETATM   16  C13 UNL     1      -6.394   3.322  16.243  1.00  0.00     0.013 C 
HETATM   17  C14 UNL     1      -5.879   5.317  14.961  1.00  0.00     0.013 C 
ENDBRANCH  14  15
ENDBRANCH   8  13
TORSDOF 3
ENDMDL
MODEL 2
REMARK VINA RESULT: -5.820339386      1.681      2.492
REMARK  3 active torsions:
REMARK  status: ('A' for Active; 'I' for Inactive)
REMARK    1  A    between atoms: N1_2  and  C2_5 
REMARK    2  A    between atoms: C9_12  and  C10_13 
REMARK    3  A    between atoms: C11_14  and  C12_15 
ROOT
HETATM    1  C2  UNL     1      -3.519   4.392  13.185  1.00  0.00     0.129 C 
HETATM    2  C3  UNL     1      -4.542   5.456  12.938  1.00  0.00     0.047 C 
HETATM    3  C4  UNL     1      -2.615   4.332  11.958  1.00  0.00     0.039 C 
HETATM    4  C5  UNL     1      -2.828   3.091  11.143  1.00  0.00     0.003 C 
HETATM    5  C6  UNL     1      -4.309   2.849  11.073  1.00  0.00     0.005 C 
HETATM    6  C7  UNL     1      -4.688   2.293  12.428  1.00  0.00    -0.009 C 
HETATM    7  C8  UNL     1      -4.293   0.829  12.424  1.00  0.00     0.011 C 
HETATM    8  C9  UNL     1      -4.026   3.050  13.558  1.00  0.00     0.047 C 
ENDROOT
BRANCH   1   9
HETATM    9  N1  UNL     1      -2.675   4.914  14.243  1.00  0.00    -0.070 N 
HETATM   10  C1  UNL     1      -1.825   5.979  13.852  1.00  0.00     0.267 C 
ATOM     11  H12 UNL     1      -2.130   4.162  14.664  1.00  0.00     0.277 HD
ATOM     12  H11 UNL     1      -3.243   5.189  15.045  1.00  0.00     0.277 HD
ENDBRANCH   1   9
BRANCH   8  13
HETATM   13  C10 UNL     1      -4.823   2.879  14.746  1.00  0.00    -0.023 C 
HETATM   14  C11 UNL     1      -4.594   2.347  15.909  1.00  0.00    -0.026 C 
BRANCH  14  15
HETATM   15  C12 UNL     1      -5.552   2.259  17.037  1.00  0.00    -0.001 C 
HETATM   16  C13 UNL     1      -6.811   3.065  16.797  1.00  0.00     0.013 C 
HETATM   17  C14 UNL     1      -5.993   0.828  17.256  1.00  0.00     0.013 C 
ENDBRANCH  14  15
ENDBRANCH   8  13
TORSDOF 3
ENDMDL
MODEL 3
REMARK VINA RESULT: -5.685902773      2.129      4.483
REMARK  3 active torsions:
REMARK  status: ('A' for Active; 'I' for Inactive)
REMARK    1  A    between atoms: N1_2  and  C2_5 
REMARK    2  A    between atoms: C9_12  and  C10_13 
REMARK    3  A    between atoms: C11_14  and  C12_15 
ROOT
HETATM    1  C2  UNL     1      -4.060   3.850  13.958  1.00  0.00     0.129 C 
HETATM    2  C3  UNL     1      -3.046   3.943  15.055  1.00  0.00     0.047 C 
HETATM    3  C4  UNL     1      -3.534   4.661  12.778  1.00  0.00     0.039 C 
HETATM    4  C5  UNL     1      -4.304   5.930  12.559  1.00  0.00     0.003 C 
HETATM    5  C6  UNL     1      -4.564   6.534  13.911  1.00  0.00     0.005 C 
HETATM    6  C7  UNL     1      -5.673   5.702  14.515  1.00  0.00    -0.009 C 
HETATM    7  C8  UNL     1      -6.968   6.176  13.883  1.00  0.00     0.011 C 
HETATM    8  C9  UNL     1      -5.453   4.221  14.301  1.00  0.00     0.047 C 
ENDROOT
BRANCH   1   9
HETATM    9  N1  UNL     1      -4.011   2.471  13.512  1.00  0.00    -0.070 N 
HETATM   10  C1  UNL     1      -4.536   2.249  12.213  1.00  0.00     0.267 C 
ATOM     11  H12 UNL     1      -4.471   1.863  14.188  1.00  0.00     0.277 HD
ATOM     12  H11 UNL     1      -3.057   2.113  13.575  1.00  0.00     0.277 HD
ENDBRANCH   1   9
BRANCH   8  13
HETATM   13  C10 UNL     1      -6.163   3.504  15.329  1.00  0.00    -0.023 C 
HETATM   14  C11 UNL     1      -6.293   3.673  16.611  1.00  0.00    -0.026 C 
BRANCH  14  15
HETATM   15  C12 UNL     1      -7.082   2.819  17.531  1.00  0.00    -0.001 C 
HETATM   16  C13 UNL     1      -7.421   1.471  16.931  1.00  0.00     0.013 C 
HETATM   17  C14 UNL     1      -6.308   2.542  18.803  1.00  0.00     0.013 C 
ENDBRANCH  14  15
ENDBRANCH   8  13
TORSDOF 3
ENDMDL
MODEL 4
REMARK VINA RESULT: -5.568514691      1.873      5.121
REMARK  3 active torsions:
REMARK  status: ('A' for Active; 'I' for Inactive)
REMARK    1  A    between atoms: N1_2  and  C2_5 
REMARK    2  A    between atoms: C9_12  and  C10_13 
REMARK    3  A    between atoms: C11_14  and  C12_15 
ROOT
HETATM    1  C2  UNL     1      -4.434   3.991  14.404  1.00  0.00     0.129 C 
HETATM    2  C3  UNL     1      -5.909   3.988  14.657  1.00  0.00     0.047 C 
HETATM    3  C4  UNL     1      -3.893   5.341  14.864  1.00  0.00     0.039 C 
HETATM    4  C5  UNL     1      -3.480   6.219  13.720  1.00  0.00     0.003 C 
HETATM    5  C6  UNL     1      -4.527   6.084  12.650  1.00  0.00     0.005 C 
HETATM    6  C7  UNL     1      -4.270   4.740  12.005  1.00  0.00    -0.009 C 
HETATM    7  C8  UNL     1      -3.103   4.929  11.054  1.00  0.00     0.011 C 
HETATM    8  C9  UNL     1      -3.991   3.662  13.029  1.00  0.00     0.047 C 
ENDROOT
BRANCH   1   9
HETATM    9  N1  UNL     1      -3.885   3.032  15.344  1.00  0.00    -0.070 N 
HETATM   10  C1  UNL     1      -4.846   2.397  16.172  1.00  0.00     0.267 C 
ATOM     11  H12 UNL     1      -3.161   3.469  15.913  1.00  0.00     0.277 HD
ATOM     12  H11 UNL     1      -3.326   2.335  14.851  1.00  0.00     0.277 HD
ENDBRANCH   1   9
BRANCH   8  13
HETATM   13  C10 UNL     1      -4.319   2.387  12.445  1.00  0.00    -0.023 C 
HETATM   14  C11 UNL     1      -3.607   1.374  12.049  1.00  0.00    -0.026 C 
BRANCH  14  15
HETATM   15  C12 UNL     1      -4.126   0.116  11.461  1.00  0.00    -0.001 C 
HETATM   16  C13 UNL     1      -4.936   0.349  10.204  1.00  0.00     0.013 C 
HETATM   17  C14 UNL     1      -2.988  -0.805  11.075  1.00  0.00     0.013 C 
ENDBRANCH  14  15
ENDBRANCH   8  13
TORSDOF 3
ENDMDL
MODEL 5
REMARK VINA RESULT: -5.519698669      1.829      5.166
REMARK  3 active torsions:
REMARK  status: ('A' for Active; 'I' for Inactive)
REMARK    1  A    between atoms: N1_2  and  C2_5 
REMARK    2  A    between atoms: C9_12  and  C10_13 
REMARK    3  A    between atoms: C11_14  and  C12_15 
ROOT
HETATM    1  C2  UNL     1      -4.303   4.354  14.213  1.00  0.00     0.129 C 
HETATM    2  C3  UNL     1      -5.724   3.891  14.263  1.00  0.00     0.047 C 
HETATM    3  C4  UNL     1      -4.269   5.788  14.734  1.00  0.00     0.039 C 
HETATM    4  C5  UNL     1      -4.000   6.790  13.651  1.00  0.00     0.003 C 
HETATM    5  C6  UNL     1      -4.804   6.379  12.450  1.00  0.00     0.005 C 
HETATM    6  C7  UNL     1      -4.062   5.202  11.854  1.00  0.00    -0.009 C 
HETATM    7  C8  UNL     1      -2.896   5.774  11.071  1.00  0.00     0.011 C 
HETATM    8  C9  UNL     1      -3.602   4.226  12.914  1.00  0.00     0.047 C 
ENDROOT
BRANCH   1   9
HETATM    9  N1  UNL     1      -3.614   3.576  15.225  1.00  0.00    -0.070 N 
HETATM   10  C1  UNL     1      -4.430   2.640  15.911  1.00  0.00     0.267 C 
ATOM     11  H12 UNL     1      -3.148   4.193  15.890  1.00  0.00     0.277 HD
ATOM     12  H11 UNL     1      -2.802   3.109  14.821  1.00  0.00     0.277 HD
ENDBRANCH   1   9
BRANCH   8  13
HETATM   13  C10 UNL     1      -3.441   2.933  12.299  1.00  0.00    -0.023 C 
HETATM   14  C11 UNL     1      -4.099   2.291  11.380  1.00  0.00    -0.026 C 
BRANCH  14  15
HETATM   15  C12 UNL     1      -3.783   0.940  10.860  1.00  0.00    -0.001 C 
HETATM   16  C13 UNL     1      -2.307   0.752  10.580  1.00  0.00     0.013 C 
HETATM   17  C14 UNL     1      -4.169  -0.127  11.863  1.00  0.00     0.013 C 
ENDBRANCH  14  15
ENDBRANCH   8  13
TORSDOF 3
ENDMDL
