MODEL 1
REMARK VINA RESULT: -6.252444078      0.000      0.000
REMARK  3 active torsions:
REMARK  status: ('A' for Active; 'I' for Inactive)
REMARK    1  A    between atoms: C2_3  and  C3_4 
REMARK    2  A    between atoms: C3_4  and  C4_5 
REMARK    3  A    between atoms: C4_5  and  C5_6 
ROOT
HETATM    1  N1  UNL     1      -2.993   4.750  15.001  1.00  0.00    -0.196 NA
HETATM    2  C1  UNL     1      -3.855   4.042  14.625  1.00  0.00     0.069 C 
HETATM    3  C2  UNL     1      -4.918   3.164  14.135  1.00  0.00     0.049 C 
HETATM    4  C8  UNL     1      -4.931   1.847  14.812  1.00  0.00     0.024 C 
HETATM    5  C9  UNL     1      -4.414   1.899  16.233  1.00  0.00     0.002 C 
HETATM    6  C10 UNL     1      -5.526   2.089  17.212  1.00  0.00     0.000 C 
HETATM    7  C11 UNL     1      -6.635   2.972  16.752  1.00  0.00     0.000 C 
HETATM    8  C12 UNL     1      -6.226   4.162  15.962  1.00  0.00     0.002 C 
HETATM    9  C13 UNL     1      -6.222   3.935  14.462  1.00  0.00     0.024 C 
ENDROOT
BRANCH   3  10
HETATM   10  C3  UNL     1      -4.845   2.984  12.643  1.00  0.00     0.030 C 
BRANCH  10  11
HETATM   11  C4  UNL     1      -4.250   1.681  12.239  1.00  0.00     0.060 C 
BRANCH  11  12
HETATM   12  C5  UNL     1      -2.946   1.863  11.515  1.00  0.00     0.025 A 
HETATM   13  C6  UNL     1      -2.308   1.022  10.636  1.00  0.00     0.113 A 
HETATM   14  N2  UNL     1      -1.154   1.566  10.211  1.00  0.00    -0.360 N 
HETATM   15  C7  UNL     1      -1.057   2.758  10.818  1.00  0.00     0.180 A 
ATOM     16  H2  UNL     1      -0.487   1.155   9.557  1.00  0.00     0.166 HD
HETATM   17  N3  UNL     1      -2.149   2.942  11.614  1.00  0.00    -0.355 N 
ATOM     18  H3  UNL     1      -2.332   3.763  12.191  1.00  0.00     0.166 HD
ENDBRANCH  11  12
ENDBRANCH  10  11
ENDBRANCH   3  10
TORSDOF 3
ENDMDL
MODEL 2
REMARK VINA RESULT: -6.090608939      0.948      1.078
REMARK  3 active torsions:
REMARK  status: ('A' for Active; 'I' for Inactive)
REMARK    1  A    between atoms: C2_3  and  C3_4 
REMARK    2  A    between atoms: C3_4  and  C4_5 
REMARK    3  A    between atoms: C4_5  and  C5_6 
ROOT
HETATM    1  N1  UNL     1      -2.994   5.229  15.053  1.00  0.00    -0.196 NA
HETATM    2  C1  UNL     1      -3.772   4.484  14.578  1.00  0.00     0.069 C 
HETATM    3  C2  UNL     1      -4.730   3.562  13.965  1.00  0.00     0.049 C 
HETATM    4  C8  UNL     1      -4.675   2.204  14.555  1.00  0.00     0.024 C 
HETATM    5  C9  UNL     1      -4.248   2.199  16.007  1.00  0.00     0.002 C 
HETATM    6  C10 UNL     1      -5.427   2.234  16.923  1.00  0.00     0.000 C 
HETATM    7  C11 UNL     1      -6.576   3.058  16.451  1.00  0.00     0.000 C 
HETATM    8  C12 UNL     1      -6.220   4.328  15.766  1.00  0.00     0.002 C 
HETATM    9  C13 UNL     1      -6.109   4.206  14.258  1.00  0.00     0.024 C 
ENDROOT
BRANCH   3  10
HETATM   10  C3  UNL     1      -4.554   3.491  12.473  1.00  0.00     0.030 C 
BRANCH  10  11
HETATM   11  C4  UNL     1      -5.016   2.203  11.890  1.00  0.00     0.060 C 
BRANCH  11  12
HETATM   12  C5  UNL     1      -3.872   1.397  11.341  1.00  0.00     0.025 A 
HETATM   13  C6  UNL     1      -3.881   0.162  10.738  1.00  0.00     0.113 A 
HETATM   14  N2  UNL     1      -2.635  -0.205  10.391  1.00  0.00    -0.360 N 
HETATM   15  C7  UNL     1      -1.830   0.798  10.772  1.00  0.00     0.180 A 
ATOM     16  H2  UNL     1      -2.359  -1.072   9.930  1.00  0.00     0.166 HD
HETATM   17  N3  UNL     1      -2.582   1.776  11.353  1.00  0.00    -0.355 N 
ATOM     18  H3  UNL     1      -2.225   2.653  11.733  1.00  0.00     0.166 HD
ENDBRANCH  11  12
ENDBRANCH  10  11
ENDBRANCH   3  10
TORSDOF 3
ENDMDL
MODEL 3
REMARK VINA RESULT: -5.982849083      2.685      5.402
REMARK  3 active torsions:
REMARK  status: ('A' for Active; 'I' for Inactive)
REMARK    1  A    between atoms: C2_3  and  C3_4 
REMARK    2  A    between atoms: C3_4  and  C4_5 
REMARK    3  A    between atoms: C4_5  and  C5_6 
ROOT
HETATM    1  N1  UNL     1      -3.177   3.791  11.356  1.00  0.00    -0.196 NA
HETATM    2  C1  UNL     1      -3.705   4.211  12.320  1.00  0.00     0.069 C 
HETATM    3  C2  UNL     1      -4.377   4.714  13.519  1.00  0.00     0.049 C 
HETATM    4  C8  UNL     1      -3.444   4.938  14.647  1.00  0.00     0.024 C 
HETATM    5  C9  UNL     1      -2.043   5.299  14.203  1.00  0.00     0.002 C 
HETATM    6  C10 UNL     1      -1.856   6.778  14.134  1.00  0.00     0.000 C 
HETATM    7  C11 UNL     1      -3.044   7.550  13.670  1.00  0.00     0.000 C 
HETATM    8  C12 UNL     1      -3.834   6.921  12.580  1.00  0.00     0.002 C 
HETATM    9  C13 UNL     1      -4.988   6.065  13.067  1.00  0.00     0.024 C 
ENDROOT
BRANCH   3  10
HETATM   10  C3  UNL     1      -5.503   3.812  13.944  1.00  0.00     0.030 C 
BRANCH  10  11
HETATM   11  C4  UNL     1      -5.950   4.051  15.342  1.00  0.00     0.060 C 
BRANCH  11  12
HETATM   12  C5  UNL     1      -6.014   2.775  16.135  1.00  0.00     0.025 A 
HETATM   13  C6  UNL     1      -5.126   1.727  16.179  1.00  0.00     0.113 A 
HETATM   14  N2  UNL     1      -5.561   0.774  17.022  1.00  0.00    -0.360 N 
HETATM   15  C7  UNL     1      -6.727   1.215  17.517  1.00  0.00     0.180 A 
ATOM     16  H2  UNL     1      -5.096  -0.108  17.241  1.00  0.00     0.166 HD
HETATM   17  N3  UNL     1      -7.005   2.437  16.977  1.00  0.00    -0.355 N 
ATOM     18  H3  UNL     1      -7.831   3.000  17.179  1.00  0.00     0.166 HD
ENDBRANCH  11  12
ENDBRANCH  10  11
ENDBRANCH   3  10
TORSDOF 3
ENDMDL
MODEL 4
REMARK VINA RESULT: -5.927314240      1.937      2.948
REMARK  3 active torsions:
REMARK  status: ('A' for Active; 'I' for Inactive)
REMARK    1  A    between atoms: C2_3  and  C3_4 
REMARK    2  A    between atoms: C3_4  and  C4_5 
REMARK    3  A    between atoms: C4_5  and  C5_6 
ROOT
HETATM    1  N1  UNL     1      -4.001   2.176  16.076  1.00  0.00    -0.196 NA
HETATM    2  C1  UNL     1      -4.359   2.723  15.097  1.00  0.00     0.069 C 
HETATM    3  C2  UNL     1      -4.804   3.380  13.867  1.00  0.00     0.049 C 
HETATM    4  C8  UNL     1      -6.037   4.179  14.059  1.00  0.00     0.024 C 
HETATM    5  C9  UNL     1      -6.178   4.735  15.459  1.00  0.00     0.002 C 
HETATM    6  C10 UNL     1      -5.615   6.115  15.557  1.00  0.00     0.000 C 
HETATM    7  C11 UNL     1      -4.396   6.366  14.738  1.00  0.00     0.000 C 
HETATM    8  C12 UNL     1      -3.421   5.246  14.674  1.00  0.00     0.002 C 
HETATM    9  C13 UNL     1      -3.625   4.315  13.494  1.00  0.00     0.024 C 
ENDROOT
BRANCH   3  10
HETATM   10  C3  UNL     1      -4.990   2.394  12.747  1.00  0.00     0.030 C 
BRANCH  10  11
HETATM   11  C4  UNL     1      -3.786   2.256  11.883  1.00  0.00     0.060 C 
BRANCH  11  12
HETATM   12  C5  UNL     1      -3.483   0.816  11.573  1.00  0.00     0.025 A 
HETATM   13  C6  UNL     1      -2.497   0.281  10.781  1.00  0.00     0.113 A 
HETATM   14  N2  UNL     1      -2.574  -1.062  10.770  1.00  0.00    -0.360 N 
HETATM   15  C7  UNL     1      -3.611  -1.383  11.558  1.00  0.00     0.180 A 
ATOM     16  H2  UNL     1      -1.965  -1.706  10.265  1.00  0.00     0.166 HD
HETATM   17  N3  UNL     1      -4.168  -0.238  12.049  1.00  0.00    -0.355 N 
ATOM     18  H3  UNL     1      -4.972  -0.191  12.675  1.00  0.00     0.166 HD
ENDBRANCH  11  12
ENDBRANCH  10  11
ENDBRANCH   3  10
TORSDOF 3
ENDMDL
MODEL 5
REMARK VINA RESULT: -5.910689271      1.959      5.666
REMARK  3 active torsions:
REMARK  status: ('A' for Active; 'I' for Inactive)
REMARK    1  A    between atoms: C2_3  and  C3_4 
REMARK    2  A    between atoms: C3_4  and  C4_5 
REMARK    3  A    between atoms: C4_5  and  C5_6 
ROOT
HETATM    1  N1  UNL     1      -4.706   4.432  10.314  1.00  0.00    -0.196 NA
HETATM    2  C1  UNL     1      -4.247   3.823  11.211  1.00  0.00     0.069 C 
HETATM    3  C2  UNL     1      -3.683   3.084  12.342  1.00  0.00     0.049 C 
HETATM    4  C8  UNL     1      -4.172   1.688  12.413  1.00  0.00     0.024 C 
HETATM    5  C9  UNL     1      -4.518   1.104  11.061  1.00  0.00     0.002 C 
HETATM    6  C10 UNL     1      -3.362   0.363  10.474  1.00  0.00     0.000 C 
HETATM    7  C11 UNL     1      -2.021   0.954  10.749  1.00  0.00     0.000 C 
HETATM    8  C12 UNL     1      -1.953   2.438  10.719  1.00  0.00     0.002 C 
HETATM    9  C13 UNL     1      -2.157   3.093  12.071  1.00  0.00     0.024 C 
ENDROOT
BRANCH   3  10
HETATM   10  C3  UNL     1      -3.930   3.792  13.645  1.00  0.00     0.030 C 
BRANCH  10  11
HETATM   11  C4  UNL     1      -5.368   3.835  14.025  1.00  0.00     0.060 C 
BRANCH  11  12
HETATM   12  C5  UNL     1      -5.615   3.176  15.354  1.00  0.00     0.025 A 
HETATM   13  C6  UNL     1      -4.900   2.189  15.987  1.00  0.00     0.113 A 
HETATM   14  N2  UNL     1      -5.463   1.880  17.169  1.00  0.00    -0.360 N 
HETATM   15  C7  UNL     1      -6.538   2.674  17.290  1.00  0.00     0.180 A 
ATOM     16  H2  UNL     1      -5.137   1.183  17.839  1.00  0.00     0.166 HD
HETATM   17  N3  UNL     1      -6.632   3.466  16.183  1.00  0.00    -0.355 N 
ATOM     18  H3  UNL     1      -7.357   4.163  16.013  1.00  0.00     0.166 HD
ENDBRANCH  11  12
ENDBRANCH  10  11
ENDBRANCH   3  10
TORSDOF 3
ENDMDL
