MODEL 1
REMARK VINA RESULT: -6.686811066      0.000      0.000
REMARK  3 active torsions:
REMARK  status: ('A' for Active; 'I' for Inactive)
REMARK    1  A    between atoms: C2_2  and  C3_3 
REMARK    2  A    between atoms: C5_7  and  C6_8 
REMARK    3  A    between atoms: C9_11  and  C10_12 
ROOT
HETATM    1  C6  UNL     1      -4.401   3.324  13.841  1.00  0.00     0.244 C 
HETATM    2  C7  UNL     1      -5.783   3.810  14.114  1.00  0.00     0.040 C 
HETATM    3  C8  UNL     1      -6.007   3.821  15.627  1.00  0.00     0.009 C 
HETATM    4  C9  UNL     1      -6.058   2.403  16.079  1.00  0.00     0.014 C 
HETATM    5  C13 UNL     1      -5.000   1.598  15.360  1.00  0.00     0.238 C 
HETATM    6  N2  UNL     1      -3.953   2.509  14.950  1.00  0.00    -0.065 N 
ATOM      7  H21 UNL     1      -3.617   3.077  15.728  1.00  0.00     0.278 HD
ATOM      8  H22 UNL     1      -3.085   2.019  14.734  1.00  0.00     0.278 HD
ENDROOT
BRANCH   1   9
HETATM    9  C5  UNL     1      -4.301   2.507  12.606  1.00  0.00     0.101 A 
HETATM   10  C4  UNL     1      -5.165   2.624  11.538  1.00  0.00     0.124 A 
HETATM   11  N1  UNL     1      -4.729   1.714  10.638  1.00  0.00    -0.348 N 
HETATM   12  C3  UNL     1      -3.664   1.079  11.124  1.00  0.00     0.123 A 
ATOM     13  H1  UNL     1      -5.151   1.542   9.726  1.00  0.00     0.167 HD
HETATM   14  O1  UNL     1      -3.436   1.589  12.324  1.00  0.00    -0.299 OA
BRANCH  12  15
HETATM   15  C2  UNL     1      -2.899   0.006  10.433  1.00  0.00     0.080 C 
HETATM   16  C1  UNL     1      -3.007  -1.297  11.177  1.00  0.00     0.013 C 
ENDBRANCH  12  15
ENDBRANCH   1   9
BRANCH   4  17
HETATM   17  C10 UNL     1      -5.904   2.229  17.568  1.00  0.00    -0.017 C 
HETATM   18  C11 UNL     1      -6.882   3.013  18.375  1.00  0.00     0.010 C 
HETATM   19  C12 UNL     1      -6.000   0.777  17.983  1.00  0.00     0.010 C 
ENDBRANCH   4  17
TORSDOF 3
ENDMDL
MODEL 2
REMARK VINA RESULT: -6.538590954      1.015      1.080
REMARK  3 active torsions:
REMARK  status: ('A' for Active; 'I' for Inactive)
REMARK    1  A    between atoms: C2_2  and  C3_3 
REMARK    2  A    between atoms: C5_7  and  C6_8 
REMARK    3  A    between atoms: C9_11  and  C10_12 
ROOT
HETATM    1  C6  UNL     1      -4.289   4.170  14.072  1.00  0.00     0.244 C 
HETATM    2  C7  UNL     1      -5.768   4.279  14.204  1.00  0.00     0.040 C 
HETATM    3  C8  UNL     1      -6.152   4.003  15.659  1.00  0.00     0.009 C 
HETATM    4  C9  UNL     1      -5.901   2.558  15.918  1.00  0.00     0.014 C 
HETATM    5  C13 UNL     1      -4.605   2.138  15.261  1.00  0.00     0.238 C 
HETATM    6  N2  UNL     1      -3.776   3.316  15.122  1.00  0.00    -0.065 N 
ATOM      7  H21 UNL     1      -3.677   3.817  16.005  1.00  0.00     0.278 HD
ATOM      8  H22 UNL     1      -2.796   3.076  14.973  1.00  0.00     0.278 HD
ENDROOT
BRANCH   1   9
HETATM    9  C5  UNL     1      -3.856   3.600  12.771  1.00  0.00     0.101 A 
HETATM   10  C4  UNL     1      -4.172   4.156  11.550  1.00  0.00     0.124 A 
HETATM   11  N1  UNL     1      -3.594   3.341  10.639  1.00  0.00    -0.348 N 
HETATM   12  C3  UNL     1      -2.965   2.347  11.263  1.00  0.00     0.123 A 
ATOM     13  H1  UNL     1      -3.635   3.469   9.628  1.00  0.00     0.167 HD
HETATM   14  O1  UNL     1      -3.149   2.540  12.560  1.00  0.00    -0.299 OA
BRANCH  12  15
HETATM   15  C2  UNL     1      -2.210   1.246  10.607  1.00  0.00     0.080 C 
HETATM   16  C1  UNL     1      -3.068   0.019  10.458  1.00  0.00     0.013 C 
ENDBRANCH  12  15
ENDBRANCH   1   9
BRANCH   4  17
HETATM   17  C10 UNL     1      -5.871   2.193  17.379  1.00  0.00    -0.017 C 
HETATM   18  C11 UNL     1      -6.847   2.950  18.214  1.00  0.00     0.010 C 
HETATM   19  C12 UNL     1      -6.102   0.714  17.601  1.00  0.00     0.010 C 
ENDBRANCH   4  17
TORSDOF 3
ENDMDL
MODEL 3
REMARK VINA RESULT: -6.532364808      1.313      1.574
REMARK  3 active torsions:
REMARK  status: ('A' for Active; 'I' for Inactive)
REMARK    1  A    between atoms: C2_2  and  C3_3 
REMARK    2  A    between atoms: C5_7  and  C6_8 
REMARK    3  A    between atoms: C9_11  and  C10_12 
ROOT
HETATM    1  C6  UNL     1      -4.311   3.878  14.011  1.00  0.00     0.244 C 
HETATM    2  C7  UNL     1      -5.789   3.996  14.152  1.00  0.00     0.040 C 
HETATM    3  C8  UNL     1      -6.157   3.814  15.626  1.00  0.00     0.009 C 
HETATM    4  C9  UNL     1      -5.904   2.389  15.974  1.00  0.00     0.014 C 
HETATM    5  C13 UNL     1      -4.615   1.926  15.332  1.00  0.00     0.238 C 
HETATM    6  N2  UNL     1      -3.788   3.092  15.109  1.00  0.00    -0.065 N 
ATOM      7  H21 UNL     1      -3.679   3.649  15.957  1.00  0.00     0.278 HD
ATOM      8  H22 UNL     1      -2.809   2.843  14.965  1.00  0.00     0.278 HD
ENDROOT
BRANCH   1   9
HETATM    9  C5  UNL     1      -3.893   3.225  12.746  1.00  0.00     0.101 A 
HETATM   10  C4  UNL     1      -4.776   2.777  11.787  1.00  0.00     0.124 A 
HETATM   11  N1  UNL     1      -3.997   2.257  10.813  1.00  0.00    -0.348 N 
HETATM   12  C3  UNL     1      -2.715   2.377  11.154  1.00  0.00     0.123 A 
ATOM     13  H1  UNL     1      -4.339   1.837   9.949  1.00  0.00     0.167 HD
HETATM   14  O1  UNL     1      -2.694   2.970  12.337  1.00  0.00    -0.299 OA
BRANCH  12  15
HETATM   15  C2  UNL     1      -1.552   1.923  10.344  1.00  0.00     0.080 C 
HETATM   16  C1  UNL     1      -0.821   3.096   9.748  1.00  0.00     0.013 C 
ENDBRANCH  12  15
ENDBRANCH   1   9
BRANCH   4  17
HETATM   17  C10 UNL     1      -5.859   2.119  17.456  1.00  0.00    -0.017 C 
HETATM   18  C11 UNL     1      -6.852   2.899  18.246  1.00  0.00     0.010 C 
HETATM   19  C12 UNL     1      -6.047   0.651  17.772  1.00  0.00     0.010 C 
ENDBRANCH   4  17
TORSDOF 3
ENDMDL
MODEL 4
REMARK VINA RESULT: -6.504225166      2.833      5.573
REMARK  3 active torsions:
REMARK  status: ('A' for Active; 'I' for Inactive)
REMARK    1  A    between atoms: C2_2  and  C3_3 
REMARK    2  A    between atoms: C5_7  and  C6_8 
REMARK    3  A    between atoms: C9_11  and  C10_12 
ROOT
HETATM    1  C6  UNL     1      -4.853   3.725  13.701  1.00  0.00     0.244 C 
HETATM    2  C7  UNL     1      -5.639   4.939  14.057  1.00  0.00     0.040 C 
HETATM    3  C8  UNL     1      -4.876   6.175  13.577  1.00  0.00     0.009 C 
HETATM    4  C9  UNL     1      -3.661   6.306  14.427  1.00  0.00     0.014 C 
HETATM    5  C13 UNL     1      -3.053   4.941  14.663  1.00  0.00     0.238 C 
HETATM    6  N2  UNL     1      -3.456   4.082  13.571  1.00  0.00    -0.065 N 
ATOM      7  H21 UNL     1      -3.252   4.500  12.664  1.00  0.00     0.278 HD
ATOM      8  H22 UNL     1      -2.859   3.258  13.496  1.00  0.00     0.278 HD
ENDROOT
BRANCH   1   9
HETATM    9  C5  UNL     1      -4.954   2.643  14.712  1.00  0.00     0.101 A 
HETATM   10  C4  UNL     1      -4.291   1.439  14.612  1.00  0.00     0.124 A 
HETATM   11  N1  UNL     1      -4.650   0.753  15.720  1.00  0.00    -0.348 N 
HETATM   12  C3  UNL     1      -5.483   1.490  16.453  1.00  0.00     0.123 A 
ATOM     13  H1  UNL     1      -4.332  -0.187  15.958  1.00  0.00     0.167 HD
HETATM   14  O1  UNL     1      -5.643   2.633  15.805  1.00  0.00    -0.299 OA
BRANCH  12  15
HETATM   15  C2  UNL     1      -6.100   1.084  17.744  1.00  0.00     0.080 C 
HETATM   16  C1  UNL     1      -6.386   2.284  18.605  1.00  0.00     0.013 C 
ENDBRANCH  12  15
ENDBRANCH   1   9
BRANCH   4  17
HETATM   17  C10 UNL     1      -2.618   7.237  13.866  1.00  0.00    -0.017 C 
HETATM   18  C11 UNL     1      -2.995   7.859  12.566  1.00  0.00     0.010 C 
HETATM   19  C12 UNL     1      -2.261   8.341  14.837  1.00  0.00     0.010 C 
ENDBRANCH   4  17
TORSDOF 3
ENDMDL
MODEL 5
REMARK VINA RESULT: -6.070236944      1.963      2.384
REMARK  3 active torsions:
REMARK  status: ('A' for Active; 'I' for Inactive)
REMARK    1  A    between atoms: C2_2  and  C3_3 
REMARK    2  A    between atoms: C5_7  and  C6_8 
REMARK    3  A    between atoms: C9_11  and  C10_12 
ROOT
HETATM    1  C6  UNL     1      -3.983   4.586  14.840  1.00  0.00     0.244 C 
HETATM    2  C7  UNL     1      -5.421   4.851  14.554  1.00  0.00     0.040 C 
HETATM    3  C8  UNL     1      -6.261   4.272  15.694  1.00  0.00     0.009 C 
HETATM    4  C9  UNL     1      -6.173   2.789  15.603  1.00  0.00     0.014 C 
HETATM    5  C13 UNL     1      -4.756   2.380  15.268  1.00  0.00     0.238 C 
HETATM    6  N2  UNL     1      -3.873   3.437  15.714  1.00  0.00    -0.065 N 
ATOM      7  H21 UNL     1      -4.038   3.684  16.689  1.00  0.00     0.278 HD
ATOM      8  H22 UNL     1      -2.909   3.116  15.800  1.00  0.00     0.278 HD
ENDROOT
BRANCH   1   9
HETATM    9  C5  UNL     1      -3.184   4.307  13.620  1.00  0.00     0.101 A 
HETATM   10  C4  UNL     1      -2.043   5.000  13.278  1.00  0.00     0.124 A 
HETATM   11  N1  UNL     1      -1.632   4.442  12.118  1.00  0.00    -0.348 N 
HETATM   12  C3  UNL     1      -2.471   3.467  11.770  1.00  0.00     0.123 A 
ATOM     13  H1  UNL     1      -0.806   4.724  11.591  1.00  0.00     0.167 HD
HETATM   14  O1  UNL     1      -3.402   3.417  12.709  1.00  0.00    -0.299 OA
BRANCH  12  15
HETATM   15  C2  UNL     1      -2.360   2.615  10.555  1.00  0.00     0.080 C 
HETATM   16  C1  UNL     1      -1.592   1.355  10.849  1.00  0.00     0.013 C 
ENDBRANCH  12  15
ENDBRANCH   1   9
BRANCH   4  17
HETATM   17  C10 UNL     1      -6.629   2.070  16.846  1.00  0.00    -0.017 C 
HETATM   18  C11 UNL     1      -5.875   0.816  17.133  1.00  0.00     0.010 C 
HETATM   19  C12 UNL     1      -6.565   2.955  18.070  1.00  0.00     0.010 C 
ENDBRANCH   4  17
TORSDOF 3
ENDMDL
