MODEL 1
REMARK VINA RESULT: -7.061291003      0.000      0.000
REMARK  4 active torsions:
REMARK  status: ('A' for Active; 'I' for Inactive)
REMARK    1  A    between atoms: O1_2  and  C2_3 
REMARK    2  A    between atoms: C2_3  and  C3_5 
REMARK    3  A    between atoms: C5_7  and  N1_8 
REMARK       I    between atoms: N1_8  and  C6_10 
REMARK       I    between atoms: C6_10  and  N3_14 
REMARK    4  A    between atoms: N3_14  and  C7_16 
ROOT
HETATM    1  N1  UNL     1       8.649  14.764  25.002  1.00  0.00    -0.188 N 
ATOM      2  H1  UNL     1       8.786  15.579  24.406  1.00  0.00     0.184 HD
HETATM    3  C6  UNL     1       7.446  14.005  24.894  1.00  0.00     0.702 C 
HETATM    4  N2  UNL     1       6.477  14.237  25.679  1.00  0.00    -0.054 N 
ATOM      5  H2  UNL     1       5.620  13.690  25.595  1.00  0.00     0.218 HD
HETATM    6  F1  UNL     1       6.563  15.190  26.620  1.00  0.00    -0.086 F 
HETATM    7  N3  UNL     1       7.396  13.004  23.883  1.00  0.00    -0.220 N 
ATOM      8  H3  UNL     1       7.753  13.251  22.960  1.00  0.00     0.178 HD
ENDROOT
BRANCH   1   9
HETATM    9  C5  UNL     1       9.656  14.397  25.928  1.00  0.00     0.074 A 
HETATM   10  C4  UNL     1      10.971  14.792  25.882  1.00  0.00     0.075 A 
HETATM   11  C3  UNL     1      11.627  14.214  26.974  1.00  0.00     0.152 A 
HETATM   12  O3  UNL     1      10.731  13.529  27.605  1.00  0.00    -0.314 OA
HETATM   13  C10 UNL     1       9.550  13.596  27.040  1.00  0.00     0.173 A 
BRANCH  11  14
HETATM   14  C2  UNL     1      13.048  14.384  27.292  1.00  0.00     0.317 C 
HETATM   15  O2  UNL     1      13.816  14.752  26.368  1.00  0.00    -0.257 OA
BRANCH  14  16
HETATM   16  O1  UNL     1      13.579  14.164  28.532  1.00  0.00    -0.321 OA
HETATM   17  C1  UNL     1      14.297  13.001  28.898  1.00  0.00     0.213 C 
ENDBRANCH  14  16
ENDBRANCH  11  14
ENDBRANCH   1   9
BRANCH   7  18
HETATM   18  C7  UNL     1       6.889  11.689  24.059  1.00  0.00     0.091 C 
HETATM   19  C8  UNL     1       5.603  11.428  23.318  1.00  0.00     0.032 C 
HETATM   20  C9  UNL     1       7.905  10.686  23.559  1.00  0.00     0.032 C 
ENDBRANCH   7  18
TORSDOF 4
ENDMDL
MODEL 2
REMARK VINA RESULT: -6.999139119      2.125      2.871
REMARK  4 active torsions:
REMARK  status: ('A' for Active; 'I' for Inactive)
REMARK    1  A    between atoms: O1_2  and  C2_3 
REMARK    2  A    between atoms: C2_3  and  C3_5 
REMARK    3  A    between atoms: C5_7  and  N1_8 
REMARK       I    between atoms: N1_8  and  C6_10 
REMARK       I    between atoms: C6_10  and  N3_14 
REMARK    4  A    between atoms: N3_14  and  C7_16 
ROOT
HETATM    1  N1  UNL     1       6.111  15.229  24.786  1.00  0.00    -0.188 N 
ATOM      2  H1  UNL     1       6.354  15.920  24.076  1.00  0.00     0.184 HD
HETATM    3  C6  UNL     1       4.755  14.804  24.921  1.00  0.00     0.702 C 
HETATM    4  N2  UNL     1       4.000  15.355  25.779  1.00  0.00    -0.054 N 
ATOM      5  H2  UNL     1       3.033  15.046  25.869  1.00  0.00     0.218 HD
HETATM    6  F1  UNL     1       4.456  16.338  26.570  1.00  0.00    -0.086 F 
HETATM    7  N3  UNL     1       4.312  13.759  24.063  1.00  0.00    -0.220 N 
ATOM      8  H3  UNL     1       4.577  13.814  23.079  1.00  0.00     0.178 HD
ENDROOT
BRANCH   1   9
HETATM    9  C5  UNL     1       7.122  14.703  25.626  1.00  0.00     0.074 A 
HETATM   10  C4  UNL     1       8.472  14.741  25.377  1.00  0.00     0.075 A 
HETATM   11  C3  UNL     1       9.120  14.117  26.447  1.00  0.00     0.152 A 
HETATM   12  O3  UNL     1       8.187  13.746  27.261  1.00  0.00    -0.314 OA
HETATM   13  C10 UNL     1       6.987  14.062  26.834  1.00  0.00     0.173 A 
BRANCH  11  14
HETATM   14  C2  UNL     1      10.571  13.945  26.573  1.00  0.00     0.317 C 
HETATM   15  O2  UNL     1      11.258  13.976  25.520  1.00  0.00    -0.257 OA
BRANCH  14  16
HETATM   16  O1  UNL     1      11.211  13.752  27.764  1.00  0.00    -0.321 OA
HETATM   17  C1  UNL     1      12.527  14.191  28.043  1.00  0.00     0.213 C 
ENDBRANCH  14  16
ENDBRANCH  11  14
ENDBRANCH   1   9
BRANCH   7  18
HETATM   18  C7  UNL     1       3.529  12.645  24.468  1.00  0.00     0.091 C 
HETATM   19  C8  UNL     1       2.067  12.771  24.125  1.00  0.00     0.032 C 
HETATM   20  C9  UNL     1       4.042  11.395  23.787  1.00  0.00     0.032 C 
ENDBRANCH   7  18
TORSDOF 4
ENDMDL
MODEL 3
REMARK VINA RESULT: -6.954553802      0.923      1.271
REMARK  4 active torsions:
REMARK  status: ('A' for Active; 'I' for Inactive)
REMARK    1  A    between atoms: O1_2  and  C2_3 
REMARK    2  A    between atoms: C2_3  and  C3_5 
REMARK    3  A    between atoms: C5_7  and  N1_8 
REMARK       I    between atoms: N1_8  and  C6_10 
REMARK       I    between atoms: C6_10  and  N3_14 
REMARK    4  A    between atoms: N3_14  and  C7_16 
ROOT
HETATM    1  N1  UNL     1       8.309  14.827  24.773  1.00  0.00    -0.188 N 
ATOM      2  H1  UNL     1       8.534  15.609  24.159  1.00  0.00     0.184 HD
HETATM    3  C6  UNL     1       7.047  14.172  24.648  1.00  0.00     0.702 C 
HETATM    4  N2  UNL     1       6.081  14.511  25.397  1.00  0.00    -0.054 N 
ATOM      5  H2  UNL     1       5.182  14.039  25.302  1.00  0.00     0.218 HD
HETATM    6  F1  UNL     1       6.224  15.480  26.313  1.00  0.00    -0.086 F 
HETATM    7  N3  UNL     1       6.938  13.150  23.664  1.00  0.00    -0.220 N 
ATOM      8  H3  UNL     1       7.341  13.337  22.745  1.00  0.00     0.178 HD
ENDROOT
BRANCH   1   9
HETATM    9  C5  UNL     1       9.253  14.401  25.738  1.00  0.00     0.074 A 
HETATM   10  C4  UNL     1      10.512  14.924  25.915  1.00  0.00     0.075 A 
HETATM   11  C3  UNL     1      11.117  14.228  26.967  1.00  0.00     0.152 A 
HETATM   12  O3  UNL     1      10.248  13.359  27.366  1.00  0.00    -0.314 OA
HETATM   13  C10 UNL     1       9.129  13.410  26.683  1.00  0.00     0.173 A 
BRANCH  11  14
HETATM   14  C2  UNL     1      12.470  14.477  27.476  1.00  0.00     0.317 C 
HETATM   15  O2  UNL     1      12.700  14.212  28.683  1.00  0.00    -0.257 OA
BRANCH  14  16
HETATM   16  O1  UNL     1      13.487  14.978  26.713  1.00  0.00    -0.321 OA
HETATM   17  C1  UNL     1      14.296  14.200  25.851  1.00  0.00     0.213 C 
ENDBRANCH  14  16
ENDBRANCH  11  14
ENDBRANCH   1   9
BRANCH   7  18
HETATM   18  C7  UNL     1       6.313  11.890  23.859  1.00  0.00     0.091 C 
HETATM   19  C8  UNL     1       4.823  11.909  23.640  1.00  0.00     0.032 C 
HETATM   20  C9  UNL     1       6.895  10.883  22.892  1.00  0.00     0.032 C 
ENDBRANCH   7  18
TORSDOF 4
ENDMDL
MODEL 4
REMARK VINA RESULT: -6.652348596      5.681      8.131
REMARK  4 active torsions:
REMARK  status: ('A' for Active; 'I' for Inactive)
REMARK    1  A    between atoms: O1_2  and  C2_3 
REMARK    2  A    between atoms: C2_3  and  C3_5 
REMARK    3  A    between atoms: C5_7  and  N1_8 
REMARK       I    between atoms: N1_8  and  C6_10 
REMARK       I    between atoms: C6_10  and  N3_14 
REMARK    4  A    between atoms: N3_14  and  C7_16 
ROOT
HETATM    1  N1  UNL     1       5.895  13.522  25.486  1.00  0.00    -0.188 N 
ATOM      2  H1  UNL     1       6.123  13.613  26.476  1.00  0.00     0.184 HD
HETATM    3  C6  UNL     1       6.914  13.148  24.559  1.00  0.00     0.702 C 
HETATM    4  N2  UNL     1       7.544  14.042  23.916  1.00  0.00    -0.054 N 
ATOM      5  H2  UNL     1       8.271  13.767  23.255  1.00  0.00     0.218 HD
HETATM    6  F1  UNL     1       7.268  15.343  24.090  1.00  0.00    -0.086 F 
HETATM    7  N3  UNL     1       7.175  11.758  24.404  1.00  0.00    -0.220 N 
ATOM      8  H3  UNL     1       7.232  11.193  25.251  1.00  0.00     0.178 HD
ENDROOT
BRANCH   1   9
HETATM    9  C5  UNL     1       4.571  13.767  25.047  1.00  0.00     0.074 A 
HETATM   10  C4  UNL     1       3.751  12.859  24.423  1.00  0.00     0.075 A 
HETATM   11  C3  UNL     1       2.535  13.495  24.158  1.00  0.00     0.152 A 
HETATM   12  O3  UNL     1       2.658  14.700  24.609  1.00  0.00    -0.314 OA
HETATM   13  C10 UNL     1       3.835  14.923  25.145  1.00  0.00     0.173 A 
BRANCH  11  14
HETATM   14  C2  UNL     1       1.382  12.874  23.499  1.00  0.00     0.317 C 
HETATM   15  O2  UNL     1       1.608  12.058  22.570  1.00  0.00    -0.257 OA
BRANCH  14  16
HETATM   16  O1  UNL     1       0.084  13.134  23.837  1.00  0.00    -0.321 OA
HETATM   17  C1  UNL     1      -1.033  12.445  23.307  1.00  0.00     0.213 C 
ENDBRANCH  14  16
ENDBRANCH  11  14
ENDBRANCH   1   9
BRANCH   7  18
HETATM   18  C7  UNL     1       7.362  11.095  23.162  1.00  0.00     0.091 C 
HETATM   19  C8  UNL     1       8.347   9.956  23.222  1.00  0.00     0.032 C 
HETATM   20  C9  UNL     1       6.043  10.521  22.693  1.00  0.00     0.032 C 
ENDBRANCH   7  18
TORSDOF 4
ENDMDL
MODEL 5
REMARK VINA RESULT: -6.646536837      4.936      7.288
REMARK  4 active torsions:
REMARK  status: ('A' for Active; 'I' for Inactive)
REMARK    1  A    between atoms: O1_2  and  C2_3 
REMARK    2  A    between atoms: C2_3  and  C3_5 
REMARK    3  A    between atoms: C5_7  and  N1_8 
REMARK       I    between atoms: N1_8  and  C6_10 
REMARK       I    between atoms: C6_10  and  N3_14 
REMARK    4  A    between atoms: N3_14  and  C7_16 
ROOT
HETATM    1  N1  UNL     1       7.468  12.920  23.680  1.00  0.00    -0.188 N 
ATOM      2  H1  UNL     1       8.076  13.346  22.981  1.00  0.00     0.184 HD
HETATM    3  C6  UNL     1       6.988  13.705  24.770  1.00  0.00     0.702 C 
HETATM    4  N2  UNL     1       7.600  13.687  25.881  1.00  0.00    -0.054 N 
ATOM      5  H2  UNL     1       7.251  14.251  26.656  1.00  0.00     0.218 HD
HETATM    6  F1  UNL     1       8.699  12.937  26.054  1.00  0.00    -0.086 F 
HETATM    7  N3  UNL     1       5.820  14.486  24.545  1.00  0.00    -0.220 N 
ATOM      8  H3  UNL     1       5.765  15.009  23.671  1.00  0.00     0.178 HD
ENDROOT
BRANCH   1   9
HETATM    9  C5  UNL     1       7.110  11.556  23.556  1.00  0.00     0.074 A 
HETATM   10  C4  UNL     1       5.840  11.075  23.348  1.00  0.00     0.075 A 
HETATM   11  C3  UNL     1       5.917   9.680  23.284  1.00  0.00     0.152 A 
HETATM   12  O3  UNL     1       7.165   9.386  23.446  1.00  0.00    -0.314 OA
HETATM   13  C10 UNL     1       7.919  10.446  23.611  1.00  0.00     0.173 A 
BRANCH  11  14
HETATM   14  C2  UNL     1       4.780   8.779  23.073  1.00  0.00     0.317 C 
HETATM   15  O2  UNL     1       4.352   8.133  24.063  1.00  0.00    -0.257 OA
BRANCH  14  16
HETATM   16  O1  UNL     1       4.164   8.606  21.866  1.00  0.00    -0.321 OA
HETATM   17  C1  UNL     1       4.804   8.764  20.614  1.00  0.00     0.213 C 
ENDBRANCH  14  16
ENDBRANCH  11  14
ENDBRANCH   1   9
BRANCH   7  18
HETATM   18  C7  UNL     1       4.724  14.594  25.442  1.00  0.00     0.091 C 
HETATM   19  C8  UNL     1       4.510  15.986  25.977  1.00  0.00     0.032 C 
HETATM   20  C9  UNL     1       3.450  14.186  24.733  1.00  0.00     0.032 C 
ENDBRANCH   7  18
TORSDOF 4
ENDMDL
