MODEL 1
REMARK VINA RESULT: -6.130041155      0.000      0.000
REMARK  4 active torsions:
REMARK  status: ('A' for Active; 'I' for Inactive)
REMARK    1  A    between atoms: C2_2  and  O1_3 
REMARK    2  A    between atoms: O1_3  and  C3_4 
REMARK    3  A    between atoms: C4_5  and  C5_6 
REMARK    4  A    between atoms: C9_15  and  N4_16 
ROOT
HETATM    1  C5  UNL     1       4.935   9.288  22.828  1.00  0.00     0.171 C 
HETATM    2  C6  UNL     1       3.605   9.675  23.280  1.00  0.00     0.054 C 
HETATM    3  C7  UNL     1       4.922   9.182  21.341  1.00  0.00     0.089 C 
HETATM    4  N1  UNL     1       4.917   9.104  20.186  1.00  0.00    -0.195 NA
HETATM    5  C8  UNL     1       5.193   7.922  23.385  1.00  0.00     0.089 C 
HETATM    6  N2  UNL     1       5.410   6.876  23.802  1.00  0.00    -0.195 NA
ENDROOT
BRANCH   1   7
HETATM    7  C4  UNL     1       6.078  10.152  23.231  1.00  0.00     0.073 A 
HETATM    8  C3  UNL     1       6.215  11.453  23.581  1.00  0.00     0.130 A 
HETATM    9  C9  UNL     1       7.476  11.855  23.968  1.00  0.00     0.140 A 
HETATM   10  N3  UNL     1       8.443  10.961  23.967  1.00  0.00    -0.310 N 
HETATM   11  S1  UNL     1       7.703   9.555  23.448  1.00  0.00    -0.012 SA
ATOM     12  H3  UNL     1       9.422  11.096  24.223  1.00  0.00     0.176 HD
BRANCH   8  13
HETATM   13  O1  UNL     1       5.152  12.403  23.564  1.00  0.00    -0.347 OA
BRANCH  13  14
HETATM   14  C2  UNL     1       4.447  12.834  24.672  1.00  0.00     0.171 C 
HETATM   15  C1  UNL     1       3.991  14.240  24.783  1.00  0.00     0.034 C 
ENDBRANCH  13  14
ENDBRANCH   8  13
BRANCH   9  16
HETATM   16  N4  UNL     1       7.733  13.104  24.339  1.00  0.00    -0.383 N 
ATOM     17  H42 UNL     1       8.572  13.571  23.997  1.00  0.00     0.157 HD
ATOM     18  H41 UNL     1       7.113  13.621  24.963  1.00  0.00     0.157 HD
ENDBRANCH   9  16
ENDBRANCH   1   7
TORSDOF 4
ENDMDL
MODEL 2
REMARK VINA RESULT: -5.890405564      2.218      3.395
REMARK  4 active torsions:
REMARK  status: ('A' for Active; 'I' for Inactive)
REMARK    1  A    between atoms: C2_2  and  O1_3 
REMARK    2  A    between atoms: O1_3  and  C3_4 
REMARK    3  A    between atoms: C4_5  and  C5_6 
REMARK    4  A    between atoms: C9_15  and  N4_16 
ROOT
HETATM    1  C5  UNL     1       5.623   9.485  22.774  1.00  0.00     0.171 C 
HETATM    2  C6  UNL     1       5.325   8.299  23.566  1.00  0.00     0.054 C 
HETATM    3  C7  UNL     1       5.159   9.256  21.376  1.00  0.00     0.089 C 
HETATM    4  N1  UNL     1       4.794   9.083  20.292  1.00  0.00    -0.195 NA
HETATM    5  C8  UNL     1       7.115   9.617  22.748  1.00  0.00     0.089 C 
HETATM    6  N2  UNL     1       8.255   9.735  22.717  1.00  0.00    -0.195 NA
ENDROOT
BRANCH   1   7
HETATM    7  C4  UNL     1       5.073  10.785  23.248  1.00  0.00     0.073 A 
HETATM    8  C3  UNL     1       3.829  11.272  23.471  1.00  0.00     0.130 A 
HETATM    9  C9  UNL     1       3.752  12.544  23.997  1.00  0.00     0.140 A 
HETATM   10  N3  UNL     1       4.876  13.187  24.239  1.00  0.00    -0.310 N 
HETATM   11  S1  UNL     1       6.072  12.116  23.772  1.00  0.00    -0.012 SA
ATOM     12  H3  UNL     1       4.991  14.125  24.624  1.00  0.00     0.176 HD
BRANCH   8  13
HETATM   13  O1  UNL     1       2.627  10.557  23.189  1.00  0.00    -0.347 OA
BRANCH  13  14
HETATM   14  C2  UNL     1       1.970   9.720  24.071  1.00  0.00     0.171 C 
HETATM   15  C1  UNL     1       1.560   8.357  23.662  1.00  0.00     0.034 C 
ENDBRANCH  13  14
ENDBRANCH   8  13
BRANCH   9  16
HETATM   16  N4  UNL     1       2.589  13.126  24.263  1.00  0.00    -0.383 N 
ATOM     17  H42 UNL     1       2.458  14.115  24.053  1.00  0.00     0.157 HD
ATOM     18  H41 UNL     1       1.810  12.613  24.677  1.00  0.00     0.157 HD
ENDBRANCH   9  16
ENDBRANCH   1   7
TORSDOF 4
ENDMDL
MODEL 3
REMARK VINA RESULT: -5.873274259      2.081      3.648
REMARK  4 active torsions:
REMARK  status: ('A' for Active; 'I' for Inactive)
REMARK    1  A    between atoms: C2_2  and  O1_3 
REMARK    2  A    between atoms: O1_3  and  C3_4 
REMARK    3  A    between atoms: C4_5  and  C5_6 
REMARK    4  A    between atoms: C9_15  and  N4_16 
ROOT
HETATM    1  C5  UNL     1       6.191   9.740  22.593  1.00  0.00     0.171 C 
HETATM    2  C6  UNL     1       7.601   9.848  22.244  1.00  0.00     0.054 C 
HETATM    3  C7  UNL     1       6.020   8.606  23.547  1.00  0.00     0.089 C 
HETATM    4  N1  UNL     1       5.885   7.732  24.292  1.00  0.00    -0.195 NA
HETATM    5  C8  UNL     1       5.465   9.391  21.330  1.00  0.00     0.089 C 
HETATM    6  N2  UNL     1       4.891   9.124  20.374  1.00  0.00    -0.195 NA
ENDROOT
BRANCH   1   7
HETATM    7  C4  UNL     1       5.528  10.944  23.165  1.00  0.00     0.073 A 
HETATM    8  C3  UNL     1       4.245  11.303  23.407  1.00  0.00     0.130 A 
HETATM    9  C9  UNL     1       4.054  12.514  24.037  1.00  0.00     0.140 A 
HETATM   10  N3  UNL     1       5.116  13.227  24.351  1.00  0.00    -0.310 N 
HETATM   11  S1  UNL     1       6.404  12.305  23.816  1.00  0.00    -0.012 SA
ATOM     12  H3  UNL     1       5.147  14.135  24.815  1.00  0.00     0.176 HD
BRANCH   8  13
HETATM   13  O1  UNL     1       3.111  10.516  23.046  1.00  0.00    -0.347 OA
BRANCH  13  14
HETATM   14  C2  UNL     1       2.500   9.576  23.855  1.00  0.00     0.171 C 
HETATM   15  C1  UNL     1       2.360   8.169  23.413  1.00  0.00     0.034 C 
ENDBRANCH  13  14
ENDBRANCH   8  13
BRANCH   9  16
HETATM   16  N4  UNL     1       2.843  12.971  24.331  1.00  0.00    -0.383 N 
ATOM     17  H42 UNL     1       2.394  12.691  25.204  1.00  0.00     0.157 HD
ATOM     18  H41 UNL     1       2.336  13.599  23.708  1.00  0.00     0.157 HD
ENDBRANCH   9  16
ENDBRANCH   1   7
TORSDOF 4
ENDMDL
MODEL 4
REMARK VINA RESULT: -5.814846033      2.937      5.622
REMARK  4 active torsions:
REMARK  status: ('A' for Active; 'I' for Inactive)
REMARK    1  A    between atoms: C2_2  and  O1_3 
REMARK    2  A    between atoms: O1_3  and  C3_4 
REMARK    3  A    between atoms: C4_5  and  C5_6 
REMARK    4  A    between atoms: C9_15  and  N4_16 
ROOT
HETATM    1  C5  UNL     1       6.371  14.382  24.977  1.00  0.00     0.171 C 
HETATM    2  C6  UNL     1       7.494  14.917  24.219  1.00  0.00     0.054 C 
HETATM    3  C7  UNL     1       5.419  15.491  25.268  1.00  0.00     0.089 C 
HETATM    4  N1  UNL     1       4.674  16.349  25.490  1.00  0.00    -0.195 NA
HETATM    5  C8  UNL     1       6.929  13.900  26.282  1.00  0.00     0.089 C 
HETATM    6  N2  UNL     1       7.336  13.525  27.286  1.00  0.00    -0.195 NA
ENDROOT
BRANCH   1   7
HETATM    7  C4  UNL     1       5.611  13.251  24.378  1.00  0.00     0.073 A 
HETATM    8  C3  UNL     1       5.947  12.133  23.691  1.00  0.00     0.130 A 
HETATM    9  C9  UNL     1       4.914  11.277  23.368  1.00  0.00     0.140 A 
HETATM   10  N3  UNL     1       3.694  11.604  23.742  1.00  0.00    -0.310 N 
HETATM   11  S1  UNL     1       3.884  13.063  24.535  1.00  0.00    -0.012 SA
ATOM     12  H3  UNL     1       2.830  11.085  23.583  1.00  0.00     0.176 HD
BRANCH   8  13
HETATM   13  O1  UNL     1       7.276  11.808  23.289  1.00  0.00    -0.347 OA
BRANCH  13  14
HETATM   14  C2  UNL     1       8.066  10.827  23.858  1.00  0.00     0.171 C 
HETATM   15  C1  UNL     1       8.363   9.573  23.127  1.00  0.00     0.034 C 
ENDBRANCH  13  14
ENDBRANCH   8  13
BRANCH   9  16
HETATM   16  N4  UNL     1       5.119  10.148  22.701  1.00  0.00    -0.383 N 
ATOM     17  H42 UNL     1       4.956  10.117  21.695  1.00  0.00     0.157 HD
ATOM     18  H41 UNL     1       5.438   9.297  23.164  1.00  0.00     0.157 HD
ENDBRANCH   9  16
ENDBRANCH   1   7
TORSDOF 4
ENDMDL
MODEL 5
REMARK VINA RESULT: -5.797518407      1.132      1.898
REMARK  4 active torsions:
REMARK  status: ('A' for Active; 'I' for Inactive)
REMARK    1  A    between atoms: C2_2  and  O1_3 
REMARK    2  A    between atoms: O1_3  and  C3_4 
REMARK    3  A    between atoms: C4_5  and  C5_6 
REMARK    4  A    between atoms: C9_15  and  N4_16 
ROOT
HETATM    1  C5  UNL     1       4.915   9.184  22.767  1.00  0.00     0.171 C 
HETATM    2  C6  UNL     1       4.955   7.799  23.217  1.00  0.00     0.054 C 
HETATM    3  C7  UNL     1       3.631   9.795  23.216  1.00  0.00     0.089 C 
HETATM    4  N1  UNL     1       2.639  10.274  23.568  1.00  0.00    -0.195 NA
HETATM    5  C8  UNL     1       4.907   9.146  21.270  1.00  0.00     0.089 C 
HETATM    6  N2  UNL     1       4.901   9.137  20.123  1.00  0.00    -0.195 NA
ENDROOT
BRANCH   1   7
HETATM    7  C4  UNL     1       6.033  10.075  23.180  1.00  0.00     0.073 A 
HETATM    8  C3  UNL     1       6.133  11.375  23.549  1.00  0.00     0.130 A 
HETATM    9  C9  UNL     1       7.382  11.809  23.939  1.00  0.00     0.140 A 
HETATM   10  N3  UNL     1       8.375  10.944  23.922  1.00  0.00    -0.310 N 
HETATM   11  S1  UNL     1       7.676   9.524  23.386  1.00  0.00    -0.012 SA
ATOM     12  H3  UNL     1       9.350  11.104  24.178  1.00  0.00     0.176 HD
BRANCH   8  13
HETATM   13  O1  UNL     1       5.042  12.294  23.546  1.00  0.00    -0.347 OA
BRANCH  13  14
HETATM   14  C2  UNL     1       4.484  12.874  24.670  1.00  0.00     0.171 C 
HETATM   15  C1  UNL     1       4.218  14.331  24.719  1.00  0.00     0.034 C 
ENDBRANCH  13  14
ENDBRANCH   8  13
BRANCH   9  16
HETATM   16  N4  UNL     1       7.603  13.059  24.326  1.00  0.00    -0.383 N 
ATOM     17  H42 UNL     1       7.185  13.403  25.191  1.00  0.00     0.157 HD
ATOM     18  H41 UNL     1       8.181  13.699  23.782  1.00  0.00     0.157 HD
ENDBRANCH   9  16
ENDBRANCH   1   7
TORSDOF 4
ENDMDL
