MODEL 1
REMARK VINA RESULT: -7.639664418      0.000      0.000
REMARK  4 active torsions:
REMARK  status: ('A' for Active; 'I' for Inactive)
REMARK    1  A    between atoms: N1_1  and  C1_4 
REMARK    2  A    between atoms: C3_10  and  C4_11 
REMARK    3  A    between atoms: N3_12  and  O2_14 
REMARK    4  A    between atoms: O2_14  and  C5_15 
ROOT
HETATM    1  C1  UNL     1      -1.000  11.469  24.635  1.00  0.00     0.135 A 
HETATM    2  N2  UNL     1      -2.217  11.074  24.138  1.00  0.00    -0.243 N 
ATOM      3  H2  UNL     1      -2.904  10.508  24.636  1.00  0.00     0.196 HD
HETATM    4  O1  UNL     1      -2.351  11.529  22.951  1.00  0.00    -0.223 OA
HETATM    5  C2  UNL     1      -1.311  12.216  22.582  1.00  0.00     0.183 A 
HETATM    6 CL1  UNL     1      -1.032  13.034  21.045  1.00  0.00    -0.053 Cl
HETATM    7  C3  UNL     1      -0.403  12.214  23.628  1.00  0.00     0.074 A 
ENDROOT
BRANCH   7   8
HETATM    8  C4  UNL     1       0.889  12.873  23.613  1.00  0.00     0.133 C 
HETATM    9  N3  UNL     1       1.964  12.193  23.590  1.00  0.00    -0.277 N 
ATOM     10  H3  UNL     1       1.920  11.174  23.582  1.00  0.00     0.193 HD
BRANCH   9  11
HETATM   11  O2  UNL     1       3.175  12.821  23.576  1.00  0.00    -0.275 OA
BRANCH  11  12
HETATM   12  C5  UNL     1       3.698  13.310  24.795  1.00  0.00     0.152 C 
HETATM   13  C6  UNL     1       5.189  13.061  24.795  1.00  0.00     0.034 C 
HETATM   14  C7  UNL     1       5.978  14.306  24.453  1.00  0.00     0.002 C 
HETATM   15  C8  UNL     1       5.741  15.409  25.464  1.00  0.00     0.000 C 
HETATM   16  C9  UNL     1       4.278  15.449  25.891  1.00  0.00     0.002 C 
HETATM   17  C10 UNL     1       3.480  14.824  24.784  1.00  0.00     0.034 C 
ENDBRANCH  11  12
ENDBRANCH   9  11
ENDBRANCH   7   8
BRANCH   1  18
HETATM   18  N1  UNL     1      -0.557  11.187  25.784  1.00  0.00    -0.383 N 
ATOM     19  H12 UNL     1      -0.954  11.409  26.697  1.00  0.00     0.157 HD
ATOM     20  H11 UNL     1       0.303  10.672  25.972  1.00  0.00     0.157 HD
ENDBRANCH   1  18
TORSDOF 4
ENDMDL
MODEL 2
REMARK VINA RESULT: -7.460992620      5.738      7.832
REMARK  4 active torsions:
REMARK  status: ('A' for Active; 'I' for Inactive)
REMARK    1  A    between atoms: N1_1  and  C1_4 
REMARK    2  A    between atoms: C3_10  and  C4_11 
REMARK    3  A    between atoms: N3_12  and  O2_14 
REMARK    4  A    between atoms: O2_14  and  C5_15 
ROOT
HETATM    1  C1  UNL     1       6.776  12.294  24.025  1.00  0.00     0.135 A 
HETATM    2  N2  UNL     1       5.450  12.327  23.669  1.00  0.00    -0.243 N 
ATOM      3  H2  UNL     1       4.977  11.637  23.085  1.00  0.00     0.196 HD
HETATM    4  O1  UNL     1       4.904  13.360  24.187  1.00  0.00    -0.223 OA
HETATM    5  C2  UNL     1       5.757  14.054  24.881  1.00  0.00     0.183 A 
HETATM    6 CL1  UNL     1       5.477  15.547  25.776  1.00  0.00    -0.053 Cl
HETATM    7  C3  UNL     1       6.985  13.415  24.815  1.00  0.00     0.074 A 
ENDROOT
BRANCH   7   8
HETATM    8  C4  UNL     1       8.200  13.874  25.459  1.00  0.00     0.133 C 
HETATM    9  N3  UNL     1       9.012  14.636  24.845  1.00  0.00    -0.277 N 
ATOM     10  H3  UNL     1       8.810  14.930  23.890  1.00  0.00     0.193 HD
BRANCH   9  11
HETATM   11  O2  UNL     1      10.154  15.063  25.459  1.00  0.00    -0.275 OA
BRANCH  11  12
HETATM   12  C5  UNL     1      10.944  14.117  26.152  1.00  0.00     0.152 C 
HETATM   13  C6  UNL     1      12.262  13.989  25.423  1.00  0.00     0.034 C 
HETATM   14  C7  UNL     1      13.369  14.769  26.098  1.00  0.00     0.002 C 
HETATM   15  C8  UNL     1      13.622  14.269  27.505  1.00  0.00     0.000 C 
HETATM   16  C9  UNL     1      12.311  13.923  28.203  1.00  0.00     0.002 C 
HETATM   17  C10 UNL     1      11.231  14.719  27.529  1.00  0.00     0.034 C 
ENDBRANCH  11  12
ENDBRANCH   9  11
ENDBRANCH   7   8
BRANCH   1  18
HETATM   18  N1  UNL     1       7.600  11.402  23.678  1.00  0.00    -0.383 N 
ATOM     19  H12 UNL     1       8.282  11.418  22.919  1.00  0.00     0.157 HD
ATOM     20  H11 UNL     1       7.708  10.493  24.130  1.00  0.00     0.157 HD
ENDBRANCH   1  18
TORSDOF 4
ENDMDL
MODEL 3
REMARK VINA RESULT: -7.344824246      5.588      7.596
REMARK  4 active torsions:
REMARK  status: ('A' for Active; 'I' for Inactive)
REMARK    1  A    between atoms: N1_1  and  C1_4 
REMARK    2  A    between atoms: C3_10  and  C4_11 
REMARK    3  A    between atoms: N3_12  and  O2_14 
REMARK    4  A    between atoms: O2_14  and  C5_15 
ROOT
HETATM    1  C1  UNL     1       5.374  14.767  25.036  1.00  0.00     0.135 A 
HETATM    2  N2  UNL     1       4.441  13.982  24.406  1.00  0.00    -0.243 N 
ATOM      3  H2  UNL     1       3.454  14.214  24.288  1.00  0.00     0.196 HD
HETATM    4  O1  UNL     1       5.006  12.913  23.992  1.00  0.00    -0.223 OA
HETATM    5  C2  UNL     1       6.272  12.896  24.289  1.00  0.00     0.183 A 
HETATM    6 CL1  UNL     1       7.460  11.643  23.930  1.00  0.00    -0.053 Cl
HETATM    7  C3  UNL     1       6.570  14.068  24.964  1.00  0.00     0.074 A 
ENDROOT
BRANCH   7   8
HETATM    8  C4  UNL     1       7.880  14.431  25.467  1.00  0.00     0.133 C 
HETATM    9  N3  UNL     1       8.823  14.731  24.667  1.00  0.00    -0.277 N 
ATOM     10  H3  UNL     1       8.658  14.718  23.661  1.00  0.00     0.193 HD
BRANCH   9  11
HETATM   11  O2  UNL     1      10.053  15.071  25.150  1.00  0.00    -0.275 OA
BRANCH  11  12
HETATM   12  C5  UNL     1      10.735  14.148  25.975  1.00  0.00     0.152 C 
HETATM   13  C6  UNL     1      12.096  13.898  25.366  1.00  0.00     0.034 C 
HETATM   14  C7  UNL     1      13.189  14.675  26.066  1.00  0.00     0.002 C 
HETATM   15  C8  UNL     1      13.307  14.280  27.523  1.00  0.00     0.000 C 
HETATM   16  C9  UNL     1      11.929  14.056  28.138  1.00  0.00     0.002 C 
HETATM   17  C10 UNL     1      10.949  14.845  27.320  1.00  0.00     0.034 C 
ENDBRANCH  11  12
ENDBRANCH   9  11
ENDBRANCH   7   8
BRANCH   1  18
HETATM   18  N1  UNL     1       5.142  15.894  25.560  1.00  0.00    -0.383 N 
ATOM     19  H12 UNL     1       4.273  16.250  25.958  1.00  0.00     0.157 HD
ATOM     20  H11 UNL     1       5.825  16.644  25.665  1.00  0.00     0.157 HD
ENDBRANCH   1  18
TORSDOF 4
ENDMDL
MODEL 4
REMARK VINA RESULT: -7.313135307      0.861      1.502
REMARK  4 active torsions:
REMARK  status: ('A' for Active; 'I' for Inactive)
REMARK    1  A    between atoms: N1_1  and  C1_4 
REMARK    2  A    between atoms: C3_10  and  C4_11 
REMARK    3  A    between atoms: N3_12  and  O2_14 
REMARK    4  A    between atoms: O2_14  and  C5_15 
ROOT
HETATM    1  C1  UNL     1      -1.082  11.389  24.725  1.00  0.00     0.135 A 
HETATM    2  N2  UNL     1      -2.229  11.780  24.079  1.00  0.00    -0.243 N 
ATOM      3  H2  UNL     1      -3.179  11.651  24.431  1.00  0.00     0.196 HD
HETATM    4  O1  UNL     1      -1.917  12.330  22.969  1.00  0.00    -0.223 OA
HETATM    5  C2  UNL     1      -0.629  12.351  22.791  1.00  0.00     0.183 A 
HETATM    6 CL1  UNL     1       0.272  13.001  21.423  1.00  0.00    -0.053 Cl
HETATM    7  C3  UNL     1      -0.035  11.757  23.893  1.00  0.00     0.074 A 
ENDROOT
BRANCH   7   8
HETATM    8  C4  UNL     1       1.393  11.586  24.079  1.00  0.00     0.133 C 
HETATM    9  N3  UNL     1       2.135  12.579  24.361  1.00  0.00    -0.277 N 
ATOM     10  H3  UNL     1       1.725  13.508  24.458  1.00  0.00     0.193 HD
BRANCH   9  11
HETATM   11  O2  UNL     1       3.478  12.408  24.534  1.00  0.00    -0.275 OA
BRANCH  11  12
HETATM   12  C5  UNL     1       4.349  13.448  24.138  1.00  0.00     0.152 C 
HETATM   13  C6  UNL     1       3.986  14.686  24.927  1.00  0.00     0.034 C 
HETATM   14  C7  UNL     1       4.926  14.922  26.088  1.00  0.00     0.002 C 
HETATM   15  C8  UNL     1       6.350  15.133  25.617  1.00  0.00     0.000 C 
HETATM   16  C9  UNL     1       6.684  14.196  24.461  1.00  0.00     0.002 C 
HETATM   17  C10 UNL     1       5.755  13.022  24.564  1.00  0.00     0.034 C 
ENDBRANCH  11  12
ENDBRANCH   9  11
ENDBRANCH   7   8
BRANCH   1  18
HETATM   18  N1  UNL     1      -1.039  10.813  25.848  1.00  0.00    -0.383 N 
ATOM     19  H12 UNL     1      -1.341   9.871  26.099  1.00  0.00     0.157 HD
ATOM     20  H11 UNL     1      -0.679  11.228  26.708  1.00  0.00     0.157 HD
ENDBRANCH   1  18
TORSDOF 4
ENDMDL
MODEL 5
REMARK VINA RESULT: -7.296442243      1.735      2.081
REMARK  4 active torsions:
REMARK  status: ('A' for Active; 'I' for Inactive)
REMARK    1  A    between atoms: N1_1  and  C1_4 
REMARK    2  A    between atoms: C3_10  and  C4_11 
REMARK    3  A    between atoms: N3_12  and  O2_14 
REMARK    4  A    between atoms: O2_14  and  C5_15 
ROOT
HETATM    1  C1  UNL     1      -1.266  12.404  22.251  1.00  0.00     0.135 A 
HETATM    2  N2  UNL     1      -2.475  12.086  22.816  1.00  0.00    -0.243 N 
ATOM      3  H2  UNL     1      -3.385  12.200  22.369  1.00  0.00     0.196 HD
HETATM    4  O1  UNL     1      -2.279  11.625  23.992  1.00  0.00    -0.223 OA
HETATM    5  C2  UNL     1      -1.013  11.598  24.289  1.00  0.00     0.183 A 
HETATM    6 CL1  UNL     1      -0.256  11.048  25.784  1.00  0.00    -0.053 Cl
HETATM    7  C3  UNL     1      -0.307  12.088  23.203  1.00  0.00     0.074 A 
ENDROOT
BRANCH   7   8
HETATM    8  C4  UNL     1       1.135  12.221  23.137  1.00  0.00     0.133 C 
HETATM    9  N3  UNL     1       1.734  13.132  23.793  1.00  0.00    -0.277 N 
ATOM     10  H3  UNL     1       1.197  13.777  24.372  1.00  0.00     0.193 HD
BRANCH   9  11
HETATM   11  O2  UNL     1       3.092  13.250  23.724  1.00  0.00    -0.275 OA
BRANCH  11  12
HETATM   12  C5  UNL     1       3.803  13.578  24.901  1.00  0.00     0.152 C 
HETATM   13  C6  UNL     1       5.220  13.076  24.744  1.00  0.00     0.034 C 
HETATM   14  C7  UNL     1       6.182  14.181  24.368  1.00  0.00     0.002 C 
HETATM   15  C8  UNL     1       6.238  15.256  25.434  1.00  0.00     0.000 C 
HETATM   16  C9  UNL     1       4.851  15.527  26.005  1.00  0.00     0.002 C 
HETATM   17  C10 UNL     1       3.856  15.106  24.963  1.00  0.00     0.034 C 
ENDBRANCH  11  12
ENDBRANCH   9  11
ENDBRANCH   7   8
BRANCH   1  18
HETATM   18  N1  UNL     1      -1.107  12.884  21.093  1.00  0.00    -0.383 N 
ATOM     19  H12 UNL     1      -1.683  13.563  20.596  1.00  0.00     0.157 HD
ATOM     20  H11 UNL     1      -0.342  12.649  20.459  1.00  0.00     0.157 HD
ENDBRANCH   1  18
TORSDOF 4
ENDMDL
