MODEL 1
REMARK VINA RESULT: -6.023300413      0.000      0.000
REMARK  4 active torsions:
REMARK  status: ('A' for Active; 'I' for Inactive)
REMARK    1  A    between atoms: C2_2  and  N1_3 
REMARK    2  A    between atoms: C3_4  and  C4_5 
REMARK    3  A    between atoms: C4_5  and  O1_7 
REMARK    4  A    between atoms: C6_9  and  C7_10 
ROOT
HETATM    1  N1  UNL     1       4.417  11.472  23.647  1.00  0.00    -0.320 N 
HETATM    2  C3  UNL     1       5.598  12.070  23.836  1.00  0.00     0.090 A 
HETATM    3  C6  UNL     1       5.370  13.363  24.357  1.00  0.00     0.064 A 
HETATM    4  N2  UNL     1       4.035  13.439  24.429  1.00  0.00    -0.333 N 
ATOM      5  H2  UNL     1       3.527  14.259  24.761  1.00  0.00     0.168 HD
HETATM    6  C10 UNL     1       3.468  12.354  24.027  1.00  0.00     0.179 A 
HETATM    7  S1  UNL     1       1.824  12.068  23.919  1.00  0.00    -0.040 SA
ENDROOT
BRANCH   2   8
HETATM    8  C4  UNL     1       6.901  11.648  23.333  1.00  0.00     0.068 C 
HETATM    9  C5  UNL     1       7.078  11.060  21.980  1.00  0.00     0.078 C 
BRANCH   8  10
HETATM   10  O1  UNL     1       7.956  11.543  24.225  1.00  0.00    -0.363 OA
ATOM     11  H1  UNL     1       8.134  12.273  24.807  1.00  0.00     0.217 HD
ENDBRANCH   8  10
ENDBRANCH   2   8
BRANCH   1  12
HETATM   12  C2  UNL     1       4.121  10.150  23.155  1.00  0.00     0.127 C 
HETATM   13  C1  UNL     1       4.368   9.065  24.225  1.00  0.00     0.027 C 
ENDBRANCH   1  12
BRANCH   3  14
HETATM   14  C7  UNL     1       6.263  14.350  24.923  1.00  0.00     0.074 C 
HETATM   15  C8  UNL     1       6.620  13.868  26.389  1.00  0.00     0.039 C 
HETATM   16  C9  UNL     1       7.495  14.823  24.313  1.00  0.00     0.039 C 
HETATM   17 CL1  UNL     1       5.316  15.842  25.241  1.00  0.00    -0.113 Cl
ENDBRANCH   3  14
TORSDOF 4
ENDMDL
MODEL 2
REMARK VINA RESULT: -5.689865222      2.302      3.932
REMARK  4 active torsions:
REMARK  status: ('A' for Active; 'I' for Inactive)
REMARK    1  A    between atoms: C2_2  and  N1_3 
REMARK    2  A    between atoms: C3_4  and  C4_5 
REMARK    3  A    between atoms: C4_5  and  O1_7 
REMARK    4  A    between atoms: C6_9  and  C7_10 
ROOT
HETATM    1  N1  UNL     1       4.734  13.620  24.355  1.00  0.00    -0.320 N 
HETATM    2  C3  UNL     1       5.966  13.105  24.272  1.00  0.00     0.090 A 
HETATM    3  C6  UNL     1       5.861  11.744  23.907  1.00  0.00     0.064 A 
HETATM    4  N2  UNL     1       4.540  11.548  23.810  1.00  0.00    -0.333 N 
ATOM      5  H2  UNL     1       4.112  10.655  23.567  1.00  0.00     0.168 HD
HETATM    6  C10 UNL     1       3.874  12.622  24.060  1.00  0.00     0.179 A 
HETATM    7  S1  UNL     1       2.209  12.780  24.089  1.00  0.00    -0.040 SA
ENDROOT
BRANCH   2   8
HETATM    8  C4  UNL     1       7.211  13.693  24.754  1.00  0.00     0.068 C 
HETATM    9  C5  UNL     1       7.640  13.594  26.174  1.00  0.00     0.078 C 
BRANCH   8  10
HETATM   10  O1  UNL     1       7.882  14.589  23.938  1.00  0.00    -0.363 OA
ATOM     11  H1  UNL     1       8.828  14.523  23.870  1.00  0.00     0.217 HD
ENDBRANCH   8  10
ENDBRANCH   2   8
BRANCH   1  12
HETATM   12  C2  UNL     1       4.315  14.962  24.674  1.00  0.00     0.127 C 
HETATM   13  C1  UNL     1       4.355  15.235  26.192  1.00  0.00     0.027 C 
ENDBRANCH   1  12
BRANCH   3  14
HETATM   14  C7  UNL     1       6.850  10.776  23.490  1.00  0.00     0.074 C 
HETATM   15  C8  UNL     1       6.764  10.672  21.912  1.00  0.00     0.039 C 
HETATM   16  C9  UNL     1       8.260  10.802  23.844  1.00  0.00     0.039 C 
HETATM   17 CL1  UNL     1       6.289   9.148  24.002  1.00  0.00    -0.113 Cl
ENDBRANCH   3  14
TORSDOF 4
ENDMDL
MODEL 3
REMARK VINA RESULT: -5.640844924      2.786      4.296
REMARK  4 active torsions:
REMARK  status: ('A' for Active; 'I' for Inactive)
REMARK    1  A    between atoms: C2_2  and  N1_3 
REMARK    2  A    between atoms: C3_4  and  C4_5 
REMARK    3  A    between atoms: C4_5  and  O1_7 
REMARK    4  A    between atoms: C6_9  and  C7_10 
ROOT
HETATM    1  N1  UNL     1       5.142  12.188  24.058  1.00  0.00    -0.320 N 
HETATM    2  C3  UNL     1       3.933  11.711  23.744  1.00  0.00     0.090 A 
HETATM    3  C6  UNL     1       2.974  12.717  23.996  1.00  0.00     0.064 A 
HETATM    4  N2  UNL     1       3.706  13.736  24.463  1.00  0.00    -0.333 N 
ATOM      5  H2  UNL     1       3.316  14.633  24.755  1.00  0.00     0.168 HD
HETATM    6  C10 UNL     1       4.961  13.450  24.502  1.00  0.00     0.179 A 
HETATM    7  S1  UNL     1       6.192  14.432  25.064  1.00  0.00    -0.040 SA
ENDROOT
BRANCH   2   8
HETATM    8  C4  UNL     1       3.563  10.324  23.479  1.00  0.00     0.068 C 
HETATM    9  C5  UNL     1       3.174   9.385  24.562  1.00  0.00     0.078 C 
BRANCH   8  10
HETATM   10  O1  UNL     1       3.832   9.793  22.228  1.00  0.00    -0.363 OA
ATOM     11  H1  UNL     1       3.231   9.151  21.867  1.00  0.00     0.217 HD
ENDBRANCH   8  10
ENDBRANCH   2   8
BRANCH   1  12
HETATM   12  C2  UNL     1       6.435  11.557  23.962  1.00  0.00     0.127 C 
HETATM   13  C1  UNL     1       6.924  11.457  22.502  1.00  0.00     0.027 C 
ENDBRANCH   1  12
BRANCH   3  14
HETATM   14  C7  UNL     1       1.571  12.823  23.659  1.00  0.00     0.074 C 
HETATM   15  C8  UNL     1       1.106  14.284  24.054  1.00  0.00     0.039 C 
HETATM   16  C9  UNL     1       0.989  12.521  22.361  1.00  0.00     0.039 C 
HETATM   17 CL1  UNL     1       0.642  11.810  24.814  1.00  0.00    -0.113 Cl
ENDBRANCH   3  14
TORSDOF 4
ENDMDL
MODEL 4
REMARK VINA RESULT: -5.602052159      3.193      4.751
REMARK  4 active torsions:
REMARK  status: ('A' for Active; 'I' for Inactive)
REMARK    1  A    between atoms: C2_2  and  N1_3 
REMARK    2  A    between atoms: C3_4  and  C4_5 
REMARK    3  A    between atoms: C4_5  and  O1_7 
REMARK    4  A    between atoms: C6_9  and  C7_10 
ROOT
HETATM    1  N1  UNL     1       5.151  12.945  24.537  1.00  0.00    -0.320 N 
HETATM    2  C3  UNL     1       4.734  11.806  23.973  1.00  0.00     0.090 A 
HETATM    3  C6  UNL     1       5.800  11.257  23.228  1.00  0.00     0.064 A 
HETATM    4  N2  UNL     1       6.791  12.141  23.402  1.00  0.00    -0.333 N 
ATOM      5  H2  UNL     1       7.717  12.050  22.985  1.00  0.00     0.168 HD
HETATM    6  C10 UNL     1       6.435  13.120  24.160  1.00  0.00     0.179 A 
HETATM    7  S1  UNL     1       7.364  14.446  24.579  1.00  0.00    -0.040 SA
ENDROOT
BRANCH   2   8
HETATM    8  C4  UNL     1       3.363  11.322  23.853  1.00  0.00     0.068 C 
HETATM    9  C5  UNL     1       2.833  10.219  24.697  1.00  0.00     0.078 C 
BRANCH   8  10
HETATM   10  O1  UNL     1       2.615  11.711  22.754  1.00  0.00    -0.363 OA
ATOM     11  H1  UNL     1       2.383  11.055  22.106  1.00  0.00     0.217 HD
ENDBRANCH   8  10
ENDBRANCH   2   8
BRANCH   1  12
HETATM   12  C2  UNL     1       4.445  13.859  25.400  1.00  0.00     0.127 C 
HETATM   13  C1  UNL     1       3.344  14.634  24.645  1.00  0.00     0.027 C 
ENDBRANCH   1  12
BRANCH   3  14
HETATM   14  C7  UNL     1       5.974   9.969  22.594  1.00  0.00     0.074 C 
HETATM   15  C8  UNL     1       6.190   8.906  23.748  1.00  0.00     0.039 C 
HETATM   16  C9  UNL     1       5.068   9.375  21.625  1.00  0.00     0.039 C 
HETATM   17 CL1  UNL     1       7.574   9.961  21.776  1.00  0.00    -0.113 Cl
ENDBRANCH   3  14
TORSDOF 4
ENDMDL
MODEL 5
REMARK VINA RESULT: -5.543050755      3.008      3.984
REMARK  4 active torsions:
REMARK  status: ('A' for Active; 'I' for Inactive)
REMARK    1  A    between atoms: C2_2  and  N1_3 
REMARK    2  A    between atoms: C3_4  and  C4_5 
REMARK    3  A    between atoms: C4_5  and  O1_7 
REMARK    4  A    between atoms: C6_9  and  C7_10 
ROOT
HETATM    1  N1  UNL     1       2.804  10.475  23.657  1.00  0.00    -0.320 N 
HETATM    2  C3  UNL     1       3.884   9.751  23.343  1.00  0.00     0.090 A 
HETATM    3  C6  UNL     1       5.002  10.612  23.290  1.00  0.00     0.064 A 
HETATM    4  N2  UNL     1       4.484  11.814  23.572  1.00  0.00    -0.333 N 
ATOM      5  H2  UNL     1       5.029  12.676  23.609  1.00  0.00     0.168 HD
HETATM    6  C10 UNL     1       3.217  11.753  23.791  1.00  0.00     0.179 A 
HETATM    7  S1  UNL     1       2.199  13.037  24.128  1.00  0.00    -0.040 SA
ENDROOT
BRANCH   2   8
HETATM    8  C4  UNL     1       3.923   8.384  22.836  1.00  0.00     0.068 C 
HETATM    9  C5  UNL     1       4.139   7.212  23.725  1.00  0.00     0.078 C 
BRANCH   8  10
HETATM   10  O1  UNL     1       4.028   8.185  21.469  1.00  0.00    -0.363 OA
ATOM     11  H1  UNL     1       3.279   7.834  21.001  1.00  0.00     0.217 HD
ENDBRANCH   8  10
ENDBRANCH   2   8
BRANCH   1  12
HETATM   12  C2  UNL     1       1.437  10.057  23.846  1.00  0.00     0.127 C 
HETATM   13  C1  UNL     1       1.202   9.467  25.253  1.00  0.00     0.027 C 
ENDBRANCH   1  12
BRANCH   3  14
HETATM   14  C7  UNL     1       6.421  10.350  23.198  1.00  0.00     0.074 C 
HETATM   15  C8  UNL     1       7.169  11.704  23.540  1.00  0.00     0.039 C 
HETATM   16  C9  UNL     1       7.130   9.281  23.884  1.00  0.00     0.039 C 
HETATM   17 CL1  UNL     1       6.836  10.123  21.465  1.00  0.00    -0.113 Cl
ENDBRANCH   3  14
TORSDOF 4
ENDMDL
