MODEL 1
REMARK VINA RESULT: -6.678545791      0.000      0.000
REMARK  3 active torsions:
REMARK  status: ('A' for Active; 'I' for Inactive)
REMARK    1  A    between atoms: C2_7  and  C3_8 
REMARK    2  A    between atoms: N3_14  and  N4_15 
REMARK    3  A    between atoms: N4_15  and  C9_17 
ROOT
HETATM    1  S1  UNL     1       4.821  15.868  25.584  1.00  0.00    -0.037 SA
HETATM    2  C1  UNL     1       5.104  14.407  24.868  1.00  0.00     0.213 A 
HETATM    3  N1  UNL     1       4.156  13.457  24.655  1.00  0.00    -0.273 N 
ATOM      4  H1  UNL     1       3.174  13.529  24.920  1.00  0.00     0.189 HD
HETATM    5  N2  UNL     1       4.707  12.437  24.055  1.00  0.00    -0.285 N 
ATOM      6  H2  UNL     1       4.228  11.581  23.774  1.00  0.00     0.188 HD
HETATM    7  C2  UNL     1       6.006  12.701  23.871  1.00  0.00     0.124 A 
HETATM    8  N3  UNL     1       6.239  13.935  24.384  1.00  0.00    -0.218 N 
ENDROOT
BRANCH   7   9
HETATM    9  C3  UNL     1       6.890  11.731  23.215  1.00  0.00     0.057 C 
HETATM   10  C4  UNL     1       5.988  10.627  22.645  1.00  0.00     0.012 C 
HETATM   11  C5  UNL     1       6.800  10.030  21.503  1.00  0.00     0.001 C 
HETATM   12  C6  UNL     1       8.125   9.615  22.079  1.00  0.00     0.000 C 
HETATM   13  C7  UNL     1       8.152   9.676  23.586  1.00  0.00     0.001 C 
HETATM   14  C8  UNL     1       7.872  11.069  24.114  1.00  0.00     0.012 C 
ENDBRANCH   7   9
BRANCH   8  15
HETATM   15  N4  UNL     1       7.482  14.500  24.373  1.00  0.00    -0.312 N 
ATOM     16  H4  UNL     1       7.802  14.895  23.489  1.00  0.00     0.182 HD
BRANCH  15  17
HETATM   17  C9  UNL     1       8.377  14.590  25.484  1.00  0.00     0.254 C 
HETATM   18 CL1  UNL     1       7.706  13.864  26.980  1.00  0.00    -0.107 Cl
ENDBRANCH  15  17
ENDBRANCH   8  15
TORSDOF 3
ENDMDL
MODEL 2
REMARK VINA RESULT: -6.605611096      3.207      5.074
REMARK  3 active torsions:
REMARK  status: ('A' for Active; 'I' for Inactive)
REMARK    1  A    between atoms: C2_7  and  C3_8 
REMARK    2  A    between atoms: N3_14  and  N4_15 
REMARK    3  A    between atoms: N4_15  and  C9_17 
ROOT
HETATM    1  S1  UNL     1       4.580   8.476  22.908  1.00  0.00    -0.037 SA
HETATM    2  C1  UNL     1       4.217   9.988  23.461  1.00  0.00     0.213 A 
HETATM    3  N1  UNL     1       3.039  10.331  24.048  1.00  0.00    -0.273 N 
ATOM      4  H1  UNL     1       2.248   9.707  24.201  1.00  0.00     0.189 HD
HETATM    5  N2  UNL     1       3.086  11.592  24.383  1.00  0.00    -0.285 N 
ATOM      6  H2  UNL     1       2.339  12.114  24.841  1.00  0.00     0.188 HD
HETATM    7  C2  UNL     1       4.277  12.085  24.026  1.00  0.00     0.124 A 
HETATM    8  N3  UNL     1       4.973  11.071  23.451  1.00  0.00    -0.218 N 
ENDROOT
BRANCH   7   9
HETATM    9  C3  UNL     1       4.623  13.488  24.278  1.00  0.00     0.057 C 
HETATM   10  C4  UNL     1       5.693  13.488  25.378  1.00  0.00     0.012 C 
HETATM   11  C5  UNL     1       6.442  14.798  25.174  1.00  0.00     0.001 C 
HETATM   12  C6  UNL     1       5.418  15.898  25.203  1.00  0.00     0.000 C 
HETATM   13  C7  UNL     1       4.061  15.420  25.658  1.00  0.00     0.001 C 
HETATM   14  C8  UNL     1       3.500  14.333  24.763  1.00  0.00     0.012 C 
ENDBRANCH   7   9
BRANCH   8  15
HETATM   15  N4  UNL     1       6.232  11.248  22.954  1.00  0.00    -0.312 N 
ATOM     16  H4  UNL     1       6.312  11.734  22.061  1.00  0.00     0.182 HD
BRANCH  15  17
HETATM   17  C9  UNL     1       7.449  10.815  23.568  1.00  0.00     0.254 C 
HETATM   18 CL1  UNL     1       8.286   9.537  22.630  1.00  0.00    -0.107 Cl
ENDBRANCH  15  17
ENDBRANCH   8  15
TORSDOF 3
ENDMDL
MODEL 3
REMARK VINA RESULT: -6.446808687      6.675      7.668
REMARK  3 active torsions:
REMARK  status: ('A' for Active; 'I' for Inactive)
REMARK    1  A    between atoms: C2_7  and  C3_8 
REMARK    2  A    between atoms: N3_14  and  N4_15 
REMARK    3  A    between atoms: N4_15  and  C9_17 
ROOT
HETATM    1  S1  UNL     1      -1.152  12.979  21.242  1.00  0.00    -0.037 SA
HETATM    2  C1  UNL     1      -1.240  12.141  22.661  1.00  0.00     0.213 A 
HETATM    3  N1  UNL     1      -2.400  11.773  23.267  1.00  0.00    -0.273 N 
ATOM      4  H1  UNL     1      -3.339  11.981  22.928  1.00  0.00     0.189 HD
HETATM    5  N2  UNL     1      -2.117  11.111  24.356  1.00  0.00    -0.285 N 
ATOM      6  H2  UNL     1      -2.796  10.716  25.006  1.00  0.00     0.188 HD
HETATM    7  C2  UNL     1      -0.786  11.038  24.476  1.00  0.00     0.124 A 
HETATM    8  N3  UNL     1      -0.252  11.685  23.410  1.00  0.00    -0.218 N 
ENDROOT
BRANCH   7   9
HETATM    9  C3  UNL     1      -0.166  10.346  25.612  1.00  0.00     0.057 C 
HETATM   10  C4  UNL     1      -0.163   8.850  25.268  1.00  0.00     0.012 C 
HETATM   11  C5  UNL     1       0.980   8.277  26.097  1.00  0.00     0.001 C 
HETATM   12  C6  UNL     1       0.718   8.659  27.527  1.00  0.00     0.000 C 
HETATM   13  C7  UNL     1      -0.657   9.244  27.732  1.00  0.00     0.001 C 
HETATM   14  C8  UNL     1      -0.885  10.493  26.905  1.00  0.00     0.012 C 
ENDBRANCH   7   9
BRANCH   8  15
HETATM   15  N4  UNL     1       1.096  11.810  23.241  1.00  0.00    -0.312 N 
ATOM     16  H4  UNL     1       1.534  11.197  22.553  1.00  0.00     0.182 HD
BRANCH  15  17
HETATM   17  C9  UNL     1       1.953  12.720  23.936  1.00  0.00     0.254 C 
HETATM   18 CL1  UNL     1       1.272  14.375  24.043  1.00  0.00    -0.107 Cl
ENDBRANCH  15  17
ENDBRANCH   8  15
TORSDOF 3
ENDMDL
MODEL 4
REMARK VINA RESULT: -6.431562987      7.089      8.255
REMARK  3 active torsions:
REMARK  status: ('A' for Active; 'I' for Inactive)
REMARK    1  A    between atoms: C2_7  and  C3_8 
REMARK    2  A    between atoms: N3_14  and  N4_15 
REMARK    3  A    between atoms: N4_15  and  C9_17 
ROOT
HETATM    1  S1  UNL     1      -0.035   8.205  27.615  1.00  0.00    -0.037 SA
HETATM    2  C1  UNL     1      -0.359   9.469  26.603  1.00  0.00     0.213 A 
HETATM    3  N1  UNL     1      -0.748  10.705  27.015  1.00  0.00    -0.273 N 
ATOM      4  H1  UNL     1      -0.896  10.988  27.984  1.00  0.00     0.189 HD
HETATM    5  N2  UNL     1      -0.902  11.470  25.969  1.00  0.00    -0.285 N 
ATOM      6  H2  UNL     1      -1.189  12.449  25.984  1.00  0.00     0.188 HD
HETATM    7  C2  UNL     1      -0.620  10.756  24.873  1.00  0.00     0.124 A 
HETATM    8  N3  UNL     1      -0.282   9.508  25.285  1.00  0.00    -0.218 N 
ENDROOT
BRANCH   7   9
HETATM    9  C3  UNL     1      -0.705  11.355  23.536  1.00  0.00     0.057 C 
HETATM   10  C4  UNL     1       0.100  12.661  23.587  1.00  0.00     0.012 C 
HETATM   11  C5  UNL     1       0.508  12.907  22.140  1.00  0.00     0.001 C 
HETATM   12  C6  UNL     1      -0.753  12.900  21.322  1.00  0.00     0.000 C 
HETATM   13  C7  UNL     1      -2.000  12.908  22.171  1.00  0.00     0.001 C 
HETATM   14  C8  UNL     1      -2.080  11.708  23.093  1.00  0.00     0.012 C 
ENDBRANCH   7   9
BRANCH   8  15
HETATM   15  N4  UNL     1       0.045   8.519  24.404  1.00  0.00    -0.312 N 
ATOM     16  H4  UNL     1      -0.726   7.997  23.988  1.00  0.00     0.182 HD
BRANCH  15  17
HETATM   17  C9  UNL     1       1.367   8.145  24.008  1.00  0.00     0.254 C 
HETATM   18 CL1  UNL     1       2.412   9.556  23.647  1.00  0.00    -0.107 Cl
ENDBRANCH  15  17
ENDBRANCH   8  15
TORSDOF 3
ENDMDL
MODEL 5
REMARK VINA RESULT: -6.424911289      3.439      5.488
REMARK  3 active torsions:
REMARK  status: ('A' for Active; 'I' for Inactive)
REMARK    1  A    between atoms: C2_7  and  C3_8 
REMARK    2  A    between atoms: N3_14  and  N4_15 
REMARK    3  A    between atoms: N4_15  and  C9_17 
ROOT
HETATM    1  S1  UNL     1       8.239   9.086  22.983  1.00  0.00    -0.037 SA
HETATM    2  C1  UNL     1       7.854  10.570  23.597  1.00  0.00     0.213 A 
HETATM    3  N1  UNL     1       8.705  11.353  24.311  1.00  0.00    -0.273 N 
ATOM      4  H1  UNL     1       9.665  11.113  24.559  1.00  0.00     0.189 HD
HETATM    5  N2  UNL     1       8.094  12.462  24.629  1.00  0.00    -0.285 N 
ATOM      6  H2  UNL     1       8.497  13.231  25.164  1.00  0.00     0.188 HD
HETATM    7  C2  UNL     1       6.852  12.421  24.134  1.00  0.00     0.124 A 
HETATM    8  N3  UNL     1       6.716  11.233  23.493  1.00  0.00    -0.218 N 
ENDROOT
BRANCH   7   9
HETATM    9  C3  UNL     1       5.921  13.538  24.333  1.00  0.00     0.057 C 
HETATM   10  C4  UNL     1       6.089  13.998  25.787  1.00  0.00     0.012 C 
HETATM   11  C5  UNL     1       5.632  15.451  25.776  1.00  0.00     0.001 C 
HETATM   12  C6  UNL     1       4.243  15.469  25.199  1.00  0.00     0.000 C 
HETATM   13  C7  UNL     1       3.655  14.087  25.052  1.00  0.00     0.001 C 
HETATM   14  C8  UNL     1       4.485  13.198  24.147  1.00  0.00     0.012 C 
ENDBRANCH   7   9
BRANCH   8  15
HETATM   15  N4  UNL     1       5.548  10.866  22.889  1.00  0.00    -0.312 N 
ATOM     16  H4  UNL     1       5.230  11.443  22.110  1.00  0.00     0.182 HD
BRANCH  15  17
HETATM   17  C9  UNL     1       4.729   9.750  23.244  1.00  0.00     0.254 C 
HETATM   18 CL1  UNL     1       4.567   8.553  21.919  1.00  0.00    -0.107 Cl
ENDBRANCH  15  17
ENDBRANCH   8  15
TORSDOF 3
ENDMDL
