MODEL 1
REMARK VINA RESULT: -6.723742494      0.000      0.000
REMARK  4 active torsions:
REMARK  status: ('A' for Active; 'I' for Inactive)
REMARK    1  A    between atoms: O1_1  and  C1_3 
REMARK    2  A    between atoms: C3_6  and  N1_7 
REMARK    3  A    between atoms: N1_7  and  N2_9 
REMARK    4  A    between atoms: C4_11  and  C5_12 
ROOT
HETATM    1  N1  UNL     1      29.230  10.446  24.394  1.00  0.00    -0.280 N 
ATOM      2  H1  UNL     1      28.361  10.655  24.885  1.00  0.00     0.189 HD
ENDROOT
BRANCH   1   3
HETATM    3  C3  UNL     1      29.674  11.181  23.392  1.00  0.00     0.165 A 
HETATM    4  S1  UNL     1      31.263  11.682  23.025  1.00  0.00    -0.060 SA
HETATM    5  C2  UNL     1      30.927  12.565  21.605  1.00  0.00     0.109 A 
HETATM    6  C1  UNL     1      29.570  12.418  21.493  1.00  0.00     0.148 A 
HETATM    7  N3  UNL     1      28.957  11.716  22.403  1.00  0.00    -0.316 N 
ATOM      8  H3  UNL     1      27.947  11.579  22.361  1.00  0.00     0.170 HD
BRANCH   6   9
HETATM    9  O1  UNL     1      28.887  13.030  20.397  1.00  0.00    -0.346 OA
ATOM     10  H1  UNL     1      29.375  13.567  19.784  1.00  0.00     0.219 HD
ENDBRANCH   6   9
ENDBRANCH   1   3
BRANCH   1  11
HETATM   11  N2  UNL     1      30.043   9.361  24.731  1.00  0.00    -0.313 N 
HETATM   12  C4  UNL     1      30.606   9.379  25.891  1.00  0.00     0.084 C 
ATOM     13  H2  UNL     1      30.186   8.584  24.084  1.00  0.00     0.185 HD
BRANCH  12  14
HETATM   14  C5  UNL     1      31.494   8.234  26.310  1.00  0.00     0.025 C 
HETATM   15  C6  UNL     1      32.906   8.695  26.173  1.00  0.00     0.010 C 
HETATM   16  C7  UNL     1      33.790   7.541  26.667  1.00  0.00     0.001 C 
HETATM   17  C8  UNL     1      33.573   7.603  28.182  1.00  0.00     0.000 C 
HETATM   18  C9  UNL     1      32.164   7.315  28.570  1.00  0.00     0.001 C 
HETATM   19  C10 UNL     1      31.109   7.732  27.643  1.00  0.00     0.010 C 
ENDBRANCH  12  14
ENDBRANCH   1  11
TORSDOF 4
ENDMDL
MODEL 2
REMARK VINA RESULT: -6.683254981      4.025      7.028
REMARK  4 active torsions:
REMARK  status: ('A' for Active; 'I' for Inactive)
REMARK    1  A    between atoms: O1_1  and  C1_3 
REMARK    2  A    between atoms: C3_6  and  N1_7 
REMARK    3  A    between atoms: N1_7  and  N2_9 
REMARK    4  A    between atoms: C4_11  and  C5_12 
ROOT
HETATM    1  N1  UNL     1      31.162   8.088  26.335  1.00  0.00    -0.280 N 
ATOM      2  H1  UNL     1      30.568   7.383  25.899  1.00  0.00     0.189 HD
ENDROOT
BRANCH   1   3
HETATM    3  C3  UNL     1      31.920   7.830  27.383  1.00  0.00     0.165 A 
HETATM    4  S1  UNL     1      33.607   7.596  27.480  1.00  0.00    -0.060 SA
HETATM    5  C2  UNL     1      33.727   7.325  29.160  1.00  0.00     0.109 A 
HETATM    6  C1  UNL     1      32.422   7.434  29.560  1.00  0.00     0.148 A 
HETATM    7  N3  UNL     1      31.526   7.689  28.649  1.00  0.00    -0.316 N 
ATOM      8  H3  UNL     1      30.541   7.780  28.900  1.00  0.00     0.170 HD
BRANCH   6   9
HETATM    9  O1  UNL     1      32.096   7.266  30.941  1.00  0.00    -0.346 OA
ATOM     10  H1  UNL     1      31.719   6.445  31.235  1.00  0.00     0.219 HD
ENDBRANCH   6   9
ENDBRANCH   1   3
BRANCH   1  11
HETATM   11  N2  UNL     1      31.235   9.404  25.867  1.00  0.00    -0.313 N 
HETATM   12  C4  UNL     1      30.556   9.696  24.810  1.00  0.00     0.084 C 
ATOM     13  H2  UNL     1      31.803  10.105  26.344  1.00  0.00     0.185 HD
BRANCH  12  14
HETATM   14  C5  UNL     1      30.596  11.100  24.260  1.00  0.00     0.025 C 
HETATM   15  C6  UNL     1      32.012  11.392  23.893  1.00  0.00     0.010 C 
HETATM   16  C7  UNL     1      32.020  12.797  23.274  1.00  0.00     0.001 C 
HETATM   17  C8  UNL     1      31.375  12.544  21.908  1.00  0.00     0.000 C 
HETATM   18  C9  UNL     1      29.962  12.086  22.018  1.00  0.00     0.001 C 
HETATM   19  C10 UNL     1      29.605  11.268  23.180  1.00  0.00     0.010 C 
ENDBRANCH  12  14
ENDBRANCH   1  11
TORSDOF 4
ENDMDL
MODEL 3
REMARK VINA RESULT: -6.648292393      3.802      6.119
REMARK  4 active torsions:
REMARK  status: ('A' for Active; 'I' for Inactive)
REMARK    1  A    between atoms: O1_1  and  C1_3 
REMARK    2  A    between atoms: C3_6  and  N1_7 
REMARK    3  A    between atoms: N1_7  and  N2_9 
REMARK    4  A    between atoms: C4_11  and  C5_12 
ROOT
HETATM    1  N1  UNL     1      31.125   7.325  24.722  1.00  0.00    -0.280 N 
ATOM      2  H1  UNL     1      30.648   6.900  25.517  1.00  0.00     0.189 HD
ENDROOT
BRANCH   1   3
HETATM    3  C3  UNL     1      32.107   6.724  24.078  1.00  0.00     0.165 A 
HETATM    4  S1  UNL     1      33.661   6.280  24.624  1.00  0.00    -0.060 SA
HETATM    5  C2  UNL     1      34.243   5.579  23.181  1.00  0.00     0.109 A 
HETATM    6  C1  UNL     1      33.175   5.733  22.339  1.00  0.00     0.148 A 
HETATM    7  N3  UNL     1      32.107   6.313  22.809  1.00  0.00    -0.316 N 
ATOM      8  H3  UNL     1      31.286   6.449  22.219  1.00  0.00     0.170 HD
BRANCH   6   9
HETATM    9  O1  UNL     1      33.269   5.259  20.994  1.00  0.00    -0.346 OA
ATOM     10  H1  UNL     1      33.123   4.338  20.812  1.00  0.00     0.219 HD
ENDBRANCH   6   9
ENDBRANCH   1   3
BRANCH   1  11
HETATM   11  N2  UNL     1      30.789   8.590  24.231  1.00  0.00    -0.313 N 
HETATM   12  C4  UNL     1      31.420   9.604  24.719  1.00  0.00     0.084 C 
ATOM     13  H2  UNL     1      30.072   8.707  23.514  1.00  0.00     0.185 HD
BRANCH  12  14
HETATM   14  C5  UNL     1      31.099  10.993  24.227  1.00  0.00     0.025 C 
HETATM   15  C6  UNL     1      32.228  11.425  23.354  1.00  0.00     0.010 C 
HETATM   16  C7  UNL     1      31.850  12.811  22.810  1.00  0.00     0.001 C 
HETATM   17  C8  UNL     1      30.762  12.465  21.790  1.00  0.00     0.000 C 
HETATM   18  C9  UNL     1      29.555  11.863  22.422  1.00  0.00     0.001 C 
HETATM   19  C10 UNL     1      29.758  11.035  23.613  1.00  0.00     0.010 C 
ENDBRANCH  12  14
ENDBRANCH   1  11
TORSDOF 4
ENDMDL
MODEL 4
REMARK VINA RESULT: -6.615009632      4.369      6.991
REMARK  4 active torsions:
REMARK  status: ('A' for Active; 'I' for Inactive)
REMARK    1  A    between atoms: O1_1  and  C1_3 
REMARK    2  A    between atoms: C3_6  and  N1_7 
REMARK    3  A    between atoms: N1_7  and  N2_9 
REMARK    4  A    between atoms: C4_11  and  C5_12 
ROOT
HETATM    1  N1  UNL     1      31.292   8.254  26.612  1.00  0.00    -0.280 N 
ATOM      2  H1  UNL     1      30.392   7.829  26.389  1.00  0.00     0.189 HD
ENDROOT
BRANCH   1   3
HETATM    3  C3  UNL     1      32.010   7.892  27.657  1.00  0.00     0.165 A 
HETATM    4  S1  UNL     1      33.684   7.586  27.781  1.00  0.00    -0.060 SA
HETATM    5  C2  UNL     1      33.746   7.191  29.439  1.00  0.00     0.109 A 
HETATM    6  C1  UNL     1      32.435   7.322  29.812  1.00  0.00     0.148 A 
HETATM    7  N3  UNL     1      31.575   7.676  28.900  1.00  0.00    -0.316 N 
ATOM      8  H3  UNL     1      30.587   7.787  29.131  1.00  0.00     0.170 HD
BRANCH   6   9
HETATM    9  O1  UNL     1      32.063   7.069  31.168  1.00  0.00    -0.346 OA
ATOM     10  H1  UNL     1      31.845   7.799  31.736  1.00  0.00     0.219 HD
ENDBRANCH   6   9
ENDBRANCH   1   3
BRANCH   1  11
HETATM   11  N2  UNL     1      31.859   9.266  25.832  1.00  0.00    -0.313 N 
HETATM   12  C4  UNL     1      31.477   9.353  24.603  1.00  0.00     0.084 C 
ATOM     13  H2  UNL     1      32.549   9.911  26.220  1.00  0.00     0.185 HD
BRANCH  12  14
HETATM   14  C5  UNL     1      32.055  10.426  23.714  1.00  0.00     0.025 C 
HETATM   15  C6  UNL     1      30.981  11.433  23.479  1.00  0.00     0.010 C 
HETATM   16  C7  UNL     1      31.609  12.548  22.630  1.00  0.00     0.001 C 
HETATM   17  C8  UNL     1      32.503  13.257  23.650  1.00  0.00     0.000 C 
HETATM   18  C9  UNL     1      33.596  12.382  24.160  1.00  0.00     0.001 C 
HETATM   19  C10 UNL     1      33.316  10.949  24.275  1.00  0.00     0.010 C 
ENDBRANCH  12  14
ENDBRANCH   1  11
TORSDOF 4
ENDMDL
MODEL 5
REMARK VINA RESULT: -6.568858819      4.622      6.376
REMARK  4 active torsions:
REMARK  status: ('A' for Active; 'I' for Inactive)
REMARK    1  A    between atoms: O1_1  and  C1_3 
REMARK    2  A    between atoms: C3_6  and  N1_7 
REMARK    3  A    between atoms: N1_7  and  N2_9 
REMARK    4  A    between atoms: C4_11  and  C5_12 
ROOT
HETATM    1  N1  UNL     1      34.599   7.831  24.552  1.00  0.00    -0.280 N 
ATOM      2  H1  UNL     1      34.634   7.283  25.412  1.00  0.00     0.189 HD
ENDROOT
BRANCH   1   3
HETATM    3  C3  UNL     1      34.970   7.343  23.384  1.00  0.00     0.165 A 
HETATM    4  S1  UNL     1      35.168   5.722  22.890  1.00  0.00    -0.060 SA
HETATM    5  C2  UNL     1      35.650   6.007  21.279  1.00  0.00     0.109 A 
HETATM    6  C1  UNL     1      35.630   7.375  21.214  1.00  0.00     0.148 A 
HETATM    7  N3  UNL     1      35.284   8.030  22.285  1.00  0.00    -0.316 N 
ATOM      8  H3  UNL     1      35.254   9.050  22.284  1.00  0.00     0.170 HD
BRANCH   6   9
HETATM    9  O1  UNL     1      35.984   8.023  19.991  1.00  0.00    -0.346 OA
ATOM     10  H1  UNL     1      35.300   8.386  19.440  1.00  0.00     0.219 HD
ENDBRANCH   6   9
ENDBRANCH   1   3
BRANCH   1  11
HETATM   11  N2  UNL     1      34.154   9.155  24.521  1.00  0.00    -0.313 N 
HETATM   12  C4  UNL     1      32.886   9.359  24.637  1.00  0.00     0.084 C 
ATOM     13  H2  UNL     1      34.807   9.931  24.409  1.00  0.00     0.185 HD
BRANCH  12  14
HETATM   14  C5  UNL     1      32.348  10.767  24.611  1.00  0.00     0.025 C 
HETATM   15  C6  UNL     1      33.419  11.640  24.048  1.00  0.00     0.010 C 
HETATM   16  C7  UNL     1      32.828  13.055  23.966  1.00  0.00     0.001 C 
HETATM   17  C8  UNL     1      31.859  12.926  22.788  1.00  0.00     0.000 C 
HETATM   18  C9  UNL     1      30.751  11.968  23.059  1.00  0.00     0.001 C 
HETATM   19  C10 UNL     1      31.046  10.819  23.917  1.00  0.00     0.010 C 
ENDBRANCH  12  14
ENDBRANCH   1  11
TORSDOF 4
ENDMDL
