MODEL 1
REMARK VINA RESULT: -6.592117452      0.000      0.000
REMARK  3 active torsions:
REMARK  status: ('A' for Active; 'I' for Inactive)
REMARK    1  A    between atoms: C2_2  and  O1_3 
REMARK    2  A    between atoms: O1_3  and  C3_4 
REMARK    3  A    between atoms: C3_4  and  C4_6 
ROOT
HETATM    1  C4  UNL     1       2.322  10.823  24.136  1.00  0.00     0.135 C 
HETATM    2  N1  UNL     1       2.596   9.641  24.869  1.00  0.00    -0.095 NA
HETATM    3  C5  UNL     1       1.088  11.089  23.793  1.00  0.00     0.021 C 
HETATM    4  S1  UNL     1       0.815  12.601  22.850  1.00  0.00    -0.112 SA
HETATM    5  C6  UNL     1      -0.893  12.546  22.282  1.00  0.00     0.200 C 
HETATM    6  N2  UNL     1      -1.773  11.978  23.284  1.00  0.00    -0.370 N 
ATOM      7  H2  UNL     1      -2.776  12.142  23.205  1.00  0.00     0.161 HD
HETATM    8  C7  UNL     1      -1.291  11.205  24.366  1.00  0.00     0.080 C 
HETATM    9  N3  UNL     1      -1.835  11.278  25.528  1.00  0.00    -0.389 N 
ATOM     10  H31 UNL     1      -1.488  10.721  26.308  1.00  0.00     0.157 HD
ATOM     11  H32 UNL     1      -2.631  11.886  25.722  1.00  0.00     0.157 HD
HETATM   12  C8  UNL     1      -0.109  10.303  24.077  1.00  0.00     0.090 C 
HETATM   13  C9  UNL     1      -0.023   9.347  25.212  1.00  0.00     0.023 C 
ENDROOT
BRANCH   1  14
HETATM   14  C3  UNL     1       3.444  11.721  23.769  1.00  0.00     0.308 C 
HETATM   15  O2  UNL     1       4.263  11.289  22.927  1.00  0.00    -0.258 OA
BRANCH  14  16
HETATM   16  O1  UNL     1       3.640  12.975  24.282  1.00  0.00    -0.317 OA
BRANCH  16  17
HETATM   17  C2  UNL     1       4.913  13.573  24.442  1.00  0.00     0.174 C 
HETATM   18  C1  UNL     1       4.851  14.899  25.117  1.00  0.00     0.034 C 
ENDBRANCH  16  17
ENDBRANCH  14  16
ENDBRANCH   1  14
TORSDOF 3
ENDMDL
MODEL 2
REMARK VINA RESULT: -6.321671419      0.945      1.085
REMARK  3 active torsions:
REMARK  status: ('A' for Active; 'I' for Inactive)
REMARK    1  A    between atoms: C2_2  and  O1_3 
REMARK    2  A    between atoms: O1_3  and  C3_4 
REMARK    3  A    between atoms: C3_4  and  C4_6 
ROOT
HETATM    1  C4  UNL     1       2.468  10.392  24.352  1.00  0.00     0.135 C 
HETATM    2  N1  UNL     1       3.038   9.321  25.087  1.00  0.00    -0.095 NA
HETATM    3  C5  UNL     1       1.177  10.588  24.409  1.00  0.00     0.021 C 
HETATM    4  S1  UNL     1       0.519  11.958  23.440  1.00  0.00    -0.112 SA
HETATM    5  C6  UNL     1      -1.274  11.798  23.482  1.00  0.00     0.200 C 
HETATM    6  N2  UNL     1      -1.742  11.351  24.778  1.00  0.00    -0.370 N 
ATOM      7  H2  UNL     1      -2.724  11.485  25.018  1.00  0.00     0.161 HD
HETATM    8  C7  UNL     1      -0.887  10.736  25.722  1.00  0.00     0.080 C 
HETATM    9  N3  UNL     1      -1.024  10.950  26.981  1.00  0.00    -0.389 N 
ATOM     10  H31 UNL     1      -0.408  10.507  27.661  1.00  0.00     0.157 HD
ATOM     11  H32 UNL     1      -1.748  11.564  27.355  1.00  0.00     0.157 HD
HETATM   12  C8  UNL     1       0.188   9.825  25.165  1.00  0.00     0.090 C 
HETATM   13  C9  UNL     1       0.698   9.028  26.312  1.00  0.00     0.023 C 
ENDROOT
BRANCH   1  14
HETATM   14  C3  UNL     1       3.352  11.254  23.530  1.00  0.00     0.308 C 
HETATM   15  O2  UNL     1       3.789  10.764  22.464  1.00  0.00    -0.258 OA
BRANCH  14  16
HETATM   16  O1  UNL     1       3.716  12.533  23.855  1.00  0.00    -0.317 OA
BRANCH  16  17
HETATM   17  C2  UNL     1       5.020  12.904  24.262  1.00  0.00     0.174 C 
HETATM   18  C1  UNL     1       5.077  14.269  24.855  1.00  0.00     0.034 C 
ENDBRANCH  16  17
ENDBRANCH  14  16
ENDBRANCH   1  14
TORSDOF 3
ENDMDL
MODEL 3
REMARK VINA RESULT: -6.309858623      2.695      3.461
REMARK  3 active torsions:
REMARK  status: ('A' for Active; 'I' for Inactive)
REMARK    1  A    between atoms: C2_2  and  O1_3 
REMARK    2  A    between atoms: O1_3  and  C3_4 
REMARK    3  A    between atoms: C3_4  and  C4_6 
ROOT
HETATM    1  C4  UNL     1       2.271  10.316  23.565  1.00  0.00     0.135 C 
HETATM    2  N1  UNL     1       2.924  11.172  22.642  1.00  0.00    -0.095 NA
HETATM    3  C5  UNL     1       1.187  10.733  24.165  1.00  0.00     0.021 C 
HETATM    4  S1  UNL     1       0.418   9.598  25.335  1.00  0.00    -0.112 SA
HETATM    5  C6  UNL     1      -0.850  10.539  26.201  1.00  0.00     0.200 C 
HETATM    6  N2  UNL     1      -1.530  11.463  25.316  1.00  0.00    -0.370 N 
ATOM      7  H2  UNL     1      -2.431  11.844  25.603  1.00  0.00     0.161 HD
HETATM    8  C7  UNL     1      -0.988  11.856  24.070  1.00  0.00     0.080 C 
HETATM    9  N3  UNL     1      -1.745  12.056  23.051  1.00  0.00    -0.389 N 
ATOM     10  H31 UNL     1      -1.355  12.339  22.153  1.00  0.00     0.157 HD
ATOM     11  H32 UNL     1      -2.758  11.945  23.092  1.00  0.00     0.157 HD
HETATM   12  C8  UNL     1       0.517  12.020  24.009  1.00  0.00     0.090 C 
HETATM   13  C9  UNL     1       0.807  12.774  22.761  1.00  0.00     0.023 C 
ENDROOT
BRANCH   1  14
HETATM   14  C3  UNL     1       2.842   8.973  23.830  1.00  0.00     0.308 C 
HETATM   15  O2  UNL     1       2.329   8.008  23.218  1.00  0.00    -0.258 OA
BRANCH  14  16
HETATM   16  O1  UNL     1       3.879   8.720  24.688  1.00  0.00    -0.317 OA
BRANCH  16  17
HETATM   17  C2  UNL     1       5.151   8.256  24.274  1.00  0.00     0.174 C 
HETATM   18  C1  UNL     1       6.043   9.352  23.803  1.00  0.00     0.034 C 
ENDBRANCH  16  17
ENDBRANCH  14  16
ENDBRANCH   1  14
TORSDOF 3
ENDMDL
MODEL 4
REMARK VINA RESULT: -6.197751201      2.646      3.827
REMARK  3 active torsions:
REMARK  status: ('A' for Active; 'I' for Inactive)
REMARK    1  A    between atoms: C2_2  and  O1_3 
REMARK    2  A    between atoms: O1_3  and  C3_4 
REMARK    3  A    between atoms: C3_4  and  C4_6 
ROOT
HETATM    1  C4  UNL     1       2.277  10.444  23.612  1.00  0.00     0.135 C 
HETATM    2  N1  UNL     1       2.920  11.306  22.687  1.00  0.00    -0.095 NA
HETATM    3  C5  UNL     1       1.166  10.834  24.181  1.00  0.00     0.021 C 
HETATM    4  S1  UNL     1       0.411   9.696  25.356  1.00  0.00    -0.112 SA
HETATM    5  C6  UNL     1      -0.907  10.608  26.175  1.00  0.00     0.200 C 
HETATM    6  N2  UNL     1      -1.599  11.490  25.257  1.00  0.00    -0.370 N 
ATOM      7  H2  UNL     1      -2.520  11.844  25.516  1.00  0.00     0.161 HD
HETATM    8  C7  UNL     1      -1.044  11.877  24.015  1.00  0.00     0.080 C 
HETATM    9  N3  UNL     1      -1.785  12.030  22.976  1.00  0.00    -0.389 N 
ATOM     10  H31 UNL     1      -1.385  12.310  22.081  1.00  0.00     0.157 HD
ATOM     11  H32 UNL     1      -2.794  11.885  22.998  1.00  0.00     0.157 HD
HETATM   12  C8  UNL     1       0.455  12.094  23.984  1.00  0.00     0.090 C 
HETATM   13  C9  UNL     1       0.746  12.833  22.727  1.00  0.00     0.023 C 
ENDROOT
BRANCH   1  14
HETATM   14  C3  UNL     1       2.889   9.128  23.917  1.00  0.00     0.308 C 
HETATM   15  O2  UNL     1       3.570   9.049  24.965  1.00  0.00    -0.258 OA
BRANCH  14  16
HETATM   16  O1  UNL     1       2.759   8.008  23.141  1.00  0.00    -0.317 OA
BRANCH  16  17
HETATM   17  C2  UNL     1       3.850   7.320  22.558  1.00  0.00     0.174 C 
HETATM   18  C1  UNL     1       4.732   8.210  21.751  1.00  0.00     0.034 C 
ENDBRANCH  16  17
ENDBRANCH  14  16
ENDBRANCH   1  14
TORSDOF 3
ENDMDL
MODEL 5
REMARK VINA RESULT: -6.178328550      2.955      5.910
REMARK  3 active torsions:
REMARK  status: ('A' for Active; 'I' for Inactive)
REMARK    1  A    between atoms: C2_2  and  O1_3 
REMARK    2  A    between atoms: O1_3  and  C3_4 
REMARK    3  A    between atoms: C3_4  and  C4_6 
ROOT
HETATM    1  C4  UNL     1       2.855  13.010  24.021  1.00  0.00     0.135 C 
HETATM    2  N1  UNL     1       2.432  14.345  24.249  1.00  0.00    -0.095 NA
HETATM    3  C5  UNL     1       4.123  12.715  24.141  1.00  0.00     0.021 C 
HETATM    4  S1  UNL     1       4.592  11.004  23.824  1.00  0.00    -0.112 SA
HETATM    5  C6  UNL     1       6.392  10.969  23.774  1.00  0.00     0.200 C 
HETATM    6  N2  UNL     1       6.973  11.858  24.760  1.00  0.00    -0.370 N 
ATOM      7  H2  UNL     1       7.949  11.729  25.023  1.00  0.00     0.161 HD
HETATM    8  C7  UNL     1       6.234  12.899  25.370  1.00  0.00     0.080 C 
HETATM    9  N3  UNL     1       6.421  13.211  26.602  1.00  0.00    -0.389 N 
ATOM     10  H31 UNL     1       5.889  13.961  27.042  1.00  0.00     0.157 HD
ATOM     11  H32 UNL     1       7.104  12.732  27.190  1.00  0.00     0.157 HD
HETATM   12  C8  UNL     1       5.221  13.609  24.496  1.00  0.00     0.090 C 
HETATM   13  C9  UNL     1       4.853  14.860  25.212  1.00  0.00     0.023 C 
ENDROOT
BRANCH   1  14
HETATM   14  C3  UNL     1       1.848  11.988  23.645  1.00  0.00     0.308 C 
HETATM   15  O2  UNL     1       1.629  11.832  22.422  1.00  0.00    -0.258 OA
BRANCH  14  16
HETATM   16  O1  UNL     1       1.153  11.212  24.534  1.00  0.00    -0.317 OA
BRANCH  16  17
HETATM   17  C2  UNL     1      -0.133  11.536  25.027  1.00  0.00     0.174 C 
HETATM   18  C1  UNL     1      -1.232  10.945  24.213  1.00  0.00     0.034 C 
ENDBRANCH  16  17
ENDBRANCH  14  16
ENDBRANCH   1  14
TORSDOF 3
ENDMDL
