MODEL 1
REMARK VINA RESULT: -6.097419755      0.000      0.000
REMARK  3 active torsions:
REMARK  status: ('A' for Active; 'I' for Inactive)
REMARK    1  A    between atoms: C2_2  and  C4_4 
REMARK    2  A    between atoms: C4_4  and  C5_5 
REMARK    3  A    between atoms: C5_5  and  O1_6 
ROOT
HETATM    1  C4  UNL     1      -5.113   2.660  15.350  1.00  0.00     0.153 C 
HETATM    2  O2  UNL     1      -4.266   3.614  15.909  1.00  0.00    -0.223 OA
HETATM    3  O3  UNL     1      -3.292   3.624  15.021  1.00  0.00    -0.226 OA
HETATM    4  C6  UNL     1      -3.954   4.009  13.849  1.00  0.00     0.123 C 
HETATM    5  C7  UNL     1      -3.172   3.674  12.612  1.00  0.00     0.052 C 
HETATM    6  C8  UNL     1      -4.270   5.473  13.973  1.00  0.00     0.052 C 
HETATM    7  C9  UNL     1      -5.231   3.162  13.933  1.00  0.00     0.247 C 
HETATM    8  F1  UNL     1      -6.306   3.954  13.697  1.00  0.00    -0.243 F 
ENDROOT
BRANCH   1   9
HETATM    9  C2  UNL     1      -6.449   2.580  16.017  1.00  0.00     0.020 C 
HETATM   10  C1  UNL     1      -6.642   3.863  16.804  1.00  0.00     0.013 C 
HETATM   11  C3  UNL     1      -6.663   1.382  16.860  1.00  0.00     0.013 C 
ENDBRANCH   1   9
BRANCH   1  12
HETATM   12  C5  UNL     1      -4.370   1.344  15.400  1.00  0.00     0.209 C 
BRANCH  12  13
HETATM   13  O1  UNL     1      -3.426   1.322  16.413  1.00  0.00    -0.398 OA
ATOM     14  H1  UNL     1      -2.544   1.227  16.074  1.00  0.00     0.209 HD
ENDBRANCH  12  13
ENDBRANCH   1  12
TORSDOF 3
ENDMDL
MODEL 2
REMARK VINA RESULT: -5.622586896      1.836      3.806
REMARK  3 active torsions:
REMARK  status: ('A' for Active; 'I' for Inactive)
REMARK    1  A    between atoms: C2_2  and  C4_4 
REMARK    2  A    between atoms: C4_4  and  C5_5 
REMARK    3  A    between atoms: C5_5  and  O1_6 
ROOT
HETATM    1  C4  UNL     1      -5.445   3.522  15.311  1.00  0.00     0.153 C 
HETATM    2  O2  UNL     1      -5.979   2.374  14.729  1.00  0.00    -0.223 OA
HETATM    3  O3  UNL     1      -5.579   1.457  15.587  1.00  0.00    -0.226 OA
HETATM    4  C6  UNL     1      -6.184   1.873  16.779  1.00  0.00     0.123 C 
HETATM    5  C7  UNL     1      -5.541   1.264  17.992  1.00  0.00     0.052 C 
HETATM    6  C8  UNL     1      -7.650   1.569  16.669  1.00  0.00     0.052 C 
HETATM    7  C9  UNL     1      -5.931   3.387  16.731  1.00  0.00     0.247 C 
HETATM    8  F1  UNL     1      -7.088   4.039  17.002  1.00  0.00    -0.243 F 
ENDROOT
BRANCH   1   9
HETATM    9  C2  UNL     1      -5.925   4.791  14.684  1.00  0.00     0.020 C 
HETATM   10  C1  UNL     1      -6.498   4.439  13.324  1.00  0.00     0.013 C 
HETATM   11  C3  UNL     1      -4.916   5.870  14.592  1.00  0.00     0.013 C 
ENDBRANCH   1   9
BRANCH   1  12
HETATM   12  C5  UNL     1      -3.942   3.380  15.235  1.00  0.00     0.209 C 
BRANCH  12  13
HETATM   13  O1  UNL     1      -3.548   2.626  14.142  1.00  0.00    -0.398 OA
ATOM     14  H1  UNL     1      -2.727   2.175  14.299  1.00  0.00     0.209 HD
ENDBRANCH  12  13
ENDBRANCH   1  12
TORSDOF 3
ENDMDL
MODEL 3
REMARK VINA RESULT: -5.597537641      1.465      3.817
REMARK  3 active torsions:
REMARK  status: ('A' for Active; 'I' for Inactive)
REMARK    1  A    between atoms: C2_2  and  C4_4 
REMARK    2  A    between atoms: C4_4  and  C5_5 
REMARK    3  A    between atoms: C5_5  and  O1_6 
ROOT
HETATM    1  C4  UNL     1      -4.948   2.463  15.359  1.00  0.00     0.153 C 
HETATM    2  O2  UNL     1      -5.404   1.158  15.532  1.00  0.00    -0.223 OA
HETATM    3  O3  UNL     1      -5.458   1.092  16.847  1.00  0.00    -0.226 OA
HETATM    4  C6  UNL     1      -6.373   2.103  17.163  1.00  0.00     0.123 C 
HETATM    5  C7  UNL     1      -6.282   2.529  18.600  1.00  0.00     0.052 C 
HETATM    6  C8  UNL     1      -7.738   1.610  16.776  1.00  0.00     0.052 C 
HETATM    7  C9  UNL     1      -5.909   3.230  16.230  1.00  0.00     0.247 C 
HETATM    8  F1  UNL     1      -6.985   3.740  15.581  1.00  0.00    -0.243 F 
ENDROOT
BRANCH   1   9
HETATM    9  C2  UNL     1      -4.998   2.933  13.940  1.00  0.00     0.020 C 
HETATM   10  C1  UNL     1      -4.366   1.853  13.081  1.00  0.00     0.013 C 
HETATM   11  C3  UNL     1      -4.388   4.259  13.692  1.00  0.00     0.013 C 
ENDBRANCH   1   9
BRANCH   1  12
HETATM   12  C5  UNL     1      -3.547   2.507  15.925  1.00  0.00     0.209 C 
BRANCH  12  13
HETATM   13  O1  UNL     1      -3.120   1.258  16.345  1.00  0.00    -0.398 OA
ATOM     14  H1  UNL     1      -3.182   1.160  17.288  1.00  0.00     0.209 HD
ENDBRANCH  12  13
ENDBRANCH   1  12
TORSDOF 3
ENDMDL
MODEL 4
REMARK VINA RESULT: -5.556900199      2.845      4.542
REMARK  3 active torsions:
REMARK  status: ('A' for Active; 'I' for Inactive)
REMARK    1  A    between atoms: C2_2  and  C4_4 
REMARK    2  A    between atoms: C4_4  and  C5_5 
REMARK    3  A    between atoms: C5_5  and  O1_6 
ROOT
HETATM    1  C4  UNL     1      -3.718   2.456  11.913  1.00  0.00     0.153 C 
HETATM    2  O2  UNL     1      -3.071   3.651  12.223  1.00  0.00    -0.223 OA
HETATM    3  O3  UNL     1      -4.103   4.423  12.497  1.00  0.00    -0.226 OA
HETATM    4  C6  UNL     1      -4.702   3.757  13.573  1.00  0.00     0.123 C 
HETATM    5  C7  UNL     1      -6.126   4.181  13.789  1.00  0.00     0.052 C 
HETATM    6  C8  UNL     1      -3.829   3.974  14.777  1.00  0.00     0.052 C 
HETATM    7  C9  UNL     1      -4.633   2.299  13.100  1.00  0.00     0.247 C 
HETATM    8  F1  UNL     1      -4.139   1.529  14.101  1.00  0.00    -0.243 F 
ENDROOT
BRANCH   1   9
HETATM    9  C2  UNL     1      -2.792   1.291  11.773  1.00  0.00     0.020 C 
HETATM   10  C1  UNL     1      -1.529   1.791  11.098  1.00  0.00     0.013 C 
HETATM   11  C3  UNL     1      -3.359   0.115  11.075  1.00  0.00     0.013 C 
ENDBRANCH   1   9
BRANCH   1  12
HETATM   12  C5  UNL     1      -4.507   2.713  10.648  1.00  0.00     0.209 C 
BRANCH  12  13
HETATM   13  O1  UNL     1      -5.838   2.357  10.788  1.00  0.00    -0.398 OA
ATOM     14  H1  UNL     1      -6.312   2.426   9.968  1.00  0.00     0.209 HD
ENDBRANCH  12  13
ENDBRANCH   1  12
TORSDOF 3
ENDMDL
MODEL 5
REMARK VINA RESULT: -5.439546872      0.551      1.114
REMARK  3 active torsions:
REMARK  status: ('A' for Active; 'I' for Inactive)
REMARK    1  A    between atoms: C2_2  and  C4_4 
REMARK    2  A    between atoms: C4_4  and  C5_5 
REMARK    3  A    between atoms: C5_5  and  O1_6 
ROOT
HETATM    1  C4  UNL     1      -5.033   2.733  15.601  1.00  0.00     0.153 C 
HETATM    2  O2  UNL     1      -3.966   3.620  15.723  1.00  0.00    -0.223 OA
HETATM    3  O3  UNL     1      -3.376   3.451  14.556  1.00  0.00    -0.226 OA
HETATM    4  C6  UNL     1      -4.378   3.825  13.653  1.00  0.00     0.123 C 
HETATM    5  C7  UNL     1      -4.121   3.311  12.266  1.00  0.00     0.052 C 
HETATM    6  C8  UNL     1      -4.506   5.320  13.718  1.00  0.00     0.052 C 
HETATM    7  C9  UNL     1      -5.607   3.140  14.268  1.00  0.00     0.247 C 
HETATM    8  F1  UNL     1      -6.625   4.032  14.335  1.00  0.00    -0.243 F 
ENDROOT
BRANCH   1   9
HETATM    9  C2  UNL     1      -6.045   2.858  16.696  1.00  0.00     0.020 C 
HETATM   10  C1  UNL     1      -7.021   1.705  16.546  1.00  0.00     0.013 C 
HETATM   11  C3  UNL     1      -6.742   4.161  16.765  1.00  0.00     0.013 C 
ENDBRANCH   1   9
BRANCH   1  12
HETATM   12  C5  UNL     1      -4.433   1.347  15.535  1.00  0.00     0.209 C 
BRANCH  12  13
HETATM   13  O1  UNL     1      -3.351   1.210  16.389  1.00  0.00    -0.398 OA
ATOM     14  H1  UNL     1      -3.586   0.757  17.190  1.00  0.00     0.209 HD
ENDBRANCH  12  13
ENDBRANCH   1  12
TORSDOF 3
ENDMDL
