MODEL 1
REMARK VINA RESULT: -5.562629995      0.000      0.000
REMARK  4 active torsions:
REMARK  status: ('A' for Active; 'I' for Inactive)
REMARK    1  A    between atoms: O1_2  and  C2_3 
REMARK    2  A    between atoms: C2_3  and  N1_5 
REMARK    3  A    between atoms: N1_5  and  C3_7 
REMARK    4  A    between atoms: C3_7  and  C4_8 
ROOT
HETATM    1  C3  UNL     1      -4.466   1.114  14.966  1.00  0.00     0.196 C 
ENDROOT
BRANCH   1   2
HETATM    2  N1  UNL     1      -3.947   1.742  13.768  1.00  0.00    -0.356 N 
ATOM      3  H1  UNL     1      -3.350   2.568  13.821  1.00  0.00     0.162 HD
BRANCH   2   4
HETATM    4  C2  UNL     1      -4.298   1.167  12.516  1.00  0.00     0.209 C 
HETATM    5  S1  UNL     1      -4.623   2.083  11.203  1.00  0.00    -0.033 SA
BRANCH   4   6
HETATM    6  O1  UNL     1      -4.383  -0.217  12.337  1.00  0.00    -0.332 OA
HETATM    7  C1  UNL     1      -3.426  -0.871  11.530  1.00  0.00     0.212 C 
ENDBRANCH   4   6
ENDBRANCH   2   4
ENDBRANCH   1   2
BRANCH   1   8
HETATM    8  C4  UNL     1      -4.587   2.123  16.105  1.00  0.00     0.221 C 
HETATM    9  F1  UNL     1      -3.355   2.487  16.562  1.00  0.00    -0.210 F 
HETATM   10  C5  UNL     1      -5.388   1.442  17.193  1.00  0.00     0.077 C 
HETATM   11  C6  UNL     1      -6.806   1.769  16.735  1.00  0.00     0.032 C 
HETATM   12  C7  UNL     1      -6.570   3.161  16.170  1.00  0.00     0.172 C 
HETATM   13  O2  UNL     1      -5.307   3.192  15.651  1.00  0.00    -0.350 OA
ENDBRANCH   1   8
TORSDOF 4
ENDMDL
MODEL 2
REMARK VINA RESULT: -5.403077607      1.897      2.170
REMARK  4 active torsions:
REMARK  status: ('A' for Active; 'I' for Inactive)
REMARK    1  A    between atoms: O1_2  and  C2_3 
REMARK    2  A    between atoms: C2_3  and  N1_5 
REMARK    3  A    between atoms: N1_5  and  C3_7 
REMARK    4  A    between atoms: C3_7  and  C4_8 
ROOT
HETATM    1  C3  UNL     1      -4.487   1.553  16.402  1.00  0.00     0.196 C 
ENDROOT
BRANCH   1   2
HETATM    2  N1  UNL     1      -4.353   0.555  15.361  1.00  0.00    -0.356 N 
ATOM      3  H1  UNL     1      -4.265  -0.436  15.588  1.00  0.00     0.162 HD
BRANCH   2   4
HETATM    4  C2  UNL     1      -4.350   1.003  14.012  1.00  0.00     0.209 C 
HETATM    5  S1  UNL     1      -4.347   2.590  13.626  1.00  0.00    -0.033 SA
BRANCH   4   6
HETATM    6  O1  UNL     1      -4.349   0.109  12.937  1.00  0.00    -0.332 OA
HETATM    7  C1  UNL     1      -4.352   0.612  11.618  1.00  0.00     0.212 C 
ENDBRANCH   4   6
ENDBRANCH   2   4
ENDBRANCH   1   2
BRANCH   1   8
HETATM    8  C4  UNL     1      -5.685   1.252  17.299  1.00  0.00     0.221 C 
HETATM    9  F1  UNL     1      -5.854  -0.093  17.445  1.00  0.00    -0.210 F 
HETATM   10  C5  UNL     1      -6.887   1.878  16.627  1.00  0.00     0.077 C 
HETATM   11  C6  UNL     1      -6.806   3.295  17.188  1.00  0.00     0.032 C 
HETATM   12  C7  UNL     1      -6.294   2.981  18.585  1.00  0.00     0.172 C 
HETATM   13  O2  UNL     1      -5.489   1.882  18.496  1.00  0.00    -0.350 OA
ENDBRANCH   1   8
TORSDOF 4
ENDMDL
MODEL 3
REMARK VINA RESULT: -5.393282899      1.704      1.988
REMARK  4 active torsions:
REMARK  status: ('A' for Active; 'I' for Inactive)
REMARK    1  A    between atoms: O1_2  and  C2_3 
REMARK    2  A    between atoms: C2_3  and  N1_5 
REMARK    3  A    between atoms: N1_5  and  C3_7 
REMARK    4  A    between atoms: C3_7  and  C4_8 
ROOT
HETATM    1  C3  UNL     1      -4.489   2.765  15.715  1.00  0.00     0.196 C 
ENDROOT
BRANCH   1   2
HETATM    2  N1  UNL     1      -4.016   1.590  15.013  1.00  0.00    -0.356 N 
ATOM      3  H1  UNL     1      -3.635   0.790  15.518  1.00  0.00     0.162 HD
BRANCH   2   4
HETATM    4  C2  UNL     1      -4.102   1.589  13.593  1.00  0.00     0.209 C 
HETATM    5  S1  UNL     1      -3.831   2.935  12.708  1.00  0.00    -0.033 SA
BRANCH   4   6
HETATM    6  O1  UNL     1      -4.422   0.434  12.873  1.00  0.00    -0.332 OA
HETATM    7  C1  UNL     1      -4.415   0.474  11.462  1.00  0.00     0.212 C 
ENDBRANCH   4   6
ENDBRANCH   2   4
ENDBRANCH   1   2
BRANCH   1   8
HETATM    8  C4  UNL     1      -6.008   2.742  15.860  1.00  0.00     0.221 C 
HETATM    9  F1  UNL     1      -6.604   3.365  14.803  1.00  0.00    -0.210 F 
HETATM   10  C5  UNL     1      -6.323   3.457  17.156  1.00  0.00     0.077 C 
HETATM   11  C6  UNL     1      -6.198   2.300  18.143  1.00  0.00     0.032 C 
HETATM   12  C7  UNL     1      -6.747   1.176  17.279  1.00  0.00     0.172 C 
HETATM   13  O2  UNL     1      -6.404   1.440  15.984  1.00  0.00    -0.350 OA
ENDBRANCH   1   8
TORSDOF 4
ENDMDL
MODEL 4
REMARK VINA RESULT: -5.359494492      1.388      1.396
REMARK  4 active torsions:
REMARK  status: ('A' for Active; 'I' for Inactive)
REMARK    1  A    between atoms: O1_2  and  C2_3 
REMARK    2  A    between atoms: C2_3  and  N1_5 
REMARK    3  A    between atoms: N1_5  and  C3_7 
REMARK    4  A    between atoms: C3_7  and  C4_8 
ROOT
HETATM    1  C3  UNL     1      -4.621   1.156  14.899  1.00  0.00     0.196 C 
ENDROOT
BRANCH   1   2
HETATM    2  N1  UNL     1      -4.496   1.934  13.683  1.00  0.00    -0.356 N 
ATOM      3  H1  UNL     1      -4.982   2.824  13.574  1.00  0.00     0.162 HD
BRANCH   2   4
HETATM    4  C2  UNL     1      -3.670   1.415  12.649  1.00  0.00     0.209 C 
HETATM    5  S1  UNL     1      -4.042   0.038  11.852  1.00  0.00    -0.033 SA
BRANCH   4   6
HETATM    6  O1  UNL     1      -2.492   2.056  12.252  1.00  0.00    -0.332 OA
HETATM    7  C1  UNL     1      -1.745   1.528  11.177  1.00  0.00     0.212 C 
ENDBRANCH   4   6
ENDBRANCH   2   4
ENDBRANCH   1   2
BRANCH   1   8
HETATM    8  C4  UNL     1      -4.672   2.063  16.126  1.00  0.00     0.221 C 
HETATM    9  F1  UNL     1      -3.415   2.353  16.566  1.00  0.00    -0.210 F 
HETATM   10  C5  UNL     1      -5.453   1.308  17.180  1.00  0.00     0.077 C 
HETATM   11  C6  UNL     1      -6.876   1.711  16.806  1.00  0.00     0.032 C 
HETATM   12  C7  UNL     1      -6.620   3.142  16.358  1.00  0.00     0.172 C 
HETATM   13  O2  UNL     1      -5.377   3.186  15.796  1.00  0.00    -0.350 OA
ENDBRANCH   1   8
TORSDOF 4
ENDMDL
MODEL 5
REMARK VINA RESULT: -5.318981345      1.252      1.527
REMARK  4 active torsions:
REMARK  status: ('A' for Active; 'I' for Inactive)
REMARK    1  A    between atoms: O1_2  and  C2_3 
REMARK    2  A    between atoms: C2_3  and  N1_5 
REMARK    3  A    between atoms: N1_5  and  C3_7 
REMARK    4  A    between atoms: C3_7  and  C4_8 
ROOT
HETATM    1  C3  UNL     1      -4.505   1.095  14.874  1.00  0.00     0.196 C 
ENDROOT
BRANCH   1   2
HETATM    2  N1  UNL     1      -3.906   1.659  13.682  1.00  0.00    -0.356 N 
ATOM      3  H1  UNL     1      -3.172   2.365  13.743  1.00  0.00     0.162 HD
BRANCH   2   4
HETATM    4  C2  UNL     1      -4.374   1.194  12.423  1.00  0.00     0.209 C 
HETATM    5  S1  UNL     1      -3.942  -0.262  11.821  1.00  0.00    -0.033 SA
BRANCH   4   6
HETATM    6  O1  UNL     1      -5.236   1.957  11.627  1.00  0.00    -0.332 OA
HETATM    7  C1  UNL     1      -4.700   2.741  10.583  1.00  0.00     0.212 C 
ENDBRANCH   4   6
ENDBRANCH   2   4
ENDBRANCH   1   2
BRANCH   1   8
HETATM    8  C4  UNL     1      -4.605   2.140  15.983  1.00  0.00     0.221 C 
HETATM    9  F1  UNL     1      -3.365   2.539  16.384  1.00  0.00    -0.210 F 
HETATM   10  C5  UNL     1      -5.355   1.481  17.121  1.00  0.00     0.077 C 
HETATM   11  C6  UNL     1      -6.793   1.769  16.702  1.00  0.00     0.032 C 
HETATM   12  C7  UNL     1      -6.602   3.146  16.085  1.00  0.00     0.172 C 
HETATM   13  O2  UNL     1      -5.360   3.180  15.520  1.00  0.00    -0.350 OA
ENDBRANCH   1   8
TORSDOF 4
ENDMDL
