MODEL 1
REMARK VINA RESULT: -5.425111710      0.000      0.000
REMARK  2 active torsions:
REMARK  status: ('A' for Active; 'I' for Inactive)
REMARK    1  A    between atoms: C2_2  and  N1_4 
REMARK    2  A    between atoms: C4_6  and  C5_8 
ROOT
HETATM    1  N1  UNL     1      -6.133   4.835  13.481  1.00  0.00    -0.380 N 
ATOM      2  H1  UNL     1      -6.189   4.017  12.874  1.00  0.00     0.160 HD
HETATM    3  C4  UNL     1      -6.103   4.598  14.717  1.00  0.00     0.080 C 
HETATM    4 CL1  UNL     1      -6.006   5.919  15.852  1.00  0.00    -0.069 Cl
ENDROOT
BRANCH   3   5
HETATM    5  C5  UNL     1      -6.151   3.174  15.158  1.00  0.00     0.051 C 
HETATM    6  C6  UNL     1      -6.992   3.037  16.427  1.00  0.00     0.038 C 
HETATM    7  C7  UNL     1      -6.722   1.718  17.096  1.00  0.00     0.168 C 
HETATM    8  O1  UNL     1      -6.141   0.786  16.256  1.00  0.00    -0.391 OA
HETATM    9  C8  UNL     1      -4.932   1.152  15.738  1.00  0.00     0.168 C 
HETATM   10  C9  UNL     1      -4.783   2.632  15.497  1.00  0.00     0.038 C 
ENDBRANCH   3   5
BRANCH   1  11
HETATM   11  C2  UNL     1      -6.100   6.084  12.826  1.00  0.00     0.074 C 
HETATM   12  C1  UNL     1      -7.432   6.725  12.615  1.00  0.00     0.031 C 
HETATM   13  C3  UNL     1      -5.350   5.940  11.505  1.00  0.00     0.031 C 
ENDBRANCH   1  11
TORSDOF 2
ENDMDL
MODEL 2
REMARK VINA RESULT: -5.423727608      3.240      4.910
REMARK  2 active torsions:
REMARK  status: ('A' for Active; 'I' for Inactive)
REMARK    1  A    between atoms: C2_2  and  N1_4 
REMARK    2  A    between atoms: C4_6  and  C5_8 
ROOT
HETATM    1  N1  UNL     1      -5.074   2.218  14.989  1.00  0.00    -0.380 N 
ATOM      2  H1  UNL     1      -5.540   1.453  14.500  1.00  0.00     0.160 HD
HETATM    3  C4  UNL     1      -4.214   2.851  14.320  1.00  0.00     0.080 C 
HETATM    4 CL1  UNL     1      -3.354   4.181  15.051  1.00  0.00    -0.069 Cl
ENDROOT
BRANCH   3   5
HETATM    5  C5  UNL     1      -3.971   2.426  12.912  1.00  0.00     0.051 C 
HETATM    6  C6  UNL     1      -5.000   3.061  11.977  1.00  0.00     0.038 C 
HETATM    7  C7  UNL     1      -5.023   2.343  10.656  1.00  0.00     0.168 C 
HETATM    8  O1  UNL     1      -3.887   1.592  10.420  1.00  0.00    -0.391 OA
HETATM    9  C8  UNL     1      -3.650   0.604  11.334  1.00  0.00     0.168 C 
HETATM   10  C9  UNL     1      -4.102   0.932  12.733  1.00  0.00     0.038 C 
ENDBRANCH   3   5
BRANCH   1  11
HETATM   11  C2  UNL     1      -5.476   2.428  16.325  1.00  0.00     0.074 C 
HETATM   12  C1  UNL     1      -5.825   1.191  17.084  1.00  0.00     0.031 C 
HETATM   13  C3  UNL     1      -6.628   3.428  16.351  1.00  0.00     0.031 C 
ENDBRANCH   1  11
TORSDOF 2
ENDMDL
MODEL 3
REMARK VINA RESULT: -5.397491440      1.812      2.006
REMARK  2 active torsions:
REMARK  status: ('A' for Active; 'I' for Inactive)
REMARK    1  A    between atoms: C2_2  and  N1_4 
REMARK    2  A    between atoms: C4_6  and  C5_8 
ROOT
HETATM    1  N1  UNL     1      -4.027   4.704  14.467  1.00  0.00    -0.380 N 
ATOM      2  H1  UNL     1      -3.520   3.843  14.263  1.00  0.00     0.160 HD
HETATM    3  C4  UNL     1      -5.134   4.562  15.048  1.00  0.00     0.080 C 
HETATM    4 CL1  UNL     1      -6.090   5.966  15.450  1.00  0.00    -0.069 Cl
ENDROOT
BRANCH   3   5
HETATM    5  C5  UNL     1      -5.583   3.177  15.372  1.00  0.00     0.051 C 
HETATM    6  C6  UNL     1      -6.725   3.210  16.388  1.00  0.00     0.038 C 
HETATM    7  C7  UNL     1      -6.908   1.857  17.016  1.00  0.00     0.168 C 
HETATM    8  O1  UNL     1      -6.339   0.831  16.284  1.00  0.00    -0.391 OA
HETATM    9  C8  UNL     1      -4.990   0.934  16.099  1.00  0.00     0.168 C 
HETATM   10  C9  UNL     1      -4.485   2.351  15.997  1.00  0.00     0.038 C 
ENDBRANCH   3   5
BRANCH   1  11
HETATM   11  C2  UNL     1      -3.395   5.899  14.060  1.00  0.00     0.074 C 
HETATM   12  C1  UNL     1      -3.849   6.441  12.746  1.00  0.00     0.031 C 
HETATM   13  C3  UNL     1      -1.883   5.697  14.074  1.00  0.00     0.031 C 
ENDBRANCH   1  11
TORSDOF 2
ENDMDL
MODEL 4
REMARK VINA RESULT: -5.376716561      2.795      3.734
REMARK  2 active torsions:
REMARK  status: ('A' for Active; 'I' for Inactive)
REMARK    1  A    between atoms: C2_2  and  N1_4 
REMARK    2  A    between atoms: C4_6  and  C5_8 
ROOT
HETATM    1  N1  UNL     1      -4.478   1.560  13.458  1.00  0.00    -0.380 N 
ATOM      2  H1  UNL     1      -5.007   0.825  13.928  1.00  0.00     0.160 HD
HETATM    3  C4  UNL     1      -4.299   2.615  14.120  1.00  0.00     0.080 C 
HETATM    4 CL1  UNL     1      -3.406   3.940  13.419  1.00  0.00    -0.069 Cl
ENDROOT
BRANCH   3   5
HETATM    5  C5  UNL     1      -4.868   2.682  15.498  1.00  0.00     0.051 C 
HETATM    6  C6  UNL     1      -5.027   1.277  16.079  1.00  0.00     0.038 C 
HETATM    7  C7  UNL     1      -5.950   1.301  17.264  1.00  0.00     0.168 C 
HETATM    8  O1  UNL     1      -6.108   2.560  17.812  1.00  0.00    -0.391 OA
HETATM    9  C8  UNL     1      -6.628   3.496  16.964  1.00  0.00     0.168 C 
HETATM   10  C9  UNL     1      -6.243   3.306  15.519  1.00  0.00     0.038 C 
ENDBRANCH   3   5
BRANCH   1  11
HETATM   11  C2  UNL     1      -4.042   1.260  12.150  1.00  0.00     0.074 C 
HETATM   12  C1  UNL     1      -4.899   1.805  11.056  1.00  0.00     0.031 C 
HETATM   13  C3  UNL     1      -3.874  -0.250  12.009  1.00  0.00     0.031 C 
ENDBRANCH   1  11
TORSDOF 2
ENDMDL
MODEL 5
REMARK VINA RESULT: -5.347425456      2.953      4.885
REMARK  2 active torsions:
REMARK  status: ('A' for Active; 'I' for Inactive)
REMARK    1  A    between atoms: C2_2  and  N1_4 
REMARK    2  A    between atoms: C4_6  and  C5_8 
ROOT
HETATM    1  N1  UNL     1      -5.398   2.774  16.201  1.00  0.00    -0.380 N 
ATOM      2  H1  UNL     1      -4.761   1.979  16.148  1.00  0.00     0.160 HD
HETATM    3  C4  UNL     1      -5.159   3.720  15.406  1.00  0.00     0.080 C 
HETATM    4 CL1  UNL     1      -6.183   5.133  15.403  1.00  0.00    -0.069 Cl
ENDROOT
BRANCH   3   5
HETATM    5  C5  UNL     1      -3.991   3.585  14.487  1.00  0.00     0.051 C 
HETATM    6  C6  UNL     1      -3.162   4.869  14.485  1.00  0.00     0.038 C 
HETATM    7  C7  UNL     1      -2.245   4.900  13.294  1.00  0.00     0.168 C 
HETATM    8  O1  UNL     1      -2.039   3.655  12.728  1.00  0.00    -0.391 OA
HETATM    9  C8  UNL     1      -3.167   3.040  12.266  1.00  0.00     0.168 C 
HETATM   10  C9  UNL     1      -4.412   3.351  13.056  1.00  0.00     0.038 C 
ENDBRANCH   3   5
BRANCH   1  11
HETATM   11  C2  UNL     1      -6.432   2.669  17.155  1.00  0.00     0.074 C 
HETATM   12  C1  UNL     1      -5.980   2.413  18.554  1.00  0.00     0.031 C 
HETATM   13  C3  UNL     1      -7.430   1.609  16.701  1.00  0.00     0.031 C 
ENDBRANCH   1  11
TORSDOF 2
ENDMDL
