MODEL 1
REMARK VINA RESULT: -6.176293592      0.000      0.000
REMARK  3 active torsions:
REMARK  status: ('A' for Active; 'I' for Inactive)
REMARK    1  A    between atoms: C2_2  and  N1_5 
REMARK    2  A    between atoms: N1_5  and  O1_6 
REMARK    3  A    between atoms: O1_6  and  S1_7 
ROOT
HETATM    1  N1  UNL     1      -4.331   0.567  13.065  1.00  0.00    -0.056 NA
ENDROOT
BRANCH   1   2
HETATM    2  C2  UNL     1      -3.708   0.427  11.762  1.00  0.00     0.127 C 
HETATM    3  C1  UNL     1      -3.303  -0.994  11.479  1.00  0.00     0.054 C 
HETATM    4  C3  UNL     1      -4.765   0.830  10.738  1.00  0.00     0.054 C 
HETATM    5 CL1  UNL     1      -2.272   1.462  11.620  1.00  0.00    -0.099 Cl
ENDBRANCH   1   2
BRANCH   1   6
HETATM    6  O1  UNL     1      -3.781   1.577  13.781  1.00  0.00    -0.158 OA
BRANCH   6   7
HETATM    7  S1  UNL     1      -4.341   1.427  15.356  1.00  0.00     0.278 S 
HETATM    8  C4  UNL     1      -5.621   2.605  15.708  1.00  0.00     0.195 C 
HETATM    9  O2  UNL     1      -4.952   0.056  15.475  1.00  0.00    -0.198 OA
HETATM   10  O3  UNL     1      -3.244   1.514  16.365  1.00  0.00    -0.198 OA
ENDBRANCH   6   7
ENDBRANCH   1   6
TORSDOF 3
ENDMDL
MODEL 2
REMARK VINA RESULT: -6.149921170      1.010      1.396
REMARK  3 active torsions:
REMARK  status: ('A' for Active; 'I' for Inactive)
REMARK    1  A    between atoms: C2_2  and  N1_5 
REMARK    2  A    between atoms: N1_5  and  O1_6 
REMARK    3  A    between atoms: O1_6  and  S1_7 
ROOT
HETATM    1  N1  UNL     1      -4.333   0.524  13.109  1.00  0.00    -0.056 NA
ENDROOT
BRANCH   1   2
HETATM    2  C2  UNL     1      -3.760   0.421  11.780  1.00  0.00     0.127 C 
HETATM    3  C1  UNL     1      -4.762   0.746  10.705  1.00  0.00     0.054 C 
HETATM    4  C3  UNL     1      -2.642   1.458  11.714  1.00  0.00     0.054 C 
HETATM    5 CL1  UNL     1      -3.121  -1.209  11.480  1.00  0.00    -0.099 Cl
ENDBRANCH   1   2
BRANCH   1   6
HETATM    6  O1  UNL     1      -3.818   1.570  13.800  1.00  0.00    -0.158 OA
BRANCH   6   7
HETATM    7  S1  UNL     1      -4.355   1.428  15.383  1.00  0.00     0.278 S 
HETATM    8  C4  UNL     1      -5.616   2.620  15.754  1.00  0.00     0.195 C 
HETATM    9  O2  UNL     1      -4.979   0.063  15.513  1.00  0.00    -0.198 OA
HETATM   10  O3  UNL     1      -3.241   1.503  16.375  1.00  0.00    -0.198 OA
ENDBRANCH   6   7
ENDBRANCH   1   6
TORSDOF 3
ENDMDL
MODEL 3
REMARK VINA RESULT: -6.066195740      1.051      1.434
REMARK  3 active torsions:
REMARK  status: ('A' for Active; 'I' for Inactive)
REMARK    1  A    between atoms: C2_2  and  N1_5 
REMARK    2  A    between atoms: N1_5  and  O1_6 
REMARK    3  A    between atoms: O1_6  and  S1_7 
ROOT
HETATM    1  N1  UNL     1      -4.248   0.535  13.155  1.00  0.00    -0.056 NA
ENDROOT
BRANCH   1   2
HETATM    2  C2  UNL     1      -3.763   0.553  11.787  1.00  0.00     0.127 C 
HETATM    3  C1  UNL     1      -2.551   1.432  11.629  1.00  0.00     0.054 C 
HETATM    4  C3  UNL     1      -3.353  -0.880  11.460  1.00  0.00     0.054 C 
HETATM    5 CL1  UNL     1      -5.019   1.117  10.666  1.00  0.00    -0.099 Cl
ENDBRANCH   1   2
BRANCH   1   6
HETATM    6  O1  UNL     1      -3.863   1.637  13.841  1.00  0.00    -0.158 OA
BRANCH   6   7
HETATM    7  S1  UNL     1      -4.372   1.435  15.427  1.00  0.00     0.278 S 
HETATM    8  C4  UNL     1      -5.644   2.596  15.857  1.00  0.00     0.195 C 
HETATM    9  O2  UNL     1      -4.976   0.058  15.521  1.00  0.00    -0.198 OA
HETATM   10  O3  UNL     1      -3.244   1.493  16.403  1.00  0.00    -0.198 OA
ENDBRANCH   6   7
ENDBRANCH   1   6
TORSDOF 3
ENDMDL
MODEL 4
REMARK VINA RESULT: -5.827306674      0.867      1.133
REMARK  3 active torsions:
REMARK  status: ('A' for Active; 'I' for Inactive)
REMARK    1  A    between atoms: C2_2  and  N1_5 
REMARK    2  A    between atoms: N1_5  and  O1_6 
REMARK    3  A    between atoms: O1_6  and  S1_7 
ROOT
HETATM    1  N1  UNL     1      -4.287   1.053  13.057  1.00  0.00    -0.056 NA
ENDROOT
BRANCH   1   2
HETATM    2  C2  UNL     1      -3.934   1.439  11.703  1.00  0.00     0.127 C 
HETATM    3  C1  UNL     1      -4.742   0.696  10.674  1.00  0.00     0.054 C 
HETATM    4  C3  UNL     1      -4.266   2.924  11.582  1.00  0.00     0.054 C 
HETATM    5 CL1  UNL     1      -2.211   1.155  11.381  1.00  0.00    -0.099 Cl
ENDBRANCH   1   2
BRANCH   1   6
HETATM    6  O1  UNL     1      -3.851   1.954  13.968  1.00  0.00    -0.158 OA
BRANCH   6   7
HETATM    7  S1  UNL     1      -4.382   1.432  15.472  1.00  0.00     0.278 S 
HETATM    8  C4  UNL     1      -5.780   2.371  16.033  1.00  0.00     0.195 C 
HETATM    9  O2  UNL     1      -4.841   0.007  15.304  1.00  0.00    -0.198 OA
HETATM   10  O3  UNL     1      -3.295   1.430  16.495  1.00  0.00    -0.198 OA
ENDBRANCH   6   7
ENDBRANCH   1   6
TORSDOF 3
ENDMDL
MODEL 5
REMARK VINA RESULT: -5.708923134      1.432      1.868
REMARK  3 active torsions:
REMARK  status: ('A' for Active; 'I' for Inactive)
REMARK    1  A    between atoms: C2_2  and  N1_5 
REMARK    2  A    between atoms: N1_5  and  O1_6 
REMARK    3  A    between atoms: O1_6  and  S1_7 
ROOT
HETATM    1  N1  UNL     1      -4.345   1.148  13.069  1.00  0.00    -0.056 NA
ENDROOT
BRANCH   1   2
HETATM    2  C2  UNL     1      -4.085   1.615  11.719  1.00  0.00     0.127 C 
HETATM    3  C1  UNL     1      -4.594   3.014  11.498  1.00  0.00     0.054 C 
HETATM    4  C3  UNL     1      -2.568   1.633  11.558  1.00  0.00     0.054 C 
HETATM    5 CL1  UNL     1      -4.832   0.547  10.513  1.00  0.00    -0.099 Cl
ENDBRANCH   1   2
BRANCH   1   6
HETATM    6  O1  UNL     1      -3.841   1.991  14.000  1.00  0.00    -0.158 OA
BRANCH   6   7
HETATM    7  S1  UNL     1      -4.376   1.451  15.496  1.00  0.00     0.278 S 
HETATM    8  C4  UNL     1      -5.754   2.404  16.080  1.00  0.00     0.195 C 
HETATM    9  O2  UNL     1      -4.859   0.038  15.305  1.00  0.00    -0.198 OA
HETATM   10  O3  UNL     1      -3.284   1.413  16.515  1.00  0.00    -0.198 OA
ENDBRANCH   6   7
ENDBRANCH   1   6
TORSDOF 3
ENDMDL
