MODEL 1
REMARK VINA RESULT: -8.015533674      0.000      0.000
REMARK  4 active torsions:
REMARK  status: ('A' for Active; 'I' for Inactive)
REMARK    1  A    between atoms: C3_3  and  O1_4 
REMARK    2  A    between atoms: O1_4  and  C4_5 
REMARK    3  A    between atoms: C4_5  and  C5_6 
REMARK    4  A    between atoms: C12_20  and  N4_21 
ROOT
HETATM    1  C1  UNL     1      18.124  64.281  30.087  1.00  0.00     0.054 C 
HETATM    2  C2  UNL     1      16.975  64.753  30.869  1.00  0.00     0.007 A 
HETATM    3  C3  UNL     1      17.103  65.228  32.200  1.00  0.00     0.150 A 
HETATM    4  N1  UNL     1      15.876  65.588  32.595  1.00  0.00    -0.322 N 
ATOM      5  H1  UNL     1      15.664  65.968  33.517  1.00  0.00     0.169 HD
HETATM    6  C10 UNL     1      14.956  65.391  31.638  1.00  0.00     0.122 A 
HETATM    7  N2  UNL     1      13.610  65.625  31.604  1.00  0.00    -0.338 N 
ATOM      8  H2  UNL     1      13.131  66.012  32.418  1.00  0.00     0.168 HD
HETATM    9  C11 UNL     1      12.931  65.338  30.488  1.00  0.00     0.183 A 
HETATM   10  N3  UNL     1      13.571  64.833  29.435  1.00  0.00    -0.338 N 
ATOM     11  H3  UNL     1      13.036  64.620  28.593  1.00  0.00     0.168 HD
HETATM   12  C12 UNL     1      14.917  64.586  29.436  1.00  0.00     0.119 A 
HETATM   13  C17 UNL     1      15.648  64.866  30.556  1.00  0.00     0.062 A 
ENDROOT
BRANCH   3  14
HETATM   14  O1  UNL     1      18.256  65.270  32.863  1.00  0.00    -0.335 OA
BRANCH  14  15
HETATM   15  C4  UNL     1      18.955  64.870  33.907  1.00  0.00     0.182 C 
BRANCH  15  16
HETATM   16  C5  UNL     1      20.204  64.095  33.839  1.00  0.00     0.013 C 
HETATM   17  C6  UNL     1      20.372  63.107  32.744  1.00  0.00     0.009 C 
HETATM   18  C7  UNL     1      21.631  62.316  33.151  1.00  0.00     0.037 C 
HETATM   19  C8  UNL     1      21.638  62.346  34.657  1.00  0.00     0.170 C 
HETATM   20  F1  UNL     1      22.861  62.877  35.052  1.00  0.00    -0.249 F 
HETATM   21  C9  UNL     1      20.572  63.340  35.109  1.00  0.00     0.044 C 
ENDBRANCH  15  16
ENDBRANCH  14  15
ENDBRANCH   3  14
BRANCH  12  22
HETATM   22  N4  UNL     1      15.514  64.008  28.287  1.00  0.00    -0.366 N 
HETATM   23  C13 UNL     1      15.698  62.626  28.009  1.00  0.00     0.124 C 
HETATM   24  C14 UNL     1      16.696  62.545  26.897  1.00  0.00     0.021 C 
HETATM   25  C15 UNL     1      16.432  63.824  26.111  1.00  0.00     0.021 C 
HETATM   26  C16 UNL     1      15.994  64.793  27.181  1.00  0.00     0.124 C 
ENDBRANCH  12  22
TORSDOF 4
ENDMDL
MODEL 2
REMARK VINA RESULT: -7.979665748      0.887      1.116
REMARK  4 active torsions:
REMARK  status: ('A' for Active; 'I' for Inactive)
REMARK    1  A    between atoms: C3_3  and  O1_4 
REMARK    2  A    between atoms: O1_4  and  C4_5 
REMARK    3  A    between atoms: C4_5  and  C5_6 
REMARK    4  A    between atoms: C12_20  and  N4_21 
ROOT
HETATM    1  C1  UNL     1      18.047  64.348  30.111  1.00  0.00     0.054 C 
HETATM    2  C2  UNL     1      16.783  64.745  30.744  1.00  0.00     0.007 A 
HETATM    3  C3  UNL     1      16.712  65.179  32.094  1.00  0.00     0.150 A 
HETATM    4  N1  UNL     1      15.428  65.473  32.330  1.00  0.00    -0.322 N 
ATOM      5  H1  UNL     1      15.078  65.812  33.226  1.00  0.00     0.169 HD
HETATM    6  C10 UNL     1      14.653  65.271  31.253  1.00  0.00     0.122 A 
HETATM    7  N2  UNL     1      13.314  65.450  31.046  1.00  0.00    -0.338 N 
ATOM      8  H2  UNL     1      12.714  65.789  31.798  1.00  0.00     0.168 HD
HETATM    9  C11 UNL     1      12.804  65.173  29.840  1.00  0.00     0.183 A 
HETATM   10  N3  UNL     1      13.601  64.732  28.869  1.00  0.00    -0.338 N 
ATOM     11  H3  UNL     1      13.193  64.527  27.957  1.00  0.00     0.168 HD
HETATM   12  C12 UNL     1      14.944  64.542  29.044  1.00  0.00     0.119 A 
HETATM   13  C17 UNL     1      15.507  64.813  30.259  1.00  0.00     0.062 A 
ENDROOT
BRANCH   3  14
HETATM   14  O1  UNL     1      17.763  65.246  32.906  1.00  0.00    -0.335 OA
BRANCH  14  15
HETATM   15  C4  UNL     1      18.457  64.685  33.878  1.00  0.00     0.182 C 
BRANCH  15  16
HETATM   16  C5  UNL     1      19.391  63.561  33.707  1.00  0.00     0.013 C 
HETATM   17  C6  UNL     1      19.719  62.720  34.885  1.00  0.00     0.009 C 
HETATM   18  C7  UNL     1      20.903  61.858  34.405  1.00  0.00     0.037 C 
HETATM   19  C8  UNL     1      21.619  62.711  33.391  1.00  0.00     0.170 C 
HETATM   20  F1  UNL     1      21.688  61.978  32.213  1.00  0.00    -0.249 F 
HETATM   21  C9  UNL     1      20.737  63.921  33.095  1.00  0.00     0.044 C 
ENDBRANCH  15  16
ENDBRANCH  14  15
ENDBRANCH   3  14
BRANCH  12  22
HETATM   22  N4  UNL     1      15.714  64.029  27.969  1.00  0.00    -0.366 N 
HETATM   23  C13 UNL     1      16.019  62.667  27.695  1.00  0.00     0.124 C 
HETATM   24  C14 UNL     1      17.151  62.674  26.716  1.00  0.00     0.021 C 
HETATM   25  C15 UNL     1      16.906  63.953  25.923  1.00  0.00     0.021 C 
HETATM   26  C16 UNL     1      16.278  64.868  26.945  1.00  0.00     0.124 C 
ENDBRANCH  12  22
TORSDOF 4
ENDMDL
MODEL 3
REMARK VINA RESULT: -7.959241680      4.435      6.106
REMARK  4 active torsions:
REMARK  status: ('A' for Active; 'I' for Inactive)
REMARK    1  A    between atoms: C3_3  and  O1_4 
REMARK    2  A    between atoms: O1_4  and  C4_5 
REMARK    3  A    between atoms: C4_5  and  C5_6 
REMARK    4  A    between atoms: C12_20  and  N4_21 
ROOT
HETATM    1  C1  UNL     1      14.172  64.171  28.402  1.00  0.00     0.054 C 
HETATM    2  C2  UNL     1      14.581  64.697  29.710  1.00  0.00     0.007 A 
HETATM    3  C3  UNL     1      15.944  64.843  30.079  1.00  0.00     0.150 A 
HETATM    4  N1  UNL     1      15.950  65.360  31.314  1.00  0.00    -0.322 N 
ATOM      5  H1  UNL     1      16.799  65.572  31.836  1.00  0.00     0.169 HD
HETATM    6  C10 UNL     1      14.710  65.566  31.784  1.00  0.00     0.122 A 
HETATM    7  N2  UNL     1      14.257  66.077  32.968  1.00  0.00    -0.338 N 
ATOM      8  H2  UNL     1      14.914  66.376  33.689  1.00  0.00     0.168 HD
HETATM    9  C11 UNL     1      12.938  66.180  33.165  1.00  0.00     0.183 A 
HETATM   10  N3  UNL     1      12.094  65.786  32.213  1.00  0.00    -0.338 N 
ATOM     11  H3  UNL     1      11.091  65.873  32.383  1.00  0.00     0.168 HD
HETATM   12  C12 UNL     1      12.514  65.270  31.019  1.00  0.00     0.119 A 
HETATM   13  C17 UNL     1      13.853  65.148  30.776  1.00  0.00     0.062 A 
ENDROOT
BRANCH   3  14
HETATM   14  O1  UNL     1      16.963  64.502  29.294  1.00  0.00    -0.335 OA
BRANCH  14  15
HETATM   15  C4  UNL     1      17.844  64.879  28.387  1.00  0.00     0.182 C 
BRANCH  15  16
HETATM   16  C5  UNL     1      17.548  65.086  26.961  1.00  0.00     0.013 C 
HETATM   17  C6  UNL     1      17.158  63.916  26.135  1.00  0.00     0.009 C 
HETATM   18  C7  UNL     1      17.207  64.450  24.690  1.00  0.00     0.037 C 
HETATM   19  C8  UNL     1      18.268  65.518  24.707  1.00  0.00     0.170 C 
HETATM   20  F1  UNL     1      17.684  66.686  24.234  1.00  0.00    -0.249 F 
HETATM   21  C9  UNL     1      18.642  65.782  26.163  1.00  0.00     0.044 C 
ENDBRANCH  15  16
ENDBRANCH  14  15
ENDBRANCH   3  14
BRANCH  12  22
HETATM   22  N4  UNL     1      11.548  64.836  30.076  1.00  0.00    -0.366 N 
HETATM   23  C13 UNL     1      11.001  63.530  29.934  1.00  0.00     0.124 C 
HETATM   24  C14 UNL     1      10.344  63.489  28.591  1.00  0.00     0.021 C 
HETATM   25  C15 UNL     1       9.882  64.928  28.394  1.00  0.00     0.021 C 
HETATM   26  C16 UNL     1      10.937  65.723  29.122  1.00  0.00     0.124 C 
ENDBRANCH  12  22
TORSDOF 4
ENDMDL
MODEL 4
REMARK VINA RESULT: -7.951644403      4.067      7.207
REMARK  4 active torsions:
REMARK  status: ('A' for Active; 'I' for Inactive)
REMARK    1  A    between atoms: C3_3  and  O1_4 
REMARK    2  A    between atoms: O1_4  and  C4_5 
REMARK    3  A    between atoms: C4_5  and  C5_6 
REMARK    4  A    between atoms: C12_20  and  N4_21 
ROOT
HETATM    1  C1  UNL     1      14.072  64.855  29.550  1.00  0.00     0.054 C 
HETATM    2  C2  UNL     1      14.913  65.093  30.729  1.00  0.00     0.007 A 
HETATM    3  C3  UNL     1      14.398  65.642  31.933  1.00  0.00     0.150 A 
HETATM    4  N1  UNL     1      15.424  65.704  32.791  1.00  0.00    -0.322 N 
ATOM      5  H1  UNL     1      15.347  66.061  33.743  1.00  0.00     0.169 HD
HETATM    6  C10 UNL     1      16.564  65.243  32.255  1.00  0.00     0.122 A 
HETATM    7  N2  UNL     1      17.825  65.113  32.765  1.00  0.00    -0.338 N 
ATOM      8  H2  UNL     1      18.030  65.403  33.721  1.00  0.00     0.168 HD
HETATM    9  C11 UNL     1      18.786  64.598  31.990  1.00  0.00     0.183 A 
HETATM   10  N3  UNL     1      18.503  64.224  30.744  1.00  0.00    -0.338 N 
ATOM     11  H3  UNL     1      19.250  63.834  30.168  1.00  0.00     0.168 HD
HETATM   12  C12 UNL     1      17.252  64.342  30.202  1.00  0.00     0.119 A 
HETATM   13  C17 UNL     1      16.241  64.861  30.960  1.00  0.00     0.062 A 
ENDROOT
BRANCH   3  14
HETATM   14  O1  UNL     1      13.129  66.006  32.097  1.00  0.00    -0.335 OA
BRANCH  14  15
HETATM   15  C4  UNL     1      12.224  66.961  32.003  1.00  0.00     0.182 C 
BRANCH  15  16
HETATM   16  C5  UNL     1      11.018  66.900  31.162  1.00  0.00     0.013 C 
HETATM   17  C6  UNL     1      10.640  65.601  30.550  1.00  0.00     0.009 C 
HETATM   18  C7  UNL     1       9.533  65.976  29.545  1.00  0.00     0.037 C 
HETATM   19  C8  UNL     1       9.864  67.378  29.107  1.00  0.00     0.170 C 
HETATM   20  F1  UNL     1       8.745  68.163  29.359  1.00  0.00    -0.249 F 
HETATM   21  C9  UNL     1      10.971  67.902  30.017  1.00  0.00     0.044 C 
ENDBRANCH  15  16
ENDBRANCH  14  15
ENDBRANCH   3  14
BRANCH  12  22
HETATM   22  N4  UNL     1      17.045  63.958  28.853  1.00  0.00    -0.366 N 
HETATM   23  C13 UNL     1      17.215  64.757  27.689  1.00  0.00     0.124 C 
HETATM   24  C14 UNL     1      16.513  64.043  26.577  1.00  0.00     0.021 C 
HETATM   25  C15 UNL     1      16.665  62.577  26.966  1.00  0.00     0.021 C 
HETATM   26  C16 UNL     1      16.656  62.625  28.474  1.00  0.00     0.124 C 
ENDBRANCH  12  22
TORSDOF 4
ENDMDL
MODEL 5
REMARK VINA RESULT: -7.841104207      4.137      7.168
REMARK  4 active torsions:
REMARK  status: ('A' for Active; 'I' for Inactive)
REMARK    1  A    between atoms: C3_3  and  O1_4 
REMARK    2  A    between atoms: O1_4  and  C4_5 
REMARK    3  A    between atoms: C4_5  and  C5_6 
REMARK    4  A    between atoms: C12_20  and  N4_21 
ROOT
HETATM    1  C1  UNL     1      14.119  64.931  28.967  1.00  0.00     0.054 C 
HETATM    2  C2  UNL     1      14.755  65.158  30.271  1.00  0.00     0.007 A 
HETATM    3  C3  UNL     1      14.054  65.711  31.375  1.00  0.00     0.150 A 
HETATM    4  N1  UNL     1      14.924  65.760  32.391  1.00  0.00    -0.322 N 
ATOM      5  H1  UNL     1      14.694  66.116  33.318  1.00  0.00     0.169 HD
HETATM    6  C10 UNL     1      16.132  65.287  32.049  1.00  0.00     0.122 A 
HETATM    7  N2  UNL     1      17.289  65.141  32.761  1.00  0.00    -0.338 N 
ATOM      8  H2  UNL     1      17.336  65.427  33.739  1.00  0.00     0.168 HD
HETATM    9  C11 UNL     1      18.360  64.617  32.154  1.00  0.00     0.183 A 
HETATM   10  N3  UNL     1      18.283  64.248  30.877  1.00  0.00    -0.338 N 
ATOM     11  H3  UNL     1      19.111  63.850  30.432  1.00  0.00     0.168 HD
HETATM   12  C12 UNL     1      17.141  64.380  30.136  1.00  0.00     0.119 A 
HETATM   13  C17 UNL     1      16.024  64.911  30.717  1.00  0.00     0.062 A 
ENDROOT
BRANCH   3  14
HETATM   14  O1  UNL     1      12.779  66.088  31.327  1.00  0.00    -0.335 OA
BRANCH  14  15
HETATM   15  C4  UNL     1      11.516  65.774  31.542  1.00  0.00     0.182 C 
BRANCH  15  16
HETATM   16  C5  UNL     1      10.628  65.135  30.559  1.00  0.00     0.013 C 
HETATM   17  C6  UNL     1      11.013  63.814  30.000  1.00  0.00     0.009 C 
HETATM   18  C7  UNL     1      10.025  63.604  28.835  1.00  0.00     0.037 C 
HETATM   19  C8  UNL     1       9.707  64.991  28.341  1.00  0.00     0.170 C 
HETATM   20  F1  UNL     1       8.325  65.136  28.388  1.00  0.00    -0.249 F 
HETATM   21  C9  UNL     1      10.278  65.987  29.346  1.00  0.00     0.044 C 
ENDBRANCH  15  16
ENDBRANCH  14  15
ENDBRANCH   3  14
BRANCH  12  22
HETATM   22  N4  UNL     1      17.156  64.001  28.770  1.00  0.00    -0.366 N 
HETATM   23  C13 UNL     1      17.553  64.791  27.656  1.00  0.00     0.124 C 
HETATM   24  C14 UNL     1      17.029  64.100  26.437  1.00  0.00     0.021 C 
HETATM   25  C15 UNL     1      17.059  62.630  26.840  1.00  0.00     0.021 C 
HETATM   26  C16 UNL     1      16.791  62.683  28.324  1.00  0.00     0.124 C 
ENDBRANCH  12  22
TORSDOF 4
ENDMDL
