MODEL 1
REMARK VINA RESULT: -6.363606775      0.000      0.000
REMARK  5 active torsions:
REMARK  status: ('A' for Active; 'I' for Inactive)
REMARK    1  A    between atoms: C1_2  and  C2_3 
REMARK    2  A    between atoms: C1_2  and  C3_6 
REMARK    3  A    between atoms: C2_3  and  O2_4 
REMARK    4  A    between atoms: C3_6  and  S1_7 
REMARK    5  A    between atoms: S1_7  and  C4_8 
ROOT
HETATM    1  C4  UNL     1      15.407  65.251  31.129  1.00  0.00     0.049 A 
HETATM    2  S2  UNL     1      16.476  65.180  32.485  1.00  0.00    -0.075 SA
HETATM    3  C5  UNL     1      17.863  64.610  31.694  1.00  0.00     0.059 A 
HETATM    4 BR1  UNL     1      19.513  64.273  32.565  1.00  0.00    -0.042 Br
HETATM    5  C6  UNL     1      17.464  64.488  30.388  1.00  0.00    -0.026 A 
HETATM    6  C7  UNL     1      16.199  64.820  30.104  1.00  0.00    -0.026 A 
HETATM    7  C8  UNL     1      15.993  64.606  28.619  1.00  0.00     0.041 C 
HETATM    8  C9  UNL     1      17.415  64.853  28.094  1.00  0.00     0.009 C 
HETATM    9  C10 UNL     1      18.161  64.039  29.139  1.00  0.00     0.041 C 
ENDROOT
BRANCH   1  10
HETATM   10  S1  UNL     1      13.691  65.773  31.127  1.00  0.00    -0.115 SA
BRANCH  10  11
HETATM   11  C3  UNL     1      13.405  66.741  32.633  1.00  0.00     0.160 C 
BRANCH  11  12
HETATM   12  C1  UNL     1      13.192  68.168  32.292  1.00  0.00     0.159 C 
HETATM   13  O1  UNL     1      12.078  68.649  32.294  1.00  0.00    -0.295 OA
BRANCH  12  14
HETATM   14  C2  UNL     1      14.337  69.040  31.940  1.00  0.00     0.243 C 
BRANCH  14  15
HETATM   15  O2  UNL     1      14.291  70.252  32.622  1.00  0.00    -0.394 OA
ATOM     16  H2  UNL     1      14.646  70.963  32.102  1.00  0.00     0.209 HD
ENDBRANCH  14  15
ENDBRANCH  12  14
ENDBRANCH  11  12
ENDBRANCH  10  11
ENDBRANCH   1  10
TORSDOF 5
ENDMDL
MODEL 2
REMARK VINA RESULT: -6.264923721      1.689      2.583
REMARK  5 active torsions:
REMARK  status: ('A' for Active; 'I' for Inactive)
REMARK    1  A    between atoms: C1_2  and  C2_3 
REMARK    2  A    between atoms: C1_2  and  C3_6 
REMARK    3  A    between atoms: C2_3  and  O2_4 
REMARK    4  A    between atoms: C3_6  and  S1_7 
REMARK    5  A    between atoms: S1_7  and  C4_8 
ROOT
HETATM    1  C4  UNL     1      15.486  65.178  31.491  1.00  0.00     0.049 A 
HETATM    2  S2  UNL     1      15.477  64.812  29.802  1.00  0.00    -0.075 SA
HETATM    3  C5  UNL     1      17.075  64.267  29.644  1.00  0.00     0.059 A 
HETATM    4 BR1  UNL     1      17.831  63.669  28.012  1.00  0.00    -0.042 Br
HETATM    5  C6  UNL     1      17.582  64.381  30.913  1.00  0.00    -0.026 A 
HETATM    6  C7  UNL     1      16.760  64.850  31.858  1.00  0.00    -0.026 A 
HETATM    7  C8  UNL     1      17.533  64.885  33.160  1.00  0.00     0.041 C 
HETATM    8  C9  UNL     1      18.526  63.733  32.935  1.00  0.00     0.009 C 
HETATM    9  C10 UNL     1      18.925  64.086  31.512  1.00  0.00     0.041 C 
ENDROOT
BRANCH   1  10
HETATM   10  S1  UNL     1      14.129  65.825  32.469  1.00  0.00    -0.115 SA
BRANCH  10  11
HETATM   11  C3  UNL     1      13.168  66.940  31.411  1.00  0.00     0.160 C 
BRANCH  11  12
HETATM   12  C1  UNL     1      13.138  68.302  31.996  1.00  0.00     0.159 C 
HETATM   13  O1  UNL     1      12.109  68.766  32.441  1.00  0.00    -0.295 OA
BRANCH  12  14
HETATM   14  C2  UNL     1      14.367  69.129  32.050  1.00  0.00     0.243 C 
BRANCH  14  15
HETATM   15  O2  UNL     1      14.171  70.295  32.785  1.00  0.00    -0.394 OA
ATOM     16  H2  UNL     1      14.695  71.013  32.451  1.00  0.00     0.209 HD
ENDBRANCH  14  15
ENDBRANCH  12  14
ENDBRANCH  11  12
ENDBRANCH  10  11
ENDBRANCH   1  10
TORSDOF 5
ENDMDL
MODEL 3
REMARK VINA RESULT: -6.234837243      2.150      2.760
REMARK  5 active torsions:
REMARK  status: ('A' for Active; 'I' for Inactive)
REMARK    1  A    between atoms: C1_2  and  C2_3 
REMARK    2  A    between atoms: C1_2  and  C3_6 
REMARK    3  A    between atoms: C2_3  and  O2_4 
REMARK    4  A    between atoms: C3_6  and  S1_7 
REMARK    5  A    between atoms: S1_7  and  C4_8 
ROOT
HETATM    1  C4  UNL     1      14.435  65.491  31.475  1.00  0.00     0.049 A 
HETATM    2  S2  UNL     1      13.880  65.048  29.899  1.00  0.00    -0.075 SA
HETATM    3  C5  UNL     1      15.351  64.513  29.246  1.00  0.00     0.059 A 
HETATM    4 BR1  UNL     1      15.543  63.847  27.481  1.00  0.00    -0.042 Br
HETATM    5  C6  UNL     1      16.244  64.691  30.271  1.00  0.00    -0.026 A 
HETATM    6  C7  UNL     1      15.767  65.194  31.414  1.00  0.00    -0.026 A 
HETATM    7  C8  UNL     1      16.923  65.298  32.387  1.00  0.00     0.041 C 
HETATM    8  C9  UNL     1      17.816  64.148  31.894  1.00  0.00     0.009 C 
HETATM    9  C10 UNL     1      17.717  64.439  30.405  1.00  0.00     0.041 C 
ENDROOT
BRANCH   1  10
HETATM   10  S1  UNL     1      13.459  66.168  32.818  1.00  0.00    -0.115 SA
BRANCH  10  11
HETATM   11  C3  UNL     1      12.366  67.437  32.122  1.00  0.00     0.160 C 
BRANCH  11  12
HETATM   12  C1  UNL     1      13.166  68.569  31.595  1.00  0.00     0.159 C 
HETATM   13  O1  UNL     1      12.828  69.156  30.589  1.00  0.00    -0.295 OA
BRANCH  12  14
HETATM   14  C2  UNL     1      14.399  69.010  32.289  1.00  0.00     0.243 C 
BRANCH  14  15
HETATM   15  O2  UNL     1      14.331  70.350  32.659  1.00  0.00    -0.394 OA
ATOM     16  H2  UNL     1      14.003  70.454  33.544  1.00  0.00     0.209 HD
ENDBRANCH  14  15
ENDBRANCH  12  14
ENDBRANCH  11  12
ENDBRANCH  10  11
ENDBRANCH   1  10
TORSDOF 5
ENDMDL
MODEL 4
REMARK VINA RESULT: -6.165941733      3.269      4.065
REMARK  5 active torsions:
REMARK  status: ('A' for Active; 'I' for Inactive)
REMARK    1  A    between atoms: C1_2  and  C2_3 
REMARK    2  A    between atoms: C1_2  and  C3_6 
REMARK    3  A    between atoms: C2_3  and  O2_4 
REMARK    4  A    between atoms: C3_6  and  S1_7 
REMARK    5  A    between atoms: S1_7  and  C4_8 
ROOT
HETATM    1  C4  UNL     1      13.218  64.826  30.616  1.00  0.00     0.049 A 
HETATM    2  S2  UNL     1      14.716  64.797  29.755  1.00  0.00    -0.075 SA
HETATM    3  C5  UNL     1      14.263  63.781  28.476  1.00  0.00     0.059 A 
HETATM    4 BR1  UNL     1      15.427  63.268  27.070  1.00  0.00    -0.042 Br
HETATM    5  C6  UNL     1      12.951  63.485  28.746  1.00  0.00    -0.026 A 
HETATM    6  C7  UNL     1      12.420  64.026  29.848  1.00  0.00    -0.026 A 
HETATM    7  C8  UNL     1      10.980  63.564  29.935  1.00  0.00     0.041 C 
HETATM    8  C9  UNL     1      10.650  63.372  28.447  1.00  0.00     0.009 C 
HETATM    9  C10 UNL     1      11.924  62.644  28.049  1.00  0.00     0.041 C 
ENDROOT
BRANCH   1  10
HETATM   10  S1  UNL     1      12.855  65.707  32.136  1.00  0.00    -0.115 SA
BRANCH  10  11
HETATM   11  C3  UNL     1      14.088  67.024  32.318  1.00  0.00     0.160 C 
BRANCH  11  12
HETATM   12  C1  UNL     1      13.442  68.352  32.180  1.00  0.00     0.159 C 
HETATM   13  O1  UNL     1      12.274  68.509  32.470  1.00  0.00    -0.295 OA
BRANCH  12  14
HETATM   14  C2  UNL     1      14.210  69.519  31.686  1.00  0.00     0.243 C 
BRANCH  14  15
HETATM   15  O2  UNL     1      14.261  70.540  32.630  1.00  0.00    -0.394 OA
ATOM     16  H2  UNL     1      14.540  70.220  33.479  1.00  0.00     0.209 HD
ENDBRANCH  14  15
ENDBRANCH  12  14
ENDBRANCH  11  12
ENDBRANCH  10  11
ENDBRANCH   1  10
TORSDOF 5
ENDMDL
MODEL 5
REMARK VINA RESULT: -6.041864658      4.116      5.129
REMARK  5 active torsions:
REMARK  status: ('A' for Active; 'I' for Inactive)
REMARK    1  A    between atoms: C1_2  and  C2_3 
REMARK    2  A    between atoms: C1_2  and  C3_6 
REMARK    3  A    between atoms: C2_3  and  O2_4 
REMARK    4  A    between atoms: C3_6  and  S1_7 
REMARK    5  A    between atoms: S1_7  and  C4_8 
ROOT
HETATM    1  C4  UNL     1      13.186  64.643  29.828  1.00  0.00     0.049 A 
HETATM    2  S2  UNL     1      13.976  63.741  28.583  1.00  0.00    -0.075 SA
HETATM    3  C5  UNL     1      12.605  63.124  27.798  1.00  0.00     0.059 A 
HETATM    4 BR1  UNL     1      12.677  61.998  26.275  1.00  0.00    -0.042 Br
HETATM    5  C6  UNL     1      11.559  63.635  28.524  1.00  0.00    -0.026 A 
HETATM    6  C7  UNL     1      11.865  64.415  29.566  1.00  0.00    -0.026 A 
HETATM    7  C8  UNL     1      10.564  64.856  30.204  1.00  0.00     0.041 C 
HETATM    8  C9  UNL     1       9.628  64.840  28.986  1.00  0.00     0.009 C 
HETATM    9  C10 UNL     1      10.070  63.505  28.408  1.00  0.00     0.041 C 
ENDROOT
BRANCH   1  10
HETATM   10  S1  UNL     1      13.960  65.620  31.118  1.00  0.00    -0.115 SA
BRANCH  10  11
HETATM   11  C3  UNL     1      13.091  67.209  31.203  1.00  0.00     0.160 C 
BRANCH  11  12
HETATM   12  C1  UNL     1      13.842  68.158  32.060  1.00  0.00     0.159 C 
HETATM   13  O1  UNL     1      14.254  67.821  33.151  1.00  0.00    -0.295 OA
BRANCH  12  14
HETATM   14  C2  UNL     1      14.108  69.543  31.603  1.00  0.00     0.243 C 
BRANCH  14  15
HETATM   15  O2  UNL     1      14.326  70.406  32.672  1.00  0.00    -0.394 OA
ATOM     16  H2  UNL     1      13.952  71.264  32.513  1.00  0.00     0.209 HD
ENDBRANCH  14  15
ENDBRANCH  12  14
ENDBRANCH  11  12
ENDBRANCH  10  11
ENDBRANCH   1  10
TORSDOF 5
ENDMDL
