MODEL 1
REMARK VINA RESULT: -7.169678300      0.000      0.000
REMARK  5 active torsions:
REMARK  status: ('A' for Active; 'I' for Inactive)
REMARK    1  A    between atoms: C2_2  and  C3_3 
REMARK    2  A    between atoms: C4_6  and  C5_7 
REMARK    3  A    between atoms: C5_7  and  N2_8 
REMARK    4  A    between atoms: C12_15  and  N3_16 
REMARK    5  A    between atoms: C14_22  and  C15_23 
ROOT
HETATM    1  N2  UNL     1      18.485  64.051  33.280  1.00  0.00    -0.356 N 
HETATM    2  C6  UNL     1      18.501  64.003  34.681  1.00  0.00     0.066 C 
HETATM    3  C7  UNL     1      19.770  63.572  35.323  1.00  0.00     0.030 C 
HETATM    4  C8  UNL     1      19.553  62.454  36.319  1.00  0.00     0.010 C 
HETATM    5  C9  UNL     1      20.829  61.658  36.378  1.00  0.00     0.001 C 
HETATM    6  C10 UNL     1      21.711  62.141  35.235  1.00  0.00     0.007 C 
HETATM    7  C11 UNL     1      20.791  62.996  34.388  1.00  0.00     0.029 C 
HETATM    8  C12 UNL     1      20.148  62.217  33.283  1.00  0.00     0.241 C 
HETATM    9  C13 UNL     1      19.203  63.095  32.541  1.00  0.00     0.302 C 
HETATM   10  F1  UNL     1      18.286  62.336  31.795  1.00  0.00    -0.225 F 
ENDROOT
BRANCH   1  11
HETATM   11  C5  UNL     1      18.182  65.272  32.638  1.00  0.00     0.183 C 
BRANCH  11  12
HETATM   12  C4  UNL     1      16.794  65.221  32.024  1.00  0.00     0.041 A 
HETATM   13  N1  UNL     1      15.720  65.462  32.729  1.00  0.00    -0.355 N 
HETATM   14  C3  UNL     1      14.533  65.409  32.163  1.00  0.00     0.051 A 
ATOM     15  H1  UNL     1      15.803  65.691  33.720  1.00  0.00     0.166 HD
HETATM   16  S1  UNL     1      14.910  64.998  30.553  1.00  0.00    -0.079 SA
HETATM   17  C14 UNL     1      16.607  64.915  30.694  1.00  0.00     0.008 A 
BRANCH  14  18
HETATM   18  C2  UNL     1      13.201  65.655  32.814  1.00  0.00     0.060 C 
HETATM   19  C1  UNL     1      12.846  67.103  32.465  1.00  0.00     0.012 C 
ENDBRANCH  14  18
BRANCH  17  20
HETATM   20  C15 UNL     1      17.638  64.596  29.660  1.00  0.00     0.043 C 
HETATM   21  C16 UNL     1      17.119  63.449  28.827  1.00  0.00     0.010 C 
ENDBRANCH  17  20
ENDBRANCH  11  12
ENDBRANCH   1  11
BRANCH   8  22
HETATM   22  N3  UNL     1      19.499  61.009  33.760  1.00  0.00    -0.070 N 
ATOM     23  H33 UNL     1      19.486  60.290  33.037  1.00  0.00     0.274 HD
ATOM     24  H32 UNL     1      20.074  60.533  34.455  1.00  0.00     0.274 HD
ATOM     25  H31 UNL     1      18.561  61.187  34.119  1.00  0.00     0.274 HD
ENDBRANCH   8  22
TORSDOF 5
ENDMDL
MODEL 2
REMARK VINA RESULT: -6.971406177      1.681      3.333
REMARK  5 active torsions:
REMARK  status: ('A' for Active; 'I' for Inactive)
REMARK    1  A    between atoms: C2_2  and  C3_3 
REMARK    2  A    between atoms: C4_6  and  C5_7 
REMARK    3  A    between atoms: C5_7  and  N2_8 
REMARK    4  A    between atoms: C12_15  and  N3_16 
REMARK    5  A    between atoms: C14_22  and  C15_23 
ROOT
HETATM    1  N2  UNL     1      18.778  64.007  33.359  1.00  0.00    -0.356 N 
HETATM    2  C6  UNL     1      18.788  62.695  33.853  1.00  0.00     0.066 C 
HETATM    3  C7  UNL     1      19.593  62.443  35.076  1.00  0.00     0.030 C 
HETATM    4  C8  UNL     1      20.548  61.283  34.900  1.00  0.00     0.010 C 
HETATM    5  C9  UNL     1      21.718  61.528  35.815  1.00  0.00     0.001 C 
HETATM    6  C10 UNL     1      21.587  62.951  36.339  1.00  0.00     0.007 C 
HETATM    7  C11 UNL     1      20.502  63.567  35.480  1.00  0.00     0.029 C 
HETATM    8  C12 UNL     1      21.057  64.281  34.288  1.00  0.00     0.241 C 
HETATM    9  C13 UNL     1      19.939  64.794  33.449  1.00  0.00     0.302 C 
HETATM   10  F1  UNL     1      20.374  65.087  32.147  1.00  0.00    -0.225 F 
ENDROOT
BRANCH   1  11
HETATM   11  C5  UNL     1      17.545  64.683  33.229  1.00  0.00     0.183 C 
BRANCH  11  12
HETATM   12  C4  UNL     1      17.083  64.674  31.782  1.00  0.00     0.041 A 
HETATM   13  N1  UNL     1      17.875  64.309  30.810  1.00  0.00    -0.355 N 
HETATM   14  C3  UNL     1      17.440  64.312  29.567  1.00  0.00     0.051 A 
ATOM     15  H1  UNL     1      18.832  64.020  31.014  1.00  0.00     0.166 HD
HETATM   16  S1  UNL     1      15.835  64.857  29.741  1.00  0.00    -0.079 SA
HETATM   17  C14 UNL     1      15.806  65.053  31.433  1.00  0.00     0.008 A 
BRANCH  14  18
HETATM   18  C2  UNL     1      18.205  63.927  28.332  1.00  0.00     0.060 C 
HETATM   19  C1  UNL     1      18.662  65.252  27.715  1.00  0.00     0.012 C 
ENDBRANCH  14  18
BRANCH  17  20
HETATM   20  C15 UNL     1      14.698  65.515  32.324  1.00  0.00     0.043 C 
HETATM   21  C16 UNL     1      14.720  67.025  32.345  1.00  0.00     0.010 C 
ENDBRANCH  17  20
ENDBRANCH  11  12
ENDBRANCH   1  11
BRANCH   8  22
HETATM   22  N3  UNL     1      21.968  63.453  33.519  1.00  0.00    -0.070 N 
ATOM     23  H33 UNL     1      22.910  63.482  33.910  1.00  0.00     0.274 HD
ATOM     24  H32 UNL     1      21.766  62.462  33.653  1.00  0.00     0.274 HD
ATOM     25  H31 UNL     1      21.974  63.695  32.528  1.00  0.00     0.274 HD
ENDBRANCH   8  22
TORSDOF 5
ENDMDL
MODEL 3
REMARK VINA RESULT: -6.913754441      5.072      8.375
REMARK  5 active torsions:
REMARK  status: ('A' for Active; 'I' for Inactive)
REMARK    1  A    between atoms: C2_2  and  C3_3 
REMARK    2  A    between atoms: C4_6  and  C5_7 
REMARK    3  A    between atoms: C5_7  and  N2_8 
REMARK    4  A    between atoms: C12_15  and  N3_16 
REMARK    5  A    between atoms: C14_22  and  C15_23 
ROOT
HETATM    1  N2  UNL     1      14.437  63.173  27.717  1.00  0.00    -0.356 N 
HETATM    2  C6  UNL     1      13.987  64.340  28.352  1.00  0.00     0.066 C 
HETATM    3  C7  UNL     1      12.721  64.240  29.122  1.00  0.00     0.030 C 
HETATM    4  C8  UNL     1      11.728  65.311  28.727  1.00  0.00     0.010 C 
HETATM    5  C9  UNL     1      10.352  64.759  28.990  1.00  0.00     0.001 C 
HETATM    6  C10 UNL     1      10.514  63.277  29.293  1.00  0.00     0.007 C 
HETATM    7  C11 UNL     1      11.948  62.971  28.912  1.00  0.00     0.029 C 
HETATM    8  C12 UNL     1      12.069  62.481  27.503  1.00  0.00     0.241 C 
HETATM    9  C13 UNL     1      13.505  62.274  27.169  1.00  0.00     0.302 C 
HETATM   10  F1  UNL     1      13.702  62.228  25.780  1.00  0.00    -0.225 F 
ENDROOT
BRANCH   1  11
HETATM   11  C5  UNL     1      15.716  62.666  28.037  1.00  0.00     0.183 C 
BRANCH  11  12
HETATM   12  C4  UNL     1      16.798  63.639  27.601  1.00  0.00     0.041 A 
HETATM   13  N1  UNL     1      16.954  63.977  26.348  1.00  0.00    -0.355 N 
HETATM   14  C3  UNL     1      17.903  64.824  26.007  1.00  0.00     0.051 A 
ATOM     15  H1  UNL     1      16.340  63.585  25.634  1.00  0.00     0.166 HD
HETATM   16  S1  UNL     1      18.635  65.180  27.503  1.00  0.00    -0.079 SA
HETATM   17  C14 UNL     1      17.664  64.205  28.509  1.00  0.00     0.008 A 
BRANCH  14  18
HETATM   18  C2  UNL     1      18.226  65.323  24.626  1.00  0.00     0.060 C 
HETATM   19  C1  UNL     1      17.723  66.769  24.595  1.00  0.00     0.012 C 
ENDBRANCH  14  18
BRANCH  17  20
HETATM   20  C15 UNL     1      17.721  64.002  29.989  1.00  0.00     0.043 C 
HETATM   21  C16 UNL     1      16.686  64.902  30.620  1.00  0.00     0.010 C 
ENDBRANCH  17  20
ENDBRANCH  11  12
ENDBRANCH   1  11
BRANCH   8  22
HETATM   22  N3  UNL     1      11.418  63.361  26.550  1.00  0.00    -0.070 N 
ATOM     23  H33 UNL     1      10.522  63.691  26.908  1.00  0.00     0.274 HD
ATOM     24  H32 UNL     1      11.906  64.255  26.483  1.00  0.00     0.274 HD
ATOM     25  H31 UNL     1      11.312  62.932  25.631  1.00  0.00     0.274 HD
ENDBRANCH   8  22
TORSDOF 5
ENDMDL
MODEL 4
REMARK VINA RESULT: -6.888363331      1.199      3.031
REMARK  5 active torsions:
REMARK  status: ('A' for Active; 'I' for Inactive)
REMARK    1  A    between atoms: C2_2  and  C3_3 
REMARK    2  A    between atoms: C4_6  and  C5_7 
REMARK    3  A    between atoms: C5_7  and  N2_8 
REMARK    4  A    between atoms: C12_15  and  N3_16 
REMARK    5  A    between atoms: C14_22  and  C15_23 
ROOT
HETATM    1  N2  UNL     1      18.842  63.929  33.679  1.00  0.00    -0.356 N 
HETATM    2  C6  UNL     1      18.951  63.856  35.075  1.00  0.00     0.066 C 
HETATM    3  C7  UNL     1      20.262  63.427  35.626  1.00  0.00     0.030 C 
HETATM    4  C8  UNL     1      20.121  62.289  36.613  1.00  0.00     0.010 C 
HETATM    5  C9  UNL     1      21.405  61.505  36.574  1.00  0.00     0.001 C 
HETATM    6  C10 UNL     1      22.206  62.017  35.386  1.00  0.00     0.007 C 
HETATM    7  C11 UNL     1      21.225  62.878  34.616  1.00  0.00     0.029 C 
HETATM    8  C12 UNL     1      20.519  62.112  33.541  1.00  0.00     0.241 C 
HETATM    9  C13 UNL     1      19.519  62.993  32.878  1.00  0.00     0.302 C 
HETATM   10  F1  UNL     1      18.562  62.239  32.180  1.00  0.00    -0.225 F 
ENDROOT
BRANCH   1  11
HETATM   11  C5  UNL     1      18.487  65.158  33.081  1.00  0.00     0.183 C 
BRANCH  11  12
HETATM   12  C4  UNL     1      17.771  64.921  31.762  1.00  0.00     0.041 A 
HETATM   13  N1  UNL     1      18.422  64.602  30.675  1.00  0.00    -0.355 N 
HETATM   14  C3  UNL     1      17.768  64.403  29.549  1.00  0.00     0.051 A 
ATOM     15  H1  UNL     1      19.437  64.508  30.698  1.00  0.00     0.166 HD
HETATM   16  S1  UNL     1      16.150  64.673  30.010  1.00  0.00    -0.079 SA
HETATM   17  C14 UNL     1      16.403  65.034  31.657  1.00  0.00     0.008 A 
BRANCH  14  18
HETATM   18  C2  UNL     1      18.346  64.034  28.212  1.00  0.00     0.060 C 
HETATM   19  C1  UNL     1      18.608  65.368  27.507  1.00  0.00     0.012 C 
ENDBRANCH  14  18
BRANCH  17  20
HETATM   20  C15 UNL     1      15.415  65.383  32.722  1.00  0.00     0.043 C 
HETATM   21  C16 UNL     1      14.825  66.731  32.383  1.00  0.00     0.010 C 
ENDBRANCH  17  20
ENDBRANCH  11  12
ENDBRANCH   1  11
BRANCH   8  22
HETATM   22  N3  UNL     1      19.913  60.890  34.037  1.00  0.00    -0.070 N 
ATOM     23  H33 UNL     1      20.261  60.076  33.531  1.00  0.00     0.274 HD
ATOM     24  H32 UNL     1      20.257  60.662  34.970  1.00  0.00     0.274 HD
ATOM     25  H31 UNL     1      18.893  60.925  34.020  1.00  0.00     0.274 HD
ENDBRANCH   8  22
TORSDOF 5
ENDMDL
MODEL 5
REMARK VINA RESULT: -6.864187303      5.070      9.243
REMARK  5 active torsions:
REMARK  status: ('A' for Active; 'I' for Inactive)
REMARK    1  A    between atoms: C2_2  and  C3_3 
REMARK    2  A    between atoms: C4_6  and  C5_7 
REMARK    3  A    between atoms: C5_7  and  N2_8 
REMARK    4  A    between atoms: C12_15  and  N3_16 
REMARK    5  A    between atoms: C14_22  and  C15_23 
ROOT
HETATM    1  N2  UNL     1      13.901  62.809  27.643  1.00  0.00    -0.356 N 
HETATM    2  C6  UNL     1      13.392  61.815  26.794  1.00  0.00     0.066 C 
HETATM    3  C7  UNL     1      13.146  62.200  25.380  1.00  0.00     0.030 C 
HETATM    4  C8  UNL     1      11.745  61.849  24.930  1.00  0.00     0.010 C 
HETATM    5  C9  UNL     1      11.369  62.824  23.846  1.00  0.00     0.001 C 
HETATM    6  C10 UNL     1      12.435  63.910  23.832  1.00  0.00     0.007 C 
HETATM    7  C11 UNL     1      13.229  63.672  25.100  1.00  0.00     0.029 C 
HETATM    8  C12 UNL     1      12.719  64.481  26.251  1.00  0.00     0.241 C 
HETATM    9  C13 UNL     1      13.491  64.143  27.478  1.00  0.00     0.302 C 
HETATM   10  F1  UNL     1      12.802  64.538  28.636  1.00  0.00    -0.225 F 
ENDROOT
BRANCH   1  11
HETATM   11  C5  UNL     1      15.129  62.584  28.303  1.00  0.00     0.183 C 
BRANCH  11  12
HETATM   12  C4  UNL     1      16.193  63.537  27.786  1.00  0.00     0.041 A 
HETATM   13  N1  UNL     1      16.508  63.594  26.519  1.00  0.00    -0.355 N 
HETATM   14  C3  UNL     1      17.435  64.433  26.107  1.00  0.00     0.051 A 
ATOM     15  H1  UNL     1      16.034  62.988  25.849  1.00  0.00     0.166 HD
HETATM   16  S1  UNL     1      17.912  65.195  27.554  1.00  0.00    -0.079 SA
HETATM   17  C14 UNL     1      16.875  64.381  28.634  1.00  0.00     0.008 A 
BRANCH  14  18
HETATM   18  C2  UNL     1      17.922  64.633  24.699  1.00  0.00     0.060 C 
HETATM   19  C1  UNL     1      18.121  66.144  24.555  1.00  0.00     0.012 C 
ENDBRANCH  14  18
BRANCH  17  20
HETATM   20  C15 UNL     1      16.727  64.529  30.114  1.00  0.00     0.043 C 
HETATM   21  C16 UNL     1      18.018  64.080  30.755  1.00  0.00     0.010 C 
ENDBRANCH  17  20
ENDBRANCH  11  12
ENDBRANCH   1  11
BRANCH   8  22
HETATM   22  N3  UNL     1      11.291  64.320  26.454  1.00  0.00    -0.070 N 
ATOM     23  H33 UNL     1      10.973  63.411  26.119  1.00  0.00     0.274 HD
ATOM     24  H32 UNL     1      11.070  64.217  27.445  1.00  0.00     0.274 HD
ATOM     25  H31 UNL     1      10.749  65.076  26.034  1.00  0.00     0.274 HD
ENDBRANCH   8  22
TORSDOF 5
ENDMDL
