MODEL 1
REMARK VINA RESULT: -6.503294365      0.000      0.000
REMARK  7 active torsions:
REMARK  status: ('A' for Active; 'I' for Inactive)
REMARK    1  A    between atoms: O1_2  and  C2_3 
REMARK    2  A    between atoms: N2_7  and  C4_9 
REMARK    3  A    between atoms: C5_11  and  C6_12 
REMARK    4  A    between atoms: C6_12  and  C7_13 
REMARK    5  A    between atoms: C7_13  and  C8_14 
REMARK    6  A    between atoms: C12_18  and  S1_19 
REMARK    7  A    between atoms: S1_19  and  C13_20 
ROOT
HETATM    1  C2  UNL     1      18.550  64.644  31.853  1.00  0.00     0.225 A 
HETATM    2  N1  UNL     1      17.495  65.226  32.425  1.00  0.00    -0.307 N 
ATOM      3  H1  UNL     1      17.622  65.671  33.335  1.00  0.00     0.171 HD
HETATM    4  C3  UNL     1      16.257  65.257  31.857  1.00  0.00     0.131 A 
HETATM    5  N2  UNL     1      15.351  65.835  32.493  1.00  0.00    -0.328 N 
ATOM      6  H2  UNL     1      15.711  66.205  33.373  1.00  0.00     0.169 HD
HETATM    7  C5  UNL     1      16.117  64.642  30.616  1.00  0.00     0.095 A 
HETATM    8  C12 UNL     1      17.197  64.047  30.030  1.00  0.00     0.096 A 
HETATM    9  N3  UNL     1      18.373  64.063  30.657  1.00  0.00    -0.315 N 
ATOM     10  H3  UNL     1      19.172  63.615  30.208  1.00  0.00     0.170 HD
ENDROOT
BRANCH   7  11
HETATM   11  C6  UNL     1      14.846  64.602  29.951  1.00  0.00    -0.060 C 
BRANCH  11  12
HETATM   12  C7  UNL     1      13.769  64.550  29.411  1.00  0.00    -0.096 C 
BRANCH  12  13
HETATM   13  C8  UNL     1      12.455  64.476  28.782  1.00  0.00     0.065 C 
HETATM   14  C9  UNL     1      12.024  63.052  28.608  1.00  0.00     0.017 C 
HETATM   15  C10 UNL     1      10.609  63.500  29.002  1.00  0.00     0.002 C 
HETATM   16  C11 UNL     1      11.293  64.642  29.762  1.00  0.00     0.017 C 
ENDBRANCH  12  13
ENDBRANCH  11  12
ENDBRANCH   7  11
BRANCH   8  17
HETATM   17  S1  UNL     1      17.028  63.255  28.460  1.00  0.00    -0.106 SA
BRANCH  17  18
HETATM   18  C13 UNL     1      17.308  64.316  27.051  1.00  0.00     0.045 C 
HETATM   19  C14 UNL     1      16.053  64.857  26.417  1.00  0.00     0.021 C 
HETATM   20  C15 UNL     1      18.186  65.509  27.386  1.00  0.00     0.021 C 
ENDBRANCH  17  18
ENDBRANCH   8  17
BRANCH   5  21
HETATM   21  C4  UNL     1      13.997  66.125  32.360  1.00  0.00     0.282 C 
HETATM   22  F1  UNL     1      13.268  65.007  32.811  1.00  0.00    -0.201 F 
ENDBRANCH   5  21
BRANCH   1  23
HETATM   23  O1  UNL     1      19.757  64.680  32.535  1.00  0.00    -0.327 OA
HETATM   24  C1  UNL     1      19.874  64.809  33.916  1.00  0.00     0.213 C 
ENDBRANCH   1  23
TORSDOF 7
ENDMDL
MODEL 2
REMARK VINA RESULT: -6.449144423      2.456      4.117
REMARK  7 active torsions:
REMARK  status: ('A' for Active; 'I' for Inactive)
REMARK    1  A    between atoms: O1_2  and  C2_3 
REMARK    2  A    between atoms: N2_7  and  C4_9 
REMARK    3  A    between atoms: C5_11  and  C6_12 
REMARK    4  A    between atoms: C6_12  and  C7_13 
REMARK    5  A    between atoms: C7_13  and  C8_14 
REMARK    6  A    between atoms: C12_18  and  S1_19 
REMARK    7  A    between atoms: S1_19  and  C13_20 
ROOT
HETATM    1  C2  UNL     1      17.966  65.066  32.719  1.00  0.00     0.225 A 
HETATM    2  N1  UNL     1      18.466  64.646  31.557  1.00  0.00    -0.307 N 
ATOM      3  H1  UNL     1      19.467  64.457  31.501  1.00  0.00     0.171 HD
HETATM    4  C3  UNL     1      17.709  64.457  30.440  1.00  0.00     0.131 A 
HETATM    5  N2  UNL     1      18.297  64.059  29.412  1.00  0.00    -0.328 N 
ATOM      6  H2  UNL     1      19.294  63.936  29.594  1.00  0.00     0.169 HD
HETATM    7  C5  UNL     1      16.347  64.723  30.548  1.00  0.00     0.095 A 
HETATM    8  C12 UNL     1      15.835  65.152  31.738  1.00  0.00     0.096 A 
HETATM    9  N3  UNL     1      16.648  65.311  32.782  1.00  0.00    -0.315 N 
ATOM     10  H3  UNL     1      16.252  65.632  33.666  1.00  0.00     0.170 HD
ENDROOT
BRANCH   7  11
HETATM   11  C6  UNL     1      15.474  64.576  29.418  1.00  0.00    -0.060 C 
BRANCH  11  12
HETATM   12  C7  UNL     1      14.749  64.426  28.467  1.00  0.00    -0.096 C 
BRANCH  12  13
HETATM   13  C8  UNL     1      13.883  64.218  27.312  1.00  0.00     0.065 C 
HETATM   14  C9  UNL     1      14.686  63.877  26.094  1.00  0.00     0.017 C 
HETATM   15  C10 UNL     1      13.589  62.865  25.732  1.00  0.00     0.002 C 
HETATM   16  C11 UNL     1      13.287  62.812  27.235  1.00  0.00     0.017 C 
ENDBRANCH  12  13
ENDBRANCH  11  12
ENDBRANCH   7  11
BRANCH   8  17
HETATM   17  S1  UNL     1      14.109  65.502  31.883  1.00  0.00    -0.106 SA
BRANCH  17  18
HETATM   18  C13 UNL     1      13.667  67.213  31.630  1.00  0.00     0.045 C 
HETATM   19  C14 UNL     1      12.249  67.555  32.008  1.00  0.00     0.021 C 
HETATM   20  C15 UNL     1      14.571  68.167  32.390  1.00  0.00     0.021 C 
ENDBRANCH  17  18
ENDBRANCH   8  17
BRANCH   5  21
HETATM   21  C4  UNL     1      17.999  63.733  28.093  1.00  0.00     0.282 C 
HETATM   22  F1  UNL     1      17.393  62.462  28.087  1.00  0.00    -0.201 F 
ENDBRANCH   5  21
BRANCH   1  23
HETATM   23  O1  UNL     1      18.841  65.220  33.783  1.00  0.00    -0.327 OA
HETATM   24  C1  UNL     1      18.810  64.450  34.942  1.00  0.00     0.213 C 
ENDBRANCH   1  23
TORSDOF 7
ENDMDL
MODEL 3
REMARK VINA RESULT: -6.424224025      2.420      4.069
REMARK  7 active torsions:
REMARK  status: ('A' for Active; 'I' for Inactive)
REMARK    1  A    between atoms: O1_2  and  C2_3 
REMARK    2  A    between atoms: N2_7  and  C4_9 
REMARK    3  A    between atoms: C5_11  and  C6_12 
REMARK    4  A    between atoms: C6_12  and  C7_13 
REMARK    5  A    between atoms: C7_13  and  C8_14 
REMARK    6  A    between atoms: C12_18  and  S1_19 
REMARK    7  A    between atoms: S1_19  and  C13_20 
ROOT
HETATM    1  C2  UNL     1      16.896  65.239  32.152  1.00  0.00     0.225 A 
HETATM    2  N1  UNL     1      16.971  64.830  30.885  1.00  0.00    -0.307 N 
ATOM      3  H1  UNL     1      17.886  64.578  30.510  1.00  0.00     0.171 HD
HETATM    4  C3  UNL     1      15.887  64.731  30.065  1.00  0.00     0.131 A 
HETATM    5  N2  UNL     1      16.088  64.334  28.897  1.00  0.00    -0.328 N 
ATOM      6  H2  UNL     1      17.079  64.140  28.751  1.00  0.00     0.169 HD
HETATM    7  C5  UNL     1      14.653  65.082  30.605  1.00  0.00     0.095 A 
HETATM    8  C12 UNL     1      14.577  65.499  31.903  1.00  0.00     0.096 A 
HETATM    9  N3  UNL     1      15.688  65.566  32.635  1.00  0.00    -0.315 N 
ATOM     10  H3  UNL     1      15.617  65.880  33.603  1.00  0.00     0.170 HD
ENDROOT
BRANCH   7  11
HETATM   11  C6  UNL     1      13.458  65.033  29.811  1.00  0.00    -0.060 C 
BRANCH  11  12
HETATM   12  C7  UNL     1      12.447  64.970  29.159  1.00  0.00    -0.096 C 
BRANCH  12  13
HETATM   13  C8  UNL     1      11.220  64.866  28.376  1.00  0.00     0.065 C 
HETATM   14  C9  UNL     1      10.982  63.453  27.938  1.00  0.00     0.017 C 
HETATM   15  C10 UNL     1       9.491  63.682  28.227  1.00  0.00     0.002 C 
HETATM   16  C11 UNL     1       9.955  64.748  29.227  1.00  0.00     0.017 C 
ENDBRANCH  12  13
ENDBRANCH  11  12
ENDBRANCH   7  11
BRANCH   8  17
HETATM   17  S1  UNL     1      13.017  65.955  32.595  1.00  0.00    -0.106 SA
BRANCH  17  18
HETATM   18  C13 UNL     1      12.532  67.648  32.301  1.00  0.00     0.045 C 
HETATM   19  C14 UNL     1      13.630  68.528  31.760  1.00  0.00     0.021 C 
HETATM   20  C15 UNL     1      11.360  67.761  31.342  1.00  0.00     0.021 C 
ENDBRANCH  17  18
ENDBRANCH   8  17
BRANCH   5  21
HETATM   21  C4  UNL     1      15.364  64.077  27.738  1.00  0.00     0.282 C 
HETATM   22  F1  UNL     1      14.856  62.766  27.827  1.00  0.00    -0.201 F 
ENDBRANCH   5  21
BRANCH   1  23
HETATM   23  O1  UNL     1      18.073  65.296  32.883  1.00  0.00    -0.327 OA
HETATM   24  C1  UNL     1      19.218  64.564  32.585  1.00  0.00     0.213 C 
ENDBRANCH   1  23
TORSDOF 7
ENDMDL
MODEL 4
REMARK VINA RESULT: -6.394207525      3.096      4.750
REMARK  7 active torsions:
REMARK  status: ('A' for Active; 'I' for Inactive)
REMARK    1  A    between atoms: O1_2  and  C2_3 
REMARK    2  A    between atoms: N2_7  and  C4_9 
REMARK    3  A    between atoms: C5_11  and  C6_12 
REMARK    4  A    between atoms: C6_12  and  C7_13 
REMARK    5  A    between atoms: C7_13  and  C8_14 
REMARK    6  A    between atoms: C12_18  and  S1_19 
REMARK    7  A    between atoms: S1_19  and  C13_20 
ROOT
HETATM    1  C2  UNL     1      15.820  65.132  31.070  1.00  0.00     0.225 A 
HETATM    2  N1  UNL     1      16.578  64.407  30.247  1.00  0.00    -0.307 N 
ATOM      3  H1  UNL     1      17.546  64.225  30.515  1.00  0.00     0.171 HD
HETATM    4  C3  UNL     1      16.127  63.897  29.067  1.00  0.00     0.131 A 
HETATM    5  N2  UNL     1      16.936  63.234  28.385  1.00  0.00    -0.328 N 
ATOM      6  H2  UNL     1      17.841  63.183  28.852  1.00  0.00     0.169 HD
HETATM    7  C5  UNL     1      14.803  64.163  28.730  1.00  0.00     0.095 A 
HETATM    8  C12 UNL     1      14.026  64.904  29.574  1.00  0.00     0.096 A 
HETATM    9  N3  UNL     1      14.548  65.364  30.710  1.00  0.00    -0.315 N 
ATOM     10  H3  UNL     1      13.957  65.917  31.331  1.00  0.00     0.170 HD
ENDROOT
BRANCH   7  11
HETATM   11  C6  UNL     1      14.245  63.688  27.495  1.00  0.00    -0.060 C 
BRANCH  11  12
HETATM   12  C7  UNL     1      13.775  63.264  26.470  1.00  0.00    -0.096 C 
BRANCH  12  13
HETATM   13  C8  UNL     1      13.202  62.725  25.242  1.00  0.00     0.065 C 
HETATM   14  C9  UNL     1      12.369  61.512  25.526  1.00  0.00     0.017 C 
HETATM   15  C10 UNL     1      11.372  62.031  24.479  1.00  0.00     0.002 C 
HETATM   16  C11 UNL     1      11.916  63.427  24.804  1.00  0.00     0.017 C 
ENDBRANCH  12  13
ENDBRANCH  11  12
ENDBRANCH   7  11
BRANCH   8  17
HETATM   17  S1  UNL     1      12.346  65.254  29.151  1.00  0.00    -0.106 SA
BRANCH  17  18
HETATM   18  C13 UNL     1      11.184  63.963  29.563  1.00  0.00     0.045 C 
HETATM   19  C14 UNL     1      10.331  63.499  28.411  1.00  0.00     0.021 C 
HETATM   20  C15 UNL     1      11.862  62.730  30.137  1.00  0.00     0.021 C 
ENDBRANCH  17  18
ENDBRANCH   8  17
BRANCH   5  21
HETATM   21  C4  UNL     1      16.971  62.543  27.178  1.00  0.00     0.282 C 
HETATM   22  F1  UNL     1      17.339  63.453  26.168  1.00  0.00    -0.201 F 
ENDBRANCH   5  21
BRANCH   1  23
HETATM   23  O1  UNL     1      16.397  65.594  32.243  1.00  0.00    -0.327 OA
HETATM   24  C1  UNL     1      17.370  64.906  32.963  1.00  0.00     0.213 C 
ENDBRANCH   1  23
TORSDOF 7
ENDMDL
MODEL 5
REMARK VINA RESULT: -6.377135669      1.992      2.895
REMARK  7 active torsions:
REMARK  status: ('A' for Active; 'I' for Inactive)
REMARK    1  A    between atoms: O1_2  and  C2_3 
REMARK    2  A    between atoms: N2_7  and  C4_9 
REMARK    3  A    between atoms: C5_11  and  C6_12 
REMARK    4  A    between atoms: C6_12  and  C7_13 
REMARK    5  A    between atoms: C7_13  and  C8_14 
REMARK    6  A    between atoms: C12_18  and  S1_19 
REMARK    7  A    between atoms: S1_19  and  C13_20 
ROOT
HETATM    1  C2  UNL     1      17.012  64.738  30.722  1.00  0.00     0.225 A 
HETATM    2  N1  UNL     1      16.321  65.201  31.764  1.00  0.00    -0.307 N 
ATOM      3  H1  UNL     1      16.822  65.391  32.632  1.00  0.00     0.171 HD
HETATM    4  C3  UNL     1      14.978  65.430  31.729  1.00  0.00     0.131 A 
HETATM    5  N2  UNL     1      14.446  65.866  32.772  1.00  0.00    -0.328 N 
ATOM      6  H2  UNL     1      15.143  65.981  33.508  1.00  0.00     0.169 HD
HETATM    7  C5  UNL     1      14.323  65.160  30.531  1.00  0.00     0.095 A 
HETATM    8  C12 UNL     1      15.031  64.688  29.464  1.00  0.00     0.096 A 
HETATM    9  N3  UNL     1      16.344  64.491  29.585  1.00  0.00    -0.315 N 
ATOM     10  H3  UNL     1      16.861  64.138  28.780  1.00  0.00     0.170 HD
ENDROOT
BRANCH   7  11
HETATM   11  C6  UNL     1      12.905  65.348  30.406  1.00  0.00    -0.060 C 
BRANCH  11  12
HETATM   12  C7  UNL     1      11.711  65.490  30.324  1.00  0.00    -0.096 C 
BRANCH  12  13
HETATM   13  C8  UNL     1      10.263  65.647  30.248  1.00  0.00     0.065 C 
HETATM   14  C9  UNL     1       9.898  67.004  29.727  1.00  0.00     0.017 C 
HETATM   15  C10 UNL     1       8.776  66.325  28.928  1.00  0.00     0.002 C 
HETATM   16  C11 UNL     1       9.647  65.063  28.976  1.00  0.00     0.017 C 
ENDBRANCH  12  13
ENDBRANCH  11  12
ENDBRANCH   7  11
BRANCH   8  17
HETATM   17  S1  UNL     1      14.207  64.332  27.942  1.00  0.00    -0.106 SA
BRANCH  17  18
HETATM   18  C13 UNL     1      13.653  62.644  27.766  1.00  0.00     0.045 C 
HETATM   19  C14 UNL     1      12.233  62.404  28.209  1.00  0.00     0.021 C 
HETATM   20  C15 UNL     1      13.763  62.141  26.338  1.00  0.00     0.021 C 
ENDBRANCH  17  18
ENDBRANCH   8  17
BRANCH   5  21
HETATM   21  C4  UNL     1      13.186  66.240  33.229  1.00  0.00     0.282 C 
HETATM   22  F1  UNL     1      12.934  67.550  32.778  1.00  0.00    -0.201 F 
ENDBRANCH   5  21
BRANCH   1  23
HETATM   23  O1  UNL     1      18.376  64.545  30.885  1.00  0.00    -0.327 OA
HETATM   24  C1  UNL     1      19.023  64.525  32.117  1.00  0.00     0.213 C 
ENDBRANCH   1  23
TORSDOF 7
ENDMDL
