MODEL 1
REMARK VINA RESULT: -7.015725880      0.000      0.000
REMARK  5 active torsions:
REMARK  status: ('A' for Active; 'I' for Inactive)
REMARK    1  A    between atoms: C2_2  and  O1_4 
REMARK    2  A    between atoms: O1_4  and  C4_5 
REMARK    3  A    between atoms: C4_5  and  C5_6 
REMARK    4  A    between atoms: C5_6  and  N1_7 
REMARK    5  A    between atoms: N1_7  and  C6_9 
ROOT
HETATM    1  C6  UNL     1      15.158  62.501  27.782  1.00  0.00     0.679 A 
HETATM    2  N2  UNL     1      14.489  61.972  26.745  1.00  0.00    -0.180 N 
ATOM      3  H2  UNL     1      14.954  61.407  26.034  1.00  0.00     0.185 HD
HETATM    4  C7  UNL     1      13.175  62.228  26.697  1.00  0.00     0.138 A 
HETATM    5 CL1  UNL     1      12.154  61.617  25.416  1.00  0.00    -0.062 Cl
HETATM    6  C8  UNL     1      12.554  63.005  27.686  1.00  0.00     0.072 A 
HETATM    7  S1  UNL     1      10.955  63.528  27.952  1.00  0.00    -0.089 SA
HETATM    8  C9  UNL     1      11.185  64.412  29.390  1.00  0.00    -0.008 A 
HETATM    9  C10 UNL     1      12.515  64.279  29.630  1.00  0.00    -0.016 A 
HETATM   10  C11 UNL     1      13.239  63.541  28.739  1.00  0.00     0.076 A 
HETATM   11  N3  UNL     1      14.583  63.241  28.729  1.00  0.00    -0.190 N 
ATOM     12  H3  UNL     1      15.167  63.602  29.483  1.00  0.00     0.184 HD
HETATM   13  C12 UNL     1      12.828  65.048  30.920  1.00  0.00     0.042 C 
HETATM   14  C13 UNL     1      11.654  65.927  31.164  1.00  0.00     0.010 C 
HETATM   15  C14 UNL     1      10.506  65.255  30.450  1.00  0.00     0.047 C 
ENDROOT
BRANCH   1  16
HETATM   16  N1  UNL     1      16.440  62.309  27.916  1.00  0.00    -0.224 N 
ATOM     17  H1  UNL     1      16.820  61.384  27.714  1.00  0.00     0.177 HD
BRANCH  16  18
HETATM   18  C5  UNL     1      17.337  63.338  28.335  1.00  0.00     0.164 C 
BRANCH  18  19
HETATM   19  C4  UNL     1      17.641  64.313  27.210  1.00  0.00     0.188 C 
BRANCH  19  20
HETATM   20  O1  UNL     1      17.798  63.667  26.000  1.00  0.00    -0.385 OA
BRANCH  20  21
HETATM   21  C2  UNL     1      17.376  64.330  24.905  1.00  0.00     0.113 C 
HETATM   22  C1  UNL     1      15.952  64.751  24.871  1.00  0.00     0.039 C 
HETATM   23  C3  UNL     1      18.240  65.579  24.727  1.00  0.00     0.039 C 
ENDBRANCH  20  21
ENDBRANCH  19  20
ENDBRANCH  18  19
ENDBRANCH  16  18
ENDBRANCH   1  16
TORSDOF 5
ENDMDL
MODEL 2
REMARK VINA RESULT: -6.945316722      1.744      2.964
REMARK  5 active torsions:
REMARK  status: ('A' for Active; 'I' for Inactive)
REMARK    1  A    between atoms: C2_2  and  O1_4 
REMARK    2  A    between atoms: O1_4  and  C4_5 
REMARK    3  A    between atoms: C4_5  and  C5_6 
REMARK    4  A    between atoms: C5_6  and  N1_7 
REMARK    5  A    between atoms: N1_7  and  C6_9 
ROOT
HETATM    1  C6  UNL     1      15.443  62.694  27.973  1.00  0.00     0.679 A 
HETATM    2  N2  UNL     1      14.810  62.060  26.972  1.00  0.00    -0.180 N 
ATOM      3  H2  UNL     1      15.314  61.499  26.285  1.00  0.00     0.185 HD
HETATM    4  C7  UNL     1      13.479  62.206  26.927  1.00  0.00     0.138 A 
HETATM    5 CL1  UNL     1      12.502  61.449  25.691  1.00  0.00    -0.062 Cl
HETATM    6  C8  UNL     1      12.805  62.980  27.883  1.00  0.00     0.072 A 
HETATM    7  S1  UNL     1      11.170  63.384  28.142  1.00  0.00    -0.089 SA
HETATM    8  C9  UNL     1      11.339  64.357  29.530  1.00  0.00    -0.008 A 
HETATM    9  C10 UNL     1      12.678  64.344  29.761  1.00  0.00    -0.016 A 
HETATM   10  C11 UNL     1      13.452  63.623  28.900  1.00  0.00     0.076 A 
HETATM   11  N3  UNL     1      14.816  63.432  28.888  1.00  0.00    -0.190 N 
ATOM     12  H3  UNL     1      15.374  63.878  29.616  1.00  0.00     0.184 HD
HETATM   13  C12 UNL     1      12.936  65.201  31.006  1.00  0.00     0.042 C 
HETATM   14  C13 UNL     1      11.697  65.994  31.220  1.00  0.00     0.010 C 
HETATM   15  C14 UNL     1      10.602  65.195  30.554  1.00  0.00     0.047 C 
ENDROOT
BRANCH   1  16
HETATM   16  N1  UNL     1      16.737  62.614  28.102  1.00  0.00    -0.224 N 
ATOM     17  H1  UNL     1      17.141  61.741  28.441  1.00  0.00     0.177 HD
BRANCH  16  18
HETATM   18  C5  UNL     1      17.613  63.696  27.788  1.00  0.00     0.164 C 
BRANCH  18  19
HETATM   19  C4  UNL     1      18.302  64.242  29.027  1.00  0.00     0.188 C 
BRANCH  19  20
HETATM   20  O1  UNL     1      17.399  64.791  29.916  1.00  0.00    -0.385 OA
BRANCH  20  21
HETATM   21  C2  UNL     1      17.487  64.377  31.196  1.00  0.00     0.113 C 
HETATM   22  C1  UNL     1      18.823  64.445  31.842  1.00  0.00     0.039 C 
HETATM   23  C3  UNL     1      16.513  65.196  32.043  1.00  0.00     0.039 C 
ENDBRANCH  20  21
ENDBRANCH  19  20
ENDBRANCH  18  19
ENDBRANCH  16  18
ENDBRANCH   1  16
TORSDOF 5
ENDMDL
MODEL 3
REMARK VINA RESULT: -6.935723786      3.904      6.622
REMARK  5 active torsions:
REMARK  status: ('A' for Active; 'I' for Inactive)
REMARK    1  A    between atoms: C2_2  and  O1_4 
REMARK    2  A    between atoms: O1_4  and  C4_5 
REMARK    3  A    between atoms: C4_5  and  C5_6 
REMARK    4  A    between atoms: C5_6  and  N1_7 
REMARK    5  A    between atoms: N1_7  and  C6_9 
ROOT
HETATM    1  C6  UNL     1      14.226  65.555  31.423  1.00  0.00     0.679 A 
HETATM    2  N2  UNL     1      15.233  65.578  32.312  1.00  0.00    -0.180 N 
ATOM      3  H2  UNL     1      15.099  65.895  33.272  1.00  0.00     0.185 HD
HETATM    4  C7  UNL     1      16.425  65.161  31.865  1.00  0.00     0.138 A 
HETATM    5 CL1  UNL     1      17.842  65.126  32.888  1.00  0.00    -0.062 Cl
HETATM    6  C8  UNL     1      16.589  64.728  30.541  1.00  0.00     0.072 A 
HETATM    7  S1  UNL     1      17.912  64.143  29.640  1.00  0.00    -0.089 SA
HETATM    8  C9  UNL     1      17.138  63.883  28.144  1.00  0.00    -0.008 A 
HETATM    9  C10 UNL     1      15.856  64.262  28.385  1.00  0.00    -0.016 A 
HETATM   10  C11 UNL     1      15.562  64.705  29.641  1.00  0.00     0.076 A 
HETATM   11  N3  UNL     1      14.366  65.146  30.163  1.00  0.00    -0.190 N 
ATOM     12  H3  UNL     1      13.547  65.160  29.556  1.00  0.00     0.184 HD
HETATM   13  C12 UNL     1      15.068  64.062  27.084  1.00  0.00     0.042 C 
HETATM   14  C13 UNL     1      16.085  63.910  26.011  1.00  0.00     0.010 C 
HETATM   15  C14 UNL     1      17.327  63.418  26.715  1.00  0.00     0.047 C 
ENDROOT
BRANCH   1  16
HETATM   16  N1  UNL     1      13.029  65.943  31.762  1.00  0.00    -0.224 N 
ATOM     17  H1  UNL     1      12.777  65.943  32.751  1.00  0.00     0.177 HD
BRANCH  16  18
HETATM   18  C5  UNL     1      12.055  66.367  30.808  1.00  0.00     0.164 C 
BRANCH  18  19
HETATM   19  C4  UNL     1      10.934  65.352  30.657  1.00  0.00     0.188 C 
BRANCH  19  20
HETATM   20  O1  UNL     1      11.409  64.056  30.678  1.00  0.00    -0.385 OA
BRANCH  20  21
HETATM   21  C2  UNL     1      10.931  63.225  29.731  1.00  0.00     0.113 C 
HETATM   22  C1  UNL     1       9.960  63.789  28.758  1.00  0.00     0.039 C 
HETATM   23  C3  UNL     1      12.110  62.654  28.941  1.00  0.00     0.039 C 
ENDBRANCH  20  21
ENDBRANCH  19  20
ENDBRANCH  18  19
ENDBRANCH  16  18
ENDBRANCH   1  16
TORSDOF 5
ENDMDL
MODEL 4
REMARK VINA RESULT: -6.900584721      5.676      7.077
REMARK  5 active torsions:
REMARK  status: ('A' for Active; 'I' for Inactive)
REMARK    1  A    between atoms: C2_2  and  O1_4 
REMARK    2  A    between atoms: O1_4  and  C4_5 
REMARK    3  A    between atoms: C4_5  and  C5_6 
REMARK    4  A    between atoms: C5_6  and  N1_7 
REMARK    5  A    between atoms: N1_7  and  C6_9 
ROOT
HETATM    1  C6  UNL     1      18.129  64.787  32.550  1.00  0.00     0.679 A 
HETATM    2  N2  UNL     1      18.521  64.315  31.355  1.00  0.00    -0.180 N 
ATOM      3  H2  UNL     1      19.476  64.000  31.187  1.00  0.00     0.185 HD
HETATM    4  C7  UNL     1      17.585  64.281  30.397  1.00  0.00     0.138 A 
HETATM    5 CL1  UNL     1      17.925  63.696  28.785  1.00  0.00    -0.062 Cl
HETATM    6  C8  UNL     1      16.277  64.717  30.650  1.00  0.00     0.072 A 
HETATM    7  S1  UNL     1      14.859  64.821  29.710  1.00  0.00    -0.089 SA
HETATM    8  C9  UNL     1      13.798  65.468  30.876  1.00  0.00    -0.008 A 
HETATM    9  C10 UNL     1      14.580  65.589  31.979  1.00  0.00    -0.016 A 
HETATM   10  C11 UNL     1      15.881  65.196  31.867  1.00  0.00     0.076 A 
HETATM   11  N3  UNL     1      16.890  65.204  32.806  1.00  0.00    -0.190 N 
ATOM     12  H3  UNL     1      16.677  65.547  33.743  1.00  0.00     0.184 HD
HETATM   13  C12 UNL     1      13.707  66.169  33.098  1.00  0.00     0.042 C 
HETATM   14  C13 UNL     1      12.496  66.713  32.430  1.00  0.00     0.010 C 
HETATM   15  C14 UNL     1      12.383  65.941  31.137  1.00  0.00     0.047 C 
ENDROOT
BRANCH   1  16
HETATM   16  N1  UNL     1      18.966  64.860  33.546  1.00  0.00    -0.224 N 
ATOM     17  H1  UNL     1      19.903  65.224  33.370  1.00  0.00     0.177 HD
BRANCH  16  18
HETATM   18  C5  UNL     1      18.628  64.453  34.872  1.00  0.00     0.164 C 
BRANCH  18  19
HETATM   19  C4  UNL     1      18.695  62.944  35.033  1.00  0.00     0.188 C 
BRANCH  19  20
HETATM   20  O1  UNL     1      19.564  62.573  36.039  1.00  0.00    -0.385 OA
BRANCH  20  21
HETATM   21  C2  UNL     1      20.880  62.705  35.776  1.00  0.00     0.113 C 
HETATM   22  C1  UNL     1      21.784  62.946  36.930  1.00  0.00     0.039 C 
HETATM   23  C3  UNL     1      21.363  61.446  35.055  1.00  0.00     0.039 C 
ENDBRANCH  20  21
ENDBRANCH  19  20
ENDBRANCH  18  19
ENDBRANCH  16  18
ENDBRANCH   1  16
TORSDOF 5
ENDMDL
MODEL 5
REMARK VINA RESULT: -6.885584082      1.851      2.549
REMARK  5 active torsions:
REMARK  status: ('A' for Active; 'I' for Inactive)
REMARK    1  A    between atoms: C2_2  and  O1_4 
REMARK    2  A    between atoms: O1_4  and  C4_5 
REMARK    3  A    between atoms: C4_5  and  C5_6 
REMARK    4  A    between atoms: C5_6  and  N1_7 
REMARK    5  A    between atoms: N1_7  and  C6_9 
ROOT
HETATM    1  C6  UNL     1      13.457  62.955  28.461  1.00  0.00     0.679 A 
HETATM    2  N2  UNL     1      12.173  62.756  28.120  1.00  0.00    -0.180 N 
ATOM      3  H2  UNL     1      11.899  62.044  27.442  1.00  0.00     0.185 HD
HETATM    4  C7  UNL     1      11.273  63.546  28.720  1.00  0.00     0.138 A 
HETATM    5 CL1  UNL     1       9.560  63.421  28.392  1.00  0.00    -0.062 Cl
HETATM    6  C8  UNL     1      11.670  64.517  29.650  1.00  0.00     0.072 A 
HETATM    7  S1  UNL     1      10.839  65.671  30.588  1.00  0.00    -0.089 SA
HETATM    8  C9  UNL     1      12.161  66.380  31.396  1.00  0.00    -0.008 A 
HETATM    9  C10 UNL     1      13.228  65.695  30.911  1.00  0.00    -0.016 A 
HETATM   10  C11 UNL     1      12.977  64.717  29.994  1.00  0.00     0.076 A 
HETATM   11  N3  UNL     1      13.850  63.873  29.342  1.00  0.00    -0.190 N 
ATOM     12  H3  UNL     1      14.846  63.956  29.544  1.00  0.00     0.184 HD
HETATM   13  C12 UNL     1      14.483  66.264  31.585  1.00  0.00     0.042 C 
HETATM   14  C13 UNL     1      14.070  67.560  32.186  1.00  0.00     0.010 C 
HETATM   15  C14 UNL     1      12.580  67.436  32.398  1.00  0.00     0.047 C 
ENDROOT
BRANCH   1  16
HETATM   16  N1  UNL     1      14.407  62.238  27.931  1.00  0.00    -0.224 N 
ATOM     17  H1  UNL     1      14.566  61.296  28.289  1.00  0.00     0.177 HD
BRANCH  16  18
HETATM   18  C5  UNL     1      15.235  62.714  26.869  1.00  0.00     0.164 C 
BRANCH  18  19
HETATM   19  C4  UNL     1      16.710  62.610  27.215  1.00  0.00     0.188 C 
BRANCH  19  20
HETATM   20  O1  UNL     1      17.505  63.199  26.252  1.00  0.00    -0.385 OA
BRANCH  20  21
HETATM   21  C2  UNL     1      17.404  64.537  26.124  1.00  0.00     0.113 C 
HETATM   22  C1  UNL     1      18.083  65.372  27.149  1.00  0.00     0.039 C 
HETATM   23  C3  UNL     1      17.949  64.940  24.753  1.00  0.00     0.039 C 
ENDBRANCH  20  21
ENDBRANCH  19  20
ENDBRANCH  18  19
ENDBRANCH  16  18
ENDBRANCH   1  16
TORSDOF 5
ENDMDL
