MODEL 1
REMARK VINA RESULT: -9.703139702      0.000      0.000
REMARK  8 active torsions:
REMARK  status: ('A' for Active; 'I' for Inactive)
REMARK    1  A    between atoms: C2_2  and  C4_5 
REMARK    2  A    between atoms: C4_5  and  N1_6 
REMARK    3  A    between atoms: N1_6  and  C5_8 
REMARK    4  A    between atoms: C6_11  and  C7_12 
REMARK    5  A    between atoms: C7_12  and  N3_13 
REMARK    6  A    between atoms: N4_16  and  C10_17 
REMARK    7  A    between atoms: C17_25  and  C18_26 
REMARK    8  A    between atoms: C18_26  and  C19_27 
ROOT
HETATM    1  C5  UNL     1      17.411  64.465  29.413  1.00  0.00     0.151 A 
HETATM    2  N2  UNL     1      18.410  64.448  30.352  1.00  0.00    -0.340 N 
ATOM      3  H2  UNL     1      19.343  64.154  30.063  1.00  0.00     0.167 HD
HETATM    4  C6  UNL     1      18.219  64.796  31.627  1.00  0.00     0.055 A 
HETATM    5  C16 UNL     1      16.958  65.190  32.023  1.00  0.00     0.125 A 
HETATM    6  N5  UNL     1      15.933  65.224  31.132  1.00  0.00    -0.306 N 
HETATM    7  C17 UNL     1      14.638  65.557  31.263  1.00  0.00     0.034 A 
HETATM    8  C23 UNL     1      14.086  65.388  30.013  1.00  0.00     0.115 A 
HETATM    9  N6  UNL     1      15.023  64.964  29.147  1.00  0.00    -0.347 N 
ATOM     10  H6  UNL     1      14.893  64.758  28.156  1.00  0.00     0.167 HD
HETATM   11  C24 UNL     1      16.167  64.864  29.849  1.00  0.00     0.157 A 
ENDROOT
BRANCH   4  12
HETATM   12  C7  UNL     1      19.333  64.762  32.608  1.00  0.00     0.330 C 
BRANCH  12  13
HETATM   13  N3  UNL     1      19.961  63.474  32.660  1.00  0.00     0.097 N 
HETATM   14  C8  UNL     1      19.258  62.558  33.525  1.00  0.00     0.303 C 
HETATM   15  C9  UNL     1      19.918  62.473  34.884  1.00  0.00     0.303 C 
HETATM   16  N4  UNL     1      21.247  61.889  34.808  1.00  0.00     0.096 N 
HETATM   17  C14 UNL     1      21.809  62.268  33.535  1.00  0.00     0.303 C 
HETATM   18  C15 UNL     1      21.326  63.637  33.106  1.00  0.00     0.303 C 
BRANCH  16  19
HETATM   19  C10 UNL     1      21.987  62.352  35.940  1.00  0.00     0.223 C 
HETATM   20  C11 UNL     1      22.273  61.327  37.011  1.00  0.00     0.036 C 
HETATM   21  C12 UNL     1      21.904  62.402  38.039  1.00  0.00     0.004 C 
HETATM   22  C13 UNL     1      21.057  63.039  36.938  1.00  0.00     0.036 C 
ENDBRANCH  16  19
ENDBRANCH  12  13
ENDBRANCH   4  12
BRANCH   1  23
HETATM   23  N1  UNL     1      17.751  64.109  28.255  1.00  0.00    -0.350 N 
ATOM     24  H1  UNL     1      18.085  63.147  28.208  1.00  0.00     0.166 HD
BRANCH  23  25
HETATM   25  C4  UNL     1      17.763  64.769  27.011  1.00  0.00     0.105 C 
BRANCH  25  26
HETATM   26  C2  UNL     1      17.171  63.944  25.880  1.00  0.00     0.128 C 
HETATM   27  C1  UNL     1      17.714  64.519  24.584  1.00  0.00     0.057 C 
HETATM   28  C3  UNL     1      15.650  64.152  25.856  1.00  0.00     0.057 C 
HETATM   29  F1  UNL     1      17.390  62.605  26.003  1.00  0.00    -0.238 F 
ENDBRANCH  25  26
ENDBRANCH  23  25
ENDBRANCH   1  23
BRANCH   7  30
HETATM   30  C18 UNL     1      13.976  66.010  32.490  1.00  0.00     0.066 C 
BRANCH  30  31
HETATM   31  C19 UNL     1      13.824  67.457  32.688  1.00  0.00     0.017 C 
HETATM   32  C20 UNL     1      14.945  68.345  32.256  1.00  0.00     0.033 C 
HETATM   33  C21 UNL     1      14.175  69.690  32.246  1.00  0.00     0.168 C 
HETATM   34  O1  UNL     1      13.070  69.322  31.486  1.00  0.00    -0.391 OA
HETATM   35  C22 UNL     1      12.645  68.114  32.027  1.00  0.00     0.172 C 
ENDBRANCH  30  31
ENDBRANCH   7  30
TORSDOF 8
ENDMDL
MODEL 2
REMARK VINA RESULT: -9.486381369      2.510      5.043
REMARK  8 active torsions:
REMARK  status: ('A' for Active; 'I' for Inactive)
REMARK    1  A    between atoms: C2_2  and  C4_5 
REMARK    2  A    between atoms: C4_5  and  N1_6 
REMARK    3  A    between atoms: N1_6  and  C5_8 
REMARK    4  A    between atoms: C6_11  and  C7_12 
REMARK    5  A    between atoms: C7_12  and  N3_13 
REMARK    6  A    between atoms: N4_16  and  C10_17 
REMARK    7  A    between atoms: C17_25  and  C18_26 
REMARK    8  A    between atoms: C18_26  and  C19_27 
ROOT
HETATM    1  C5  UNL     1      15.501  65.605  31.856  1.00  0.00     0.151 A 
HETATM    2  N2  UNL     1      16.698  65.537  32.521  1.00  0.00    -0.340 N 
ATOM      3  H2  UNL     1      16.758  65.942  33.455  1.00  0.00     0.167 HD
HETATM    4  C6  UNL     1      17.789  64.968  32.004  1.00  0.00     0.055 A 
HETATM    5  C16 UNL     1      17.714  64.423  30.738  1.00  0.00     0.125 A 
HETATM    6  N5  UNL     1      16.552  64.464  30.036  1.00  0.00    -0.306 N 
HETATM    7  C17 UNL     1      16.225  64.021  28.810  1.00  0.00     0.034 A 
HETATM    8  C23 UNL     1      14.901  64.356  28.639  1.00  0.00     0.115 A 
HETATM    9  N6  UNL     1      14.437  64.986  29.733  1.00  0.00    -0.347 N 
ATOM     10  H6  UNL     1      13.493  65.344  29.879  1.00  0.00     0.167 HD
HETATM   11  C24 UNL     1      15.468  65.049  30.596  1.00  0.00     0.157 A 
ENDROOT
BRANCH   4  12
HETATM   12  C7  UNL     1      19.064  64.918  32.763  1.00  0.00     0.330 C 
BRANCH  12  13
HETATM   13  N3  UNL     1      19.667  63.618  32.711  1.00  0.00     0.097 N 
HETATM   14  C8  UNL     1      19.062  62.698  33.643  1.00  0.00     0.303 C 
HETATM   15  C9  UNL     1      19.889  62.573  34.904  1.00  0.00     0.303 C 
HETATM   16  N4  UNL     1      21.185  61.966  34.647  1.00  0.00     0.096 N 
HETATM   17  C14 UNL     1      21.587  62.361  33.319  1.00  0.00     0.303 C 
HETATM   18  C15 UNL     1      21.081  63.747  32.980  1.00  0.00     0.303 C 
BRANCH  16  19
HETATM   19  C10 UNL     1      22.073  62.393  35.682  1.00  0.00     0.223 C 
HETATM   20  C11 UNL     1      22.346  61.391  36.779  1.00  0.00     0.036 C 
HETATM   21  C12 UNL     1      22.193  62.546  37.774  1.00  0.00     0.004 C 
HETATM   22  C13 UNL     1      21.321  63.225  36.719  1.00  0.00     0.036 C 
ENDBRANCH  16  19
ENDBRANCH  12  13
ENDBRANCH   4  12
BRANCH   1  23
HETATM   23  N1  UNL     1      14.567  66.173  32.479  1.00  0.00    -0.350 N 
ATOM     24  H1  UNL     1      14.127  65.578  33.180  1.00  0.00     0.166 HD
BRANCH  23  25
HETATM   25  C4  UNL     1      14.006  67.462  32.404  1.00  0.00     0.105 C 
BRANCH  25  26
HETATM   26  C2  UNL     1      12.551  67.468  31.963  1.00  0.00     0.128 C 
HETATM   27  C1  UNL     1      12.046  66.042  32.094  1.00  0.00     0.057 C 
HETATM   28  C3  UNL     1      12.486  67.828  30.473  1.00  0.00     0.057 C 
HETATM   29  F1  UNL     1      11.778  68.372  32.628  1.00  0.00    -0.238 F 
ENDBRANCH  25  26
ENDBRANCH  23  25
ENDBRANCH   1  23
BRANCH   7  30
HETATM   30  C18 UNL     1      17.110  63.323  27.873  1.00  0.00     0.066 C 
BRANCH  30  31
HETATM   31  C19 UNL     1      17.662  64.094  26.753  1.00  0.00     0.017 C 
HETATM   32  C20 UNL     1      16.908  64.095  25.463  1.00  0.00     0.033 C 
HETATM   33  C21 UNL     1      17.590  65.320  24.805  1.00  0.00     0.168 C 
HETATM   34  O1  UNL     1      17.465  66.243  25.838  1.00  0.00    -0.391 OA
HETATM   35  C22 UNL     1      17.876  65.564  26.980  1.00  0.00     0.172 C 
ENDBRANCH  30  31
ENDBRANCH   7  30
TORSDOF 8
ENDMDL
MODEL 3
REMARK VINA RESULT: -9.407043443      1.071      1.344
REMARK  8 active torsions:
REMARK  status: ('A' for Active; 'I' for Inactive)
REMARK    1  A    between atoms: C2_2  and  C4_5 
REMARK    2  A    between atoms: C4_5  and  N1_6 
REMARK    3  A    between atoms: N1_6  and  C5_8 
REMARK    4  A    between atoms: C6_11  and  C7_12 
REMARK    5  A    between atoms: C7_12  and  N3_13 
REMARK    6  A    between atoms: N4_16  and  C10_17 
REMARK    7  A    between atoms: C17_25  and  C18_26 
REMARK    8  A    between atoms: C18_26  and  C19_27 
ROOT
HETATM    1  C5  UNL     1      17.395  64.675  29.015  1.00  0.00     0.151 A 
HETATM    2  N2  UNL     1      18.364  64.510  29.971  1.00  0.00    -0.340 N 
ATOM      3  H2  UNL     1      19.304  64.251  29.670  1.00  0.00     0.167 HD
HETATM    4  C6  UNL     1      18.137  64.672  31.277  1.00  0.00     0.055 A 
HETATM    5  C16 UNL     1      16.866  65.019  31.688  1.00  0.00     0.125 A 
HETATM    6  N5  UNL     1      15.870  65.193  30.782  1.00  0.00    -0.306 N 
HETATM    7  C17 UNL     1      14.573  65.518  30.922  1.00  0.00     0.034 A 
HETATM    8  C23 UNL     1      14.060  65.538  29.645  1.00  0.00     0.115 A 
HETATM    9  N6  UNL     1      15.020  65.234  28.754  1.00  0.00    -0.347 N 
ATOM     10  H6  UNL     1      14.919  65.176  27.741  1.00  0.00     0.167 HD
HETATM   11  C24 UNL     1      16.141  65.021  29.468  1.00  0.00     0.157 A 
ENDROOT
BRANCH   4  12
HETATM   12  C7  UNL     1      19.219  64.484  32.275  1.00  0.00     0.330 C 
BRANCH  12  13
HETATM   13  N3  UNL     1      18.701  64.322  33.602  1.00  0.00     0.097 N 
HETATM   14  C8  UNL     1      19.486  65.030  34.585  1.00  0.00     0.303 C 
HETATM   15  C9  UNL     1      20.444  64.098  35.294  1.00  0.00     0.303 C 
HETATM   16  N4  UNL     1      19.745  63.105  36.094  1.00  0.00     0.096 N 
HETATM   17  C14 UNL     1      18.504  62.810  35.421  1.00  0.00     0.303 C 
HETATM   18  C15 UNL     1      18.654  62.913  33.918  1.00  0.00     0.303 C 
BRANCH  16  19
HETATM   19  C10 UNL     1      20.616  61.982  36.243  1.00  0.00     0.223 C 
HETATM   20  C11 UNL     1      20.604  61.305  37.593  1.00  0.00     0.036 C 
HETATM   21  C12 UNL     1      22.131  61.242  37.496  1.00  0.00     0.004 C 
HETATM   22  C13 UNL     1      22.035  62.448  36.562  1.00  0.00     0.036 C 
ENDBRANCH  16  19
ENDBRANCH  12  13
ENDBRANCH   4  12
BRANCH   1  23
HETATM   23  N1  UNL     1      17.768  64.487  27.829  1.00  0.00    -0.350 N 
ATOM     24  H1  UNL     1      18.030  63.521  27.634  1.00  0.00     0.166 HD
BRANCH  23  25
HETATM   25  C4  UNL     1      17.896  65.339  26.715  1.00  0.00     0.105 C 
BRANCH  25  26
HETATM   26  C2  UNL     1      17.402  64.721  25.417  1.00  0.00     0.128 C 
HETATM   27  C1  UNL     1      18.218  65.339  24.296  1.00  0.00     0.057 C 
HETATM   28  C3  UNL     1      15.944  65.142  25.190  1.00  0.00     0.057 C 
HETATM   29  F1  UNL     1      17.432  63.359  25.410  1.00  0.00    -0.238 F 
ENDBRANCH  25  26
ENDBRANCH  23  25
ENDBRANCH   1  23
BRANCH   7  30
HETATM   30  C18 UNL     1      13.877  65.796  32.181  1.00  0.00     0.066 C 
BRANCH  30  31
HETATM   31  C19 UNL     1      13.834  67.188  32.645  1.00  0.00     0.017 C 
HETATM   32  C20 UNL     1      14.957  68.092  32.250  1.00  0.00     0.033 C 
HETATM   33  C21 UNL     1      14.274  69.448  32.561  1.00  0.00     0.168 C 
HETATM   34  O1  UNL     1      13.075  69.269  31.878  1.00  0.00    -0.391 OA
HETATM   35  C22 UNL     1      12.636  68.002  32.245  1.00  0.00     0.172 C 
ENDBRANCH  30  31
ENDBRANCH   7  30
TORSDOF 8
ENDMDL
MODEL 4
REMARK VINA RESULT: -9.249074148      0.829      1.020
REMARK  8 active torsions:
REMARK  status: ('A' for Active; 'I' for Inactive)
REMARK    1  A    between atoms: C2_2  and  C4_5 
REMARK    2  A    between atoms: C4_5  and  N1_6 
REMARK    3  A    between atoms: N1_6  and  C5_8 
REMARK    4  A    between atoms: C6_11  and  C7_12 
REMARK    5  A    between atoms: C7_12  and  N3_13 
REMARK    6  A    between atoms: N4_16  and  C10_17 
REMARK    7  A    between atoms: C17_25  and  C18_26 
REMARK    8  A    between atoms: C18_26  and  C19_27 
ROOT
HETATM    1  C5  UNL     1      17.439  64.532  29.439  1.00  0.00     0.151 A 
HETATM    2  N2  UNL     1      18.417  64.495  30.399  1.00  0.00    -0.340 N 
ATOM      3  H2  UNL     1      19.357  64.210  30.125  1.00  0.00     0.167 HD
HETATM    4  C6  UNL     1      18.197  64.813  31.677  1.00  0.00     0.055 A 
HETATM    5  C16 UNL     1      16.926  65.196  32.054  1.00  0.00     0.125 A 
HETATM    6  N5  UNL     1      15.921  65.248  31.142  1.00  0.00    -0.306 N 
HETATM    7  C17 UNL     1      14.623  65.575  31.251  1.00  0.00     0.034 A 
HETATM    8  C23 UNL     1      14.100  65.435  29.985  1.00  0.00     0.115 A 
HETATM    9  N6  UNL     1      15.057  65.033  29.131  1.00  0.00    -0.347 N 
ATOM     10  H6  UNL     1      14.949  64.850  28.133  1.00  0.00     0.167 HD
HETATM   11  C24 UNL     1      16.185  64.919  29.856  1.00  0.00     0.157 A 
ENDROOT
BRANCH   4  12
HETATM   12  C7  UNL     1      19.289  64.758  32.682  1.00  0.00     0.330 C 
BRANCH  12  13
HETATM   13  N3  UNL     1      19.922  63.472  32.715  1.00  0.00     0.097 N 
HETATM   14  C8  UNL     1      19.245  62.552  33.596  1.00  0.00     0.303 C 
HETATM   15  C9  UNL     1      19.940  62.466  34.937  1.00  0.00     0.303 C 
HETATM   16  N4  UNL     1      21.268  61.886  34.824  1.00  0.00     0.096 N 
HETATM   17  C14 UNL     1      21.796  62.270  33.538  1.00  0.00     0.303 C 
HETATM   18  C15 UNL     1      21.298  63.638  33.125  1.00  0.00     0.303 C 
BRANCH  16  19
HETATM   19  C10 UNL     1      22.036  62.349  35.938  1.00  0.00     0.223 C 
HETATM   20  C11 UNL     1      22.270  61.350  37.045  1.00  0.00     0.036 C 
HETATM   21  C12 UNL     1      21.964  62.480  38.033  1.00  0.00     0.004 C 
HETATM   22  C13 UNL     1      21.149  63.122  36.911  1.00  0.00     0.036 C 
ENDBRANCH  16  19
ENDBRANCH  12  13
ENDBRANCH   4  12
BRANCH   1  23
HETATM   23  N1  UNL     1      17.806  64.204  28.281  1.00  0.00    -0.350 N 
ATOM     24  H1  UNL     1      18.225  63.276  28.235  1.00  0.00     0.166 HD
BRANCH  23  25
HETATM   25  C4  UNL     1      17.754  64.859  27.035  1.00  0.00     0.105 C 
BRANCH  25  26
HETATM   26  C2  UNL     1      17.181  63.998  25.920  1.00  0.00     0.128 C 
HETATM   27  C1  UNL     1      17.708  64.563  24.612  1.00  0.00     0.057 C 
HETATM   28  C3  UNL     1      15.656  64.167  25.896  1.00  0.00     0.057 C 
HETATM   29  F1  UNL     1      17.435  62.667  26.067  1.00  0.00    -0.238 F 
ENDBRANCH  25  26
ENDBRANCH  23  25
ENDBRANCH   1  23
BRANCH   7  30
HETATM   30  C18 UNL     1      13.932  65.998  32.473  1.00  0.00     0.066 C 
BRANCH  30  31
HETATM   31  C19 UNL     1      12.704  66.788  32.324  1.00  0.00     0.017 C 
HETATM   32  C20 UNL     1      12.796  68.101  31.616  1.00  0.00     0.033 C 
HETATM   33  C21 UNL     1      11.288  68.309  31.330  1.00  0.00     0.168 C 
HETATM   34  O1  UNL     1      10.985  67.078  30.757  1.00  0.00    -0.391 OA
HETATM   35  C22 UNL     1      11.559  66.135  31.602  1.00  0.00     0.172 C 
ENDBRANCH  30  31
ENDBRANCH   7  30
TORSDOF 8
ENDMDL
MODEL 5
REMARK VINA RESULT: -9.033897735      1.112      1.481
REMARK  8 active torsions:
REMARK  status: ('A' for Active; 'I' for Inactive)
REMARK    1  A    between atoms: C2_2  and  C4_5 
REMARK    2  A    between atoms: C4_5  and  N1_6 
REMARK    3  A    between atoms: N1_6  and  C5_8 
REMARK    4  A    between atoms: C6_11  and  C7_12 
REMARK    5  A    between atoms: C7_12  and  N3_13 
REMARK    6  A    between atoms: N4_16  and  C10_17 
REMARK    7  A    between atoms: C17_25  and  C18_26 
REMARK    8  A    between atoms: C18_26  and  C19_27 
ROOT
HETATM    1  C5  UNL     1      17.304  64.073  28.719  1.00  0.00     0.151 A 
HETATM    2  N2  UNL     1      18.179  64.277  29.755  1.00  0.00    -0.340 N 
ATOM      3  H2  UNL     1      19.165  64.060  29.607  1.00  0.00     0.167 HD
HETATM    4  C6  UNL     1      17.803  64.746  30.947  1.00  0.00     0.055 A 
HETATM    5  C16 UNL     1      16.469  65.037  31.151  1.00  0.00     0.125 A 
HETATM    6  N5  UNL     1      15.562  64.852  30.158  1.00  0.00    -0.306 N 
HETATM    7  C17 UNL     1      14.233  65.049  30.105  1.00  0.00     0.034 A 
HETATM    8  C23 UNL     1      13.856  64.676  28.835  1.00  0.00     0.115 A 
HETATM    9  N6  UNL     1      14.928  64.264  28.136  1.00  0.00    -0.347 N 
ATOM     10  H6  UNL     1      14.939  63.933  27.171  1.00  0.00     0.167 HD
HETATM   11  C24 UNL     1      15.983  64.376  28.964  1.00  0.00     0.157 A 
ENDROOT
BRANCH   4  12
HETATM   12  C7  UNL     1      18.788  64.951  32.038  1.00  0.00     0.330 C 
BRANCH  12  13
HETATM   13  N3  UNL     1      19.612  63.796  32.239  1.00  0.00     0.097 N 
HETATM   14  C8  UNL     1      18.942  62.773  33.006  1.00  0.00     0.303 C 
HETATM   15  C9  UNL     1      19.365  62.812  34.458  1.00  0.00     0.303 C 
HETATM   16  N4  UNL     1      20.768  62.473  34.625  1.00  0.00     0.096 N 
HETATM   17  C14 UNL     1      21.465  62.941  33.453  1.00  0.00     0.303 C 
HETATM   18  C15 UNL     1      20.831  64.201  32.901  1.00  0.00     0.303 C 
BRANCH  16  19
HETATM   19  C10 UNL     1      21.211  63.065  35.849  1.00  0.00     0.223 C 
HETATM   20  C11 UNL     1      22.634  62.766  36.255  1.00  0.00     0.036 C 
HETATM   21  C12 UNL     1      22.110  62.559  37.679  1.00  0.00     0.004 C 
HETATM   22  C13 UNL     1      20.763  62.221  37.040  1.00  0.00     0.036 C 
ENDBRANCH  16  19
ENDBRANCH  12  13
ENDBRANCH   4  12
BRANCH   1  23
HETATM   23  N1  UNL     1      17.815  63.627  27.659  1.00  0.00    -0.350 N 
ATOM     24  H1  UNL     1      18.830  63.542  27.702  1.00  0.00     0.166 HD
BRANCH  23  25
HETATM   25  C4  UNL     1      17.270  63.222  26.425  1.00  0.00     0.105 C 
BRANCH  25  26
HETATM   26  C2  UNL     1      17.333  64.296  25.351  1.00  0.00     0.128 C 
HETATM   27  C1  UNL     1      17.951  65.526  25.993  1.00  0.00     0.057 C 
HETATM   28  C3  UNL     1      15.903  64.677  24.945  1.00  0.00     0.057 C 
HETATM   29  F1  UNL     1      17.980  63.903  24.218  1.00  0.00    -0.238 F 
ENDBRANCH  25  26
ENDBRANCH  23  25
ENDBRANCH   1  23
BRANCH   7  30
HETATM   30  C18 UNL     1      13.386  65.562  31.186  1.00  0.00     0.066 C 
BRANCH  30  31
HETATM   31  C19 UNL     1      12.796  66.895  31.015  1.00  0.00     0.017 C 
HETATM   32  C20 UNL     1      11.308  66.994  30.902  1.00  0.00     0.033 C 
HETATM   33  C21 UNL     1      11.162  68.510  31.184  1.00  0.00     0.168 C 
HETATM   34  O1  UNL     1      11.912  68.606  32.351  1.00  0.00    -0.391 OA
HETATM   35  C22 UNL     1      13.086  67.910  32.085  1.00  0.00     0.172 C 
ENDBRANCH  30  31
ENDBRANCH   7  30
TORSDOF 8
ENDMDL
