MODEL 1
REMARK VINA RESULT: -9.734267372      0.000      0.000
REMARK  8 active torsions:
REMARK  status: ('A' for Active; 'I' for Inactive)
REMARK    1  A    between atoms: C1_2  and  C2_3 
REMARK       I    between atoms: C1_2  and  N4_22 
REMARK    2  A    between atoms: C2_3  and  C3_4 
REMARK    3  A    between atoms: C3_4  and  C4_5 
REMARK    4  A    between atoms: C5_11  and  N3_12 
REMARK    5  A    between atoms: N3_12  and  C6_14 
REMARK    6  A    between atoms: C6_14  and  C7_15 
REMARK    7  A    between atoms: N5_25  and  C15_26 
REMARK    8  A    between atoms: C15_26  and  C16_27 
ROOT
HETATM    1  C4  UNL     1      18.806  63.916  34.451  1.00  0.00     0.080 A 
HETATM    2  N1  UNL     1      17.694  63.133  34.511  1.00  0.00    -0.242 N 
ATOM      3  H1  UNL     1      16.900  63.169  33.872  1.00  0.00     0.196 HD
HETATM    4  O2  UNL     1      17.819  62.342  35.512  1.00  0.00    -0.155 OA
HETATM    5  N2  UNL     1      18.916  62.504  36.152  1.00  0.00    -0.224 N 
ATOM      6  H2  UNL     1      19.226  61.990  36.977  1.00  0.00     0.198 HD
HETATM    7  C5  UNL     1      19.594  63.515  35.503  1.00  0.00     0.148 A 
ENDROOT
BRANCH   1   8
HETATM    8  C3  UNL     1      19.060  64.950  33.467  1.00  0.00     0.072 C 
BRANCH   8   9
HETATM    9  C2  UNL     1      18.793  64.526  32.072  1.00  0.00     0.109 C 
BRANCH   9  10
HETATM   10  C1  UNL     1      17.404  64.912  31.660  1.00  0.00     0.220 C 
HETATM   11  O1  UNL     1      16.503  65.227  32.476  1.00  0.00    -0.273 OA
HETATM   12  N4  UNL     1      17.045  64.931  30.288  1.00  0.00    -0.349 N 
HETATM   13  C13 UNL     1      15.720  65.297  29.883  1.00  0.00     0.156 C 
HETATM   14  C21 UNL     1      18.024  64.576  29.297  1.00  0.00     0.156 C 
HETATM   15  C14 UNL     1      15.697  65.229  28.350  1.00  0.00     0.292 C 
HETATM   16  N5  UNL     1      16.084  63.904  27.988  1.00  0.00     0.097 N 
HETATM   17  C20 UNL     1      17.378  63.490  28.433  1.00  0.00     0.292 C 
BRANCH  16  18
HETATM   18  C15 UNL     1      15.969  63.590  26.589  1.00  0.00     0.337 C 
BRANCH  18  19
HETATM   19  C16 UNL     1      14.659  62.945  26.239  1.00  0.00     0.080 A 
HETATM   20  C17 UNL     1      13.716  63.441  25.378  1.00  0.00     0.036 A 
HETATM   21  C18 UNL     1      12.678  62.551  25.341  1.00  0.00     0.027 A 
HETATM   22  C19 UNL     1      13.023  61.519  26.195  1.00  0.00     0.142 A 
HETATM   23  O3  UNL     1      14.199  61.804  26.695  1.00  0.00    -0.325 OA
ENDBRANCH  18  19
ENDBRANCH  16  18
ENDBRANCH   9  10
ENDBRANCH   8   9
ENDBRANCH   1   8
BRANCH   7  24
HETATM   24  N3  UNL     1      20.729  63.865  35.902  1.00  0.00    -0.373 N 
ATOM     25  H3  UNL     1      21.096  64.619  35.322  1.00  0.00     0.161 HD
BRANCH  24  26
HETATM   26  C6  UNL     1      21.636  63.532  36.897  1.00  0.00     0.127 C 
BRANCH  26  27
HETATM   27  C7  UNL     1      22.773  62.618  36.390  1.00  0.00     0.022 C 
HETATM   28  C8  UNL     1      23.980  62.835  37.267  1.00  0.00     0.007 C 
HETATM   29  C9  UNL     1      23.789  62.206  38.634  1.00  0.00     0.001 C 
HETATM   30  C10 UNL     1      23.606  60.732  38.422  1.00  0.00     0.002 C 
HETATM   31  C11 UNL     1      22.365  60.462  37.610  1.00  0.00     0.020 C 
HETATM   32  C12 UNL     1      22.343  61.200  36.302  1.00  0.00     0.088 C 
HETATM   33 CL1  UNL     1      23.303  60.303  35.087  1.00  0.00    -0.125 Cl
ENDBRANCH  26  27
ENDBRANCH  24  26
ENDBRANCH   7  24
TORSDOF 8
ENDMDL
MODEL 2
REMARK VINA RESULT: -9.661365308      1.284      1.692
REMARK  8 active torsions:
REMARK  status: ('A' for Active; 'I' for Inactive)
REMARK    1  A    between atoms: C1_2  and  C2_3 
REMARK       I    between atoms: C1_2  and  N4_22 
REMARK    2  A    between atoms: C2_3  and  C3_4 
REMARK    3  A    between atoms: C3_4  and  C4_5 
REMARK    4  A    between atoms: C5_11  and  N3_12 
REMARK    5  A    between atoms: N3_12  and  C6_14 
REMARK    6  A    between atoms: C6_14  and  C7_15 
REMARK    7  A    between atoms: N5_25  and  C15_26 
REMARK    8  A    between atoms: C15_26  and  C16_27 
ROOT
HETATM    1  C4  UNL     1      18.712  63.568  34.011  1.00  0.00     0.080 A 
HETATM    2  N1  UNL     1      18.072  64.582  34.655  1.00  0.00    -0.242 N 
ATOM      3  H1  UNL     1      17.484  65.292  34.219  1.00  0.00     0.196 HD
HETATM    4  O2  UNL     1      18.338  64.489  35.905  1.00  0.00    -0.155 OA
HETATM    5  N2  UNL     1      19.105  63.504  36.188  1.00  0.00    -0.224 N 
ATOM      6  H2  UNL     1      19.446  63.239  37.113  1.00  0.00     0.198 HD
HETATM    7  C5  UNL     1      19.377  62.873  34.992  1.00  0.00     0.148 A 
ENDROOT
BRANCH   1   8
HETATM    8  C3  UNL     1      18.677  63.317  32.583  1.00  0.00     0.072 C 
BRANCH   8   9
HETATM    9  C2  UNL     1      18.663  64.549  31.760  1.00  0.00     0.109 C 
BRANCH   9  10
HETATM   10  C1  UNL     1      17.259  64.917  31.383  1.00  0.00     0.220 C 
HETATM   11  O1  UNL     1      16.382  65.240  32.221  1.00  0.00    -0.273 OA
HETATM   12  N4  UNL     1      16.859  64.908  30.023  1.00  0.00    -0.349 N 
HETATM   13  C13 UNL     1      15.519  65.257  29.652  1.00  0.00     0.156 C 
HETATM   14  C21 UNL     1      17.811  64.542  29.009  1.00  0.00     0.156 C 
HETATM   15  C14 UNL     1      15.451  65.160  28.122  1.00  0.00     0.292 C 
HETATM   16  N5  UNL     1      15.837  63.831  27.773  1.00  0.00     0.097 N 
HETATM   17  C20 UNL     1      17.147  63.435  28.186  1.00  0.00     0.292 C 
BRANCH  16  18
HETATM   18  C15 UNL     1      15.682  63.491  26.384  1.00  0.00     0.337 C 
BRANCH  18  19
HETATM   19  C16 UNL     1      14.377  62.808  26.090  1.00  0.00     0.080 A 
HETATM   20  C17 UNL     1      13.382  63.279  25.274  1.00  0.00     0.036 A 
HETATM   21  C18 UNL     1      12.369  62.359  25.280  1.00  0.00     0.027 A 
HETATM   22  C19 UNL     1      12.782  61.336  26.113  1.00  0.00     0.142 A 
HETATM   23  O3  UNL     1      13.970  61.653  26.562  1.00  0.00    -0.325 OA
ENDBRANCH  18  19
ENDBRANCH  16  18
ENDBRANCH   9  10
ENDBRANCH   8   9
ENDBRANCH   1   8
BRANCH   7  24
HETATM   24  N3  UNL     1      20.089  61.841  34.976  1.00  0.00    -0.373 N 
ATOM     25  H3  UNL     1      19.508  61.007  34.891  1.00  0.00     0.161 HD
BRANCH  24  26
HETATM   26  C6  UNL     1      21.430  61.496  35.040  1.00  0.00     0.127 C 
BRANCH  26  27
HETATM   27  C7  UNL     1      21.900  61.184  36.478  1.00  0.00     0.022 C 
HETATM   28  C8  UNL     1      22.868  60.030  36.418  1.00  0.00     0.007 C 
HETATM   29  C9  UNL     1      24.205  60.461  35.841  1.00  0.00     0.001 C 
HETATM   30  C10 UNL     1      24.762  61.513  36.753  1.00  0.00     0.002 C 
HETATM   31  C11 UNL     1      23.861  62.720  36.786  1.00  0.00     0.020 C 
HETATM   32  C12 UNL     1      22.443  62.388  37.154  1.00  0.00     0.088 C 
HETATM   33 CL1  UNL     1      22.295  62.260  38.933  1.00  0.00    -0.125 Cl
ENDBRANCH  26  27
ENDBRANCH  24  26
ENDBRANCH   7  24
TORSDOF 8
ENDMDL
MODEL 3
REMARK VINA RESULT: -9.554890257      1.852      2.068
REMARK  8 active torsions:
REMARK  status: ('A' for Active; 'I' for Inactive)
REMARK    1  A    between atoms: C1_2  and  C2_3 
REMARK       I    between atoms: C1_2  and  N4_22 
REMARK    2  A    between atoms: C2_3  and  C3_4 
REMARK    3  A    between atoms: C3_4  and  C4_5 
REMARK    4  A    between atoms: C5_11  and  N3_12 
REMARK    5  A    between atoms: N3_12  and  C6_14 
REMARK    6  A    between atoms: C6_14  and  C7_15 
REMARK    7  A    between atoms: N5_25  and  C15_26 
REMARK    8  A    between atoms: C15_26  and  C16_27 
ROOT
HETATM    1  C4  UNL     1      20.480  62.873  33.213  1.00  0.00     0.080 A 
HETATM    2  N1  UNL     1      21.118  62.222  32.203  1.00  0.00    -0.242 N 
ATOM      3  H1  UNL     1      20.747  62.057  31.267  1.00  0.00     0.196 HD
HETATM    4  O2  UNL     1      22.268  61.850  32.633  1.00  0.00    -0.155 OA
HETATM    5  N2  UNL     1      22.485  62.184  33.849  1.00  0.00    -0.224 N 
ATOM      6  H2  UNL     1      23.326  61.994  34.396  1.00  0.00     0.198 HD
HETATM    7  C5  UNL     1      21.355  62.851  34.273  1.00  0.00     0.148 A 
ENDROOT
BRANCH   1   8
HETATM    8  C3  UNL     1      19.151  63.448  33.143  1.00  0.00     0.072 C 
BRANCH   8   9
HETATM    9  C2  UNL     1      19.024  64.537  32.145  1.00  0.00     0.109 C 
BRANCH   9  10
HETATM   10  C1  UNL     1      17.583  64.779  31.808  1.00  0.00     0.220 C 
HETATM   11  O1  UNL     1      16.686  64.920  32.675  1.00  0.00    -0.273 OA
HETATM   12  N4  UNL     1      17.168  64.856  30.455  1.00  0.00    -0.349 N 
HETATM   13  C13 UNL     1      15.794  65.086  30.122  1.00  0.00     0.156 C 
HETATM   14  C21 UNL     1      18.142  64.699  29.408  1.00  0.00     0.156 C 
HETATM   15  C14 UNL     1      15.716  65.130  28.589  1.00  0.00     0.292 C 
HETATM   16  N5  UNL     1      16.244  63.893  28.112  1.00  0.00     0.097 N 
HETATM   17  C20 UNL     1      17.595  63.608  28.482  1.00  0.00     0.292 C 
BRANCH  16  18
HETATM   18  C15 UNL     1      16.110  63.672  26.697  1.00  0.00     0.337 C 
BRANCH  18  19
HETATM   19  C16 UNL     1      14.804  63.031  26.326  1.00  0.00     0.080 A 
HETATM   20  C17 UNL     1      13.859  63.550  25.480  1.00  0.00     0.036 A 
HETATM   21  C18 UNL     1      12.825  62.655  25.413  1.00  0.00     0.027 A 
HETATM   22  C19 UNL     1      13.175  61.599  26.234  1.00  0.00     0.142 A 
HETATM   23  O3  UNL     1      14.349  61.874  26.745  1.00  0.00    -0.325 OA
ENDBRANCH  18  19
ENDBRANCH  16  18
ENDBRANCH   9  10
ENDBRANCH   8   9
ENDBRANCH   1   8
BRANCH   7  24
HETATM   24  N3  UNL     1      21.305  63.325  35.433  1.00  0.00    -0.373 N 
ATOM     25  H3  UNL     1      21.835  64.195  35.487  1.00  0.00     0.161 HD
BRANCH  24  26
HETATM   26  C6  UNL     1      20.744  63.019  36.663  1.00  0.00     0.127 C 
BRANCH  26  27
HETATM   27  C7  UNL     1      21.788  62.966  37.800  1.00  0.00     0.022 C 
HETATM   28  C8  UNL     1      21.092  62.512  39.058  1.00  0.00     0.007 C 
HETATM   29  C9  UNL     1      20.756  61.033  39.001  1.00  0.00     0.001 C 
HETATM   30  C10 UNL     1      22.052  60.290  38.871  1.00  0.00     0.002 C 
HETATM   31  C11 UNL     1      22.750  60.656  37.587  1.00  0.00     0.020 C 
HETATM   32  C12 UNL     1      22.962  62.135  37.432  1.00  0.00     0.088 C 
HETATM   33 CL1  UNL     1      24.422  62.634  38.338  1.00  0.00    -0.125 Cl
ENDBRANCH  26  27
ENDBRANCH  24  26
ENDBRANCH   7  24
TORSDOF 8
ENDMDL
MODEL 4
REMARK VINA RESULT: -9.494958168      3.259     10.519
REMARK  8 active torsions:
REMARK  status: ('A' for Active; 'I' for Inactive)
REMARK    1  A    between atoms: C1_2  and  C2_3 
REMARK       I    between atoms: C1_2  and  N4_22 
REMARK    2  A    between atoms: C2_3  and  C3_4 
REMARK    3  A    between atoms: C3_4  and  C4_5 
REMARK    4  A    between atoms: C5_11  and  N3_12 
REMARK    5  A    between atoms: N3_12  and  C6_14 
REMARK    6  A    between atoms: C6_14  and  C7_15 
REMARK    7  A    between atoms: N5_25  and  C15_26 
REMARK    8  A    between atoms: C15_26  and  C16_27 
ROOT
HETATM    1  C4  UNL     1      16.984  63.732  28.844  1.00  0.00     0.080 A 
HETATM    2  N1  UNL     1      18.157  63.766  28.155  1.00  0.00    -0.242 N 
ATOM      3  H1  UNL     1      18.961  64.356  28.369  1.00  0.00     0.196 HD
HETATM    4  O2  UNL     1      18.075  62.927  27.189  1.00  0.00    -0.155 OA
HETATM    5  N2  UNL     1      16.953  62.314  27.145  1.00  0.00    -0.224 N 
ATOM      6  H2  UNL     1      16.667  61.608  26.466  1.00  0.00     0.198 HD
HETATM    7  C5  UNL     1      16.207  62.800  28.199  1.00  0.00     0.148 A 
ENDROOT
BRANCH   1   8
HETATM    8  C3  UNL     1      16.662  64.534  30.008  1.00  0.00     0.072 C 
BRANCH   8   9
HETATM    9  C2  UNL     1      17.839  64.875  30.843  1.00  0.00     0.109 C 
BRANCH   9  10
HETATM   10  C1  UNL     1      17.524  64.699  32.298  1.00  0.00     0.220 C 
HETATM   11  O1  UNL     1      16.577  65.287  32.875  1.00  0.00    -0.273 OA
HETATM   12  N4  UNL     1      18.314  63.838  33.101  1.00  0.00    -0.349 N 
HETATM   13  C13 UNL     1      18.022  63.664  34.493  1.00  0.00     0.156 C 
HETATM   14  C21 UNL     1      19.420  63.136  32.508  1.00  0.00     0.156 C 
HETATM   15  C14 UNL     1      19.052  62.662  35.033  1.00  0.00     0.292 C 
HETATM   16  N5  UNL     1      20.343  63.206  34.760  1.00  0.00     0.097 N 
HETATM   17  C20 UNL     1      20.637  63.448  33.383  1.00  0.00     0.292 C 
BRANCH  16  18
HETATM   18  C15 UNL     1      21.447  62.486  35.335  1.00  0.00     0.337 C 
BRANCH  18  19
HETATM   19  C16 UNL     1      21.253  62.183  36.793  1.00  0.00     0.080 A 
HETATM   20  C17 UNL     1      21.135  60.937  37.353  1.00  0.00     0.036 A 
HETATM   21  C18 UNL     1      20.972  61.101  38.701  1.00  0.00     0.027 A 
HETATM   22  C19 UNL     1      20.995  62.465  38.930  1.00  0.00     0.142 A 
HETATM   23  O3  UNL     1      21.163  63.052  37.772  1.00  0.00    -0.325 OA
ENDBRANCH  18  19
ENDBRANCH  16  18
ENDBRANCH   9  10
ENDBRANCH   8   9
ENDBRANCH   1   8
BRANCH   7  24
HETATM   24  N3  UNL     1      15.060  62.344  28.417  1.00  0.00    -0.373 N 
ATOM     25  H3  UNL     1      15.099  61.592  29.105  1.00  0.00     0.161 HD
BRANCH  24  26
HETATM   26  C6  UNL     1      13.755  62.558  28.003  1.00  0.00     0.127 C 
BRANCH  26  27
HETATM   27  C7  UNL     1      13.169  63.886  28.530  1.00  0.00     0.022 C 
HETATM   28  C8  UNL     1      12.112  64.354  27.562  1.00  0.00     0.007 C 
HETATM   29  C9  UNL     1      10.857  63.507  27.665  1.00  0.00     0.001 C 
HETATM   30  C10 UNL     1      10.333  63.659  29.062  1.00  0.00     0.002 C 
HETATM   31  C11 UNL     1      11.329  63.134  30.063  1.00  0.00     0.020 C 
HETATM   32  C12 UNL     1      12.688  63.760  29.928  1.00  0.00     0.088 C 
HETATM   33 CL1  UNL     1      12.711  65.339  30.770  1.00  0.00    -0.125 Cl
ENDBRANCH  26  27
ENDBRANCH  24  26
ENDBRANCH   7  24
TORSDOF 8
ENDMDL
MODEL 5
REMARK VINA RESULT: -9.453156075      3.738     10.380
REMARK  8 active torsions:
REMARK  status: ('A' for Active; 'I' for Inactive)
REMARK    1  A    between atoms: C1_2  and  C2_3 
REMARK       I    between atoms: C1_2  and  N4_22 
REMARK    2  A    between atoms: C2_3  and  C3_4 
REMARK    3  A    between atoms: C3_4  and  C4_5 
REMARK    4  A    between atoms: C5_11  and  N3_12 
REMARK    5  A    between atoms: N3_12  and  C6_14 
REMARK    6  A    between atoms: C6_14  and  C7_15 
REMARK    7  A    between atoms: N5_25  and  C15_26 
REMARK    8  A    between atoms: C15_26  and  C16_27 
ROOT
HETATM    1  C4  UNL     1      14.494  67.118  31.891  1.00  0.00     0.080 A 
HETATM    2  N1  UNL     1      14.789  68.419  32.154  1.00  0.00    -0.242 N 
ATOM      3  H1  UNL     1      15.713  68.848  32.098  1.00  0.00     0.196 HD
HETATM    4  O2  UNL     1      13.703  69.014  32.485  1.00  0.00    -0.155 OA
HETATM    5  N2  UNL     1      12.680  68.244  32.476  1.00  0.00    -0.224 N 
ATOM      6  H2  UNL     1      11.719  68.499  32.703  1.00  0.00     0.198 HD
HETATM    7  C5  UNL     1      13.140  67.000  32.096  1.00  0.00     0.148 A 
ENDROOT
BRANCH   1   8
HETATM    8  C3  UNL     1      15.443  66.099  31.487  1.00  0.00     0.072 C 
BRANCH   8   9
HETATM    9  C2  UNL     1      16.116  65.426  32.623  1.00  0.00     0.109 C 
BRANCH   9  10
HETATM   10  C1  UNL     1      17.498  64.989  32.235  1.00  0.00     0.220 C 
HETATM   11  O1  UNL     1      17.883  64.895  31.044  1.00  0.00    -0.273 OA
HETATM   12  N4  UNL     1      18.447  64.652  33.233  1.00  0.00    -0.349 N 
HETATM   13  C13 UNL     1      19.769  64.232  32.874  1.00  0.00     0.156 C 
HETATM   14  C21 UNL     1      18.073  64.732  34.619  1.00  0.00     0.156 C 
HETATM   15  C14 UNL     1      20.518  63.974  34.189  1.00  0.00     0.292 C 
HETATM   16  N5  UNL     1      19.762  63.003  34.912  1.00  0.00     0.097 N 
HETATM   17  C20 UNL     1      18.418  63.371  35.230  1.00  0.00     0.292 C 
BRANCH  16  18
HETATM   18  C15 UNL     1      20.386  62.505  36.109  1.00  0.00     0.337 C 
BRANCH  18  19
HETATM   19  C16 UNL     1      21.716  61.859  35.849  1.00  0.00     0.080 A 
HETATM   20  C17 UNL     1      21.927  60.549  35.504  1.00  0.00     0.036 A 
HETATM   21  C18 UNL     1      23.276  60.369  35.361  1.00  0.00     0.027 A 
HETATM   22  C19 UNL     1      23.860  61.594  35.627  1.00  0.00     0.142 A 
HETATM   23  O3  UNL     1      22.894  62.433  35.908  1.00  0.00    -0.325 OA
ENDBRANCH  18  19
ENDBRANCH  16  18
ENDBRANCH   9  10
ENDBRANCH   8   9
ENDBRANCH   1   8
BRANCH   7  24
HETATM   24  N3  UNL     1      12.335  66.047  31.970  1.00  0.00    -0.373 N 
ATOM     25  H3  UNL     1      12.207  65.568  32.861  1.00  0.00     0.161 HD
BRANCH  24  26
HETATM   26  C6  UNL     1      11.568  65.450  30.982  1.00  0.00     0.127 C 
BRANCH  26  27
HETATM   27  C7  UNL     1      12.275  64.248  30.319  1.00  0.00     0.022 C 
HETATM   28  C8  UNL     1      11.264  63.144  30.144  1.00  0.00     0.007 C 
HETATM   29  C9  UNL     1      10.286  63.463  29.027  1.00  0.00     0.001 C 
HETATM   30  C10 UNL     1      11.084  63.592  27.764  1.00  0.00     0.002 C 
HETATM   31  C11 UNL     1      12.061  64.736  27.866  1.00  0.00     0.020 C 
HETATM   32  C12 UNL     1      12.963  64.636  29.063  1.00  0.00     0.088 C 
HETATM   33 CL1  UNL     1      14.327  63.536  28.700  1.00  0.00    -0.125 Cl
ENDBRANCH  26  27
ENDBRANCH  24  26
ENDBRANCH   7  24
TORSDOF 8
ENDMDL
