MODEL 1
REMARK VINA RESULT: -9.523552772      0.000      0.000
REMARK  7 active torsions:
REMARK  status: ('A' for Active; 'I' for Inactive)
REMARK    1  A    between atoms: C4_5  and  C5_6 
REMARK    2  A    between atoms: N1_8  and  C7_9 
REMARK    3  A    between atoms: C7_9  and  C8_10 
REMARK    4  A    between atoms: C8_10  and  N2_11 
REMARK       I    between atoms: N2_11  and  C9_13 
REMARK    5  A    between atoms: C9_13  and  C10_15 
REMARK    6  A    between atoms: C12_18  and  C13_19 
REMARK    7  A    between atoms: N3_22  and  C16_23 
ROOT
HETATM    1  C10 UNL     1      17.457  64.838  29.538  1.00  0.00     0.107 A 
HETATM    2  C11 UNL     1      16.160  65.215  29.810  1.00  0.00     0.086 A 
HETATM    3  S1  UNL     1      16.166  65.301  31.515  1.00  0.00    -0.086 SA
HETATM    4  C12 UNL     1      17.792  64.861  31.785  1.00  0.00     0.056 A 
HETATM    5  N4  UNL     1      18.243  64.672  30.560  1.00  0.00    -0.349 N 
ATOM      6  H4  UNL     1      19.213  64.393  30.414  1.00  0.00     0.166 HD
ENDROOT
BRANCH   1   7
HETATM    7  C9  UNL     1      17.927  64.638  28.139  1.00  0.00     0.268 C 
HETATM    8  N2  UNL     1      17.451  65.470  27.127  1.00  0.00    -0.354 N 
ATOM      9  H2  UNL     1      16.790  66.211  27.363  1.00  0.00     0.162 HD
HETATM   10  O1  UNL     1      18.739  63.726  27.905  1.00  0.00    -0.266 OA
BRANCH   8  11
HETATM   11  C8  UNL     1      17.866  65.312  25.762  1.00  0.00     0.153 C 
BRANCH  11  12
HETATM   12  C7  UNL     1      16.658  65.267  24.865  1.00  0.00     0.292 C 
BRANCH  12  13
HETATM   13  N1  UNL     1      15.498  65.282  25.735  1.00  0.00     0.099 N 
HETATM   14  C5  UNL     1      14.507  64.157  25.541  1.00  0.00     0.258 A 
HETATM   15  C6  UNL     1      14.210  65.491  25.121  1.00  0.00     0.309 A 
BRANCH  14  16
HETATM   16  C4  UNL     1      14.096  63.577  26.874  1.00  0.00     0.063 A 
HETATM   17  C2  UNL     1      13.277  62.350  26.946  1.00  0.00     0.106 A 
HETATM   18  C1  UNL     1      12.824  61.640  25.694  1.00  0.00     0.052 C 
HETATM   19  F1  UNL     1      12.430  62.200  28.026  1.00  0.00    -0.243 F 
HETATM   20  C3  UNL     1      14.745  62.262  27.222  1.00  0.00     0.053 A 
ENDBRANCH  14  16
ENDBRANCH  12  13
ENDBRANCH  11  12
ENDBRANCH   8  11
ENDBRANCH   1   7
BRANCH   4  21
HETATM   21  C13 UNL     1      18.550  64.717  33.084  1.00  0.00     0.052 C 
HETATM   22  C14 UNL     1      18.039  63.513  33.814  1.00  0.00     0.056 C 
HETATM   23  C15 UNL     1      18.842  63.366  35.085  1.00  0.00     0.064 C 
HETATM   24  N3  UNL     1      20.186  63.108  34.762  1.00  0.00    -0.369 N 
HETATM   25  C21 UNL     1      20.727  63.565  33.553  1.00  0.00     0.064 C 
HETATM   26  C22 UNL     1      20.037  64.684  32.867  1.00  0.00     0.056 C 
BRANCH  24  27
HETATM   27  C16 UNL     1      20.808  62.010  35.391  1.00  0.00     0.092 C 
HETATM   28  C17 UNL     1      22.292  62.012  35.097  1.00  0.00     0.052 C 
HETATM   29  C18 UNL     1      23.013  61.404  36.281  1.00  0.00     0.169 C 
HETATM   30  O2  UNL     1      22.298  60.273  36.667  1.00  0.00    -0.391 OA
HETATM   31  C19 UNL     1      21.133  60.574  37.334  1.00  0.00     0.169 C 
HETATM   32  C20 UNL     1      20.588  61.908  36.868  1.00  0.00     0.052 C 
ENDBRANCH  24  27
ENDBRANCH   4  21
TORSDOF 7
ENDMDL
MODEL 2
REMARK VINA RESULT: -9.434444933      2.046      2.540
REMARK  7 active torsions:
REMARK  status: ('A' for Active; 'I' for Inactive)
REMARK    1  A    between atoms: C4_5  and  C5_6 
REMARK    2  A    between atoms: N1_8  and  C7_9 
REMARK    3  A    between atoms: C7_9  and  C8_10 
REMARK    4  A    between atoms: C8_10  and  N2_11 
REMARK       I    between atoms: N2_11  and  C9_13 
REMARK    5  A    between atoms: C9_13  and  C10_15 
REMARK    6  A    between atoms: C12_18  and  C13_19 
REMARK    7  A    between atoms: N3_22  and  C16_23 
ROOT
HETATM    1  C10 UNL     1      17.761  64.152  30.386  1.00  0.00     0.107 A 
HETATM    2  C11 UNL     1      16.811  64.996  30.918  1.00  0.00     0.086 A 
HETATM    3  S1  UNL     1      17.409  65.252  32.496  1.00  0.00    -0.086 SA
HETATM    4  C12 UNL     1      18.812  64.288  32.395  1.00  0.00     0.056 A 
HETATM    5  N4  UNL     1      18.749  63.822  31.163  1.00  0.00    -0.349 N 
ATOM      6  H4  UNL     1      19.479  63.199  30.818  1.00  0.00     0.166 HD
ENDROOT
BRANCH   1   7
HETATM    7  C9  UNL     1      17.653  63.650  28.987  1.00  0.00     0.268 C 
HETATM    8  N2  UNL     1      16.464  63.061  28.558  1.00  0.00    -0.354 N 
ATOM      9  H2  UNL     1      15.682  62.989  29.209  1.00  0.00     0.162 HD
HETATM   10  O1  UNL     1      18.632  63.769  28.232  1.00  0.00    -0.266 OA
BRANCH   8  11
HETATM   11  C8  UNL     1      16.313  62.554  27.223  1.00  0.00     0.153 C 
BRANCH  11  12
HETATM   12  C7  UNL     1      14.857  62.301  26.938  1.00  0.00     0.292 C 
BRANCH  12  13
HETATM   13  N1  UNL     1      14.124  63.410  27.517  1.00  0.00     0.099 N 
HETATM   14  C5  UNL     1      12.683  63.138  27.882  1.00  0.00     0.258 A 
HETATM   15  C6  UNL     1      13.024  63.949  26.756  1.00  0.00     0.309 A 
BRANCH  14  16
HETATM   16  C4  UNL     1      12.372  63.682  29.256  1.00  0.00     0.063 A 
HETATM   17  C2  UNL     1      10.977  63.926  29.676  1.00  0.00     0.106 A 
HETATM   18  C1  UNL     1       9.821  63.643  28.747  1.00  0.00     0.052 C 
HETATM   19  F1  UNL     1      10.744  64.938  30.586  1.00  0.00    -0.243 F 
HETATM   20  C3  UNL     1      11.687  62.711  30.184  1.00  0.00     0.053 A 
ENDBRANCH  14  16
ENDBRANCH  12  13
ENDBRANCH  11  12
ENDBRANCH   8  11
ENDBRANCH   1   7
BRANCH   4  21
HETATM   21  C13 UNL     1      19.875  64.018  33.434  1.00  0.00     0.052 C 
HETATM   22  C14 UNL     1      19.248  64.067  34.794  1.00  0.00     0.056 C 
HETATM   23  C15 UNL     1      20.319  63.750  35.811  1.00  0.00     0.064 C 
HETATM   24  N3  UNL     1      20.773  62.433  35.617  1.00  0.00    -0.369 N 
HETATM   25  C21 UNL     1      20.707  61.837  34.351  1.00  0.00     0.064 C 
HETATM   26  C22 UNL     1      20.605  62.731  33.172  1.00  0.00     0.056 C 
BRANCH  24  27
HETATM   27  C16 UNL     1      20.816  61.587  36.743  1.00  0.00     0.092 C 
HETATM   28  C17 UNL     1      21.995  60.644  36.644  1.00  0.00     0.052 C 
HETATM   29  C18 UNL     1      22.479  60.336  38.044  1.00  0.00     0.169 C 
HETATM   30  O2  UNL     1      21.355  60.093  38.828  1.00  0.00    -0.391 OA
HETATM   31  C19 UNL     1      20.666  61.240  39.152  1.00  0.00     0.169 C 
HETATM   32  C20 UNL     1      20.841  62.283  38.069  1.00  0.00     0.052 C 
ENDBRANCH  24  27
ENDBRANCH   4  21
TORSDOF 7
ENDMDL
MODEL 3
REMARK VINA RESULT: -9.375213765      2.660      3.530
REMARK  7 active torsions:
REMARK  status: ('A' for Active; 'I' for Inactive)
REMARK    1  A    between atoms: C4_5  and  C5_6 
REMARK    2  A    between atoms: N1_8  and  C7_9 
REMARK    3  A    between atoms: C7_9  and  C8_10 
REMARK    4  A    between atoms: C8_10  and  N2_11 
REMARK       I    between atoms: N2_11  and  C9_13 
REMARK    5  A    between atoms: C9_13  and  C10_15 
REMARK    6  A    between atoms: C12_18  and  C13_19 
REMARK    7  A    between atoms: N3_22  and  C16_23 
ROOT
HETATM    1  C10 UNL     1      16.213  65.394  32.033  1.00  0.00     0.107 A 
HETATM    2  C11 UNL     1      16.669  65.059  30.777  1.00  0.00     0.086 A 
HETATM    3  S1  UNL     1      18.278  64.587  31.099  1.00  0.00    -0.086 SA
HETATM    4  C12 UNL     1      18.283  64.838  32.786  1.00  0.00     0.056 A 
HETATM    5  N4  UNL     1      17.057  65.268  33.013  1.00  0.00    -0.349 N 
ATOM      6  H4  UNL     1      16.770  65.503  33.963  1.00  0.00     0.166 HD
ENDROOT
BRANCH   1   7
HETATM    7  C9  UNL     1      14.819  65.874  32.246  1.00  0.00     0.268 C 
HETATM    8  N2  UNL     1      13.803  65.431  31.402  1.00  0.00    -0.354 N 
ATOM      9  H2  UNL     1      14.029  64.777  30.652  1.00  0.00     0.162 HD
HETATM   10  O1  UNL     1      14.595  66.664  33.179  1.00  0.00    -0.266 OA
BRANCH   8  11
HETATM   11  C8  UNL     1      12.445  65.870  31.561  1.00  0.00     0.153 C 
BRANCH  11  12
HETATM   12  C7  UNL     1      11.555  65.129  30.599  1.00  0.00     0.292 C 
BRANCH  12  13
HETATM   13  N1  UNL     1      12.305  63.972  30.151  1.00  0.00     0.099 N 
HETATM   14  C5  UNL     1      12.224  63.657  28.675  1.00  0.00     0.258 A 
HETATM   15  C6  UNL     1      11.554  62.849  29.646  1.00  0.00     0.309 A 
BRANCH  14  16
HETATM   16  C4  UNL     1      13.596  63.354  28.122  1.00  0.00     0.063 A 
HETATM   17  C2  UNL     1      13.761  62.486  26.937  1.00  0.00     0.106 A 
HETATM   18  C1  UNL     1      12.567  61.874  26.246  1.00  0.00     0.052 C 
HETATM   19  F1  UNL     1      14.922  61.746  26.835  1.00  0.00    -0.243 F 
HETATM   20  C3  UNL     1      13.889  63.968  26.776  1.00  0.00     0.053 A 
ENDBRANCH  14  16
ENDBRANCH  12  13
ENDBRANCH  11  12
ENDBRANCH   8  11
ENDBRANCH   1   7
BRANCH   4  21
HETATM   21  C13 UNL     1      19.392  64.628  33.790  1.00  0.00     0.052 C 
HETATM   22  C14 UNL     1      18.966  63.584  34.775  1.00  0.00     0.056 C 
HETATM   23  C15 UNL     1      20.108  63.361  35.739  1.00  0.00     0.064 C 
HETATM   24  N3  UNL     1      21.212  62.838  35.042  1.00  0.00    -0.369 N 
HETATM   25  C21 UNL     1      21.391  63.117  33.681  1.00  0.00     0.064 C 
HETATM   26  C22 UNL     1      20.700  64.305  33.123  1.00  0.00     0.056 C 
BRANCH  24  27
HETATM   27  C16 UNL     1      21.823  61.680  35.565  1.00  0.00     0.092 C 
HETATM   28  C17 UNL     1      22.939  61.222  34.653  1.00  0.00     0.052 C 
HETATM   29  C18 UNL     1      24.006  60.561  35.499  1.00  0.00     0.169 C 
HETATM   30  O2  UNL     1      23.357  59.732  36.411  1.00  0.00    -0.391 OA
HETATM   31  C19 UNL     1      22.756  60.425  37.436  1.00  0.00     0.169 C 
HETATM   32  C20 UNL     1      22.337  61.803  36.966  1.00  0.00     0.052 C 
ENDBRANCH  24  27
ENDBRANCH   4  21
TORSDOF 7
ENDMDL
MODEL 4
REMARK VINA RESULT: -9.264567698      3.377      4.068
REMARK  7 active torsions:
REMARK  status: ('A' for Active; 'I' for Inactive)
REMARK    1  A    between atoms: C4_5  and  C5_6 
REMARK    2  A    between atoms: N1_8  and  C7_9 
REMARK    3  A    between atoms: C7_9  and  C8_10 
REMARK    4  A    between atoms: C8_10  and  N2_11 
REMARK       I    between atoms: N2_11  and  C9_13 
REMARK    5  A    between atoms: C9_13  and  C10_15 
REMARK    6  A    between atoms: C12_18  and  C13_19 
REMARK    7  A    between atoms: N3_22  and  C16_23 
ROOT
HETATM    1  C10 UNL     1      16.180  65.584  31.811  1.00  0.00     0.107 A 
HETATM    2  C11 UNL     1      16.379  65.119  30.530  1.00  0.00     0.086 A 
HETATM    3  S1  UNL     1      17.894  64.345  30.665  1.00  0.00    -0.086 SA
HETATM    4  C12 UNL     1      18.187  64.649  32.317  1.00  0.00     0.056 A 
HETATM    5  N4  UNL     1      17.114  65.325  32.677  1.00  0.00    -0.349 N 
ATOM      6  H4  UNL     1      17.017  65.647  33.640  1.00  0.00     0.166 HD
ENDROOT
BRANCH   1   7
HETATM    7  C9  UNL     1      14.951  66.342  32.177  1.00  0.00     0.268 C 
HETATM    8  N2  UNL     1      14.801  67.659  31.744  1.00  0.00    -0.354 N 
ATOM      9  H2  UNL     1      15.536  68.082  31.177  1.00  0.00     0.162 HD
HETATM   10  O1  UNL     1      14.082  65.778  32.864  1.00  0.00    -0.266 OA
BRANCH   8  11
HETATM   11  C8  UNL     1      13.640  68.435  32.077  1.00  0.00     0.153 C 
BRANCH  11  12
HETATM   12  C7  UNL     1      12.712  68.495  30.893  1.00  0.00     0.292 C 
BRANCH  12  13
HETATM   13  N1  UNL     1      11.693  67.487  31.117  1.00  0.00     0.099 N 
HETATM   14  C5  UNL     1      11.513  66.467  30.016  1.00  0.00     0.258 A 
HETATM   15  C6  UNL     1      10.548  67.496  30.242  1.00  0.00     0.309 A 
BRANCH  14  16
HETATM   16  C4  UNL     1      11.420  65.075  30.594  1.00  0.00     0.063 A 
HETATM   17  C2  UNL     1      11.114  63.916  29.730  1.00  0.00     0.106 A 
HETATM   18  C1  UNL     1      10.883  64.085  28.249  1.00  0.00     0.052 C 
HETATM   19  F1  UNL     1      10.443  62.849  30.295  1.00  0.00    -0.243 F 
HETATM   20  C3  UNL     1      12.525  64.138  30.176  1.00  0.00     0.053 A 
ENDBRANCH  14  16
ENDBRANCH  12  13
ENDBRANCH  11  12
ENDBRANCH   8  11
ENDBRANCH   1   7
BRANCH   4  21
HETATM   21  C13 UNL     1      19.367  64.256  33.176  1.00  0.00     0.052 C 
HETATM   22  C14 UNL     1      18.990  64.411  34.618  1.00  0.00     0.056 C 
HETATM   23  C15 UNL     1      20.169  63.969  35.455  1.00  0.00     0.064 C 
HETATM   24  N3  UNL     1      20.408  62.600  35.240  1.00  0.00    -0.369 N 
HETATM   25  C21 UNL     1      20.052  61.998  34.026  1.00  0.00     0.064 C 
HETATM   26  C22 UNL     1      19.868  62.878  32.846  1.00  0.00     0.056 C 
BRANCH  24  27
HETATM   27  C16 UNL     1      20.531  61.774  36.375  1.00  0.00     0.092 C 
HETATM   28  C17 UNL     1      21.527  60.667  36.110  1.00  0.00     0.052 C 
HETATM   29  C18 UNL     1      22.205  60.312  37.416  1.00  0.00     0.169 C 
HETATM   30  O2  UNL     1      21.215  60.250  38.394  1.00  0.00    -0.391 OA
HETATM   31  C19 UNL     1      20.767  61.491  38.786  1.00  0.00     0.169 C 
HETATM   32  C20 UNL     1      20.891  62.480  37.646  1.00  0.00     0.052 C 
ENDBRANCH  24  27
ENDBRANCH   4  21
TORSDOF 7
ENDMDL
MODEL 5
REMARK VINA RESULT: -9.241331927      1.918      2.443
REMARK  7 active torsions:
REMARK  status: ('A' for Active; 'I' for Inactive)
REMARK    1  A    between atoms: C4_5  and  C5_6 
REMARK    2  A    between atoms: N1_8  and  C7_9 
REMARK    3  A    between atoms: C7_9  and  C8_10 
REMARK    4  A    between atoms: C8_10  and  N2_11 
REMARK       I    between atoms: N2_11  and  C9_13 
REMARK    5  A    between atoms: C9_13  and  C10_15 
REMARK    6  A    between atoms: C12_18  and  C13_19 
REMARK    7  A    between atoms: N3_22  and  C16_23 
ROOT
HETATM    1  C10 UNL     1      17.214  64.411  30.388  1.00  0.00     0.107 A 
HETATM    2  C11 UNL     1      16.127  65.147  30.806  1.00  0.00     0.086 A 
HETATM    3  S1  UNL     1      16.609  65.631  32.371  1.00  0.00    -0.086 SA
HETATM    4  C12 UNL     1      18.141  64.883  32.407  1.00  0.00     0.056 A 
HETATM    5  N4  UNL     1      18.204  64.304  31.224  1.00  0.00    -0.349 N 
ATOM      6  H4  UNL     1      19.032  63.770  30.964  1.00  0.00     0.166 HD
ENDROOT
BRANCH   1   7
HETATM    7  C9  UNL     1      17.245  63.775  29.041  1.00  0.00     0.268 C 
HETATM    8  N2  UNL     1      16.166  62.998  28.623  1.00  0.00    -0.354 N 
ATOM      9  H2  UNL     1      15.367  62.881  29.246  1.00  0.00     0.162 HD
HETATM   10  O1  UNL     1      18.239  63.955  28.317  1.00  0.00    -0.266 OA
BRANCH   8  11
HETATM   11  C8  UNL     1      16.152  62.357  27.338  1.00  0.00     0.153 C 
BRANCH  11  12
HETATM   12  C7  UNL     1      14.740  62.292  26.818  1.00  0.00     0.292 C 
BRANCH  12  13
HETATM   13  N1  UNL     1      14.044  63.436  27.374  1.00  0.00     0.099 N 
HETATM   14  C5  UNL     1      12.601  63.210  27.765  1.00  0.00     0.258 A 
HETATM   15  C6  UNL     1      12.948  63.980  26.612  1.00  0.00     0.309 A 
BRANCH  14  16
HETATM   16  C4  UNL     1      12.322  63.801  29.127  1.00  0.00     0.063 A 
HETATM   17  C2  UNL     1      10.936  63.999  29.597  1.00  0.00     0.106 A 
HETATM   18  C1  UNL     1       9.757  63.621  28.733  1.00  0.00     0.052 C 
HETATM   19  F1  UNL     1      10.693  65.039  30.472  1.00  0.00    -0.243 F 
HETATM   20  C3  UNL     1      11.724  62.843  30.125  1.00  0.00     0.053 A 
ENDBRANCH  14  16
ENDBRANCH  12  13
ENDBRANCH  11  12
ENDBRANCH   8  11
ENDBRANCH   1   7
BRANCH   4  21
HETATM   21  C13 UNL     1      19.183  64.870  33.501  1.00  0.00     0.052 C 
HETATM   22  C14 UNL     1      18.702  63.999  34.620  1.00  0.00     0.056 C 
HETATM   23  C15 UNL     1      19.778  63.967  35.680  1.00  0.00     0.064 C 
HETATM   24  N3  UNL     1      20.932  63.358  35.155  1.00  0.00    -0.369 N 
HETATM   25  C21 UNL     1      21.199  63.406  33.781  1.00  0.00     0.064 C 
HETATM   26  C22 UNL     1      20.536  64.467  32.985  1.00  0.00     0.056 C 
BRANCH  24  27
HETATM   27  C16 UNL     1      21.519  62.319  35.906  1.00  0.00     0.092 C 
HETATM   28  C17 UNL     1      20.955  62.306  37.310  1.00  0.00     0.052 C 
HETATM   29  C18 UNL     1      20.954  60.879  37.811  1.00  0.00     0.169 C 
HETATM   30  O2  UNL     1      22.178  60.314  37.460  1.00  0.00    -0.391 OA
HETATM   31  C19 UNL     1      22.265  60.007  36.121  1.00  0.00     0.169 C 
HETATM   32  C20 UNL     1      21.405  60.951  35.307  1.00  0.00     0.052 C 
ENDBRANCH  24  27
ENDBRANCH   4  21
TORSDOF 7
ENDMDL
