MODEL 1
REMARK VINA RESULT: -9.948513858      0.000      0.000
REMARK  8 active torsions:
REMARK  status: ('A' for Active; 'I' for Inactive)
REMARK    1  A    between atoms: O1_2  and  C2_3 
REMARK    2  A    between atoms: C2_3  and  C3_4 
REMARK    3  A    between atoms: C3_4  and  C4_5 
REMARK    4  A    between atoms: C4_5  and  O2_6 
REMARK    5  A    between atoms: O2_6  and  C5_7 
REMARK    6  A    between atoms: C8_11  and  C9_12 
REMARK       I    between atoms: C9_12  and  N1_14 
REMARK    7  A    between atoms: N1_14  and  C10_16 
REMARK    8  A    between atoms: C13_19  and  N2_20 
ROOT
HETATM    1  C9  UNL     1      17.384  64.581  31.413  1.00  0.00     0.252 C 
HETATM    2  O3  UNL     1      18.224  64.601  30.478  1.00  0.00    -0.268 OA
HETATM    3  N1  UNL     1      17.815  64.276  32.737  1.00  0.00    -0.352 N 
ATOM      4  H1  UNL     1      17.136  64.250  33.498  1.00  0.00     0.163 HD
ENDROOT
BRANCH   3   5
HETATM    5  C10 UNL     1      19.226  63.999  33.011  1.00  0.00     0.084 C 
HETATM    6  C11 UNL     1      19.500  62.567  32.861  1.00  0.00     0.027 C 
HETATM    7  C12 UNL     1      20.744  62.039  33.540  1.00  0.00     0.038 C 
HETATM    8  C13 UNL     1      21.312  63.070  34.498  1.00  0.00     0.223 C 
HETATM    9  C21 UNL     1      20.073  63.501  35.302  1.00  0.00     0.038 C 
HETATM   10  C22 UNL     1      19.427  64.538  34.417  1.00  0.00     0.027 C 
BRANCH   8  11
HETATM   11  N2  UNL     1      22.277  62.563  35.397  1.00  0.00     0.093 N 
HETATM   12  C14 UNL     1      21.965  62.911  36.798  1.00  0.00     0.278 C 
HETATM   13  C15 UNL     1      23.119  62.391  37.624  1.00  0.00     0.099 C 
HETATM   14  C16 UNL     1      23.346  60.915  37.459  1.00  0.00     0.167 C 
HETATM   15  C17 UNL     1      23.457  60.534  35.985  1.00  0.00     0.099 C 
HETATM   16  O4  UNL     1      22.380  60.133  38.082  1.00  0.00    -0.353 OA
HETATM   17  O5  UNL     1      24.521  60.534  38.054  1.00  0.00    -0.353 OA
HETATM   18  C18 UNL     1      22.210  61.088  35.335  1.00  0.00     0.278 C 
HETATM   19  C19 UNL     1      22.737  60.203  39.429  1.00  0.00     0.197 C 
HETATM   20  C20 UNL     1      24.241  60.478  39.420  1.00  0.00     0.197 C 
ENDBRANCH   8  11
ENDBRANCH   3   5
BRANCH   1  21
HETATM   21  C8  UNL     1      15.997  64.878  31.154  1.00  0.00     0.040 A 
HETATM   22  C7  UNL     1      15.280  65.288  32.284  1.00  0.00     0.044 A 
HETATM   23  C6  UNL     1      13.908  65.501  32.270  1.00  0.00     0.069 A 
HETATM   24  C5  UNL     1      13.189  65.310  31.112  1.00  0.00     0.097 A 
HETATM   25 CL1  UNL     1      13.120  65.973  33.787  1.00  0.00    -0.081 Cl
HETATM   26  C25 UNL     1      13.926  64.903  29.990  1.00  0.00    -0.020 A 
HETATM   27  C23 UNL     1      15.290  64.693  30.005  1.00  0.00    -0.037 A 
HETATM   28  C26 UNL     1      13.212  64.689  28.722  1.00  0.00     0.052 C 
HETATM   29  C24 UNL     1      15.984  64.312  28.735  1.00  0.00     0.050 C 
BRANCH  24  30
HETATM   30  O2  UNL     1      11.865  65.499  31.055  1.00  0.00    -0.349 OA
BRANCH  30  31
HETATM   31  C4  UNL     1      11.009  66.524  30.676  1.00  0.00     0.178 C 
BRANCH  31  32
HETATM   32  C3  UNL     1      11.047  67.777  31.434  1.00  0.00     0.053 C 
BRANCH  32  33
HETATM   33  C2  UNL     1      12.220  68.652  31.304  1.00  0.00     0.169 C 
BRANCH  33  34
HETATM   34  O1  UNL     1      13.014  69.089  32.252  1.00  0.00    -0.396 OA
HETATM   35  C1  UNL     1      14.347  69.060  32.210  1.00  0.00     0.201 C 
ENDBRANCH  33  34
ENDBRANCH  32  33
ENDBRANCH  31  32
ENDBRANCH  30  31
ENDBRANCH  24  30
ENDBRANCH   1  21
TORSDOF 8
ENDMDL
MODEL 2
REMARK VINA RESULT: -9.731940221      1.173      2.236
REMARK  8 active torsions:
REMARK  status: ('A' for Active; 'I' for Inactive)
REMARK    1  A    between atoms: O1_2  and  C2_3 
REMARK    2  A    between atoms: C2_3  and  C3_4 
REMARK    3  A    between atoms: C3_4  and  C4_5 
REMARK    4  A    between atoms: C4_5  and  O2_6 
REMARK    5  A    between atoms: O2_6  and  C5_7 
REMARK    6  A    between atoms: C8_11  and  C9_12 
REMARK       I    between atoms: C9_12  and  N1_14 
REMARK    7  A    between atoms: N1_14  and  C10_16 
REMARK    8  A    between atoms: C13_19  and  N2_20 
ROOT
HETATM    1  C9  UNL     1      17.234  64.603  31.117  1.00  0.00     0.252 C 
HETATM    2  O3  UNL     1      18.058  64.548  30.170  1.00  0.00    -0.268 OA
HETATM    3  N1  UNL     1      17.640  64.205  32.424  1.00  0.00    -0.352 N 
ATOM      4  H1  UNL     1      16.973  64.240  33.195  1.00  0.00     0.163 HD
ENDROOT
BRANCH   3   5
HETATM    5  C10 UNL     1      19.009  63.747  32.667  1.00  0.00     0.084 C 
HETATM    6  C11 UNL     1      19.016  62.319  32.996  1.00  0.00     0.027 C 
HETATM    7  C12 UNL     1      20.237  61.794  33.717  1.00  0.00     0.038 C 
HETATM    8  C13 UNL     1      21.099  62.938  34.217  1.00  0.00     0.223 C 
HETATM    9  C21 UNL     1      20.076  63.850  34.918  1.00  0.00     0.038 C 
HETATM   10  C22 UNL     1      19.495  64.657  33.783  1.00  0.00     0.027 C 
BRANCH   8  11
HETATM   11  N2  UNL     1      22.083  62.560  35.158  1.00  0.00     0.093 N 
HETATM   12  C14 UNL     1      21.624  62.759  36.548  1.00  0.00     0.278 C 
HETATM   13  C15 UNL     1      22.800  62.407  37.430  1.00  0.00     0.099 C 
HETATM   14  C16 UNL     1      23.307  61.009  37.209  1.00  0.00     0.167 C 
HETATM   15  C17 UNL     1      23.579  60.747  35.730  1.00  0.00     0.099 C 
HETATM   16  O4  UNL     1      22.465  60.029  37.721  1.00  0.00    -0.353 OA
HETATM   17  O5  UNL     1      24.493  60.812  37.869  1.00  0.00    -0.353 OA
HETATM   18  C18 UNL     1      22.294  61.104  35.019  1.00  0.00     0.278 C 
HETATM   19  C19 UNL     1      22.717  60.079  39.092  1.00  0.00     0.197 C 
HETATM   20  C20 UNL     1      24.142  60.622  39.206  1.00  0.00     0.197 C 
ENDBRANCH   8  11
ENDBRANCH   3   5
BRANCH   1  21
HETATM   21  C8  UNL     1      15.892  65.077  30.890  1.00  0.00     0.040 A 
HETATM   22  C7  UNL     1      15.172  65.341  32.061  1.00  0.00     0.044 A 
HETATM   23  C6  UNL     1      13.828  65.686  32.059  1.00  0.00     0.069 A 
HETATM   24  C5  UNL     1      13.139  65.783  30.871  1.00  0.00     0.097 A 
HETATM   25 CL1  UNL     1      13.029  65.946  33.621  1.00  0.00    -0.081 Cl
HETATM   26  C25 UNL     1      13.878  65.519  29.708  1.00  0.00    -0.020 A 
HETATM   27  C23 UNL     1      15.214  65.177  29.712  1.00  0.00    -0.037 A 
HETATM   28  C26 UNL     1      13.197  65.613  28.408  1.00  0.00     0.052 C 
HETATM   29  C24 UNL     1      15.919  64.969  28.408  1.00  0.00     0.050 C 
BRANCH  24  30
HETATM   30  O2  UNL     1      11.841  66.108  30.823  1.00  0.00    -0.349 OA
BRANCH  30  31
HETATM   31  C4  UNL     1      10.637  65.490  31.129  1.00  0.00     0.178 C 
BRANCH  31  32
HETATM   32  C3  UNL     1      10.062  64.563  30.150  1.00  0.00     0.053 C 
BRANCH  32  33
HETATM   33  C2  UNL     1      10.602  63.199  30.059  1.00  0.00     0.169 C 
BRANCH  33  34
HETATM   34  O1  UNL     1      11.317  62.674  29.094  1.00  0.00    -0.396 OA
HETATM   35  C1  UNL     1      12.492  62.063  29.255  1.00  0.00     0.201 C 
ENDBRANCH  33  34
ENDBRANCH  32  33
ENDBRANCH  31  32
ENDBRANCH  30  31
ENDBRANCH  24  30
ENDBRANCH   1  21
TORSDOF 8
ENDMDL
MODEL 3
REMARK VINA RESULT: -9.692105924      2.218      2.929
REMARK  8 active torsions:
REMARK  status: ('A' for Active; 'I' for Inactive)
REMARK    1  A    between atoms: O1_2  and  C2_3 
REMARK    2  A    between atoms: C2_3  and  C3_4 
REMARK    3  A    between atoms: C3_4  and  C4_5 
REMARK    4  A    between atoms: C4_5  and  O2_6 
REMARK    5  A    between atoms: O2_6  and  C5_7 
REMARK    6  A    between atoms: C8_11  and  C9_12 
REMARK       I    between atoms: C9_12  and  N1_14 
REMARK    7  A    between atoms: N1_14  and  C10_16 
REMARK    8  A    between atoms: C13_19  and  N2_20 
ROOT
HETATM    1  C9  UNL     1      17.183  64.383  29.822  1.00  0.00     0.252 C 
HETATM    2  O3  UNL     1      18.238  64.822  29.297  1.00  0.00    -0.268 OA
HETATM    3  N1  UNL     1      17.176  64.044  31.206  1.00  0.00    -0.352 N 
ATOM      4  H1  UNL     1      16.325  63.680  31.635  1.00  0.00     0.163 HD
ENDROOT
BRANCH   3   5
HETATM    5  C10 UNL     1      18.383  64.216  32.016  1.00  0.00     0.084 C 
HETATM    6  C11 UNL     1      19.198  62.999  31.975  1.00  0.00     0.027 C 
HETATM    7  C12 UNL     1      20.206  62.819  33.089  1.00  0.00     0.038 C 
HETATM    8  C13 UNL     1      19.961  63.820  34.203  1.00  0.00     0.223 C 
HETATM    9  C21 UNL     1      18.448  63.684  34.451  1.00  0.00     0.038 C 
HETATM   10  C22 UNL     1      17.840  64.569  33.391  1.00  0.00     0.027 C 
BRANCH   8  11
HETATM   11  N2  UNL     1      20.642  63.533  35.406  1.00  0.00     0.093 N 
HETATM   12  C14 UNL     1      19.805  62.755  36.342  1.00  0.00     0.278 C 
HETATM   13  C15 UNL     1      20.621  62.607  37.607  1.00  0.00     0.099 C 
HETATM   14  C16 UNL     1      21.952  61.949  37.377  1.00  0.00     0.167 C 
HETATM   15  C17 UNL     1      22.723  62.638  36.255  1.00  0.00     0.099 C 
HETATM   16  O4  UNL     1      21.859  60.585  37.125  1.00  0.00    -0.353 OA
HETATM   17  O5  UNL     1      22.735  62.030  38.500  1.00  0.00    -0.353 OA
HETATM   18  C18 UNL     1      21.781  62.652  35.073  1.00  0.00     0.278 C 
HETATM   19  C19 UNL     1      21.625  60.044  38.389  1.00  0.00     0.197 C 
HETATM   20  C20 UNL     1      22.243  61.049  39.363  1.00  0.00     0.197 C 
ENDBRANCH   8  11
ENDBRANCH   3   5
BRANCH   1  21
HETATM   21  C8  UNL     1      15.984  64.237  29.035  1.00  0.00     0.040 A 
HETATM   22  C7  UNL     1      15.064  65.280  29.194  1.00  0.00     0.044 A 
HETATM   23  C6  UNL     1      13.799  65.264  28.622  1.00  0.00     0.069 A 
HETATM   24  C5  UNL     1      13.398  64.193  27.857  1.00  0.00     0.097 A 
HETATM   25 CL1  UNL     1      12.719  66.633  28.946  1.00  0.00    -0.081 Cl
HETATM   26  C25 UNL     1      14.334  63.159  27.706  1.00  0.00    -0.020 A 
HETATM   27  C23 UNL     1      15.591  63.176  28.275  1.00  0.00    -0.037 A 
HETATM   28  C26 UNL     1      13.963  61.990  26.895  1.00  0.00     0.052 C 
HETATM   29  C24 UNL     1      16.531  62.044  28.003  1.00  0.00     0.050 C 
BRANCH  24  30
HETATM   30  O2  UNL     1      12.186  64.134  27.291  1.00  0.00    -0.349 OA
BRANCH  30  31
HETATM   31  C4  UNL     1      10.909  63.755  27.683  1.00  0.00     0.178 C 
BRANCH  31  32
HETATM   32  C3  UNL     1      10.740  63.150  29.007  1.00  0.00     0.053 C 
BRANCH  32  33
HETATM   33  C2  UNL     1      10.415  64.017  30.148  1.00  0.00     0.169 C 
BRANCH  33  34
HETATM   34  O1  UNL     1      11.155  64.284  31.198  1.00  0.00    -0.396 OA
HETATM   35  C1  UNL     1      11.130  65.429  31.882  1.00  0.00     0.201 C 
ENDBRANCH  33  34
ENDBRANCH  32  33
ENDBRANCH  31  32
ENDBRANCH  30  31
ENDBRANCH  24  30
ENDBRANCH   1  21
TORSDOF 8
ENDMDL
MODEL 4
REMARK VINA RESULT: -9.676861981      2.215      3.660
REMARK  8 active torsions:
REMARK  status: ('A' for Active; 'I' for Inactive)
REMARK    1  A    between atoms: O1_2  and  C2_3 
REMARK    2  A    between atoms: C2_3  and  C3_4 
REMARK    3  A    between atoms: C3_4  and  C4_5 
REMARK    4  A    between atoms: C4_5  and  O2_6 
REMARK    5  A    between atoms: O2_6  and  C5_7 
REMARK    6  A    between atoms: C8_11  and  C9_12 
REMARK       I    between atoms: C9_12  and  N1_14 
REMARK    7  A    between atoms: N1_14  and  C10_16 
REMARK    8  A    between atoms: C13_19  and  N2_20 
ROOT
HETATM    1  C9  UNL     1      15.567  65.431  32.175  1.00  0.00     0.252 C 
HETATM    2  O3  UNL     1      15.595  66.355  33.026  1.00  0.00    -0.268 OA
HETATM    3  N1  UNL     1      16.646  64.501  32.113  1.00  0.00    -0.352 N 
ATOM      4  H1  UNL     1      16.632  63.753  31.419  1.00  0.00     0.163 HD
ENDROOT
BRANCH   3   5
HETATM    5  C10 UNL     1      17.773  64.612  33.040  1.00  0.00     0.084 C 
HETATM    6  C11 UNL     1      19.041  64.550  32.307  1.00  0.00     0.027 C 
HETATM    7  C12 UNL     1      20.271  64.183  33.106  1.00  0.00     0.038 C 
HETATM    8  C13 UNL     1      19.884  63.663  34.479  1.00  0.00     0.223 C 
HETATM    9  C21 UNL     1      18.794  62.628  34.152  1.00  0.00     0.038 C 
HETATM   10  C22 UNL     1      17.547  63.467  34.013  1.00  0.00     0.027 C 
BRANCH   8  11
HETATM   11  N2  UNL     1      20.928  63.013  35.172  1.00  0.00     0.093 N 
HETATM   12  C14 UNL     1      20.789  63.151  36.636  1.00  0.00     0.278 C 
HETATM   13  C15 UNL     1      22.013  62.495  37.235  1.00  0.00     0.099 C 
HETATM   14  C16 UNL     1      22.172  61.057  36.828  1.00  0.00     0.167 C 
HETATM   15  C17 UNL     1      22.102  60.901  35.311  1.00  0.00     0.099 C 
HETATM   16  O4  UNL     1      21.259  60.206  37.438  1.00  0.00    -0.353 OA
HETATM   17  O5  UNL     1      23.395  60.574  37.218  1.00  0.00    -0.353 OA
HETATM   18  C18 UNL     1      20.807  61.565  34.901  1.00  0.00     0.278 C 
HETATM   19  C19 UNL     1      21.770  60.067  38.729  1.00  0.00     0.197 C 
HETATM   20  C20 UNL     1      23.271  60.318  38.583  1.00  0.00     0.197 C 
ENDBRANCH   8  11
ENDBRANCH   3   5
BRANCH   1  21
HETATM   21  C8  UNL     1      14.447  65.300  31.277  1.00  0.00     0.040 A 
HETATM   22  C7  UNL     1      14.791  65.358  29.921  1.00  0.00     0.044 A 
HETATM   23  C6  UNL     1      13.847  65.376  28.904  1.00  0.00     0.069 A 
HETATM   24  C5  UNL     1      12.504  65.336  29.203  1.00  0.00     0.097 A 
HETATM   25 CL1  UNL     1      14.424  65.499  27.231  1.00  0.00    -0.081 Cl
HETATM   26  C25 UNL     1      12.180  65.275  30.566  1.00  0.00    -0.020 A 
HETATM   27  C23 UNL     1      13.119  65.256  31.577  1.00  0.00    -0.037 A 
HETATM   28  C26 UNL     1      10.760  65.224  30.947  1.00  0.00     0.052 C 
HETATM   29  C24 UNL     1      12.662  65.134  32.996  1.00  0.00     0.050 C 
BRANCH  24  30
HETATM   30  O2  UNL     1      11.561  65.356  28.254  1.00  0.00    -0.349 OA
BRANCH  30  31
HETATM   31  C4  UNL     1      10.989  64.439  27.382  1.00  0.00     0.178 C 
BRANCH  31  32
HETATM   32  C3  UNL     1      11.170  63.011  27.659  1.00  0.00     0.053 C 
BRANCH  32  33
HETATM   33  C2  UNL     1      12.291  62.301  27.029  1.00  0.00     0.169 C 
BRANCH  33  34
HETATM   34  O1  UNL     1      13.427  61.936  27.573  1.00  0.00    -0.396 OA
HETATM   35  C1  UNL     1      14.609  61.938  26.955  1.00  0.00     0.201 C 
ENDBRANCH  33  34
ENDBRANCH  32  33
ENDBRANCH  31  32
ENDBRANCH  30  31
ENDBRANCH  24  30
ENDBRANCH   1  21
TORSDOF 8
ENDMDL
MODEL 5
REMARK VINA RESULT: -9.627141318      3.321      4.917
REMARK  8 active torsions:
REMARK  status: ('A' for Active; 'I' for Inactive)
REMARK    1  A    between atoms: O1_2  and  C2_3 
REMARK    2  A    between atoms: C2_3  and  C3_4 
REMARK    3  A    between atoms: C3_4  and  C4_5 
REMARK    4  A    between atoms: C4_5  and  O2_6 
REMARK    5  A    between atoms: O2_6  and  C5_7 
REMARK    6  A    between atoms: C8_11  and  C9_12 
REMARK       I    between atoms: C9_12  and  N1_14 
REMARK    7  A    between atoms: N1_14  and  C10_16 
REMARK    8  A    between atoms: C13_19  and  N2_20 
ROOT
HETATM    1  C9  UNL     1      16.630  64.308  30.632  1.00  0.00     0.252 C 
HETATM    2  O3  UNL     1      16.198  65.327  31.228  1.00  0.00    -0.268 OA
HETATM    3  N1  UNL     1      17.662  63.528  31.231  1.00  0.00    -0.352 N 
ATOM      4  H1  UNL     1      18.022  62.706  30.747  1.00  0.00     0.163 HD
ENDROOT
BRANCH   3   5
HETATM    5  C10 UNL     1      18.208  63.902  32.537  1.00  0.00     0.084 C 
HETATM    6  C11 UNL     1      19.505  64.564  32.374  1.00  0.00     0.027 C 
HETATM    7  C12 UNL     1      20.410  64.593  33.586  1.00  0.00     0.038 C 
HETATM    8  C13 UNL     1      19.893  63.659  34.665  1.00  0.00     0.223 C 
HETATM    9  C21 UNL     1      19.628  62.359  33.886  1.00  0.00     0.038 C 
HETATM   10  C22 UNL     1      18.259  62.583  33.290  1.00  0.00     0.027 C 
BRANCH   8  11
HETATM   11  N2  UNL     1      20.822  63.385  35.693  1.00  0.00     0.093 N 
HETATM   12  C14 UNL     1      20.187  62.717  36.847  1.00  0.00     0.278 C 
HETATM   13  C15 UNL     1      21.268  62.575  37.894  1.00  0.00     0.099 C 
HETATM   14  C16 UNL     1      22.467  61.812  37.405  1.00  0.00     0.167 C 
HETATM   15  C17 UNL     1      22.990  62.387  36.091  1.00  0.00     0.099 C 
HETATM   16  O4  UNL     1      22.238  60.448  37.272  1.00  0.00    -0.353 OA
HETATM   17  O5  UNL     1      23.497  61.893  38.308  1.00  0.00    -0.353 OA
HETATM   18  C18 UNL     1      21.797  62.409  35.163  1.00  0.00     0.278 C 
HETATM   19  C19 UNL     1      22.280  59.989  38.589  1.00  0.00     0.197 C 
HETATM   20  C20 UNL     1      23.167  60.995  39.323  1.00  0.00     0.197 C 
ENDBRANCH   8  11
ENDBRANCH   3   5
BRANCH   1  21
HETATM   21  C8  UNL     1      16.078  63.921  29.357  1.00  0.00     0.040 A 
HETATM   22  C7  UNL     1      14.800  63.355  29.436  1.00  0.00     0.044 A 
HETATM   23  C6  UNL     1      14.150  62.806  28.339  1.00  0.00     0.069 A 
HETATM   24  C5  UNL     1      14.758  62.800  27.104  1.00  0.00     0.097 A 
HETATM   25 CL1  UNL     1      12.551  62.081  28.592  1.00  0.00    -0.081 Cl
HETATM   26  C25 UNL     1      16.037  63.374  27.045  1.00  0.00    -0.020 A 
HETATM   27  C23 UNL     1      16.682  63.920  28.136  1.00  0.00    -0.037 A 
HETATM   28  C26 UNL     1      16.734  63.400  25.751  1.00  0.00     0.052 C 
HETATM   29  C24 UNL     1      18.023  64.555  27.948  1.00  0.00     0.050 C 
BRANCH  24  30
HETATM   30  O2  UNL     1      14.170  62.276  26.022  1.00  0.00    -0.349 OA
BRANCH  30  31
HETATM   31  C4  UNL     1      13.077  62.583  25.222  1.00  0.00     0.178 C 
BRANCH  31  32
HETATM   32  C3  UNL     1      11.957  61.638  25.185  1.00  0.00     0.053 C 
BRANCH  32  33
HETATM   33  C2  UNL     1      10.972  61.746  24.100  1.00  0.00     0.169 C 
BRANCH  33  34
HETATM   34  O1  UNL     1      10.274  60.786  23.541  1.00  0.00    -0.396 OA
HETATM   35  C1  UNL     1       9.990  60.701  22.241  1.00  0.00     0.201 C 
ENDBRANCH  33  34
ENDBRANCH  32  33
ENDBRANCH  31  32
ENDBRANCH  30  31
ENDBRANCH  24  30
ENDBRANCH   1  21
TORSDOF 8
ENDMDL
