MODEL 1
REMARK VINA RESULT: -9.902305383      0.000      0.000
REMARK  8 active torsions:
REMARK  status: ('A' for Active; 'I' for Inactive)
REMARK    1  A    between atoms: C1_2  and  C2_3 
REMARK       I    between atoms: C1_2  and  N4_26 
REMARK    2  A    between atoms: C2_3  and  C3_4 
REMARK    3  A    between atoms: C3_4  and  C4_5 
REMARK    4  A    between atoms: C4_5  and  C5_6 
REMARK    5  A    between atoms: C5_6  and  N1_7 
REMARK    6  A    between atoms: N2_10  and  C8_11 
REMARK    7  A    between atoms: C13_17  and  N3_18 
REMARK    8  A    between atoms: N4_26  and  C20_28 
ROOT
HETATM    1  N1  UNL     1      16.058  64.315  29.261  1.00  0.00     0.091 N 
HETATM    2  C6  UNL     1      15.850  62.916  28.973  1.00  0.00     0.292 C 
HETATM    3  C7  UNL     1      14.378  62.554  28.883  1.00  0.00     0.153 C 
HETATM    4  N2  UNL     1      13.676  63.754  28.559  1.00  0.00    -0.376 N 
HETATM    5  C18 UNL     1      14.349  64.629  27.585  1.00  0.00     0.153 C 
HETATM    6  C19 UNL     1      15.605  65.192  28.232  1.00  0.00     0.292 C 
ENDROOT
BRANCH   1   7
HETATM    7  C5  UNL     1      17.364  64.600  29.763  1.00  0.00     0.272 C 
BRANCH   7   8
HETATM    8  C4  UNL     1      17.768  63.712  30.894  1.00  0.00     0.031 C 
BRANCH   8   9
HETATM    9  C3  UNL     1      18.283  64.506  32.069  1.00  0.00     0.011 C 
BRANCH   9  10
HETATM   10  C2  UNL     1      17.563  64.223  33.348  1.00  0.00     0.103 C 
BRANCH  10  11
HETATM   11  C1  UNL     1      18.358  63.292  34.173  1.00  0.00     0.217 C 
HETATM   12  O1  UNL     1      17.799  62.370  34.802  1.00  0.00    -0.274 OA
HETATM   13  N4  UNL     1      19.773  63.391  34.296  1.00  0.00    -0.354 N 
ATOM     14  H4  UNL     1      20.246  64.139  33.788  1.00  0.00     0.162 HD
BRANCH  13  15
HETATM   15  C20 UNL     1      20.570  62.509  35.086  1.00  0.00     0.120 C 
HETATM   16  C21 UNL     1      21.006  63.322  36.371  1.00  0.00     0.060 C 
HETATM   17  C22 UNL     1      22.279  62.684  36.460  1.00  0.00     0.189 C 
HETATM   18  C23 UNL     1      23.473  62.697  37.199  1.00  0.00     0.037 C 
HETATM   19  N5  UNL     1      22.701  63.071  35.123  1.00  0.00    -0.061 N 
HETATM   20  C24 UNL     1      24.325  61.693  36.388  1.00  0.00     0.029 C 
HETATM   21  C25 UNL     1      23.612  60.673  35.611  1.00  0.00    -0.028 C 
HETATM   22  C26 UNL     1      22.497  60.832  34.707  1.00  0.00     0.004 C 
HETATM   23  C27 UNL     1      21.902  62.163  34.412  1.00  0.00     0.231 C 
ATOM     24  H52 UNL     1      22.609  64.057  34.877  1.00  0.00     0.278 HD
ATOM     25  H51 UNL     1      23.703  63.053  34.931  1.00  0.00     0.278 HD
ENDBRANCH  13  15
ENDBRANCH  10  11
ENDBRANCH   9  10
ENDBRANCH   8   9
ENDBRANCH   7   8
ENDBRANCH   1   7
BRANCH   4  26
HETATM   26  C8  UNL     1      12.446  64.179  29.080  1.00  0.00     0.058 A 
HETATM   27  C9  UNL     1      11.251  63.658  28.541  1.00  0.00     0.055 A 
HETATM   28  C10 UNL     1      10.009  63.991  28.988  1.00  0.00     0.036 A 
HETATM   29 CL1  UNL     1       8.540  63.306  28.278  1.00  0.00    -0.084 Cl
HETATM   30  C11 UNL     1       9.902  64.888  30.026  1.00  0.00     0.026 A 
HETATM   31  C12 UNL     1      11.041  65.413  30.572  1.00  0.00     0.033 A 
HETATM   32  C13 UNL     1      12.329  65.067  30.107  1.00  0.00     0.057 A 
BRANCH  32  33
HETATM   33  N3  UNL     1      13.375  65.724  30.782  1.00  0.00    -0.375 N 
HETATM   34  C14 UNL     1      13.836  67.034  30.431  1.00  0.00     0.149 C 
HETATM   35  C15 UNL     1      13.930  67.909  31.693  1.00  0.00     0.187 C 
HETATM   36  O2  UNL     1      14.844  67.250  32.520  1.00  0.00    -0.388 OA
HETATM   37  C16 UNL     1      14.220  66.115  33.026  1.00  0.00     0.187 C 
HETATM   38  C17 UNL     1      14.028  65.079  31.905  1.00  0.00     0.149 C 
ENDBRANCH  32  33
ENDBRANCH   4  26
TORSDOF 8
ENDMDL
MODEL 2
REMARK VINA RESULT: -9.740405792      2.188      2.900
REMARK  8 active torsions:
REMARK  status: ('A' for Active; 'I' for Inactive)
REMARK    1  A    between atoms: C1_2  and  C2_3 
REMARK       I    between atoms: C1_2  and  N4_26 
REMARK    2  A    between atoms: C2_3  and  C3_4 
REMARK    3  A    between atoms: C3_4  and  C4_5 
REMARK    4  A    between atoms: C4_5  and  C5_6 
REMARK    5  A    between atoms: C5_6  and  N1_7 
REMARK    6  A    between atoms: N2_10  and  C8_11 
REMARK    7  A    between atoms: C13_17  and  N3_18 
REMARK    8  A    between atoms: N4_26  and  C20_28 
ROOT
HETATM    1  N1  UNL     1      16.656  63.991  28.158  1.00  0.00     0.091 N 
HETATM    2  C6  UNL     1      16.870  62.565  28.107  1.00  0.00     0.292 C 
HETATM    3  C7  UNL     1      15.710  61.825  27.463  1.00  0.00     0.153 C 
HETATM    4  N2  UNL     1      15.037  62.763  26.623  1.00  0.00    -0.376 N 
HETATM    5  C18 UNL     1      15.917  63.682  25.881  1.00  0.00     0.153 C 
HETATM    6  C19 UNL     1      16.591  64.613  26.877  1.00  0.00     0.292 C 
ENDROOT
BRANCH   1   7
HETATM    7  C5  UNL     1      17.492  64.653  29.107  1.00  0.00     0.272 C 
BRANCH   7   8
HETATM    8  C4  UNL     1      16.966  64.591  30.503  1.00  0.00     0.031 C 
BRANCH   8   9
HETATM    9  C3  UNL     1      17.961  63.963  31.447  1.00  0.00     0.011 C 
BRANCH   9  10
HETATM   10  C2  UNL     1      18.228  64.778  32.671  1.00  0.00     0.103 C 
BRANCH  10  11
HETATM   11  C1  UNL     1      19.420  64.257  33.367  1.00  0.00     0.217 C 
HETATM   12  O1  UNL     1      20.565  64.521  32.945  1.00  0.00    -0.274 OA
HETATM   13  N4  UNL     1      19.335  63.444  34.532  1.00  0.00    -0.354 N 
ATOM     14  H4  UNL     1      18.407  63.219  34.892  1.00  0.00     0.162 HD
BRANCH  13  15
HETATM   15  C20 UNL     1      20.468  62.924  35.229  1.00  0.00     0.120 C 
HETATM   16  C21 UNL     1      20.753  61.491  34.621  1.00  0.00     0.060 C 
HETATM   17  C22 UNL     1      21.195  60.947  35.864  1.00  0.00     0.189 C 
HETATM   18  C23 UNL     1      21.627  59.748  36.455  1.00  0.00     0.037 C 
HETATM   19  N5  UNL     1      19.961  61.252  36.573  1.00  0.00    -0.061 N 
HETATM   20  C24 UNL     1      21.729  60.179  37.937  1.00  0.00     0.029 C 
HETATM   21  C25 UNL     1      21.962  61.600  38.215  1.00  0.00    -0.028 C 
HETATM   22  C26 UNL     1      21.287  62.756  37.672  1.00  0.00     0.004 C 
HETATM   23  C27 UNL     1      20.165  62.633  36.703  1.00  0.00     0.231 C 
ATOM     24  H52 UNL     1      19.090  60.953  36.134  1.00  0.00     0.278 HD
ATOM     25  H51 UNL     1      19.780  60.729  37.430  1.00  0.00     0.278 HD
ENDBRANCH  13  15
ENDBRANCH  10  11
ENDBRANCH   9  10
ENDBRANCH   8   9
ENDBRANCH   7   8
ENDBRANCH   1   7
BRANCH   4  26
HETATM   26  C8  UNL     1      13.653  62.904  26.455  1.00  0.00     0.058 A 
HETATM   27  C9  UNL     1      13.022  62.266  25.367  1.00  0.00     0.055 A 
HETATM   28  C10 UNL     1      11.683  62.325  25.127  1.00  0.00     0.036 A 
HETATM   29 CL1  UNL     1      10.940  61.503  23.747  1.00  0.00    -0.084 Cl
HETATM   30  C11 UNL     1      10.890  63.046  25.990  1.00  0.00     0.026 A 
HETATM   31  C12 UNL     1      11.470  63.678  27.055  1.00  0.00     0.033 A 
HETATM   32  C13 UNL     1      12.860  63.617  27.304  1.00  0.00     0.057 A 
BRANCH  32  33
HETATM   33  N3  UNL     1      13.270  64.345  28.436  1.00  0.00    -0.375 N 
HETATM   34  C14 UNL     1      13.548  65.750  28.409  1.00  0.00     0.149 C 
HETATM   35  C15 UNL     1      12.819  66.449  29.570  1.00  0.00     0.187 C 
HETATM   36  O2  UNL     1      13.328  65.849  30.725  1.00  0.00    -0.388 OA
HETATM   37  C16 UNL     1      12.799  64.566  30.809  1.00  0.00     0.187 C 
HETATM   38  C17 UNL     1      13.409  63.674  29.714  1.00  0.00     0.149 C 
ENDBRANCH  32  33
ENDBRANCH   4  26
TORSDOF 8
ENDMDL
MODEL 3
REMARK VINA RESULT: -9.734948940      1.176      1.585
REMARK  8 active torsions:
REMARK  status: ('A' for Active; 'I' for Inactive)
REMARK    1  A    between atoms: C1_2  and  C2_3 
REMARK       I    between atoms: C1_2  and  N4_26 
REMARK    2  A    between atoms: C2_3  and  C3_4 
REMARK    3  A    between atoms: C3_4  and  C4_5 
REMARK    4  A    between atoms: C4_5  and  C5_6 
REMARK    5  A    between atoms: C5_6  and  N1_7 
REMARK    6  A    between atoms: N2_10  and  C8_11 
REMARK    7  A    between atoms: C13_17  and  N3_18 
REMARK    8  A    between atoms: N4_26  and  C20_28 
ROOT
HETATM    1  N1  UNL     1      15.925  64.329  29.149  1.00  0.00     0.091 N 
HETATM    2  C6  UNL     1      15.715  62.924  28.895  1.00  0.00     0.292 C 
HETATM    3  C7  UNL     1      14.242  62.558  28.837  1.00  0.00     0.153 C 
HETATM    4  N2  UNL     1      13.533  63.750  28.498  1.00  0.00    -0.376 N 
HETATM    5  C18 UNL     1      14.189  64.605  27.495  1.00  0.00     0.153 C 
HETATM    6  C19 UNL     1      15.455  65.183  28.109  1.00  0.00     0.292 C 
ENDROOT
BRANCH   1   7
HETATM    7  C5  UNL     1      17.239  64.626  29.624  1.00  0.00     0.272 C 
BRANCH   7   8
HETATM    8  C4  UNL     1      17.573  63.938  30.906  1.00  0.00     0.031 C 
BRANCH   8   9
HETATM    9  C3  UNL     1      17.609  64.904  32.064  1.00  0.00     0.011 C 
BRANCH   9  10
HETATM   10  C2  UNL     1      17.388  64.259  33.394  1.00  0.00     0.103 C 
BRANCH  10  11
HETATM   11  C1  UNL     1      18.679  64.087  34.087  1.00  0.00     0.217 C 
HETATM   12  O1  UNL     1      19.490  65.035  34.159  1.00  0.00    -0.274 OA
HETATM   13  N4  UNL     1      19.066  62.862  34.699  1.00  0.00    -0.354 N 
ATOM     14  H4  UNL     1      18.415  62.077  34.651  1.00  0.00     0.162 HD
BRANCH  13  15
HETATM   15  C20 UNL     1      20.307  62.663  35.376  1.00  0.00     0.120 C 
HETATM   16  C21 UNL     1      21.016  61.437  34.669  1.00  0.00     0.060 C 
HETATM   17  C22 UNL     1      21.609  60.962  35.876  1.00  0.00     0.189 C 
HETATM   18  C23 UNL     1      22.392  59.912  36.384  1.00  0.00     0.037 C 
HETATM   19  N5  UNL     1      20.345  60.817  36.582  1.00  0.00    -0.061 N 
HETATM   20  C24 UNL     1      22.364  60.238  37.896  1.00  0.00     0.029 C 
HETATM   21  C25 UNL     1      22.150  61.636  38.283  1.00  0.00    -0.028 C 
HETATM   22  C26 UNL     1      21.149  62.567  37.816  1.00  0.00     0.004 C 
HETATM   23  C27 UNL     1      20.115  62.181  36.819  1.00  0.00     0.231 C 
ATOM     24  H52 UNL     1      19.606  60.300  36.105  1.00  0.00     0.278 HD
ATOM     25  H51 UNL     1      20.337  60.200  37.394  1.00  0.00     0.278 HD
ENDBRANCH  13  15
ENDBRANCH  10  11
ENDBRANCH   9  10
ENDBRANCH   8   9
ENDBRANCH   7   8
ENDBRANCH   1   7
BRANCH   4  26
HETATM   26  C8  UNL     1      12.311  64.184  29.029  1.00  0.00     0.058 A 
HETATM   27  C9  UNL     1      11.107  63.696  28.480  1.00  0.00     0.055 A 
HETATM   28  C10 UNL     1       9.871  64.041  28.936  1.00  0.00     0.036 A 
HETATM   29 CL1  UNL     1       8.390  63.397  28.213  1.00  0.00    -0.084 Cl
HETATM   30  C11 UNL     1       9.780  64.916  29.994  1.00  0.00     0.026 A 
HETATM   31  C12 UNL     1      10.928  65.410  30.549  1.00  0.00     0.033 A 
HETATM   32  C13 UNL     1      12.210  65.052  30.076  1.00  0.00     0.057 A 
BRANCH  32  33
HETATM   33  N3  UNL     1      13.267  65.676  30.763  1.00  0.00    -0.375 N 
HETATM   34  C14 UNL     1      13.777  66.968  30.415  1.00  0.00     0.149 C 
HETATM   35  C15 UNL     1      13.882  67.845  31.676  1.00  0.00     0.187 C 
HETATM   36  O2  UNL     1      14.761  67.158  32.518  1.00  0.00    -0.388 OA
HETATM   37  C16 UNL     1      14.093  66.047  33.018  1.00  0.00     0.187 C 
HETATM   38  C17 UNL     1      13.882  65.013  31.898  1.00  0.00     0.149 C 
ENDBRANCH  32  33
ENDBRANCH   4  26
TORSDOF 8
ENDMDL
MODEL 4
REMARK VINA RESULT: -9.728999115      2.172      3.858
REMARK  8 active torsions:
REMARK  status: ('A' for Active; 'I' for Inactive)
REMARK    1  A    between atoms: C1_2  and  C2_3 
REMARK       I    between atoms: C1_2  and  N4_26 
REMARK    2  A    between atoms: C2_3  and  C3_4 
REMARK    3  A    between atoms: C3_4  and  C4_5 
REMARK    4  A    between atoms: C4_5  and  C5_6 
REMARK    5  A    between atoms: C5_6  and  N1_7 
REMARK    6  A    between atoms: N2_10  and  C8_11 
REMARK    7  A    between atoms: C13_17  and  N3_18 
REMARK    8  A    between atoms: N4_26  and  C20_28 
ROOT
HETATM    1  N1  UNL     1      13.361  64.919  30.475  1.00  0.00     0.091 N 
HETATM    2  C6  UNL     1      12.780  66.097  29.878  1.00  0.00     0.292 C 
HETATM    3  C7  UNL     1      12.195  65.823  28.503  1.00  0.00     0.153 C 
HETATM    4  N2  UNL     1      11.897  64.428  28.451  1.00  0.00    -0.376 N 
HETATM    5  C18 UNL     1      11.339  63.861  29.691  1.00  0.00     0.153 C 
HETATM    6  C19 UNL     1      12.418  63.889  30.762  1.00  0.00     0.292 C 
ENDROOT
BRANCH   1   7
HETATM    7  C5  UNL     1      14.270  65.215  31.537  1.00  0.00     0.272 C 
BRANCH   7   8
HETATM    8  C4  UNL     1      15.696  65.265  31.096  1.00  0.00     0.031 C 
BRANCH   8   9
HETATM    9  C3  UNL     1      16.637  64.882  32.211  1.00  0.00     0.011 C 
BRANCH   9  10
HETATM   10  C2  UNL     1      17.985  64.443  31.737  1.00  0.00     0.103 C 
BRANCH  10  11
HETATM   11  C1  UNL     1      18.887  64.264  32.891  1.00  0.00     0.217 C 
HETATM   12  O1  UNL     1      19.016  65.170  33.741  1.00  0.00    -0.274 OA
HETATM   13  N4  UNL     1      19.643  63.076  33.097  1.00  0.00    -0.354 N 
ATOM     14  H4  UNL     1      19.550  62.325  32.414  1.00  0.00     0.162 HD
BRANCH  13  15
HETATM   15  C20 UNL     1      20.525  62.872  34.202  1.00  0.00     0.120 C 
HETATM   16  C21 UNL     1      21.767  62.064  33.645  1.00  0.00     0.060 C 
HETATM   17  C22 UNL     1      21.952  61.330  34.854  1.00  0.00     0.189 C 
HETATM   18  C23 UNL     1      22.736  60.311  35.420  1.00  0.00     0.037 C 
HETATM   19  N5  UNL     1      20.609  60.770  34.861  1.00  0.00    -0.061 N 
HETATM   20  C24 UNL     1      22.032  60.130  36.785  1.00  0.00     0.029 C 
HETATM   21  C25 UNL     1      21.300  61.280  37.327  1.00  0.00    -0.028 C 
HETATM   22  C26 UNL     1      20.342  62.140  36.672  1.00  0.00     0.004 C 
HETATM   23  C27 UNL     1      19.932  61.932  35.257  1.00  0.00     0.231 C 
ATOM     24  H52 UNL     1      20.292  60.321  34.001  1.00  0.00     0.278 HD
ATOM     25  H51 UNL     1      20.459  59.933  35.425  1.00  0.00     0.278 HD
ENDBRANCH  13  15
ENDBRANCH  10  11
ENDBRANCH   9  10
ENDBRANCH   8   9
ENDBRANCH   7   8
ENDBRANCH   1   7
BRANCH   4  26
HETATM   26  C8  UNL     1      12.096  63.562  27.368  1.00  0.00     0.058 A 
HETATM   27  C9  UNL     1      11.008  63.243  26.529  1.00  0.00     0.055 A 
HETATM   28  C10 UNL     1      11.102  62.428  25.443  1.00  0.00     0.036 A 
HETATM   29 CL1  UNL     1       9.704  62.061  24.421  1.00  0.00    -0.084 Cl
HETATM   30  C11 UNL     1      12.326  61.880  25.134  1.00  0.00     0.026 A 
HETATM   31  C12 UNL     1      13.402  62.169  25.927  1.00  0.00     0.033 A 
HETATM   32  C13 UNL     1      13.304  63.013  27.055  1.00  0.00     0.057 A 
BRANCH  32  33
HETATM   33  N3  UNL     1      14.515  63.175  27.754  1.00  0.00    -0.375 N 
HETATM   34  C14 UNL     1      14.987  62.245  28.735  1.00  0.00     0.149 C 
HETATM   35  C15 UNL     1      16.458  61.889  28.451  1.00  0.00     0.187 C 
HETATM   36  O2  UNL     1      17.142  63.106  28.529  1.00  0.00    -0.388 OA
HETATM   37  C16 UNL     1      16.822  63.849  27.399  1.00  0.00     0.187 C 
HETATM   38  C17 UNL     1      15.360  64.321  27.478  1.00  0.00     0.149 C 
ENDBRANCH  32  33
ENDBRANCH   4  26
TORSDOF 8
ENDMDL
MODEL 5
REMARK VINA RESULT: -9.708634953      1.638      2.128
REMARK  8 active torsions:
REMARK  status: ('A' for Active; 'I' for Inactive)
REMARK    1  A    between atoms: C1_2  and  C2_3 
REMARK       I    between atoms: C1_2  and  N4_26 
REMARK    2  A    between atoms: C2_3  and  C3_4 
REMARK    3  A    between atoms: C3_4  and  C4_5 
REMARK    4  A    between atoms: C4_5  and  C5_6 
REMARK    5  A    between atoms: C5_6  and  N1_7 
REMARK    6  A    between atoms: N2_10  and  C8_11 
REMARK    7  A    between atoms: C13_17  and  N3_18 
REMARK    8  A    between atoms: N4_26  and  C20_28 
ROOT
HETATM    1  N1  UNL     1      17.016  63.864  28.804  1.00  0.00     0.091 N 
HETATM    2  C6  UNL     1      17.030  62.425  28.907  1.00  0.00     0.292 C 
HETATM    3  C7  UNL     1      15.821  61.783  28.247  1.00  0.00     0.153 C 
HETATM    4  N2  UNL     1      15.343  62.708  27.272  1.00  0.00    -0.376 N 
HETATM    5  C18 UNL     1      16.390  63.418  26.516  1.00  0.00     0.153 C 
HETATM    6  C19 UNL     1      17.122  64.350  27.467  1.00  0.00     0.292 C 
ENDROOT
BRANCH   1   7
HETATM    7  C5  UNL     1      17.875  64.505  29.747  1.00  0.00     0.272 C 
BRANCH   7   8
HETATM    8  C4  UNL     1      17.283  64.599  31.115  1.00  0.00     0.031 C 
BRANCH   8   9
HETATM    9  C3  UNL     1      18.244  64.115  32.173  1.00  0.00     0.011 C 
BRANCH   9  10
HETATM   10  C2  UNL     1      17.660  64.085  33.548  1.00  0.00     0.103 C 
BRANCH  10  11
HETATM   11  C1  UNL     1      18.467  63.203  34.414  1.00  0.00     0.217 C 
HETATM   12  O1  UNL     1      17.912  62.410  35.203  1.00  0.00    -0.274 OA
HETATM   13  N4  UNL     1      19.890  63.205  34.399  1.00  0.00    -0.354 N 
ATOM     14  H4  UNL     1      20.361  63.846  33.760  1.00  0.00     0.162 HD
BRANCH  13  15
HETATM   15  C20 UNL     1      20.699  62.366  35.224  1.00  0.00     0.120 C 
HETATM   16  C21 UNL     1      21.132  63.241  36.470  1.00  0.00     0.060 C 
HETATM   17  C22 UNL     1      22.411  62.619  36.582  1.00  0.00     0.189 C 
HETATM   18  C23 UNL     1      23.608  62.677  37.315  1.00  0.00     0.037 C 
HETATM   19  N5  UNL     1      22.825  62.952  35.227  1.00  0.00    -0.061 N 
HETATM   20  C24 UNL     1      24.467  61.647  36.545  1.00  0.00     0.029 C 
HETATM   21  C25 UNL     1      23.762  60.587  35.818  1.00  0.00    -0.028 C 
HETATM   22  C26 UNL     1      22.642  60.694  34.911  1.00  0.00     0.004 C 
HETATM   23  C27 UNL     1      22.033  62.005  34.561  1.00  0.00     0.231 C 
ATOM     24  H52 UNL     1      22.722  63.925  34.939  1.00  0.00     0.278 HD
ATOM     25  H51 UNL     1      23.826  62.935  35.032  1.00  0.00     0.278 HD
ENDBRANCH  13  15
ENDBRANCH  10  11
ENDBRANCH   9  10
ENDBRANCH   8   9
ENDBRANCH   7   8
ENDBRANCH   1   7
BRANCH   4  26
HETATM   26  C8  UNL     1      14.006  63.014  26.982  1.00  0.00     0.058 A 
HETATM   27  C9  UNL     1      13.342  62.306  25.959  1.00  0.00     0.055 A 
HETATM   28  C10 UNL     1      12.041  62.514  25.615  1.00  0.00     0.036 A 
HETATM   29 CL1  UNL     1      11.253  61.596  24.324  1.00  0.00    -0.084 Cl
HETATM   30  C11 UNL     1      11.324  63.469  26.299  1.00  0.00     0.026 A 
HETATM   31  C12 UNL     1      11.938  64.174  27.296  1.00  0.00     0.033 A 
HETATM   32  C13 UNL     1      13.288  63.958  27.653  1.00  0.00     0.057 A 
BRANCH  32  33
HETATM   33  N3  UNL     1      13.745  64.793  28.690  1.00  0.00    -0.375 N 
HETATM   34  C14 UNL     1      14.236  66.120  28.472  1.00  0.00     0.149 C 
HETATM   35  C15 UNL     1      13.563  67.094  29.455  1.00  0.00     0.187 C 
HETATM   36  O2  UNL     1      13.913  66.621  30.723  1.00  0.00    -0.388 OA
HETATM   37  C16 UNL     1      13.190  65.458  30.960  1.00  0.00     0.187 C 
HETATM   38  C17 UNL     1      13.713  64.323  30.062  1.00  0.00     0.149 C 
ENDBRANCH  32  33
ENDBRANCH   4  26
TORSDOF 8
ENDMDL
