MODEL 1
REMARK VINA RESULT: -9.393084341      0.000      0.000
REMARK  8 active torsions:
REMARK  status: ('A' for Active; 'I' for Inactive)
REMARK    1  A    between atoms: C10_12  and  C11_13 
REMARK    2  A    between atoms: C19_22  and  N1_23 
REMARK    3  A    between atoms: N1_23  and  C20_25 
REMARK    4  A    between atoms: C20_25  and  C21_26 
REMARK    5  A    between atoms: C21_26  and  C22_27 
REMARK    6  A    between atoms: C22_27  and  C23_28 
REMARK    7  A    between atoms: C23_28  and  C24_29 
REMARK    8  A    between atoms: C24_29  and  N2_30 
ROOT
HETATM    1  C1  UNL     1      13.522  66.506  31.695  1.00  0.00     0.078 C 
HETATM    2  C2  UNL     1      13.743  66.713  30.210  1.00  0.00     0.158 C 
HETATM    3  C3  UNL     1      13.916  68.191  29.941  1.00  0.00     0.078 C 
HETATM    4  O1  UNL     1      12.714  66.165  29.443  1.00  0.00    -0.345 OA
HETATM    5  C4  UNL     1      13.130  64.876  29.304  1.00  0.00     0.191 C 
HETATM    6  C5  UNL     1      12.595  64.077  28.183  1.00  0.00     0.183 A 
HETATM    7  O2  UNL     1      11.648  63.104  28.196  1.00  0.00    -0.372 OA
HETATM    8  C6  UNL     1      12.873  62.645  28.581  1.00  0.00     0.159 A 
HETATM    9  C7  UNL     1      13.967  62.113  27.785  1.00  0.00     0.039 C 
HETATM   10  C8  UNL     1      13.574  61.792  26.413  1.00  0.00     0.036 C 
HETATM   11  C9  UNL     1      14.113  62.908  25.636  1.00  0.00    -0.017 C 
HETATM   12  C10 UNL     1      15.057  63.616  26.319  1.00  0.00    -0.037 C 
HETATM   13  C17 UNL     1      15.210  63.041  27.647  1.00  0.00     0.031 C 
HETATM   14  C18 UNL     1      16.369  62.041  27.551  1.00  0.00     0.027 C 
HETATM   15  C19 UNL     1      15.366  63.837  28.873  1.00  0.00     0.028 C 
HETATM   16  C29 UNL     1      14.613  65.148  28.885  1.00  0.00     0.203 C 
HETATM   17  O4  UNL     1      14.920  66.007  29.885  1.00  0.00    -0.342 OA
ENDROOT
BRANCH  15  18
HETATM   18  N1  UNL     1      16.485  63.712  29.660  1.00  0.00    -0.393 N 
ATOM     19  H1  UNL     1      16.385  62.980  30.363  1.00  0.00     0.159 HD
BRANCH  18  20
HETATM   20  C20 UNL     1      17.693  64.332  29.726  1.00  0.00     0.119 C 
BRANCH  20  21
HETATM   21  C21 UNL     1      18.243  64.206  31.167  1.00  0.00     0.020 C 
BRANCH  21  22
HETATM   22  C22 UNL     1      17.242  64.644  32.177  1.00  0.00     0.003 C 
BRANCH  22  23
HETATM   23  C23 UNL     1      17.648  64.321  33.590  1.00  0.00     0.030 C 
BRANCH  23  24
HETATM   24  C24 UNL     1      19.044  64.859  33.872  1.00  0.00     0.272 C 
BRANCH  24  25
HETATM   25  N2  UNL     1      19.867  63.933  34.585  1.00  0.00     0.092 N 
HETATM   26  C25 UNL     1      20.779  63.192  33.782  1.00  0.00     0.298 C 
HETATM   27  C26 UNL     1      21.212  61.964  34.579  1.00  0.00     0.198 C 
HETATM   28  O3  UNL     1      21.388  62.260  35.917  1.00  0.00    -0.388 OA
HETATM   29  C27 UNL     1      20.210  62.621  36.533  1.00  0.00     0.198 C 
HETATM   30  C28 UNL     1      19.171  63.112  35.524  1.00  0.00     0.298 C 
ENDBRANCH  24  25
ENDBRANCH  23  24
ENDBRANCH  22  23
ENDBRANCH  21  22
ENDBRANCH  20  21
ENDBRANCH  18  20
ENDBRANCH  15  18
BRANCH  12  31
HETATM   31  C11 UNL     1      15.639  64.739  25.609  1.00  0.00    -0.029 A 
HETATM   32  C12 UNL     1      14.874  65.725  25.030  1.00  0.00     0.015 A 
HETATM   33  C13 UNL     1      15.392  66.770  24.285  1.00  0.00     0.043 A 
HETATM   34  C14 UNL     1      16.744  66.862  24.093  1.00  0.00     0.116 A 
HETATM   35  F1  UNL     1      17.289  67.879  23.362  1.00  0.00    -0.206 F 
HETATM   36  C15 UNL     1      17.538  65.891  24.660  1.00  0.00     0.043 A 
HETATM   37  C16 UNL     1      16.985  64.839  25.411  1.00  0.00     0.015 A 
ENDBRANCH  12  31
TORSDOF 8
ENDMDL
MODEL 2
REMARK VINA RESULT: -9.011430156      3.176      5.714
REMARK  8 active torsions:
REMARK  status: ('A' for Active; 'I' for Inactive)
REMARK    1  A    between atoms: C10_12  and  C11_13 
REMARK    2  A    between atoms: C19_22  and  N1_23 
REMARK    3  A    between atoms: N1_23  and  C20_25 
REMARK    4  A    between atoms: C20_25  and  C21_26 
REMARK    5  A    between atoms: C21_26  and  C22_27 
REMARK    6  A    between atoms: C22_27  and  C23_28 
REMARK    7  A    between atoms: C23_28  and  C24_29 
REMARK    8  A    between atoms: C24_29  and  N2_30 
ROOT
HETATM    1  C1  UNL     1      13.938  70.214  27.629  1.00  0.00     0.078 C 
HETATM    2  C2  UNL     1      12.783  69.325  28.040  1.00  0.00     0.158 C 
HETATM    3  C3  UNL     1      11.692  69.423  26.996  1.00  0.00     0.078 C 
HETATM    4  O1  UNL     1      12.306  69.634  29.314  1.00  0.00    -0.345 OA
HETATM    5  C4  UNL     1      13.130  68.893  30.105  1.00  0.00     0.191 C 
HETATM    6  C5  UNL     1      12.684  68.552  31.470  1.00  0.00     0.183 A 
HETATM    7  O2  UNL     1      13.067  69.087  32.658  1.00  0.00    -0.372 OA
HETATM    8  C6  UNL     1      13.955  68.163  32.192  1.00  0.00     0.159 A 
HETATM    9  C7  UNL     1      13.995  66.722  32.381  1.00  0.00     0.039 C 
HETATM   10  C8  UNL     1      13.098  66.259  33.440  1.00  0.00     0.036 C 
HETATM   11  C9  UNL     1      11.962  65.704  32.704  1.00  0.00    -0.017 C 
HETATM   12  C10 UNL     1      12.254  65.461  31.394  1.00  0.00    -0.037 C 
HETATM   13  C17 UNL     1      13.626  65.870  31.131  1.00  0.00     0.031 C 
HETATM   14  C18 UNL     1      14.489  64.615  31.311  1.00  0.00     0.027 C 
HETATM   15  C19 UNL     1      14.053  66.574  29.913  1.00  0.00     0.028 C 
HETATM   16  C29 UNL     1      13.035  67.532  29.338  1.00  0.00     0.203 C 
HETATM   17  O4  UNL     1      13.297  68.012  28.100  1.00  0.00    -0.342 OA
ENDROOT
BRANCH  15  18
HETATM   18  N1  UNL     1      14.994  66.029  29.075  1.00  0.00    -0.393 N 
ATOM     19  H1  UNL     1      15.947  66.258  29.358  1.00  0.00     0.159 HD
BRANCH  18  20
HETATM   20  C20 UNL     1      14.958  65.255  27.957  1.00  0.00     0.119 C 
BRANCH  20  21
HETATM   21  C21 UNL     1      16.030  64.145  28.082  1.00  0.00     0.020 C 
BRANCH  21  22
HETATM   22  C22 UNL     1      17.243  64.630  28.795  1.00  0.00     0.003 C 
BRANCH  22  23
HETATM   23  C23 UNL     1      17.718  63.684  29.864  1.00  0.00     0.030 C 
BRANCH  23  24
HETATM   24  C24 UNL     1      18.212  64.464  31.075  1.00  0.00     0.272 C 
BRANCH  24  25
HETATM   25  N2  UNL     1      18.208  63.691  32.278  1.00  0.00     0.092 N 
HETATM   26  C25 UNL     1      17.655  64.347  33.415  1.00  0.00     0.298 C 
HETATM   27  C26 UNL     1      18.147  63.615  34.661  1.00  0.00     0.198 C 
HETATM   28  O3  UNL     1      18.181  62.247  34.468  1.00  0.00    -0.388 OA
HETATM   29  C27 UNL     1      19.101  61.874  33.514  1.00  0.00     0.198 C 
HETATM   30  C28 UNL     1      19.439  63.029  32.571  1.00  0.00     0.298 C 
ENDBRANCH  24  25
ENDBRANCH  23  24
ENDBRANCH  22  23
ENDBRANCH  21  22
ENDBRANCH  20  21
ENDBRANCH  18  20
ENDBRANCH  15  18
BRANCH  12  31
HETATM   31  C11 UNL     1      11.174  64.907  30.600  1.00  0.00    -0.029 A 
HETATM   32  C12 UNL     1      11.259  63.674  29.995  1.00  0.00     0.015 A 
HETATM   33  C13 UNL     1      10.279  63.145  29.173  1.00  0.00     0.043 A 
HETATM   34  C14 UNL     1       9.141  63.864  28.925  1.00  0.00     0.116 A 
HETATM   35  F1  UNL     1       8.154  63.374  28.117  1.00  0.00    -0.206 F 
HETATM   36  C15 UNL     1       9.025  65.101  29.516  1.00  0.00     0.043 A 
HETATM   37  C16 UNL     1      10.037  65.615  30.346  1.00  0.00     0.015 A 
ENDBRANCH  12  31
TORSDOF 8
ENDMDL
MODEL 3
REMARK VINA RESULT: -9.007886430      3.591      8.475
REMARK  8 active torsions:
REMARK  status: ('A' for Active; 'I' for Inactive)
REMARK    1  A    between atoms: C10_12  and  C11_13 
REMARK    2  A    between atoms: C19_22  and  N1_23 
REMARK    3  A    between atoms: N1_23  and  C20_25 
REMARK    4  A    between atoms: C20_25  and  C21_26 
REMARK    5  A    between atoms: C21_26  and  C22_27 
REMARK    6  A    between atoms: C22_27  and  C23_28 
REMARK    7  A    between atoms: C23_28  and  C24_29 
REMARK    8  A    between atoms: C24_29  and  N2_30 
ROOT
HETATM    1  C1  UNL     1      10.605  65.897  30.172  1.00  0.00     0.078 C 
HETATM    2  C2  UNL     1      12.013  66.035  30.713  1.00  0.00     0.158 C 
HETATM    3  C3  UNL     1      11.942  66.509  32.147  1.00  0.00     0.078 C 
HETATM    4  O1  UNL     1      12.799  66.880  29.928  1.00  0.00    -0.345 OA
HETATM    5  C4  UNL     1      13.269  66.021  28.983  1.00  0.00     0.191 C 
HETATM    6  C5  UNL     1      14.497  66.381  28.247  1.00  0.00     0.183 A 
HETATM    7  O2  UNL     1      14.633  66.850  26.980  1.00  0.00    -0.372 OA
HETATM    8  C6  UNL     1      14.470  65.496  27.021  1.00  0.00     0.159 A 
HETATM    9  C7  UNL     1      15.456  64.436  27.152  1.00  0.00     0.039 C 
HETATM   10  C8  UNL     1      16.828  64.902  26.945  1.00  0.00     0.036 C 
HETATM   11  C9  UNL     1      17.364  64.990  28.303  1.00  0.00    -0.017 C 
HETATM   12  C10 UNL     1      16.615  64.299  29.210  1.00  0.00    -0.037 C 
HETATM   13  C17 UNL     1      15.476  63.705  28.527  1.00  0.00     0.031 C 
HETATM   14  C18 UNL     1      15.899  62.281  28.146  1.00  0.00     0.027 C 
HETATM   15  C19 UNL     1      14.115  63.666  29.082  1.00  0.00     0.028 C 
HETATM   16  C29 UNL     1      13.734  64.861  29.927  1.00  0.00     0.203 C 
HETATM   17  O4  UNL     1      12.591  64.751  30.642  1.00  0.00    -0.342 OA
ENDROOT
BRANCH  15  18
HETATM   18  N1  UNL     1      13.475  62.472  29.303  1.00  0.00    -0.393 N 
ATOM     19  H1  UNL     1      14.051  61.814  29.828  1.00  0.00     0.159 HD
BRANCH  18  20
HETATM   20  C20 UNL     1      12.256  61.957  28.990  1.00  0.00     0.119 C 
BRANCH  20  21
HETATM   21  C21 UNL     1      11.893  62.376  27.544  1.00  0.00     0.020 C 
BRANCH  21  22
HETATM   22  C22 UNL     1      12.603  61.543  26.536  1.00  0.00     0.003 C 
BRANCH  22  23
HETATM   23  C23 UNL     1      13.041  62.324  25.326  1.00  0.00     0.030 C 
BRANCH  23  24
HETATM   24  C24 UNL     1      11.882  63.155  24.791  1.00  0.00     0.272 C 
BRANCH  24  25
HETATM   25  N2  UNL     1      11.310  62.613  23.598  1.00  0.00     0.092 N 
HETATM   26  C25 UNL     1      11.117  63.547  22.542  1.00  0.00     0.298 C 
HETATM   27  C26 UNL     1      10.100  62.952  21.571  1.00  0.00     0.198 C 
HETATM   28  O3  UNL     1      10.286  61.593  21.408  1.00  0.00    -0.388 OA
HETATM   29  C27 UNL     1      10.047  60.888  22.568  1.00  0.00     0.198 C 
HETATM   30  C28 UNL     1      10.170  61.777  23.806  1.00  0.00     0.298 C 
ENDBRANCH  24  25
ENDBRANCH  23  24
ENDBRANCH  22  23
ENDBRANCH  21  22
ENDBRANCH  20  21
ENDBRANCH  18  20
ENDBRANCH  15  18
BRANCH  12  31
HETATM   31  C11 UNL     1      17.089  64.339  30.580  1.00  0.00    -0.029 A 
HETATM   32  C12 UNL     1      16.384  64.956  31.588  1.00  0.00     0.015 A 
HETATM   33  C13 UNL     1      16.838  65.075  32.890  1.00  0.00     0.043 A 
HETATM   34  C14 UNL     1      18.059  64.559  33.233  1.00  0.00     0.116 A 
HETATM   35  F1  UNL     1      18.540  64.661  34.507  1.00  0.00    -0.206 F 
HETATM   36  C15 UNL     1      18.789  63.936  32.247  1.00  0.00     0.043 A 
HETATM   37  C16 UNL     1      18.304  63.830  30.931  1.00  0.00     0.015 A 
ENDBRANCH  12  31
TORSDOF 8
ENDMDL
MODEL 4
REMARK VINA RESULT: -9.006169387      3.666      7.663
REMARK  8 active torsions:
REMARK  status: ('A' for Active; 'I' for Inactive)
REMARK    1  A    between atoms: C10_12  and  C11_13 
REMARK    2  A    between atoms: C19_22  and  N1_23 
REMARK    3  A    between atoms: N1_23  and  C20_25 
REMARK    4  A    between atoms: C20_25  and  C21_26 
REMARK    5  A    between atoms: C21_26  and  C22_27 
REMARK    6  A    between atoms: C22_27  and  C23_28 
REMARK    7  A    between atoms: C23_28  and  C24_29 
REMARK    8  A    between atoms: C24_29  and  N2_30 
ROOT
HETATM    1  C1  UNL     1      10.484  66.748  30.817  1.00  0.00     0.078 C 
HETATM    2  C2  UNL     1      11.957  66.729  31.169  1.00  0.00     0.158 C 
HETATM    3  C3  UNL     1      12.127  67.207  32.594  1.00  0.00     0.078 C 
HETATM    4  O1  UNL     1      12.723  67.482  30.278  1.00  0.00    -0.345 OA
HETATM    5  C4  UNL     1      12.969  66.576  29.292  1.00  0.00     0.191 C 
HETATM    6  C5  UNL     1      14.122  66.797  28.397  1.00  0.00     0.183 A 
HETATM    7  O2  UNL     1      14.143  67.249  27.117  1.00  0.00    -0.372 OA
HETATM    8  C6  UNL     1      13.838  65.922  27.198  1.00  0.00     0.159 A 
HETATM    9  C7  UNL     1      14.710  64.759  27.215  1.00  0.00     0.039 C 
HETATM   10  C8  UNL     1      16.086  65.069  26.826  1.00  0.00     0.036 C 
HETATM   11  C9  UNL     1      16.801  65.097  28.101  1.00  0.00    -0.017 C 
HETATM   12  C10 UNL     1      16.105  64.493  29.107  1.00  0.00    -0.037 C 
HETATM   13  C17 UNL     1      14.828  64.029  28.586  1.00  0.00     0.031 C 
HETATM   14  C18 UNL     1      15.039  62.567  28.173  1.00  0.00     0.027 C 
HETATM   15  C19 UNL     1      13.555  64.142  29.313  1.00  0.00     0.028 C 
HETATM   16  C29 UNL     1      13.422  65.372  30.183  1.00  0.00     0.203 C 
HETATM   17  O4  UNL     1      12.376  65.388  31.041  1.00  0.00    -0.342 OA
ENDROOT
BRANCH  15  18
HETATM   18  N1  UNL     1      12.821  63.026  29.632  1.00  0.00    -0.393 N 
ATOM     19  H1  UNL     1      13.126  62.597  30.506  1.00  0.00     0.159 HD
BRANCH  18  20
HETATM   20  C20 UNL     1      11.785  62.356  29.060  1.00  0.00     0.119 C 
BRANCH  20  21
HETATM   21  C21 UNL     1      10.463  63.076  29.422  1.00  0.00     0.020 C 
BRANCH  21  22
HETATM   22  C22 UNL     1      10.045  64.025  28.354  1.00  0.00     0.003 C 
BRANCH  22  23
HETATM   23  C23 UNL     1       8.982  63.464  27.449  1.00  0.00     0.030 C 
BRANCH  23  24
HETATM   24  C24 UNL     1       9.354  63.700  25.991  1.00  0.00     0.272 C 
BRANCH  24  25
HETATM   25  N2  UNL     1      10.682  63.274  25.677  1.00  0.00     0.092 N 
HETATM   26  C25 UNL     1      11.456  64.208  24.932  1.00  0.00     0.298 C 
HETATM   27  C26 UNL     1      12.613  63.448  24.289  1.00  0.00     0.198 C 
HETATM   28  O3  UNL     1      13.126  62.486  25.137  1.00  0.00    -0.388 OA
HETATM   29  C27 UNL     1      12.218  61.486  25.406  1.00  0.00     0.198 C 
HETATM   30  C28 UNL     1      10.780  61.946  25.162  1.00  0.00     0.298 C 
ENDBRANCH  24  25
ENDBRANCH  23  24
ENDBRANCH  22  23
ENDBRANCH  21  22
ENDBRANCH  20  21
ENDBRANCH  18  20
ENDBRANCH  15  18
BRANCH  12  31
HETATM   31  C11 UNL     1      16.755  64.479  30.404  1.00  0.00    -0.029 A 
HETATM   32  C12 UNL     1      16.204  65.079  31.513  1.00  0.00     0.015 A 
HETATM   33  C13 UNL     1      16.828  65.148  32.746  1.00  0.00     0.043 A 
HETATM   34  C14 UNL     1      18.069  64.594  32.911  1.00  0.00     0.116 A 
HETATM   35  F1  UNL     1      18.715  64.645  34.114  1.00  0.00    -0.206 F 
HETATM   36  C15 UNL     1      18.647  63.986  31.821  1.00  0.00     0.043 A 
HETATM   37  C16 UNL     1      17.991  63.932  30.578  1.00  0.00     0.015 A 
ENDBRANCH  12  31
TORSDOF 8
ENDMDL
MODEL 5
REMARK VINA RESULT: -8.993156761      4.456      7.246
REMARK  8 active torsions:
REMARK  status: ('A' for Active; 'I' for Inactive)
REMARK    1  A    between atoms: C10_12  and  C11_13 
REMARK    2  A    between atoms: C19_22  and  N1_23 
REMARK    3  A    between atoms: N1_23  and  C20_25 
REMARK    4  A    between atoms: C20_25  and  C21_26 
REMARK    5  A    between atoms: C21_26  and  C22_27 
REMARK    6  A    between atoms: C22_27  and  C23_28 
REMARK    7  A    between atoms: C23_28  and  C24_29 
REMARK    8  A    between atoms: C24_29  and  N2_30 
ROOT
HETATM    1  C1  UNL     1      14.549  71.215  28.252  1.00  0.00     0.078 C 
HETATM    2  C2  UNL     1      13.266  70.583  28.749  1.00  0.00     0.158 C 
HETATM    3  C3  UNL     1      12.095  71.222  28.036  1.00  0.00     0.078 C 
HETATM    4  O1  UNL     1      13.136  70.672  30.136  1.00  0.00    -0.345 OA
HETATM    5  C4  UNL     1      13.816  69.567  30.548  1.00  0.00     0.191 C 
HETATM    6  C5  UNL     1      13.530  69.019  31.889  1.00  0.00     0.183 A 
HETATM    7  O2  UNL     1      14.258  69.116  33.031  1.00  0.00    -0.372 OA
HETATM    8  C6  UNL     1      14.723  68.142  32.196  1.00  0.00     0.159 A 
HETATM    9  C7  UNL     1      14.350  66.742  32.090  1.00  0.00     0.039 C 
HETATM   10  C8  UNL     1      13.551  66.275  33.224  1.00  0.00     0.036 C 
HETATM   11  C9  UNL     1      12.190  66.240  32.689  1.00  0.00    -0.017 C 
HETATM   12  C10 UNL     1      12.161  66.270  31.325  1.00  0.00    -0.037 C 
HETATM   13  C17 UNL     1      13.525  66.361  30.825  1.00  0.00     0.031 C 
HETATM   14  C18 UNL     1      13.977  64.921  30.549  1.00  0.00     0.027 C 
HETATM   15  C19 UNL     1      13.931  67.215  29.699  1.00  0.00     0.028 C 
HETATM   16  C29 UNL     1      13.174  68.518  29.579  1.00  0.00     0.203 C 
HETATM   17  O4  UNL     1      13.353  69.211  28.431  1.00  0.00    -0.342 OA
ENDROOT
BRANCH  15  18
HETATM   18  N1  UNL     1      14.498  66.675  28.571  1.00  0.00    -0.393 N 
ATOM     19  H1  UNL     1      15.486  66.457  28.699  1.00  0.00     0.159 HD
BRANCH  18  20
HETATM   20  C20 UNL     1      14.056  66.360  27.324  1.00  0.00     0.119 C 
BRANCH  20  21
HETATM   21  C21 UNL     1      12.568  65.940  27.413  1.00  0.00     0.020 C 
BRANCH  21  22
HETATM   22  C22 UNL     1      12.341  64.596  26.815  1.00  0.00     0.003 C 
BRANCH  22  23
HETATM   23  C23 UNL     1      12.451  63.478  27.817  1.00  0.00     0.030 C 
BRANCH  23  24
HETATM   24  C24 UNL     1      13.441  62.430  27.326  1.00  0.00     0.272 C 
BRANCH  24  25
HETATM   25  N2  UNL     1      14.804  62.799  27.552  1.00  0.00     0.092 N 
HETATM   26  C25 UNL     1      15.571  63.024  26.375  1.00  0.00     0.298 C 
HETATM   27  C26 UNL     1      17.047  62.932  26.755  1.00  0.00     0.198 C 
HETATM   28  O3  UNL     1      17.293  63.505  27.987  1.00  0.00    -0.388 OA
HETATM   29  C27 UNL     1      16.673  62.828  29.014  1.00  0.00     0.198 C 
HETATM   30  C28 UNL     1      15.492  61.995  28.511  1.00  0.00     0.298 C 
ENDBRANCH  24  25
ENDBRANCH  23  24
ENDBRANCH  22  23
ENDBRANCH  21  22
ENDBRANCH  20  21
ENDBRANCH  18  20
ENDBRANCH  15  18
BRANCH  12  31
HETATM   31  C11 UNL     1      10.843  66.235  30.722  1.00  0.00    -0.029 A 
HETATM   32  C12 UNL     1      10.248  65.065  30.312  1.00  0.00     0.015 A 
HETATM   33  C13 UNL     1       9.025  65.001  29.669  1.00  0.00     0.043 A 
HETATM   34  C14 UNL     1       8.334  66.154  29.408  1.00  0.00     0.116 A 
HETATM   35  F1  UNL     1       7.125  66.129  28.773  1.00  0.00    -0.206 F 
HETATM   36  C15 UNL     1       8.902  67.343  29.805  1.00  0.00     0.043 A 
HETATM   37  C16 UNL     1      10.148  67.378  30.457  1.00  0.00     0.015 A 
ENDBRANCH  12  31
TORSDOF 8
ENDMDL
