MODEL 1
REMARK VINA RESULT: -10.021543563      0.000      0.000
REMARK  8 active torsions:
REMARK  status: ('A' for Active; 'I' for Inactive)
REMARK    1  A    between atoms: C5_5  and  C6_6 
REMARK    2  A    between atoms: C7_7  and  C8_8 
REMARK       I    between atoms: C8_8  and  N1_10 
REMARK    3  A    between atoms: C11_13  and  C12_14 
REMARK    4  A    between atoms: C12_14  and  C13_15 
REMARK    5  A    between atoms: C13_15  and  N2_16 
REMARK    6  A    between atoms: C16_20  and  O3_21 
REMARK    7  A    between atoms: O3_21  and  C17_22 
REMARK    8  A    between atoms: C17_22  and  C19_24 
ROOT
HETATM    1  N2  UNL     1      16.573  64.452  28.231  1.00  0.00    -0.279 N 
HETATM    2  C14 UNL     1      17.774  64.070  28.693  1.00  0.00     0.253 C 
HETATM    3  O2  UNL     1      18.673  64.030  27.812  1.00  0.00    -0.268 OA
HETATM    4  C15 UNL     1      18.164  63.719  29.984  1.00  0.00     0.112 C 
HETATM    5  C16 UNL     1      17.705  64.266  31.160  1.00  0.00     0.088 C 
HETATM    6  C20 UNL     1      16.488  64.940  31.342  1.00  0.00     0.048 A 
HETATM    7  C21 UNL     1      15.976  65.332  32.558  1.00  0.00     0.123 A 
HETATM    8  N3  UNL     1      14.815  65.936  32.299  1.00  0.00    -0.310 N 
ATOM      9  H3  UNL     1      14.192  66.340  32.999  1.00  0.00     0.186 HD
HETATM   10  N4  UNL     1      14.592  65.930  30.977  1.00  0.00    -0.295 N 
ATOM     11  H4  UNL     1      13.774  66.328  30.514  1.00  0.00     0.187 HD
HETATM   12  C22 UNL     1      15.613  65.320  30.357  1.00  0.00     0.131 A 
HETATM   13  C23 UNL     1      15.675  65.153  28.990  1.00  0.00     0.279 C 
HETATM   14  O4  UNL     1      14.790  65.714  28.275  1.00  0.00    -0.265 OA
ENDROOT
BRANCH   1  15
HETATM   15  C13 UNL     1      16.181  64.110  26.892  1.00  0.00     0.136 C 
BRANCH  15  16
HETATM   16  C12 UNL     1      15.784  62.706  26.677  1.00  0.00     0.025 C 
BRANCH  16  17
HETATM   17  C11 UNL     1      14.374  62.392  26.372  1.00  0.00    -0.010 C 
HETATM   18  C10 UNL     1      13.670  62.338  27.751  1.00  0.00     0.024 C 
HETATM   19  C9  UNL     1      12.212  61.949  27.601  1.00  0.00     0.126 C 
HETATM   20  N1  UNL     1      11.582  62.818  26.676  1.00  0.00    -0.349 N 
HETATM   21  C8  UNL     1      10.354  63.544  26.852  1.00  0.00     0.243 C 
HETATM   22  C25 UNL     1      12.247  62.984  25.384  1.00  0.00     0.126 C 
HETATM   23  O1  UNL     1      10.033  64.258  25.886  1.00  0.00    -0.268 OA
HETATM   24  C24 UNL     1      13.637  63.506  25.654  1.00  0.00     0.024 C 
BRANCH  21  25
HETATM   25  C7  UNL     1       9.559  63.457  28.035  1.00  0.00     0.070 C 
HETATM   26  C6  UNL     1       9.409  64.141  29.105  1.00  0.00    -0.017 C 
BRANCH  26  27
HETATM   27  C5  UNL     1       9.903  65.329  29.744  1.00  0.00     0.008 C 
HETATM   28  C4  UNL     1       9.143  66.585  29.768  1.00  0.00     0.009 C 
HETATM   29  C3  UNL     1       9.993  67.670  30.429  1.00  0.00     0.005 C 
HETATM   30  C2  UNL     1      11.308  67.177  30.932  1.00  0.00    -0.019 C 
HETATM   31  C1  UNL     1      11.870  68.276  31.838  1.00  0.00     0.010 C 
HETATM   32  C27 UNL     1      11.173  65.948  31.808  1.00  0.00     0.005 C 
HETATM   33  C26 UNL     1      10.202  64.957  31.209  1.00  0.00     0.009 C 
ENDBRANCH  26  27
ENDBRANCH  21  25
ENDBRANCH  16  17
ENDBRANCH  15  16
ENDBRANCH   1  15
BRANCH   5  34
HETATM   34  O3  UNL     1      18.456  64.178  32.293  1.00  0.00    -0.343 OA
BRANCH  34  35
HETATM   35  C17 UNL     1      19.015  63.063  32.912  1.00  0.00     0.153 C 
HETATM   36  C18 UNL     1      18.301  62.831  34.234  1.00  0.00     0.042 C 
BRANCH  35  37
HETATM   37  C19 UNL     1      20.493  63.302  33.225  1.00  0.00     0.254 C 
HETATM   38  F1  UNL     1      20.811  64.582  32.805  1.00  0.00    -0.253 F 
ENDBRANCH  35  37
ENDBRANCH  34  35
ENDBRANCH   5  34
TORSDOF 8
ENDMDL
MODEL 2
REMARK VINA RESULT: -9.882161304      3.190      7.633
REMARK  8 active torsions:
REMARK  status: ('A' for Active; 'I' for Inactive)
REMARK    1  A    between atoms: C5_5  and  C6_6 
REMARK    2  A    between atoms: C7_7  and  C8_8 
REMARK       I    between atoms: C8_8  and  N1_10 
REMARK    3  A    between atoms: C11_13  and  C12_14 
REMARK    4  A    between atoms: C12_14  and  C13_15 
REMARK    5  A    between atoms: C13_15  and  N2_16 
REMARK    6  A    between atoms: C16_20  and  O3_21 
REMARK    7  A    between atoms: O3_21  and  C17_22 
REMARK    8  A    between atoms: C17_22  and  C19_24 
ROOT
HETATM    1  N2  UNL     1      12.633  66.303  32.421  1.00  0.00    -0.279 N 
HETATM    2  C14 UNL     1      12.176  65.064  32.186  1.00  0.00     0.253 C 
HETATM    3  O2  UNL     1      12.520  64.218  33.053  1.00  0.00    -0.268 OA
HETATM    4  C15 UNL     1      11.388  64.585  31.141  1.00  0.00     0.112 C 
HETATM    5  C16 UNL     1      10.371  65.256  30.503  1.00  0.00     0.088 C 
HETATM    6  C20 UNL     1      10.199  66.648  30.451  1.00  0.00     0.048 A 
HETATM    7  C21 UNL     1       9.271  67.300  29.672  1.00  0.00     0.123 A 
HETATM    8  N3  UNL     1       9.431  68.604  29.911  1.00  0.00    -0.310 N 
ATOM      9  H3  UNL     1       8.886  69.352  29.482  1.00  0.00     0.186 HD
HETATM   10  N4  UNL     1      10.418  68.778  30.802  1.00  0.00    -0.295 N 
ATOM     11  H4  UNL     1      10.742  69.678  31.156  1.00  0.00     0.187 HD
HETATM   12  C22 UNL     1      10.913  67.583  31.156  1.00  0.00     0.131 A 
HETATM   13  C23 UNL     1      11.943  67.430  32.059  1.00  0.00     0.279 C 
HETATM   14  O4  UNL     1      12.356  68.455  32.679  1.00  0.00    -0.265 OA
ENDROOT
BRANCH   1  15
HETATM   15  C13 UNL     1      13.905  66.486  33.065  1.00  0.00     0.136 C 
BRANCH  15  16
HETATM   16  C12 UNL     1      15.080  66.485  32.177  1.00  0.00     0.025 C 
BRANCH  16  17
HETATM   17  C11 UNL     1      15.309  65.332  31.282  1.00  0.00    -0.010 C 
HETATM   18  C10 UNL     1      14.924  65.839  29.870  1.00  0.00     0.024 C 
HETATM   19  C9  UNL     1      15.041  64.730  28.844  1.00  0.00     0.126 C 
HETATM   20  N1  UNL     1      16.337  64.159  28.908  1.00  0.00    -0.349 N 
HETATM   21  C8  UNL     1      17.247  63.926  27.819  1.00  0.00     0.243 C 
HETATM   22  C25 UNL     1      16.798  63.741  30.231  1.00  0.00     0.126 C 
HETATM   23  O1  UNL     1      18.336  63.430  28.155  1.00  0.00    -0.268 OA
HETATM   24  C24 UNL     1      16.771  64.957  31.125  1.00  0.00     0.024 C 
BRANCH  21  25
HETATM   25  C7  UNL     1      16.933  64.235  26.462  1.00  0.00     0.070 C 
HETATM   26  C6  UNL     1      15.993  63.960  25.639  1.00  0.00    -0.017 C 
BRANCH  26  27
HETATM   27  C5  UNL     1      14.760  63.225  25.565  1.00  0.00     0.008 C 
HETATM   28  C4  UNL     1      14.357  62.258  26.594  1.00  0.00     0.009 C 
HETATM   29  C3  UNL     1      13.056  61.582  26.160  1.00  0.00     0.005 C 
HETATM   30  C2  UNL     1      12.504  62.111  24.879  1.00  0.00    -0.019 C 
HETATM   31  C1  UNL     1      11.071  61.583  24.768  1.00  0.00     0.010 C 
HETATM   32  C27 UNL     1      12.389  63.621  24.874  1.00  0.00     0.005 C 
HETATM   33  C26 UNL     1      13.627  64.263  25.457  1.00  0.00     0.009 C 
ENDBRANCH  26  27
ENDBRANCH  21  25
ENDBRANCH  16  17
ENDBRANCH  15  16
ENDBRANCH   1  15
BRANCH   5  34
HETATM   34  O3  UNL     1       9.405  64.561  29.840  1.00  0.00    -0.343 OA
BRANCH  34  35
HETATM   35  C17 UNL     1       9.522  63.507  28.937  1.00  0.00     0.153 C 
HETATM   36  C18 UNL     1      10.752  63.739  28.074  1.00  0.00     0.042 C 
BRANCH  35  37
HETATM   37  C19 UNL     1       8.310  63.457  28.004  1.00  0.00     0.254 C 
HETATM   38  F1  UNL     1       8.764  63.116  26.742  1.00  0.00    -0.253 F 
ENDBRANCH  35  37
ENDBRANCH  34  35
ENDBRANCH   5  34
TORSDOF 8
ENDMDL
MODEL 3
REMARK VINA RESULT: -9.745228746      3.935      7.353
REMARK  8 active torsions:
REMARK  status: ('A' for Active; 'I' for Inactive)
REMARK    1  A    between atoms: C5_5  and  C6_6 
REMARK    2  A    between atoms: C7_7  and  C8_8 
REMARK       I    between atoms: C8_8  and  N1_10 
REMARK    3  A    between atoms: C11_13  and  C12_14 
REMARK    4  A    between atoms: C12_14  and  C13_15 
REMARK    5  A    between atoms: C13_15  and  N2_16 
REMARK    6  A    between atoms: C16_20  and  O3_21 
REMARK    7  A    between atoms: O3_21  and  C17_22 
REMARK    8  A    between atoms: C17_22  and  C19_24 
ROOT
HETATM    1  N2  UNL     1      19.149  62.714  34.635  1.00  0.00    -0.279 N 
HETATM    2  C14 UNL     1      19.102  63.022  35.941  1.00  0.00     0.253 C 
HETATM    3  O2  UNL     1      17.936  63.059  36.417  1.00  0.00    -0.268 OA
HETATM    4  C15 UNL     1      20.137  63.301  36.831  1.00  0.00     0.112 C 
HETATM    5  C16 UNL     1      21.387  62.727  36.845  1.00  0.00     0.088 C 
HETATM    6  C20 UNL     1      22.025  62.100  35.764  1.00  0.00     0.048 A 
HETATM    7  C21 UNL     1      23.336  61.680  35.756  1.00  0.00     0.123 A 
HETATM    8  N3  UNL     1      23.549  61.139  34.554  1.00  0.00    -0.310 N 
ATOM      9  H3  UNL     1      24.431  60.735  34.239  1.00  0.00     0.186 HD
HETATM   10  N4  UNL     1      22.426  61.211  33.826  1.00  0.00    -0.295 N 
ATOM     11  H4  UNL     1      22.319  60.870  32.870  1.00  0.00     0.187 HD
HETATM   12  C22 UNL     1      21.463  61.801  34.550  1.00  0.00     0.131 A 
HETATM   13  C23 UNL     1      20.189  62.022  34.073  1.00  0.00     0.279 C 
HETATM   14  O4  UNL     1      19.874  61.531  32.947  1.00  0.00    -0.265 OA
ENDROOT
BRANCH   1  15
HETATM   15  C13 UNL     1      18.084  63.129  33.764  1.00  0.00     0.136 C 
BRANCH  15  16
HETATM   16  C12 UNL     1      18.103  64.546  33.357  1.00  0.00     0.025 C 
BRANCH  16  17
HETATM   17  C11 UNL     1      17.536  64.930  32.048  1.00  0.00    -0.010 C 
HETATM   18  C10 UNL     1      18.029  63.841  31.064  1.00  0.00     0.024 C 
HETATM   19  C9  UNL     1      17.580  64.145  29.648  1.00  0.00     0.126 C 
HETATM   20  N1  UNL     1      16.176  64.336  29.627  1.00  0.00    -0.349 N 
HETATM   21  C8  UNL     1      15.221  63.715  28.749  1.00  0.00     0.243 C 
HETATM   22  C25 UNL     1      15.635  65.287  30.596  1.00  0.00     0.126 C 
HETATM   23  O1  UNL     1      14.040  64.042  28.959  1.00  0.00    -0.268 OA
HETATM   24  C24 UNL     1      16.027  64.804  31.972  1.00  0.00     0.024 C 
BRANCH  21  25
HETATM   25  C7  UNL     1      15.590  62.799  27.719  1.00  0.00     0.070 C 
HETATM   26  C6  UNL     1      15.021  62.259  26.708  1.00  0.00    -0.017 C 
BRANCH  26  27
HETATM   27  C5  UNL     1      13.756  62.234  26.026  1.00  0.00     0.008 C 
HETATM   28  C4  UNL     1      12.501  61.895  26.709  1.00  0.00     0.009 C 
HETATM   29  C3  UNL     1      11.370  61.857  25.681  1.00  0.00     0.005 C 
HETATM   30  C2  UNL     1      11.800  62.232  24.303  1.00  0.00    -0.019 C 
HETATM   31  C1  UNL     1      10.521  62.466  23.494  1.00  0.00     0.010 C 
HETATM   32  C27 UNL     1      12.558  63.543  24.266  1.00  0.00     0.005 C 
HETATM   33  C26 UNL     1      13.563  63.623  25.391  1.00  0.00     0.009 C 
ENDBRANCH  26  27
ENDBRANCH  21  25
ENDBRANCH  16  17
ENDBRANCH  15  16
ENDBRANCH   1  15
BRANCH   5  34
HETATM   34  O3  UNL     1      22.128  62.733  37.989  1.00  0.00    -0.343 OA
BRANCH  34  35
HETATM   35  C17 UNL     1      22.013  61.951  39.134  1.00  0.00     0.153 C 
HETATM   36  C18 UNL     1      23.363  61.317  39.429  1.00  0.00     0.042 C 
BRANCH  35  37
HETATM   37  C19 UNL     1      21.011  60.815  38.916  1.00  0.00     0.254 C 
HETATM   38  F1  UNL     1      21.700  59.745  38.372  1.00  0.00    -0.253 F 
ENDBRANCH  35  37
ENDBRANCH  34  35
ENDBRANCH   5  34
TORSDOF 8
ENDMDL
MODEL 4
REMARK VINA RESULT: -9.670713997      0.971      1.351
REMARK  8 active torsions:
REMARK  status: ('A' for Active; 'I' for Inactive)
REMARK    1  A    between atoms: C5_5  and  C6_6 
REMARK    2  A    between atoms: C7_7  and  C8_8 
REMARK       I    between atoms: C8_8  and  N1_10 
REMARK    3  A    between atoms: C11_13  and  C12_14 
REMARK    4  A    between atoms: C12_14  and  C13_15 
REMARK    5  A    between atoms: C13_15  and  N2_16 
REMARK    6  A    between atoms: C16_20  and  O3_21 
REMARK    7  A    between atoms: O3_21  and  C17_22 
REMARK    8  A    between atoms: C17_22  and  C19_24 
ROOT
HETATM    1  N2  UNL     1      16.520  64.106  28.436  1.00  0.00    -0.279 N 
HETATM    2  C14 UNL     1      17.682  63.728  28.992  1.00  0.00     0.253 C 
HETATM    3  O2  UNL     1      18.608  63.536  28.160  1.00  0.00    -0.268 OA
HETATM    4  C15 UNL     1      18.007  63.522  30.331  1.00  0.00     0.112 C 
HETATM    5  C16 UNL     1      17.535  64.232  31.411  1.00  0.00     0.088 C 
HETATM    6  C20 UNL     1      16.349  64.980  31.459  1.00  0.00     0.048 A 
HETATM    7  C21 UNL     1      15.816  65.544  32.595  1.00  0.00     0.123 A 
HETATM    8  N3  UNL     1      14.697  66.166  32.215  1.00  0.00    -0.310 N 
ATOM      9  H3  UNL     1      14.072  66.683  32.835  1.00  0.00     0.186 HD
HETATM   10  N4  UNL     1      14.522  66.007  30.896  1.00  0.00    -0.295 N 
ATOM     11  H4  UNL     1      13.743  66.382  30.354  1.00  0.00     0.187 HD
HETATM   12  C22 UNL     1      15.530  65.276  30.398  1.00  0.00     0.131 A 
HETATM   13  C23 UNL     1      15.633  64.938  29.066  1.00  0.00     0.279 C 
HETATM   14  O4  UNL     1      14.805  65.447  28.252  1.00  0.00    -0.265 OA
ENDROOT
BRANCH   1  15
HETATM   15  C13 UNL     1      16.158  63.619  27.134  1.00  0.00     0.136 C 
BRANCH  15  16
HETATM   16  C12 UNL     1      15.422  62.342  27.107  1.00  0.00     0.025 C 
BRANCH  16  17
HETATM   17  C11 UNL     1      14.272  62.189  26.193  1.00  0.00    -0.010 C 
HETATM   18  C10 UNL     1      13.042  62.032  27.122  1.00  0.00     0.024 C 
HETATM   19  C9  UNL     1      11.780  61.791  26.316  1.00  0.00     0.126 C 
HETATM   20  N1  UNL     1      11.633  62.816  25.348  1.00  0.00    -0.349 N 
HETATM   21  C8  UNL     1      10.469  63.618  25.092  1.00  0.00     0.243 C 
HETATM   22  C25 UNL     1      12.793  63.077  24.497  1.00  0.00     0.126 C 
HETATM   23  O1  UNL     1      10.614  64.468  24.196  1.00  0.00    -0.268 OA
HETATM   24  C24 UNL     1      13.946  63.441  25.401  1.00  0.00     0.024 C 
BRANCH  21  25
HETATM   25  C7  UNL     1       9.241  63.460  25.803  1.00  0.00     0.070 C 
HETATM   26  C6  UNL     1       8.802  63.732  26.973  1.00  0.00    -0.017 C 
BRANCH  26  27
HETATM   27  C5  UNL     1       9.232  64.319  28.212  1.00  0.00     0.008 C 
HETATM   28  C4  UNL     1       8.372  65.214  28.998  1.00  0.00     0.009 C 
HETATM   29  C3  UNL     1       9.166  65.742  30.194  1.00  0.00     0.005 C 
HETATM   30  C2  UNL     1      10.542  65.177  30.297  1.00  0.00    -0.019 C 
HETATM   31  C1  UNL     1      11.060  65.537  31.692  1.00  0.00     0.010 C 
HETATM   32  C27 UNL     1      10.557  63.664  30.229  1.00  0.00     0.005 C 
HETATM   33  C26 UNL     1       9.640  63.159  29.139  1.00  0.00     0.009 C 
ENDBRANCH  26  27
ENDBRANCH  21  25
ENDBRANCH  16  17
ENDBRANCH  15  16
ENDBRANCH   1  15
BRANCH   5  34
HETATM   34  O3  UNL     1      18.240  64.250  32.577  1.00  0.00    -0.343 OA
BRANCH  34  35
HETATM   35  C17 UNL     1      18.868  63.211  33.259  1.00  0.00     0.153 C 
HETATM   36  C18 UNL     1      18.081  62.914  34.525  1.00  0.00     0.042 C 
BRANCH  35  37
HETATM   37  C19 UNL     1      20.281  63.619  33.682  1.00  0.00     0.254 C 
HETATM   38  F1  UNL     1      20.663  64.692  32.896  1.00  0.00    -0.253 F 
ENDBRANCH  35  37
ENDBRANCH  34  35
ENDBRANCH   5  34
TORSDOF 8
ENDMDL
MODEL 5
REMARK VINA RESULT: -9.608122782      3.335      6.121
REMARK  8 active torsions:
REMARK  status: ('A' for Active; 'I' for Inactive)
REMARK    1  A    between atoms: C5_5  and  C6_6 
REMARK    2  A    between atoms: C7_7  and  C8_8 
REMARK       I    between atoms: C8_8  and  N1_10 
REMARK    3  A    between atoms: C11_13  and  C12_14 
REMARK    4  A    between atoms: C12_14  and  C13_15 
REMARK    5  A    between atoms: C13_15  and  N2_16 
REMARK    6  A    between atoms: C16_20  and  O3_21 
REMARK    7  A    between atoms: O3_21  and  C17_22 
REMARK    8  A    between atoms: C17_22  and  C19_24 
ROOT
HETATM    1  N2  UNL     1      19.551  63.722  33.529  1.00  0.00    -0.279 N 
HETATM    2  C14 UNL     1      20.832  63.476  33.211  1.00  0.00     0.253 C 
HETATM    3  O2  UNL     1      21.346  64.341  32.453  1.00  0.00    -0.268 OA
HETATM    4  C15 UNL     1      21.661  62.423  33.592  1.00  0.00     0.112 C 
HETATM    5  C16 UNL     1      21.671  61.782  34.809  1.00  0.00     0.088 C 
HETATM    6  C20 UNL     1      20.615  61.737  35.732  1.00  0.00     0.048 A 
HETATM    7  C21 UNL     1      20.590  60.956  36.865  1.00  0.00     0.123 A 
HETATM    8  N3  UNL     1      19.423  61.204  37.465  1.00  0.00    -0.310 N 
ATOM      9  H3  UNL     1      19.106  60.775  38.335  1.00  0.00     0.186 HD
HETATM   10  N4  UNL     1      18.733  62.102  36.748  1.00  0.00    -0.295 N 
ATOM     11  H4  UNL     1      17.809  62.464  36.986  1.00  0.00     0.187 HD
HETATM   12  C22 UNL     1      19.447  62.452  35.668  1.00  0.00     0.131 A 
HETATM   13  C23 UNL     1      19.003  63.361  34.732  1.00  0.00     0.279 C 
HETATM   14  O4  UNL     1      17.928  63.991  34.967  1.00  0.00    -0.265 OA
ENDROOT
BRANCH   1  15
HETATM   15  C13 UNL     1      18.692  64.376  32.581  1.00  0.00     0.136 C 
BRANCH  15  16
HETATM   16  C12 UNL     1      17.933  63.487  31.683  1.00  0.00     0.025 C 
BRANCH  16  17
HETATM   17  C11 UNL     1      18.134  63.590  30.224  1.00  0.00    -0.010 C 
HETATM   18  C10 UNL     1      17.044  62.680  29.605  1.00  0.00     0.024 C 
HETATM   19  C9  UNL     1      17.174  62.627  28.095  1.00  0.00     0.126 C 
HETATM   20  N1  UNL     1      17.176  63.945  27.573  1.00  0.00    -0.349 N 
HETATM   21  C8  UNL     1      16.369  64.466  26.505  1.00  0.00     0.243 C 
HETATM   22  C25 UNL     1      18.123  64.881  28.178  1.00  0.00     0.126 C 
HETATM   23  O1  UNL     1      16.554  65.670  26.258  1.00  0.00    -0.268 OA
HETATM   24  C24 UNL     1      17.806  64.956  29.653  1.00  0.00     0.024 C 
BRANCH  21  25
HETATM   25  C7  UNL     1      15.429  63.673  25.780  1.00  0.00     0.070 C 
HETATM   26  C6  UNL     1      14.285  63.147  26.007  1.00  0.00    -0.017 C 
BRANCH  26  27
HETATM   27  C5  UNL     1      13.303  63.030  27.050  1.00  0.00     0.008 C 
HETATM   28  C4  UNL     1      13.591  62.373  28.331  1.00  0.00     0.009 C 
HETATM   29  C3  UNL     1      12.310  62.326  29.165  1.00  0.00     0.005 C 
HETATM   30  C2  UNL     1      11.149  63.001  28.518  1.00  0.00    -0.019 C 
HETATM   31  C1  UNL     1      10.074  63.155  29.598  1.00  0.00     0.010 C 
HETATM   32  C27 UNL     1      11.475  64.406  28.057  1.00  0.00     0.005 C 
HETATM   33  C26 UNL     1      12.822  64.456  27.374  1.00  0.00     0.009 C 
ENDBRANCH  26  27
ENDBRANCH  21  25
ENDBRANCH  16  17
ENDBRANCH  15  16
ENDBRANCH   1  15
BRANCH   5  34
HETATM   34  O3  UNL     1      22.783  61.108  35.216  1.00  0.00    -0.343 OA
BRANCH  34  35
HETATM   35  C17 UNL     1      23.965  61.586  35.773  1.00  0.00     0.153 C 
HETATM   36  C18 UNL     1      24.635  60.456  36.539  1.00  0.00     0.042 C 
BRANCH  35  37
HETATM   37  C19 UNL     1      23.678  62.709  36.771  1.00  0.00     0.254 C 
HETATM   38  F1  UNL     1      23.738  62.168  38.043  1.00  0.00    -0.253 F 
ENDBRANCH  35  37
ENDBRANCH  34  35
ENDBRANCH   5  34
TORSDOF 8
ENDMDL
