MODEL 1
REMARK VINA RESULT: -8.195773490      0.000      0.000
REMARK  9 active torsions:
REMARK  status: ('A' for Active; 'I' for Inactive)
REMARK    1  A    between atoms: O1_2  and  C2_3 
REMARK    2  A    between atoms: C6_7  and  O2_8 
REMARK    3  A    between atoms: C13_15  and  C14_16 
REMARK    4  A    between atoms: C14_16  and  O3_17 
REMARK    5  A    between atoms: O3_17  and  C15_18 
REMARK    6  A    between atoms: C23_27  and  O5_28 
REMARK    7  A    between atoms: O5_28  and  S1_29 
REMARK    8  A    between atoms: C24_33  and  O9_34 
REMARK    9  A    between atoms: O9_34  and  C25_35 
ROOT
HETATM    1  C2  UNL     1      11.224  64.710  29.494  1.00  0.00     0.154 C 
HETATM    2  C3  UNL     1      11.586  63.595  28.498  1.00  0.00     0.002 C 
HETATM    3  C4  UNL     1      11.811  63.818  27.086  1.00  0.00    -0.015 C 
HETATM    4  C5  UNL     1      13.110  63.585  26.359  1.00  0.00     0.012 C 
HETATM    5  C6  UNL     1      13.745  62.269  26.552  1.00  0.00     0.134 C 
HETATM    6  C8  UNL     1      12.700  61.239  26.152  1.00  0.00     0.033 C 
HETATM    7  C9  UNL     1      12.109  61.402  24.818  1.00  0.00     0.007 C 
HETATM    8  C10 UNL     1      12.135  62.769  24.193  1.00  0.00    -0.013 C 
HETATM    9  C11 UNL     1      10.738  63.279  23.911  1.00  0.00     0.010 C 
HETATM   10  C12 UNL     1      13.027  63.746  24.881  1.00  0.00     0.010 C 
HETATM   11  C13 UNL     1      12.819  65.147  24.650  1.00  0.00     0.016 C 
HETATM   12  C17 UNL     1      13.857  65.710  25.659  1.00  0.00     0.013 C 
HETATM   13  C18 UNL     1      14.105  64.792  26.719  1.00  0.00     0.005 C 
HETATM   14  C19 UNL     1      13.468  65.060  28.111  1.00  0.00    -0.006 C 
HETATM   15  C20 UNL     1      13.520  64.549  29.303  1.00  0.00     0.020 C 
HETATM   16  C21 UNL     1      12.516  65.221  30.250  1.00  0.00     0.016 C 
HETATM   17  C22 UNL     1      12.510  64.553  31.603  1.00  0.00     0.021 C 
HETATM   18  C23 UNL     1      12.711  66.614  30.375  1.00  0.00     0.185 C 
HETATM   19  C24 UNL     1      12.843  67.370  29.096  1.00  0.00     0.163 C 
HETATM   20  C27 UNL     1      13.033  66.500  27.906  1.00  0.00     0.040 C 
ENDROOT
BRANCH  11  21
HETATM   21  C14 UNL     1      13.056  65.669  23.295  1.00  0.00     0.183 C 
BRANCH  21  22
HETATM   22  O3  UNL     1      13.478  64.977  22.245  1.00  0.00    -0.321 OA
BRANCH  22  23
HETATM   23  C15 UNL     1      13.144  64.614  21.007  1.00  0.00     0.254 C 
HETATM   24  C16 UNL     1      11.737  64.613  20.475  1.00  0.00     0.126 C 
HETATM   25  O4  UNL     1      14.009  64.238  20.191  1.00  0.00    -0.266 OA
ENDBRANCH  22  23
ENDBRANCH  21  22
ENDBRANCH  11  21
BRANCH   5  26
HETATM   26  O2  UNL     1      14.295  61.947  27.741  1.00  0.00    -0.390 OA
HETATM   27  C7  UNL     1      15.660  61.902  27.699  1.00  0.00     0.202 C 
ENDBRANCH   5  26
BRANCH   1  28
HETATM   28  O1  UNL     1      10.415  65.658  29.036  1.00  0.00    -0.386 OA
HETATM   29  C1  UNL     1       9.089  65.606  29.527  1.00  0.00     0.202 C 
ENDBRANCH   1  28
BRANCH  19  30
HETATM   30  O9  UNL     1      11.717  68.217  28.962  1.00  0.00    -0.314 OA
BRANCH  30  31
HETATM   31  C25 UNL     1      11.304  69.151  29.861  1.00  0.00     0.255 C 
HETATM   32  C26 UNL     1       9.889  69.124  30.296  1.00  0.00     0.126 C 
HETATM   33  O10 UNL     1      12.143  69.988  30.277  1.00  0.00    -0.266 OA
ENDBRANCH  30  31
ENDBRANCH  19  30
BRANCH  18  34
HETATM   34  O5  UNL     1      13.869  66.857  31.139  1.00  0.00    -0.248 OA
BRANCH  34  35
HETATM   35  S1  UNL     1      13.567  67.491  32.634  1.00  0.00     0.252 S 
HETATM   36  O6  UNL     1      14.385  68.745  32.898  1.00  0.00    -0.572 OA
HETATM   37  O7  UNL     1      14.010  66.489  33.680  1.00  0.00    -0.572 OA
HETATM   38  O8  UNL     1      11.964  67.856  32.902  1.00  0.00    -0.572 OA
ENDBRANCH  34  35
ENDBRANCH  18  34
TORSDOF 9
ENDMDL
MODEL 2
REMARK VINA RESULT: -8.152848029      3.053      6.191
REMARK  9 active torsions:
REMARK  status: ('A' for Active; 'I' for Inactive)
REMARK    1  A    between atoms: O1_2  and  C2_3 
REMARK    2  A    between atoms: C6_7  and  O2_8 
REMARK    3  A    between atoms: C13_15  and  C14_16 
REMARK    4  A    between atoms: C14_16  and  O3_17 
REMARK    5  A    between atoms: O3_17  and  C15_18 
REMARK    6  A    between atoms: C23_27  and  O5_28 
REMARK    7  A    between atoms: O5_28  and  S1_29 
REMARK    8  A    between atoms: C24_33  and  O9_34 
REMARK    9  A    between atoms: O9_34  and  C25_35 
ROOT
HETATM    1  C2  UNL     1      13.027  66.609  26.876  1.00  0.00     0.154 C 
HETATM    2  C3  UNL     1      13.686  65.220  26.860  1.00  0.00     0.002 C 
HETATM    3  C4  UNL     1      14.834  64.862  27.666  1.00  0.00    -0.015 C 
HETATM    4  C5  UNL     1      14.852  63.812  28.747  1.00  0.00     0.012 C 
HETATM    5  C6  UNL     1      14.326  62.485  28.383  1.00  0.00     0.134 C 
HETATM    6  C8  UNL     1      15.126  62.037  27.170  1.00  0.00     0.033 C 
HETATM    7  C9  UNL     1      16.586  62.057  27.315  1.00  0.00     0.007 C 
HETATM    8  C10 UNL     1      17.184  62.970  28.349  1.00  0.00    -0.013 C 
HETATM    9  C11 UNL     1      18.113  63.989  27.722  1.00  0.00     0.010 C 
HETATM   10  C12 UNL     1      16.200  63.537  29.315  1.00  0.00     0.010 C 
HETATM   11  C13 UNL     1      16.563  64.713  30.054  1.00  0.00     0.016 C 
HETATM   12  C17 UNL     1      15.209  64.967  30.772  1.00  0.00     0.013 C 
HETATM   13  C18 UNL     1      14.118  64.417  30.040  1.00  0.00     0.005 C 
HETATM   14  C19 UNL     1      13.204  65.372  29.223  1.00  0.00    -0.006 C 
HETATM   15  C20 UNL     1      12.107  65.291  28.533  1.00  0.00     0.020 C 
HETATM   16  C21 UNL     1      11.774  66.620  27.842  1.00  0.00     0.016 C 
HETATM   17  C22 UNL     1      10.557  66.488  26.961  1.00  0.00     0.021 C 
HETATM   18  C23 UNL     1      11.633  67.698  28.742  1.00  0.00     0.185 C 
HETATM   19  C24 UNL     1      12.731  67.862  29.739  1.00  0.00     0.163 C 
HETATM   20  C27 UNL     1      13.651  66.698  29.809  1.00  0.00     0.040 C 
ENDROOT
BRANCH  11  21
HETATM   21  C14 UNL     1      17.667  64.611  31.021  1.00  0.00     0.183 C 
BRANCH  21  22
HETATM   22  O3  UNL     1      17.574  64.718  32.340  1.00  0.00    -0.321 OA
BRANCH  22  23
HETATM   23  C15 UNL     1      18.108  64.286  33.482  1.00  0.00     0.254 C 
HETATM   24  C16 UNL     1      19.250  64.960  34.192  1.00  0.00     0.126 C 
HETATM   25  O4  UNL     1      17.675  63.261  34.048  1.00  0.00    -0.266 OA
ENDBRANCH  22  23
ENDBRANCH  21  22
ENDBRANCH  11  21
BRANCH   5  26
HETATM   26  O2  UNL     1      13.005  62.313  28.168  1.00  0.00    -0.390 OA
HETATM   27  C7  UNL     1      12.731  61.793  26.935  1.00  0.00     0.202 C 
ENDBRANCH   5  26
BRANCH   1  28
HETATM   28  O1  UNL     1      13.853  67.642  26.997  1.00  0.00    -0.386 OA
HETATM   29  C1  UNL     1      13.666  68.676  26.048  1.00  0.00     0.202 C 
ENDBRANCH   1  28
BRANCH  19  30
HETATM   30  O9  UNL     1      13.416  69.067  29.451  1.00  0.00    -0.314 OA
BRANCH  30  31
HETATM   31  C25 UNL     1      13.289  70.243  30.125  1.00  0.00     0.255 C 
HETATM   32  C26 UNL     1      12.699  71.398  29.409  1.00  0.00     0.126 C 
HETATM   33  O10 UNL     1      13.678  70.290  31.318  1.00  0.00    -0.266 OA
ENDBRANCH  30  31
ENDBRANCH  19  30
BRANCH  18  34
HETATM   34  O5  UNL     1      10.425  67.559  29.453  1.00  0.00    -0.248 OA
BRANCH  34  35
HETATM   35  S1  UNL     1       9.512  68.934  29.503  1.00  0.00     0.252 S 
HETATM   36  O6  UNL     1       8.024  68.636  29.402  1.00  0.00    -0.572 OA
HETATM   37  O7  UNL     1       9.842  69.776  28.287  1.00  0.00    -0.572 OA
HETATM   38  O8  UNL     1       9.759  69.862  30.864  1.00  0.00    -0.572 OA
ENDBRANCH  34  35
ENDBRANCH  18  34
TORSDOF 9
ENDMDL
MODEL 3
REMARK VINA RESULT: -8.075064271      0.722      1.070
REMARK  9 active torsions:
REMARK  status: ('A' for Active; 'I' for Inactive)
REMARK    1  A    between atoms: O1_2  and  C2_3 
REMARK    2  A    between atoms: C6_7  and  O2_8 
REMARK    3  A    between atoms: C13_15  and  C14_16 
REMARK    4  A    between atoms: C14_16  and  O3_17 
REMARK    5  A    between atoms: O3_17  and  C15_18 
REMARK    6  A    between atoms: C23_27  and  O5_28 
REMARK    7  A    between atoms: O5_28  and  S1_29 
REMARK    8  A    between atoms: C24_33  and  O9_34 
REMARK    9  A    between atoms: O9_34  and  C25_35 
ROOT
HETATM    1  C2  UNL     1      11.189  64.942  29.506  1.00  0.00     0.154 C 
HETATM    2  C3  UNL     1      11.553  63.790  28.555  1.00  0.00     0.002 C 
HETATM    3  C4  UNL     1      11.733  63.949  27.127  1.00  0.00    -0.015 C 
HETATM    4  C5  UNL     1      13.017  63.714  26.375  1.00  0.00     0.012 C 
HETATM    5  C6  UNL     1      13.692  62.426  26.613  1.00  0.00     0.134 C 
HETATM    6  C8  UNL     1      12.665  61.351  26.294  1.00  0.00     0.033 C 
HETATM    7  C9  UNL     1      12.033  61.434  24.972  1.00  0.00     0.007 C 
HETATM    8  C10 UNL     1      12.004  62.768  24.281  1.00  0.00    -0.013 C 
HETATM    9  C11 UNL     1      10.586  63.228  24.015  1.00  0.00     0.010 C 
HETATM   10  C12 UNL     1      12.888  63.800  24.895  1.00  0.00     0.010 C 
HETATM   11  C13 UNL     1      12.636  65.183  24.602  1.00  0.00     0.016 C 
HETATM   12  C17 UNL     1      13.686  65.820  25.552  1.00  0.00     0.013 C 
HETATM   13  C18 UNL     1      13.988  64.962  26.648  1.00  0.00     0.005 C 
HETATM   14  C19 UNL     1      13.383  65.282  28.043  1.00  0.00    -0.006 C 
HETATM   15  C20 UNL     1      13.481  64.832  29.257  1.00  0.00     0.020 C 
HETATM   16  C21 UNL     1      12.487  65.523  30.199  1.00  0.00     0.016 C 
HETATM   17  C22 UNL     1      12.536  64.922  31.582  1.00  0.00     0.021 C 
HETATM   18  C23 UNL     1      12.648  66.925  30.251  1.00  0.00     0.185 C 
HETATM   19  C24 UNL     1      12.724  67.620  28.933  1.00  0.00     0.163 C 
HETATM   20  C27 UNL     1      12.904  66.698  27.782  1.00  0.00     0.040 C 
ENDROOT
BRANCH  11  21
HETATM   21  C14 UNL     1      12.822  65.644  23.217  1.00  0.00     0.183 C 
BRANCH  21  22
HETATM   22  O3  UNL     1      13.282  64.926  22.202  1.00  0.00    -0.321 OA
BRANCH  22  23
HETATM   23  C15 UNL     1      13.004  64.549  20.953  1.00  0.00     0.254 C 
HETATM   24  C16 UNL     1      11.618  64.502  20.372  1.00  0.00     0.126 C 
HETATM   25  O4  UNL     1      13.911  64.202  20.169  1.00  0.00    -0.266 OA
ENDBRANCH  22  23
ENDBRANCH  21  22
ENDBRANCH  11  21
BRANCH   5  26
HETATM   26  O2  UNL     1      14.283  62.177  27.800  1.00  0.00    -0.390 OA
HETATM   27  C7  UNL     1      15.617  61.907  27.682  1.00  0.00     0.202 C 
ENDBRANCH   5  26
BRANCH   1  28
HETATM   28  O1  UNL     1      10.342  65.846  29.026  1.00  0.00    -0.386 OA
HETATM   29  C1  UNL     1       9.016  65.745  29.511  1.00  0.00     0.202 C 
ENDBRANCH   1  28
BRANCH  19  30
HETATM   30  O9  UNL     1      11.571  68.431  28.791  1.00  0.00    -0.314 OA
BRANCH  30  31
HETATM   31  C25 UNL     1      11.531  69.788  28.869  1.00  0.00     0.255 C 
HETATM   32  C26 UNL     1      12.195  70.569  27.800  1.00  0.00     0.126 C 
HETATM   33  O10 UNL     1      10.933  70.312  29.841  1.00  0.00    -0.266 OA
ENDBRANCH  30  31
ENDBRANCH  19  30
BRANCH  18  34
HETATM   34  O5  UNL     1      13.819  67.235  30.968  1.00  0.00    -0.248 OA
BRANCH  34  35
HETATM   35  S1  UNL     1      13.717  68.625  31.853  1.00  0.00     0.252 S 
HETATM   36  O6  UNL     1      14.572  68.568  33.109  1.00  0.00    -0.572 OA
HETATM   37  O7  UNL     1      12.291  68.783  32.339  1.00  0.00    -0.572 OA
HETATM   38  O8  UNL     1      14.136  69.998  31.008  1.00  0.00    -0.572 OA
ENDBRANCH  34  35
ENDBRANCH  18  34
TORSDOF 9
ENDMDL
MODEL 4
REMARK VINA RESULT: -8.006741131      1.208      1.683
REMARK  9 active torsions:
REMARK  status: ('A' for Active; 'I' for Inactive)
REMARK    1  A    between atoms: O1_2  and  C2_3 
REMARK    2  A    between atoms: C6_7  and  O2_8 
REMARK    3  A    between atoms: C13_15  and  C14_16 
REMARK    4  A    between atoms: C14_16  and  O3_17 
REMARK    5  A    between atoms: O3_17  and  C15_18 
REMARK    6  A    between atoms: C23_27  and  O5_28 
REMARK    7  A    between atoms: O5_28  and  S1_29 
REMARK    8  A    between atoms: C24_33  and  O9_34 
REMARK    9  A    between atoms: O9_34  and  C25_35 
ROOT
HETATM    1  C2  UNL     1      11.368  65.035  29.618  1.00  0.00     0.154 C 
HETATM    2  C3  UNL     1      11.799  63.824  28.774  1.00  0.00     0.002 C 
HETATM    3  C4  UNL     1      12.060  63.883  27.352  1.00  0.00    -0.015 C 
HETATM    4  C5  UNL     1      13.388  63.614  26.693  1.00  0.00     0.012 C 
HETATM    5  C6  UNL     1      14.060  62.355  27.061  1.00  0.00     0.134 C 
HETATM    6  C8  UNL     1      13.064  61.246  26.761  1.00  0.00     0.033 C 
HETATM    7  C9  UNL     1      12.509  61.226  25.403  1.00  0.00     0.007 C 
HETATM    8  C10 UNL     1      12.508  62.508  24.617  1.00  0.00    -0.013 C 
HETATM    9  C11 UNL     1      11.104  62.928  24.239  1.00  0.00     0.010 C 
HETATM   10  C12 UNL     1      13.345  63.593  25.205  1.00  0.00     0.010 C 
HETATM   11  C13 UNL     1      13.096  64.947  24.801  1.00  0.00     0.016 C 
HETATM   12  C17 UNL     1      14.083  65.665  25.761  1.00  0.00     0.013 C 
HETATM   13  C18 UNL     1      14.329  64.892  26.932  1.00  0.00     0.005 C 
HETATM   14  C19 UNL     1      13.641  65.301  28.263  1.00  0.00    -0.006 C 
HETATM   15  C20 UNL     1      13.673  64.939  29.509  1.00  0.00     0.020 C 
HETATM   16  C21 UNL     1      12.619  65.682  30.341  1.00  0.00     0.016 C 
HETATM   17  C22 UNL     1      12.593  65.181  31.764  1.00  0.00     0.021 C 
HETATM   18  C23 UNL     1      12.762  67.086  30.301  1.00  0.00     0.185 C 
HETATM   19  C24 UNL     1      12.908  67.687  28.943  1.00  0.00     0.163 C 
HETATM   20  C27 UNL     1      13.164  66.688  27.874  1.00  0.00     0.040 C 
ENDROOT
BRANCH  11  21
HETATM   21  C14 UNL     1      13.358  65.311  23.399  1.00  0.00     0.183 C 
BRANCH  21  22
HETATM   22  O3  UNL     1      14.329  66.098  22.956  1.00  0.00    -0.321 OA
BRANCH  22  23
HETATM   23  C15 UNL     1      14.603  67.355  22.604  1.00  0.00     0.254 C 
HETATM   24  C16 UNL     1      14.312  68.557  23.459  1.00  0.00     0.126 C 
HETATM   25  O4  UNL     1      15.134  67.613  21.505  1.00  0.00    -0.266 OA
ENDBRANCH  22  23
ENDBRANCH  21  22
ENDBRANCH  11  21
BRANCH   5  26
HETATM   26  O2  UNL     1      14.584  62.200  28.295  1.00  0.00    -0.390 OA
HETATM   27  C7  UNL     1      15.934  61.988  28.276  1.00  0.00     0.202 C 
ENDBRANCH   5  26
BRANCH   1  28
HETATM   28  O1  UNL     1      10.542  65.890  29.027  1.00  0.00    -0.386 OA
HETATM   29  C1  UNL     1       9.218  65.891  29.528  1.00  0.00     0.202 C 
ENDBRANCH   1  28
BRANCH  19  30
HETATM   30  O9  UNL     1      11.758  68.469  28.678  1.00  0.00    -0.314 OA
BRANCH  30  31
HETATM   31  C25 UNL     1      11.629  69.806  28.898  1.00  0.00     0.255 C 
HETATM   32  C26 UNL     1      12.354  70.734  28.000  1.00  0.00     0.126 C 
HETATM   33  O10 UNL     1      10.901  70.185  29.849  1.00  0.00    -0.266 OA
ENDBRANCH  30  31
ENDBRANCH  19  30
BRANCH  18  34
HETATM   34  O5  UNL     1      13.887  67.462  31.060  1.00  0.00    -0.248 OA
BRANCH  34  35
HETATM   35  S1  UNL     1      13.634  68.775  32.029  1.00  0.00     0.252 S 
HETATM   36  O6  UNL     1      14.502  68.740  33.278  1.00  0.00    -0.572 OA
HETATM   37  O7  UNL     1      12.204  68.739  32.527  1.00  0.00    -0.572 OA
HETATM   38  O8  UNL     1      13.887  70.236  31.270  1.00  0.00    -0.572 OA
ENDBRANCH  34  35
ENDBRANCH  18  34
TORSDOF 9
ENDMDL
MODEL 5
REMARK VINA RESULT: -7.932119052      2.791      4.472
REMARK  9 active torsions:
REMARK  status: ('A' for Active; 'I' for Inactive)
REMARK    1  A    between atoms: O1_2  and  C2_3 
REMARK    2  A    between atoms: C6_7  and  O2_8 
REMARK    3  A    between atoms: C13_15  and  C14_16 
REMARK    4  A    between atoms: C14_16  and  O3_17 
REMARK    5  A    between atoms: O3_17  and  C15_18 
REMARK    6  A    between atoms: C23_27  and  O5_28 
REMARK    7  A    between atoms: O5_28  and  S1_29 
REMARK    8  A    between atoms: C24_33  and  O9_34 
REMARK    9  A    between atoms: O9_34  and  C25_35 
ROOT
HETATM    1  C2  UNL     1      11.911  68.483  30.306  1.00  0.00     0.154 C 
HETATM    2  C3  UNL     1      11.969  66.957  30.483  1.00  0.00     0.002 C 
HETATM    3  C4  UNL     1      11.586  66.010  29.457  1.00  0.00    -0.015 C 
HETATM    4  C5  UNL     1      12.505  65.016  28.797  1.00  0.00     0.012 C 
HETATM    5  C6  UNL     1      13.308  64.166  29.693  1.00  0.00     0.134 C 
HETATM    6  C8  UNL     1      12.314  63.469  30.609  1.00  0.00     0.033 C 
HETATM    7  C9  UNL     1      11.226  62.740  29.947  1.00  0.00     0.007 C 
HETATM    8  C10 UNL     1      10.846  63.146  28.551  1.00  0.00    -0.013 C 
HETATM    9  C11 UNL     1       9.405  63.603  28.476  1.00  0.00     0.010 C 
HETATM   10  C12 UNL     1      11.822  64.057  27.885  1.00  0.00     0.010 C 
HETATM   11  C13 UNL     1      11.383  64.830  26.759  1.00  0.00     0.016 C 
HETATM   12  C17 UNL     1      12.666  65.676  26.538  1.00  0.00     0.013 C 
HETATM   13  C18 UNL     1      13.418  65.808  27.741  1.00  0.00     0.005 C 
HETATM   14  C19 UNL     1      13.362  67.152  28.519  1.00  0.00    -0.006 C 
HETATM   15  C20 UNL     1      13.942  67.687  29.550  1.00  0.00     0.020 C 
HETATM   16  C21 UNL     1      13.331  69.050  29.898  1.00  0.00     0.016 C 
HETATM   17  C22 UNL     1      13.939  69.617  31.158  1.00  0.00     0.021 C 
HETATM   18  C23 UNL     1      13.401  69.982  28.840  1.00  0.00     0.185 C 
HETATM   19  C24 UNL     1      12.926  69.494  27.512  1.00  0.00     0.163 C 
HETATM   20  C27 UNL     1      12.723  68.024  27.455  1.00  0.00     0.040 C 
ENDROOT
BRANCH  11  21
HETATM   21  C14 UNL     1      11.000  64.113  25.532  1.00  0.00     0.183 C 
BRANCH  21  22
HETATM   22  O3  UNL     1      11.618  63.064  25.006  1.00  0.00    -0.321 OA
BRANCH  22  23
HETATM   23  C15 UNL     1      11.671  61.732  25.043  1.00  0.00     0.254 C 
HETATM   24  C16 UNL     1      12.538  60.946  25.988  1.00  0.00     0.126 C 
HETATM   25  O4  UNL     1      10.981  61.039  24.269  1.00  0.00    -0.266 OA
ENDBRANCH  22  23
ENDBRANCH  21  22
ENDBRANCH  11  21
BRANCH   5  26
HETATM   26  O2  UNL     1      14.319  64.698  30.411  1.00  0.00    -0.390 OA
HETATM   27  C7  UNL     1      15.549  64.296  29.974  1.00  0.00     0.202 C 
ENDBRANCH   5  26
BRANCH   1  28
HETATM   28  O1  UNL     1      10.885  68.947  29.601  1.00  0.00    -0.386 OA
HETATM   29  C1  UNL     1       9.771  69.368  30.367  1.00  0.00     0.202 C 
ENDBRANCH   1  28
BRANCH  19  30
HETATM   30  O9  UNL     1      11.752  70.208  27.171  1.00  0.00    -0.314 OA
BRANCH  30  31
HETATM   31  C25 UNL     1      11.360  70.555  25.915  1.00  0.00     0.255 C 
HETATM   32  C26 UNL     1      10.225  69.820  25.310  1.00  0.00     0.126 C 
HETATM   33  O10 UNL     1      11.978  71.479  25.332  1.00  0.00    -0.266 OA
ENDBRANCH  30  31
ENDBRANCH  19  30
BRANCH  18  34
HETATM   34  O5  UNL     1      14.732  70.416  28.687  1.00  0.00    -0.248 OA
BRANCH  34  35
HETATM   35  S1  UNL     1      14.878  71.877  27.930  1.00  0.00     0.252 S 
HETATM   36  O6  UNL     1      15.127  71.725  26.438  1.00  0.00    -0.572 OA
HETATM   37  O7  UNL     1      16.103  72.582  28.477  1.00  0.00    -0.572 OA
HETATM   38  O8  UNL     1      13.563  72.879  28.133  1.00  0.00    -0.572 OA
ENDBRANCH  34  35
ENDBRANCH  18  34
TORSDOF 9
ENDMDL
