MODEL 1
REMARK VINA RESULT: -8.061365500      0.000      0.000
REMARK  10 active torsions:
REMARK  status: ('A' for Active; 'I' for Inactive)
REMARK    1  A    between atoms: C2_2  and  C4_4 
REMARK    2  A    between atoms: C18_19  and  C19_20 
REMARK    3  A    between atoms: C18_19  and  C20_27 
REMARK    4  A    between atoms: C19_20  and  O3_22 
REMARK    5  A    between atoms: O3_22  and  S1_23 
REMARK    6  A    between atoms: C20_27  and  O7_30 
REMARK    7  A    between atoms: C23_32  and  C25_34 
REMARK    8  A    between atoms: C25_34  and  O9_36 
REMARK    9  A    between atoms: O9_36  and  C26_37 
REMARK   10  A    between atoms: C26_37  and  C27_38 
ROOT
HETATM    1  C4  UNL     1      12.214  64.994  25.173  1.00  0.00     0.032 C 
HETATM    2  C5  UNL     1      11.373  65.839  26.091  1.00  0.00     0.011 C 
HETATM    3  C6  UNL     1      11.217  65.369  27.495  1.00  0.00     0.011 C 
HETATM    4  C7  UNL     1      12.375  64.565  28.031  1.00  0.00    -0.024 C 
HETATM    5  C8  UNL     1      11.900  63.143  27.880  1.00  0.00     0.017 C 
HETATM    6  C9  UNL     1      13.637  64.832  27.226  1.00  0.00     0.013 C 
HETATM    7  C10 UNL     1      14.204  66.183  27.519  1.00  0.00     0.007 C 
HETATM    8  C11 UNL     1      13.560  66.986  28.616  1.00  0.00     0.008 C 
HETATM    9  C12 UNL     1      13.156  66.190  29.827  1.00  0.00     0.027 C 
HETATM   10  C13 UNL     1      12.735  64.795  29.483  1.00  0.00     0.034 C 
HETATM   11  C14 UNL     1      13.993  63.908  29.689  1.00  0.00     0.025 C 
HETATM   12  C15 UNL     1      11.793  64.226  30.471  1.00  0.00     0.158 C 
HETATM   13  O1  UNL     1      11.786  63.044  30.911  1.00  0.00    -0.292 OA
HETATM   14  C16 UNL     1      10.765  65.112  31.001  1.00  0.00     0.048 C 
HETATM   15  C17 UNL     1      10.993  66.420  31.110  1.00  0.00     0.000 C 
HETATM   16  C18 UNL     1      12.284  67.011  30.698  1.00  0.00     0.102 C 
HETATM   17  C23 UNL     1      13.497  64.548  25.739  1.00  0.00     0.056 C 
HETATM   18  C24 UNL     1      13.581  63.004  25.493  1.00  0.00     0.027 C 
ENDROOT
BRANCH  16  19
HETATM   19  C19 UNL     1      11.951  68.365  30.151  1.00  0.00     0.292 C 
HETATM   20  O2  UNL     1      10.814  68.872  30.342  1.00  0.00    -0.263 OA
BRANCH  19  21
HETATM   21  O3  UNL     1      12.821  69.154  29.416  1.00  0.00    -0.176 OA
BRANCH  21  22
HETATM   22  S1  UNL     1      13.287  70.714  29.911  1.00  0.00     0.259 S 
HETATM   23  O4  UNL     1      14.513  71.080  29.094  1.00  0.00    -0.572 OA
HETATM   24  O5  UNL     1      13.716  70.733  31.350  1.00  0.00    -0.572 OA
HETATM   25  O6  UNL     1      12.102  71.853  29.597  1.00  0.00    -0.572 OA
ENDBRANCH  21  22
ENDBRANCH  19  21
ENDBRANCH  16  19
BRANCH  16  26
HETATM   26  C20 UNL     1      12.950  67.361  32.052  1.00  0.00     0.071 C 
HETATM   27  C21 UNL     1      12.627  66.221  33.024  1.00  0.00     0.047 C 
HETATM   28  C22 UNL     1      14.431  67.447  31.969  1.00  0.00     0.047 C 
BRANCH  26  29
HETATM   29  O7  UNL     1      12.469  68.573  32.535  1.00  0.00    -0.389 OA
ATOM     30  H7  UNL     1      12.866  69.299  32.070  1.00  0.00     0.210 HD
ENDBRANCH  26  29
ENDBRANCH  16  26
BRANCH  17  31
HETATM   31  C25 UNL     1      14.729  64.948  25.036  1.00  0.00     0.268 C 
HETATM   32  O8  UNL     1      14.986  66.118  24.792  1.00  0.00    -0.264 OA
BRANCH  31  33
HETATM   33  O9  UNL     1      15.686  64.016  24.610  1.00  0.00    -0.321 OA
BRANCH  33  34
HETATM   34  C26 UNL     1      17.057  64.152  25.025  1.00  0.00     0.178 C 
BRANCH  34  35
HETATM   35  C27 UNL     1      17.112  63.912  26.534  1.00  0.00     0.022 C 
HETATM   36  C28 UNL     1      16.870  62.465  26.862  1.00  0.00     0.007 C 
ENDBRANCH  34  35
ENDBRANCH  33  34
ENDBRANCH  31  33
ENDBRANCH  17  31
BRANCH   1  37
HETATM   37  C2  UNL     1      12.249  65.727  23.887  1.00  0.00    -0.088 C 
HETATM   38  C1  UNL     1      12.369  65.096  22.708  1.00  0.00     0.014 C 
HETATM   39  C3  UNL     1      12.095  67.191  23.818  1.00  0.00     0.043 C 
ENDBRANCH   1  37
TORSDOF 10
ENDMDL
MODEL 2
REMARK VINA RESULT: -8.060759520      2.322      7.048
REMARK  10 active torsions:
REMARK  status: ('A' for Active; 'I' for Inactive)
REMARK    1  A    between atoms: C2_2  and  C4_4 
REMARK    2  A    between atoms: C18_19  and  C19_20 
REMARK    3  A    between atoms: C18_19  and  C20_27 
REMARK    4  A    between atoms: C19_20  and  O3_22 
REMARK    5  A    between atoms: O3_22  and  S1_23 
REMARK    6  A    between atoms: C20_27  and  O7_30 
REMARK    7  A    between atoms: C23_32  and  C25_34 
REMARK    8  A    between atoms: C25_34  and  O9_36 
REMARK    9  A    between atoms: O9_36  and  C26_37 
REMARK   10  A    between atoms: C26_37  and  C27_38 
ROOT
HETATM    1  C4  UNL     1      12.158  64.622  30.925  1.00  0.00     0.032 C 
HETATM    2  C5  UNL     1      13.049  63.832  30.005  1.00  0.00     0.011 C 
HETATM    3  C6  UNL     1      12.454  63.350  28.729  1.00  0.00     0.011 C 
HETATM    4  C7  UNL     1      11.345  64.211  28.177  1.00  0.00    -0.024 C 
HETATM    5  C8  UNL     1      10.100  63.485  28.617  1.00  0.00     0.017 C 
HETATM    6  C9  UNL     1      11.417  65.617  28.751  1.00  0.00     0.013 C 
HETATM    7  C10 UNL     1      12.554  66.394  28.172  1.00  0.00     0.007 C 
HETATM    8  C11 UNL     1      13.338  65.755  27.057  1.00  0.00     0.008 C 
HETATM    9  C12 UNL     1      12.507  65.000  26.055  1.00  0.00     0.027 C 
HETATM   10  C13 UNL     1      11.301  64.364  26.672  1.00  0.00     0.034 C 
HETATM   11  C14 UNL     1      10.131  65.359  26.443  1.00  0.00     0.025 C 
HETATM   12  C15 UNL     1      10.841  63.173  25.925  1.00  0.00     0.158 C 
HETATM   13  O1  UNL     1       9.646  62.849  25.685  1.00  0.00    -0.292 OA
HETATM   14  C16 UNL     1      11.864  62.276  25.403  1.00  0.00     0.048 C 
HETATM   15  C17 UNL     1      13.061  62.747  25.056  1.00  0.00     0.000 C 
HETATM   16  C18 UNL     1      13.389  64.183  25.189  1.00  0.00     0.102 C 
HETATM   17  C23 UNL     1      11.363  65.672  30.270  1.00  0.00     0.056 C 
HETATM   18  C24 UNL     1       9.885  65.476  30.747  1.00  0.00     0.027 C 
ENDROOT
BRANCH  16  19
HETATM   19  C19 UNL     1      14.841  64.232  25.552  1.00  0.00     0.292 C 
HETATM   20  O2  UNL     1      15.426  63.210  25.998  1.00  0.00    -0.263 OA
BRANCH  19  21
HETATM   21  O3  UNL     1      15.644  65.355  25.439  1.00  0.00    -0.176 OA
BRANCH  21  22
HETATM   22  S1  UNL     1      17.305  65.263  25.077  1.00  0.00     0.259 S 
HETATM   23  O4  UNL     1      17.730  66.652  24.634  1.00  0.00    -0.572 OA
HETATM   24  O5  UNL     1      17.570  64.348  23.916  1.00  0.00    -0.572 OA
HETATM   25  O6  UNL     1      18.218  64.851  26.418  1.00  0.00    -0.572 OA
ENDBRANCH  21  22
ENDBRANCH  19  21
ENDBRANCH  16  19
BRANCH  16  26
HETATM   26  C20 UNL     1      13.403  64.670  23.719  1.00  0.00     0.071 C 
HETATM   27  C21 UNL     1      12.279  63.931  22.986  1.00  0.00     0.047 C 
HETATM   28  C22 UNL     1      13.119  66.123  23.584  1.00  0.00     0.047 C 
BRANCH  26  29
HETATM   29  O7  UNL     1      14.634  64.409  23.130  1.00  0.00    -0.389 OA
ATOM     30  H7  UNL     1      14.599  63.606  22.623  1.00  0.00     0.210 HD
ENDBRANCH  26  29
ENDBRANCH  16  26
BRANCH  17  31
HETATM   31  C25 UNL     1      11.557  67.060  30.727  1.00  0.00     0.268 C 
HETATM   32  O8  UNL     1      10.656  67.706  31.239  1.00  0.00    -0.264 OA
BRANCH  31  33
HETATM   33  O9  UNL     1      12.787  67.724  30.609  1.00  0.00    -0.321 OA
BRANCH  33  34
HETATM   34  C26 UNL     1      12.825  69.161  30.541  1.00  0.00     0.178 C 
BRANCH  34  35
HETATM   35  C27 UNL     1      13.964  69.638  31.443  1.00  0.00     0.022 C 
HETATM   36  C28 UNL     1      14.400  68.554  32.388  1.00  0.00     0.007 C 
ENDBRANCH  34  35
ENDBRANCH  33  34
ENDBRANCH  31  33
ENDBRANCH  17  31
BRANCH   1  37
HETATM   37  C2  UNL     1      13.021  65.022  32.059  1.00  0.00    -0.088 C 
HETATM   38  C1  UNL     1      12.517  65.343  33.262  1.00  0.00     0.014 C 
HETATM   39  C3  UNL     1      14.491  65.034  31.957  1.00  0.00     0.043 C 
ENDBRANCH   1  37
TORSDOF 10
ENDMDL
MODEL 3
REMARK VINA RESULT: -7.951157274      0.842      1.078
REMARK  10 active torsions:
REMARK  status: ('A' for Active; 'I' for Inactive)
REMARK    1  A    between atoms: C2_2  and  C4_4 
REMARK    2  A    between atoms: C18_19  and  C19_20 
REMARK    3  A    between atoms: C18_19  and  C20_27 
REMARK    4  A    between atoms: C19_20  and  O3_22 
REMARK    5  A    between atoms: O3_22  and  S1_23 
REMARK    6  A    between atoms: C20_27  and  O7_30 
REMARK    7  A    between atoms: C23_32  and  C25_34 
REMARK    8  A    between atoms: C25_34  and  O9_36 
REMARK    9  A    between atoms: O9_36  and  C26_37 
REMARK   10  A    between atoms: C26_37  and  C27_38 
ROOT
HETATM    1  C4  UNL     1      12.370  65.745  25.412  1.00  0.00     0.032 C 
HETATM    2  C5  UNL     1      11.703  66.523  26.514  1.00  0.00     0.011 C 
HETATM    3  C6  UNL     1      11.504  65.826  27.815  1.00  0.00     0.011 C 
HETATM    4  C7  UNL     1      12.525  64.762  28.130  1.00  0.00    -0.024 C 
HETATM    5  C8  UNL     1      11.816  63.487  27.748  1.00  0.00     0.017 C 
HETATM    6  C9  UNL     1      13.794  64.973  27.321  1.00  0.00     0.013 C 
HETATM    7  C10 UNL     1      14.584  66.136  27.825  1.00  0.00     0.007 C 
HETATM    8  C11 UNL     1      14.109  66.808  29.083  1.00  0.00     0.008 C 
HETATM    9  C12 UNL     1      13.607  65.871  30.148  1.00  0.00     0.027 C 
HETATM   10  C13 UNL     1      12.952  64.651  29.578  1.00  0.00     0.034 C 
HETATM   11  C14 UNL     1      14.050  63.553  29.549  1.00  0.00     0.025 C 
HETATM   12  C15 UNL     1      11.952  64.062  30.495  1.00  0.00     0.158 C 
HETATM   13  O1  UNL     1      11.760  62.834  30.711  1.00  0.00    -0.292 OA
HETATM   14  C16 UNL     1      11.099  64.983  31.234  1.00  0.00     0.048 C 
HETATM   15  C17 UNL     1      11.543  66.194  31.568  1.00  0.00     0.000 C 
HETATM   16  C18 UNL     1      12.905  66.640  31.202  1.00  0.00     0.102 C 
HETATM   17  C23 UNL     1      13.574  65.002  25.816  1.00  0.00     0.056 C 
HETATM   18  C24 UNL     1      13.394  63.539  25.287  1.00  0.00     0.027 C 
ENDROOT
BRANCH  16  19
HETATM   19  C19 UNL     1      12.789  68.108  30.931  1.00  0.00     0.292 C 
HETATM   20  O2  UNL     1      11.697  68.709  31.112  1.00  0.00    -0.263 OA
BRANCH  19  21
HETATM   21  O3  UNL     1      13.822  68.910  30.475  1.00  0.00    -0.176 OA
BRANCH  21  22
HETATM   22  S1  UNL     1      13.573  70.208  29.403  1.00  0.00     0.259 S 
HETATM   23  O4  UNL     1      14.936  70.577  28.845  1.00  0.00    -0.572 OA
HETATM   24  O5  UNL     1      13.062  71.426  30.116  1.00  0.00    -0.572 OA
HETATM   25  O6  UNL     1      12.591  69.779  28.116  1.00  0.00    -0.572 OA
ENDBRANCH  21  22
ENDBRANCH  19  21
ENDBRANCH  16  19
BRANCH  16  26
HETATM   26  C20 UNL     1      13.651  66.616  32.559  1.00  0.00     0.071 C 
HETATM   27  C21 UNL     1      12.754  65.875  33.556  1.00  0.00     0.047 C 
HETATM   28  C22 UNL     1      14.937  65.872  32.504  1.00  0.00     0.047 C 
BRANCH  26  29
HETATM   29  O7  UNL     1      13.913  67.909  32.995  1.00  0.00    -0.389 OA
ATOM     30  H7  UNL     1      13.491  68.073  33.830  1.00  0.00     0.210 HD
ENDBRANCH  26  29
ENDBRANCH  16  26
BRANCH  17  31
HETATM   31  C25 UNL     1      14.838  65.327  25.132  1.00  0.00     0.268 C 
HETATM   32  O8  UNL     1      15.284  66.464  25.101  1.00  0.00    -0.264 OA
BRANCH  31  33
HETATM   33  O9  UNL     1      15.611  64.355  24.482  1.00  0.00    -0.321 OA
BRANCH  33  34
HETATM   34  C26 UNL     1      17.013  64.233  24.781  1.00  0.00     0.178 C 
BRANCH  34  35
HETATM   35  C27 UNL     1      17.147  63.954  26.278  1.00  0.00     0.022 C 
HETATM   36  C28 UNL     1      16.775  62.534  26.602  1.00  0.00     0.007 C 
ENDBRANCH  34  35
ENDBRANCH  33  34
ENDBRANCH  31  33
ENDBRANCH  17  31
BRANCH   1  37
HETATM   37  C2  UNL     1      12.496  66.693  24.283  1.00  0.00    -0.088 C 
HETATM   38  C1  UNL     1      12.598  68.019  24.472  1.00  0.00     0.014 C 
HETATM   39  C3  UNL     1      12.577  66.237  22.884  1.00  0.00     0.043 C 
ENDBRANCH   1  37
TORSDOF 10
ENDMDL
MODEL 4
REMARK VINA RESULT: -7.948662053      2.111      3.375
REMARK  10 active torsions:
REMARK  status: ('A' for Active; 'I' for Inactive)
REMARK    1  A    between atoms: C2_2  and  C4_4 
REMARK    2  A    between atoms: C18_19  and  C19_20 
REMARK    3  A    between atoms: C18_19  and  C20_27 
REMARK    4  A    between atoms: C19_20  and  O3_22 
REMARK    5  A    between atoms: O3_22  and  S1_23 
REMARK    6  A    between atoms: C20_27  and  O7_30 
REMARK    7  A    between atoms: C23_32  and  C25_34 
REMARK    8  A    between atoms: C25_34  and  O9_36 
REMARK    9  A    between atoms: O9_36  and  C26_37 
REMARK   10  A    between atoms: C26_37  and  C27_38 
ROOT
HETATM    1  C4  UNL     1      12.250  62.980  27.433  1.00  0.00     0.032 C 
HETATM    2  C5  UNL     1      11.645  64.327  27.142  1.00  0.00     0.011 C 
HETATM    3  C6  UNL     1      11.398  65.227  28.301  1.00  0.00     0.011 C 
HETATM    4  C7  UNL     1      12.337  65.040  29.465  1.00  0.00    -0.024 C 
HETATM    5  C8  UNL     1      11.535  64.187  30.415  1.00  0.00     0.017 C 
HETATM    6  C9  UNL     1      13.617  64.349  29.022  1.00  0.00     0.013 C 
HETATM    7  C10 UNL     1      14.492  65.264  28.229  1.00  0.00     0.007 C 
HETATM    8  C11 UNL     1      14.070  66.703  28.110  1.00  0.00     0.008 C 
HETATM    9  C12 UNL     1      13.503  67.299  29.370  1.00  0.00     0.027 C 
HETATM   10  C13 UNL     1      12.759  66.297  30.196  1.00  0.00     0.034 C 
HETATM   11  C14 UNL     1      13.772  65.779  31.253  1.00  0.00     0.025 C 
HETATM   12  C15 UNL     1      11.720  66.919  31.045  1.00  0.00     0.158 C 
HETATM   13  O1  UNL     1      11.437  66.613  32.236  1.00  0.00    -0.292 OA
HETATM   14  C16 UNL     1      10.938  68.001  30.460  1.00  0.00     0.048 C 
HETATM   15  C17 UNL     1      11.472  68.792  29.530  1.00  0.00     0.000 C 
HETATM   16  C18 UNL     1      12.862  68.599  29.064  1.00  0.00     0.102 C 
HETATM   17  C23 UNL     1      13.396  63.000  28.355  1.00  0.00     0.056 C 
HETATM   18  C24 UNL     1      13.107  61.919  29.450  1.00  0.00     0.027 C 
ENDROOT
BRANCH  16  19
HETATM   19  C19 UNL     1      12.855  68.965  27.612  1.00  0.00     0.292 C 
HETATM   20  O2  UNL     1      11.804  68.848  26.927  1.00  0.00    -0.263 OA
BRANCH  19  21
HETATM   21  O3  UNL     1      13.950  69.445  26.914  1.00  0.00    -0.176 OA
BRANCH  21  22
HETATM   22  S1  UNL     1      13.826  70.668  25.737  1.00  0.00     0.259 S 
HETATM   23  O4  UNL     1      15.202  71.300  25.620  1.00  0.00    -0.572 OA
HETATM   24  O5  UNL     1      12.893  71.762  26.171  1.00  0.00    -0.572 OA
HETATM   25  O6  UNL     1      13.414  70.055  24.235  1.00  0.00    -0.572 OA
ENDBRANCH  21  22
ENDBRANCH  19  21
ENDBRANCH  16  19
BRANCH  16  26
HETATM   26  C20 UNL     1      13.608  69.799  29.699  1.00  0.00     0.071 C 
HETATM   27  C21 UNL     1      12.697  71.023  29.559  1.00  0.00     0.047 C 
HETATM   28  C22 UNL     1      13.867  69.622  31.152  1.00  0.00     0.047 C 
BRANCH  26  29
HETATM   29  O7  UNL     1      14.824  70.012  29.061  1.00  0.00    -0.389 OA
ATOM     30  H7  UNL     1      15.364  70.611  29.562  1.00  0.00     0.210 HD
ENDBRANCH  26  29
ENDBRANCH  16  26
BRANCH  17  31
HETATM   31  C25 UNL     1      14.679  62.472  27.859  1.00  0.00     0.268 C 
HETATM   32  O8  UNL     1      15.299  61.607  28.459  1.00  0.00    -0.264 OA
BRANCH  31  33
HETATM   33  O9  UNL     1      15.266  62.922  26.667  1.00  0.00    -0.321 OA
BRANCH  33  34
HETATM   34  C26 UNL     1      16.688  62.815  26.481  1.00  0.00     0.178 C 
BRANCH  34  35
HETATM   35  C27 UNL     1      17.088  63.795  25.378  1.00  0.00     0.022 C 
HETATM   36  C28 UNL     1      15.893  64.545  24.859  1.00  0.00     0.007 C 
ENDBRANCH  34  35
ENDBRANCH  33  34
ENDBRANCH  31  33
ENDBRANCH  17  31
BRANCH   1  37
HETATM   37  C2  UNL     1      12.443  62.342  26.112  1.00  0.00    -0.088 C 
HETATM   38  C1  UNL     1      12.480  61.009  25.961  1.00  0.00     0.014 C 
HETATM   39  C3  UNL     1      12.546  63.131  24.871  1.00  0.00     0.043 C 
ENDBRANCH   1  37
TORSDOF 10
ENDMDL
MODEL 5
REMARK VINA RESULT: -7.885079019      1.961      3.183
REMARK  10 active torsions:
REMARK  status: ('A' for Active; 'I' for Inactive)
REMARK    1  A    between atoms: C2_2  and  C4_4 
REMARK    2  A    between atoms: C18_19  and  C19_20 
REMARK    3  A    between atoms: C18_19  and  C20_27 
REMARK    4  A    between atoms: C19_20  and  O3_22 
REMARK    5  A    between atoms: O3_22  and  S1_23 
REMARK    6  A    between atoms: C20_27  and  O7_30 
REMARK    7  A    between atoms: C23_32  and  C25_34 
REMARK    8  A    between atoms: C25_34  and  O9_36 
REMARK    9  A    between atoms: O9_36  and  C26_37 
REMARK   10  A    between atoms: C26_37  and  C27_38 
ROOT
HETATM    1  C4  UNL     1      15.621  64.010  26.016  1.00  0.00     0.032 C 
HETATM    2  C5  UNL     1      14.618  65.125  25.893  1.00  0.00     0.011 C 
HETATM    3  C6  UNL     1      13.316  64.950  26.593  1.00  0.00     0.011 C 
HETATM    4  C7  UNL     1      13.369  64.093  27.833  1.00  0.00    -0.024 C 
HETATM    5  C8  UNL     1      12.878  62.754  27.342  1.00  0.00     0.017 C 
HETATM    6  C9  UNL     1      14.786  64.015  28.376  1.00  0.00     0.013 C 
HETATM    7  C10 UNL     1      15.202  65.295  29.023  1.00  0.00     0.007 C 
HETATM    8  C11 UNL     1      14.162  66.374  29.165  1.00  0.00     0.008 C 
HETATM    9  C12 UNL     1      12.792  65.882  29.547  1.00  0.00     0.027 C 
HETATM   10  C13 UNL     1      12.490  64.528  28.987  1.00  0.00     0.034 C 
HETATM   11  C14 UNL     1      12.841  63.514  30.110  1.00  0.00     0.025 C 
HETATM   12  C15 UNL     1      11.041  64.297  28.806  1.00  0.00     0.158 C 
HETATM   13  O1  UNL     1      10.412  63.230  29.046  1.00  0.00    -0.292 OA
HETATM   14  C16 UNL     1      10.245  65.410  28.303  1.00  0.00     0.048 C 
HETATM   15  C17 UNL     1      10.600  66.667  28.568  1.00  0.00     0.000 C 
HETATM   16  C18 UNL     1      11.803  66.971  29.372  1.00  0.00     0.102 C 
HETATM   17  C23 UNL     1      15.806  63.488  27.378  1.00  0.00     0.056 C 
HETATM   18  C24 UNL     1      15.682  61.930  27.280  1.00  0.00     0.027 C 
ENDROOT
BRANCH  16  19
HETATM   19  C19 UNL     1      12.362  68.236  28.797  1.00  0.00     0.292 C 
HETATM   20  O2  UNL     1      11.872  68.736  27.750  1.00  0.00    -0.263 OA
BRANCH  19  21
HETATM   21  O3  UNL     1      13.423  68.945  29.335  1.00  0.00    -0.176 OA
BRANCH  21  22
HETATM   22  S1  UNL     1      13.288  70.571  29.822  1.00  0.00     0.259 S 
HETATM   23  O4  UNL     1      13.763  70.634  31.262  1.00  0.00    -0.572 OA
HETATM   24  O5  UNL     1      11.859  71.032  29.826  1.00  0.00    -0.572 OA
HETATM   25  O6  UNL     1      14.267  71.581  28.914  1.00  0.00    -0.572 OA
ENDBRANCH  21  22
ENDBRANCH  19  21
ENDBRANCH  16  19
BRANCH  16  26
HETATM   26  C20 UNL     1      11.205  67.459  30.715  1.00  0.00     0.071 C 
HETATM   27  C21 UNL     1       9.884  68.165  30.392  1.00  0.00     0.047 C 
HETATM   28  C22 UNL     1      10.880  66.347  31.647  1.00  0.00     0.047 C 
BRANCH  26  29
HETATM   29  O7  UNL     1      12.084  68.323  31.356  1.00  0.00    -0.389 OA
ATOM     30  H7  UNL     1      11.617  69.063  31.726  1.00  0.00     0.210 HD
ENDBRANCH  26  29
ENDBRANCH  16  26
BRANCH  17  31
HETATM   31  C25 UNL     1      17.159  63.562  27.959  1.00  0.00     0.268 C 
HETATM   32  O8  UNL     1      18.017  62.729  27.713  1.00  0.00    -0.264 OA
BRANCH  31  33
HETATM   33  O9  UNL     1      17.548  64.596  28.824  1.00  0.00    -0.321 OA
BRANCH  33  34
HETATM   34  C26 UNL     1      18.468  64.328  29.897  1.00  0.00     0.178 C 
BRANCH  34  35
HETATM   35  C27 UNL     1      17.671  63.722  31.052  1.00  0.00     0.022 C 
HETATM   36  C28 UNL     1      17.276  64.774  32.051  1.00  0.00     0.007 C 
ENDBRANCH  34  35
ENDBRANCH  33  34
ENDBRANCH  31  33
ENDBRANCH  17  31
BRANCH   1  37
HETATM   37  C2  UNL     1      16.822  64.481  25.292  1.00  0.00    -0.088 C 
HETATM   38  C1  UNL     1      17.469  63.710  24.403  1.00  0.00     0.014 C 
HETATM   39  C3  UNL     1      17.348  65.848  25.458  1.00  0.00     0.043 C 
ENDBRANCH   1  37
TORSDOF 10
ENDMDL
