MODEL 1
REMARK VINA RESULT: -7.992317530      0.000      0.000
REMARK  12 active torsions:
REMARK  status: ('A' for Active; 'I' for Inactive)
REMARK    1  A    between atoms: C2_2  and  S1_3 
REMARK    2  A    between atoms: S1_3  and  C3_4 
REMARK    3  A    between atoms: C3_4  and  N1_6 
REMARK    4  A    between atoms: N2_9  and  C6_10 
REMARK    5  A    between atoms: C6_10  and  S4_12 
REMARK    6  A    between atoms: S4_12  and  S5_13 
REMARK    7  A    between atoms: S5_13  and  C7_14 
REMARK    8  A    between atoms: C7_14  and  C9_16 
REMARK    9  A    between atoms: C9_16  and  N3_17 
REMARK   10  A    between atoms: C9_16  and  C17_30 
REMARK       I    between atoms: N3_17  and  C10_19 
REMARK   11  A    between atoms: C10_19  and  C11_21 
REMARK   12  A    between atoms: C16_26  and  N4_27 
ROOT
HETATM    1  C7  UNL     1      15.951  63.480  27.711  1.00  0.00     0.085 C 
HETATM    2  C8  UNL     1      16.706  64.623  27.088  1.00  0.00     0.025 C 
ENDROOT
BRANCH   1   3
HETATM    3  S5  UNL     1      16.797  62.927  29.183  1.00  0.00    -0.083 SA
BRANCH   3   4
HETATM    4  S4  UNL     1      18.000  64.350  30.078  1.00  0.00    -0.028 SA
BRANCH   4   5
HETATM    5  C6  UNL     1      18.023  64.487  31.807  1.00  0.00     0.147 C 
HETATM    6  S3  UNL     1      16.596  65.060  32.490  1.00  0.00    -0.052 SA
BRANCH   5   7
HETATM    7  N2  UNL     1      19.030  64.200  32.729  1.00  0.00    -0.363 N 
HETATM    8  C5  UNL     1      19.904  63.033  32.519  1.00  0.00     0.144 C 
HETATM    9  C4  UNL     1      21.153  63.233  33.353  1.00  0.00     0.144 C 
HETATM   10  N1  UNL     1      20.700  63.244  34.772  1.00  0.00    -0.363 N 
HETATM   11  C20 UNL     1      19.605  64.086  35.085  1.00  0.00     0.144 C 
HETATM   12  C19 UNL     1      19.242  64.987  33.901  1.00  0.00     0.144 C 
BRANCH  10  13
HETATM   13  C3  UNL     1      21.357  62.418  35.685  1.00  0.00     0.136 C 
HETATM   14  S2  UNL     1      22.481  61.349  35.020  1.00  0.00    -0.053 SA
BRANCH  13  15
HETATM   15  S1  UNL     1      21.147  62.372  37.413  1.00  0.00    -0.101 SA
BRANCH  15  16
HETATM   16  C2  UNL     1      20.409  60.931  38.101  1.00  0.00     0.077 C 
HETATM   17  C1  UNL     1      21.525  60.016  38.664  1.00  0.00     0.016 C 
ENDBRANCH  15  16
ENDBRANCH  13  15
ENDBRANCH  10  13
ENDBRANCH   5   7
ENDBRANCH   4   5
ENDBRANCH   3   4
ENDBRANCH   1   3
BRANCH   1  18
HETATM   18  C9  UNL     1      14.500  63.827  27.957  1.00  0.00     0.167 C 
BRANCH  18  19
HETATM   19  N3  UNL     1      14.287  64.488  29.203  1.00  0.00    -0.348 N 
HETATM   20  C10 UNL     1      13.993  65.865  29.304  1.00  0.00     0.224 C 
HETATM   21  O1  UNL     1      13.918  66.533  28.243  1.00  0.00    -0.273 OA
ATOM     22  H3  UNL     1      14.350  63.940  30.061  1.00  0.00     0.163 HD
BRANCH  20  23
HETATM   23  C11 UNL     1      13.769  66.567  30.589  1.00  0.00     0.107 C 
HETATM   24  C12 UNL     1      13.462  68.019  30.355  1.00  0.00     0.016 C 
HETATM   25  C13 UNL     1      12.022  68.396  30.449  1.00  0.00     0.001 C 
HETATM   26  C14 UNL     1      11.405  67.974  31.741  1.00  0.00     0.002 C 
HETATM   27  C15 UNL     1      12.202  66.896  32.441  1.00  0.00     0.032 C 
HETATM   28  C16 UNL     1      12.778  65.900  31.467  1.00  0.00     0.169 C 
BRANCH  28  29
HETATM   29  N4  UNL     1      11.673  65.266  30.788  1.00  0.00    -0.150 N 
HETATM   30  O2  UNL     1      11.450  65.252  29.584  1.00  0.00    -0.536 OA
HETATM   31  O3  UNL     1      10.767  64.597  31.602  1.00  0.00    -0.536 OA
ENDBRANCH  28  29
ENDBRANCH  20  23
ENDBRANCH  18  19
BRANCH  18  32
HETATM   32  C17 UNL     1      13.725  62.565  27.849  1.00  0.00     0.146 C 
HETATM   33  C18 UNL     1      13.561  61.934  26.506  1.00  0.00     0.093 C 
HETATM   34  O4  UNL     1      13.250  62.089  28.859  1.00  0.00    -0.296 OA
ENDBRANCH  18  32
ENDBRANCH   1  18
TORSDOF 12
ENDMDL
MODEL 2
REMARK VINA RESULT: -7.962053986      2.102      4.557
REMARK  12 active torsions:
REMARK  status: ('A' for Active; 'I' for Inactive)
REMARK    1  A    between atoms: C2_2  and  S1_3 
REMARK    2  A    between atoms: S1_3  and  C3_4 
REMARK    3  A    between atoms: C3_4  and  N1_6 
REMARK    4  A    between atoms: N2_9  and  C6_10 
REMARK    5  A    between atoms: C6_10  and  S4_12 
REMARK    6  A    between atoms: S4_12  and  S5_13 
REMARK    7  A    between atoms: S5_13  and  C7_14 
REMARK    8  A    between atoms: C7_14  and  C9_16 
REMARK    9  A    between atoms: C9_16  and  N3_17 
REMARK   10  A    between atoms: C9_16  and  C17_30 
REMARK       I    between atoms: N3_17  and  C10_19 
REMARK   11  A    between atoms: C10_19  and  C11_21 
REMARK   12  A    between atoms: C16_26  and  N4_27 
ROOT
HETATM    1  C7  UNL     1      13.374  65.027  30.484  1.00  0.00     0.085 C 
HETATM    2  C8  UNL     1      12.678  64.954  31.816  1.00  0.00     0.025 C 
ENDROOT
BRANCH   1   3
HETATM    3  S5  UNL     1      14.998  65.742  30.688  1.00  0.00    -0.083 SA
BRANCH   3   4
HETATM    4  S4  UNL     1      15.884  65.370  32.518  1.00  0.00    -0.028 SA
BRANCH   4   5
HETATM    5  C6  UNL     1      17.416  64.558  32.578  1.00  0.00     0.147 C 
HETATM    6  S3  UNL     1      18.134  64.292  31.079  1.00  0.00    -0.052 SA
BRANCH   5   7
HETATM    7  N2  UNL     1      18.154  64.086  33.663  1.00  0.00    -0.363 N 
HETATM    8  C5  UNL     1      19.387  64.784  34.069  1.00  0.00     0.144 C 
HETATM    9  C4  UNL     1      19.698  64.383  35.496  1.00  0.00     0.144 C 
HETATM   10  N1  UNL     1      19.967  62.918  35.460  1.00  0.00    -0.363 N 
HETATM   11  C20 UNL     1      19.018  62.113  34.783  1.00  0.00     0.144 C 
HETATM   12  C19 UNL     1      17.776  62.923  34.399  1.00  0.00     0.144 C 
BRANCH  10  13
HETATM   13  C3  UNL     1      21.131  62.441  36.063  1.00  0.00     0.136 C 
HETATM   14  S2  UNL     1      22.282  61.792  35.014  1.00  0.00    -0.053 SA
BRANCH  13  15
HETATM   15  S1  UNL     1      21.521  62.445  37.761  1.00  0.00    -0.101 SA
BRANCH  15  16
HETATM   16  C2  UNL     1      23.029  61.682  38.247  1.00  0.00     0.077 C 
HETATM   17  C1  UNL     1      22.751  60.197  38.597  1.00  0.00     0.016 C 
ENDBRANCH  15  16
ENDBRANCH  13  15
ENDBRANCH  10  13
ENDBRANCH   5   7
ENDBRANCH   4   5
ENDBRANCH   3   4
ENDBRANCH   1   3
BRANCH   1  18
HETATM   18  C9  UNL     1      13.401  63.686  29.785  1.00  0.00     0.167 C 
BRANCH  18  19
HETATM   19  N3  UNL     1      13.876  63.765  28.443  1.00  0.00    -0.348 N 
HETATM   20  C10 UNL     1      14.667  62.760  27.845  1.00  0.00     0.224 C 
HETATM   21  O1  UNL     1      14.963  61.753  28.534  1.00  0.00    -0.273 OA
ATOM     22  H3  UNL     1      13.632  64.586  27.888  1.00  0.00     0.163 HD
BRANCH  20  23
HETATM   23  C11 UNL     1      15.168  62.827  26.452  1.00  0.00     0.107 C 
HETATM   24  C12 UNL     1      14.418  63.867  25.668  1.00  0.00     0.016 C 
HETATM   25  C13 UNL     1      15.127  65.164  25.477  1.00  0.00     0.001 C 
HETATM   26  C14 UNL     1      16.482  64.990  24.875  1.00  0.00     0.002 C 
HETATM   27  C15 UNL     1      17.006  63.579  25.021  1.00  0.00     0.032 C 
HETATM   28  C16 UNL     1      16.639  62.977  26.354  1.00  0.00     0.169 C 
BRANCH  28  29
HETATM   29  N4  UNL     1      17.251  63.786  27.380  1.00  0.00    -0.150 N 
HETATM   30  O2  UNL     1      16.769  64.761  27.945  1.00  0.00    -0.536 OA
HETATM   31  O3  UNL     1      18.531  63.407  27.765  1.00  0.00    -0.536 OA
ENDBRANCH  28  29
ENDBRANCH  20  23
ENDBRANCH  18  19
BRANCH  18  32
HETATM   32  C17 UNL     1      12.029  63.124  29.866  1.00  0.00     0.146 C 
HETATM   33  C18 UNL     1      10.963  63.699  28.994  1.00  0.00     0.093 C 
HETATM   34  O4  UNL     1      11.821  62.213  30.640  1.00  0.00    -0.296 OA
ENDBRANCH  18  32
ENDBRANCH   1  18
TORSDOF 12
ENDMDL
MODEL 3
REMARK VINA RESULT: -7.930489516      0.712      1.029
REMARK  12 active torsions:
REMARK  status: ('A' for Active; 'I' for Inactive)
REMARK    1  A    between atoms: C2_2  and  S1_3 
REMARK    2  A    between atoms: S1_3  and  C3_4 
REMARK    3  A    between atoms: C3_4  and  N1_6 
REMARK    4  A    between atoms: N2_9  and  C6_10 
REMARK    5  A    between atoms: C6_10  and  S4_12 
REMARK    6  A    between atoms: S4_12  and  S5_13 
REMARK    7  A    between atoms: S5_13  and  C7_14 
REMARK    8  A    between atoms: C7_14  and  C9_16 
REMARK    9  A    between atoms: C9_16  and  N3_17 
REMARK   10  A    between atoms: C9_16  and  C17_30 
REMARK       I    between atoms: N3_17  and  C10_19 
REMARK   11  A    between atoms: C10_19  and  C11_21 
REMARK   12  A    between atoms: C16_26  and  N4_27 
ROOT
HETATM    1  C7  UNL     1      15.994  63.588  27.691  1.00  0.00     0.085 C 
HETATM    2  C8  UNL     1      16.719  64.770  27.107  1.00  0.00     0.025 C 
ENDROOT
BRANCH   1   3
HETATM    3  S5  UNL     1      16.861  63.002  29.139  1.00  0.00    -0.083 SA
BRANCH   3   4
HETATM    4  S4  UNL     1      18.015  64.427  30.094  1.00  0.00    -0.028 SA
BRANCH   4   5
HETATM    5  C6  UNL     1      18.040  64.486  31.827  1.00  0.00     0.147 C 
HETATM    6  S3  UNL     1      16.602  64.993  32.539  1.00  0.00    -0.052 SA
BRANCH   5   7
HETATM    7  N2  UNL     1      19.057  64.184  32.733  1.00  0.00    -0.363 N 
HETATM    8  C5  UNL     1      19.935  63.026  32.488  1.00  0.00     0.144 C 
HETATM    9  C4  UNL     1      21.191  63.214  33.314  1.00  0.00     0.144 C 
HETATM   10  N1  UNL     1      20.751  63.189  34.738  1.00  0.00    -0.363 N 
HETATM   11  C20 UNL     1      19.655  64.019  35.080  1.00  0.00     0.144 C 
HETATM   12  C19 UNL     1      19.276  64.945  33.920  1.00  0.00     0.144 C 
BRANCH  10  13
HETATM   13  C3  UNL     1      21.421  62.346  35.625  1.00  0.00     0.136 C 
HETATM   14  S2  UNL     1      20.968  62.487  37.244  1.00  0.00    -0.053 SA
BRANCH  13  15
HETATM   15  S1  UNL     1      22.656  61.178  35.247  1.00  0.00    -0.101 SA
BRANCH  15  16
HETATM   16  C2  UNL     1      22.815  59.792  36.319  1.00  0.00     0.077 C 
HETATM   17  C1  UNL     1      23.940  60.079  37.346  1.00  0.00     0.016 C 
ENDBRANCH  15  16
ENDBRANCH  13  15
ENDBRANCH  10  13
ENDBRANCH   5   7
ENDBRANCH   4   5
ENDBRANCH   3   4
ENDBRANCH   1   3
BRANCH   1  18
HETATM   18  C9  UNL     1      14.537  63.892  27.957  1.00  0.00     0.167 C 
BRANCH  18  19
HETATM   19  N3  UNL     1      14.319  64.531  29.213  1.00  0.00    -0.348 N 
HETATM   20  C10 UNL     1      14.011  65.903  29.336  1.00  0.00     0.224 C 
HETATM   21  O1  UNL     1      13.926  66.586  28.286  1.00  0.00    -0.273 OA
ATOM     22  H3  UNL     1      14.390  63.971  30.063  1.00  0.00     0.163 HD
BRANCH  20  23
HETATM   23  C11 UNL     1      13.781  66.582  30.633  1.00  0.00     0.107 C 
HETATM   24  C12 UNL     1      13.484  68.041  30.423  1.00  0.00     0.016 C 
HETATM   25  C13 UNL     1      12.047  68.425  30.514  1.00  0.00     0.001 C 
HETATM   26  C14 UNL     1      11.418  67.983  31.793  1.00  0.00     0.002 C 
HETATM   27  C15 UNL     1      12.202  66.888  32.479  1.00  0.00     0.032 C 
HETATM   28  C16 UNL     1      12.780  65.905  31.491  1.00  0.00     0.169 C 
BRANCH  28  29
HETATM   29  N4  UNL     1      11.676  65.291  30.793  1.00  0.00    -0.150 N 
HETATM   30  O2  UNL     1      11.473  65.283  29.585  1.00  0.00    -0.536 OA
HETATM   31  O3  UNL     1      10.747  64.635  31.590  1.00  0.00    -0.536 OA
ENDBRANCH  28  29
ENDBRANCH  20  23
ENDBRANCH  18  19
BRANCH  18  32
HETATM   32  C17 UNL     1      13.795  62.610  27.841  1.00  0.00     0.146 C 
HETATM   33  C18 UNL     1      13.705  61.949  26.506  1.00  0.00     0.093 C 
HETATM   34  O4  UNL     1      13.286  62.143  28.839  1.00  0.00    -0.296 OA
ENDBRANCH  18  32
ENDBRANCH   1  18
TORSDOF 12
ENDMDL
MODEL 4
REMARK VINA RESULT: -7.809450060      1.812      4.381
REMARK  12 active torsions:
REMARK  status: ('A' for Active; 'I' for Inactive)
REMARK    1  A    between atoms: C2_2  and  S1_3 
REMARK    2  A    between atoms: S1_3  and  C3_4 
REMARK    3  A    between atoms: C3_4  and  N1_6 
REMARK    4  A    between atoms: N2_9  and  C6_10 
REMARK    5  A    between atoms: C6_10  and  S4_12 
REMARK    6  A    between atoms: S4_12  and  S5_13 
REMARK    7  A    between atoms: S5_13  and  C7_14 
REMARK    8  A    between atoms: C7_14  and  C9_16 
REMARK    9  A    between atoms: C9_16  and  N3_17 
REMARK   10  A    between atoms: C9_16  and  C17_30 
REMARK       I    between atoms: N3_17  and  C10_19 
REMARK   11  A    between atoms: C10_19  and  C11_21 
REMARK   12  A    between atoms: C16_26  and  N4_27 
ROOT
HETATM    1  C7  UNL     1      13.179  65.112  31.168  1.00  0.00     0.085 C 
HETATM    2  C8  UNL     1      13.108  64.852  32.649  1.00  0.00     0.025 C 
ENDROOT
BRANCH   1   3
HETATM    3  S5  UNL     1      14.861  65.487  30.699  1.00  0.00    -0.083 SA
BRANCH   3   4
HETATM    4  S4  UNL     1      16.243  65.324  32.227  1.00  0.00    -0.028 SA
BRANCH   4   5
HETATM    5  C6  UNL     1      17.766  64.550  31.925  1.00  0.00     0.147 C 
HETATM    6  S3  UNL     1      18.023  64.095  30.326  1.00  0.00    -0.052 SA
BRANCH   5   7
HETATM    7  N2  UNL     1      18.817  64.241  32.789  1.00  0.00    -0.363 N 
HETATM    8  C5  UNL     1      19.608  63.018  32.570  1.00  0.00     0.144 C 
HETATM    9  C4  UNL     1      20.921  63.177  33.309  1.00  0.00     0.144 C 
HETATM   10  N1  UNL     1      20.569  63.267  34.754  1.00  0.00    -0.363 N 
HETATM   11  C20 UNL     1      19.546  64.183  35.104  1.00  0.00     0.144 C 
HETATM   12  C19 UNL     1      19.153  65.058  33.910  1.00  0.00     0.144 C 
BRANCH  10  13
HETATM   13  C3  UNL     1      21.240  62.439  35.655  1.00  0.00     0.136 C 
HETATM   14  S2  UNL     1      22.408  61.426  34.979  1.00  0.00    -0.053 SA
BRANCH  13  15
HETATM   15  S1  UNL     1      21.008  62.342  37.378  1.00  0.00    -0.101 SA
BRANCH  15  16
HETATM   16  C2  UNL     1      20.478  60.799  38.037  1.00  0.00     0.077 C 
HETATM   17  C1  UNL     1      21.719  60.014  38.536  1.00  0.00     0.016 C 
ENDBRANCH  15  16
ENDBRANCH  13  15
ENDBRANCH  10  13
ENDBRANCH   5   7
ENDBRANCH   4   5
ENDBRANCH   3   4
ENDBRANCH   1   3
BRANCH   1  18
HETATM   18  C9  UNL     1      12.579  63.981  30.365  1.00  0.00     0.167 C 
BRANCH  18  19
HETATM   19  N3  UNL     1      12.958  64.009  28.990  1.00  0.00    -0.348 N 
HETATM   20  C10 UNL     1      13.069  62.845  28.198  1.00  0.00     0.224 C 
HETATM   21  O1  UNL     1      12.820  61.738  28.736  1.00  0.00    -0.273 OA
ATOM     22  H3  UNL     1      13.159  64.911  28.559  1.00  0.00     0.163 HD
BRANCH  20  23
HETATM   23  C11 UNL     1      13.461  62.856  26.770  1.00  0.00     0.107 C 
HETATM   24  C12 UNL     1      13.269  61.498  26.156  1.00  0.00     0.016 C 
HETATM   25  C13 UNL     1      12.044  61.335  25.322  1.00  0.00     0.001 C 
HETATM   26  C14 UNL     1      11.942  62.369  24.250  1.00  0.00     0.002 C 
HETATM   27  C15 UNL     1      12.810  63.576  24.522  1.00  0.00     0.032 C 
HETATM   28  C16 UNL     1      12.824  63.941  25.985  1.00  0.00     0.169 C 
BRANCH  28  29
HETATM   29  N4  UNL     1      11.472  64.271  26.365  1.00  0.00    -0.150 N 
HETATM   30  O2  UNL     1      10.720  63.619  27.079  1.00  0.00    -0.536 OA
HETATM   31  O3  UNL     1      10.977  65.467  25.859  1.00  0.00    -0.536 OA
ENDBRANCH  28  29
ENDBRANCH  20  23
ENDBRANCH  18  19
BRANCH  18  32
HETATM   32  C17 UNL     1      11.106  64.051  30.544  1.00  0.00     0.146 C 
HETATM   33  C18 UNL     1      10.444  65.388  30.549  1.00  0.00     0.093 C 
HETATM   34  O4  UNL     1      10.490  63.014  30.682  1.00  0.00    -0.296 OA
ENDBRANCH  18  32
ENDBRANCH   1  18
TORSDOF 12
ENDMDL
MODEL 5
REMARK VINA RESULT: -7.750316873      1.373      1.926
REMARK  12 active torsions:
REMARK  status: ('A' for Active; 'I' for Inactive)
REMARK    1  A    between atoms: C2_2  and  S1_3 
REMARK    2  A    between atoms: S1_3  and  C3_4 
REMARK    3  A    between atoms: C3_4  and  N1_6 
REMARK    4  A    between atoms: N2_9  and  C6_10 
REMARK    5  A    between atoms: C6_10  and  S4_12 
REMARK    6  A    between atoms: S4_12  and  S5_13 
REMARK    7  A    between atoms: S5_13  and  C7_14 
REMARK    8  A    between atoms: C7_14  and  C9_16 
REMARK    9  A    between atoms: C9_16  and  N3_17 
REMARK   10  A    between atoms: C9_16  and  C17_30 
REMARK       I    between atoms: N3_17  and  C10_19 
REMARK   11  A    between atoms: C10_19  and  C11_21 
REMARK   12  A    between atoms: C16_26  and  N4_27 
ROOT
HETATM    1  C7  UNL     1      14.985  63.212  28.777  1.00  0.00     0.085 C 
HETATM    2  C8  UNL     1      15.630  62.313  27.756  1.00  0.00     0.025 C 
ENDROOT
BRANCH   1   3
HETATM    3  S5  UNL     1      16.042  64.613  29.104  1.00  0.00    -0.083 SA
BRANCH   3   4
HETATM    4  S4  UNL     1      17.797  64.161  30.100  1.00  0.00    -0.028 SA
BRANCH   4   5
HETATM    5  C6  UNL     1      17.884  64.372  31.820  1.00  0.00     0.147 C 
HETATM    6  S3  UNL     1      16.488  64.989  32.528  1.00  0.00    -0.052 SA
BRANCH   5   7
HETATM    7  N2  UNL     1      18.922  64.116  32.716  1.00  0.00    -0.363 N 
HETATM    8  C5  UNL     1      19.741  62.901  32.560  1.00  0.00     0.144 C 
HETATM    9  C4  UNL     1      21.034  63.113  33.320  1.00  0.00     0.144 C 
HETATM   10  N1  UNL     1      20.649  63.251  34.753  1.00  0.00    -0.363 N 
HETATM   11  C20 UNL     1      19.602  64.159  35.046  1.00  0.00     0.144 C 
HETATM   12  C19 UNL     1      19.218  64.981  33.812  1.00  0.00     0.144 C 
BRANCH  10  13
HETATM   13  C3  UNL     1      21.316  62.471  35.698  1.00  0.00     0.136 C 
HETATM   14  S2  UNL     1      22.423  61.361  35.073  1.00  0.00    -0.053 SA
BRANCH  13  15
HETATM   15  S1  UNL     1      21.135  62.520  37.429  1.00  0.00    -0.101 SA
BRANCH  15  16
HETATM   16  C2  UNL     1      22.150  61.444  38.380  1.00  0.00     0.077 C 
HETATM   17  C1  UNL     1      21.390  60.114  38.616  1.00  0.00     0.016 C 
ENDBRANCH  15  16
ENDBRANCH  13  15
ENDBRANCH  10  13
ENDBRANCH   5   7
ENDBRANCH   4   5
ENDBRANCH   3   4
ENDBRANCH   1   3
BRANCH   1  18
HETATM   18  C9  UNL     1      13.582  63.609  28.377  1.00  0.00     0.167 C 
BRANCH  18  19
HETATM   19  N3  UNL     1      12.899  64.346  29.389  1.00  0.00    -0.348 N 
HETATM   20  C10 UNL     1      11.793  65.181  29.120  1.00  0.00     0.224 C 
HETATM   21  O1  UNL     1      11.397  65.274  27.932  1.00  0.00    -0.273 OA
ATOM     22  H3  UNL     1      13.226  64.267  30.352  1.00  0.00     0.163 HD
BRANCH  20  23
HETATM   23  C11 UNL     1      11.072  65.952  30.160  1.00  0.00     0.107 C 
HETATM   24  C12 UNL     1      11.369  65.405  31.528  1.00  0.00     0.016 C 
HETATM   25  C13 UNL     1      12.365  66.175  32.327  1.00  0.00     0.001 C 
HETATM   26  C14 UNL     1      12.002  67.618  32.453  1.00  0.00     0.002 C 
HETATM   27  C15 UNL     1      11.009  68.061  31.403  1.00  0.00     0.032 C 
HETATM   28  C16 UNL     1      11.278  67.417  30.065  1.00  0.00     0.169 C 
BRANCH  28  29
HETATM   29  N4  UNL     1      12.592  67.834  29.638  1.00  0.00    -0.150 N 
HETATM   30  O2  UNL     1      13.594  67.137  29.527  1.00  0.00    -0.536 OA
HETATM   31  O3  UNL     1      12.725  69.179  29.317  1.00  0.00    -0.536 OA
ENDBRANCH  28  29
ENDBRANCH  20  23
ENDBRANCH  18  19
BRANCH  18  32
HETATM   32  C17 UNL     1      12.864  62.363  28.005  1.00  0.00     0.146 C 
HETATM   33  C18 UNL     1      12.607  62.084  26.562  1.00  0.00     0.093 C 
HETATM   34  O4  UNL     1      12.510  61.613  28.891  1.00  0.00    -0.296 OA
ENDBRANCH  18  32
ENDBRANCH   1  18
TORSDOF 12
ENDMDL
