MODEL 1
REMARK VINA RESULT: -9.812956186      0.000      0.000
REMARK  10 active torsions:
REMARK  status: ('A' for Active; 'I' for Inactive)
REMARK    1  A    between atoms: O1_2  and  C2_3 
REMARK    2  A    between atoms: C2_3  and  C3_5 
REMARK    3  A    between atoms: C3_5  and  C4_6 
REMARK    4  A    between atoms: C4_6  and  C5_7 
REMARK    5  A    between atoms: C4_6  and  C19_25 
REMARK    6  A    between atoms: C5_7  and  O4_9 
REMARK    7  A    between atoms: O4_9  and  C6_10 
REMARK    8  A    between atoms: C19_25  and  O7_26 
REMARK    9  A    between atoms: C19_25  and  C20_28 
REMARK   10  A    between atoms: C24_33  and  C25_34 
ROOT
HETATM    1  C4  UNL     1      15.853  64.367  29.681  1.00  0.00     0.124 C 
ENDROOT
BRANCH   1   2
HETATM    2  C3  UNL     1      15.716  63.570  28.430  1.00  0.00     0.128 C 
BRANCH   2   3
HETATM    3  C2  UNL     1      15.267  62.178  28.733  1.00  0.00     0.259 C 
HETATM    4  O2  UNL     1      16.063  61.220  28.817  1.00  0.00    -0.265 OA
BRANCH   3   5
HETATM    5  O1  UNL     1      13.922  61.915  28.932  1.00  0.00    -0.326 OA
HETATM    6  C1  UNL     1      12.899  62.662  28.284  1.00  0.00     0.213 C 
ENDBRANCH   3   5
ENDBRANCH   2   3
ENDBRANCH   1   2
BRANCH   1   7
HETATM    7  C5  UNL     1      17.295  64.446  30.052  1.00  0.00     0.266 C 
HETATM    8  O3  UNL     1      18.193  64.093  29.236  1.00  0.00    -0.265 OA
BRANCH   7   9
HETATM    9  O4  UNL     1      17.731  64.898  31.271  1.00  0.00    -0.313 OA
BRANCH   9  10
HETATM   10  C6  UNL     1      18.237  63.991  32.265  1.00  0.00     0.166 C 
HETATM   11  C7  UNL     1      17.230  63.653  33.287  1.00  0.00     0.035 C 
HETATM   12  C8  UNL     1      17.580  64.181  34.682  1.00  0.00     0.005 C 
HETATM   13  C9  UNL     1      18.261  63.177  35.545  1.00  0.00     0.032 C 
HETATM   14  C10 UNL     1      19.733  63.353  35.716  1.00  0.00     0.130 C 
HETATM   15  O5  UNL     1      20.317  64.327  34.958  1.00  0.00    -0.346 OA
HETATM   16  C18 UNL     1      20.390  62.090  35.145  1.00  0.00     0.028 C 
HETATM   17  C11 UNL     1      20.191  63.895  33.673  1.00  0.00     0.198 A 
HETATM   18  O6  UNL     1      20.698  64.491  32.565  1.00  0.00    -0.339 OA
HETATM   19  C12 UNL     1      19.390  64.739  32.892  1.00  0.00     0.217 A 
HETATM   20  C13 UNL     1      20.253  62.399  33.656  1.00  0.00     0.058 C 
HETATM   21  C14 UNL     1      21.589  61.998  33.034  1.00  0.00     0.011 C 
HETATM   22  C15 UNL     1      22.323  61.255  34.128  1.00  0.00     0.005 C 
HETATM   23  C16 UNL     1      21.866  62.052  35.357  1.00  0.00    -0.012 C 
HETATM   24  C17 UNL     1      22.209  61.272  36.611  1.00  0.00     0.010 C 
ENDBRANCH   9  10
ENDBRANCH   7   9
ENDBRANCH   1   7
BRANCH   1  25
HETATM   25  C19 UNL     1      15.171  65.667  29.789  1.00  0.00     0.144 C 
BRANCH  25  26
HETATM   26  O7  UNL     1      14.699  66.078  28.545  1.00  0.00    -0.394 OA
ATOM     27  H7  UNL     1      15.264  65.758  27.851  1.00  0.00     0.210 HD
ENDBRANCH  25  26
BRANCH  25  28
HETATM   28  C20 UNL     1      14.163  65.931  30.843  1.00  0.00     0.026 A 
HETATM   29  C21 UNL     1      14.000  64.821  31.853  1.00  0.00     0.018 C 
HETATM   30  C22 UNL     1      12.838  64.892  32.763  1.00  0.00     0.034 C 
HETATM   31  C23 UNL     1      12.237  66.292  32.655  1.00  0.00     0.131 C 
HETATM   32  O8  UNL     1      13.310  67.170  32.701  1.00  0.00    -0.372 OA
HETATM   33  C29 UNL     1      11.698  66.413  31.246  1.00  0.00    -0.014 C 
HETATM   34  C24 UNL     1      13.876  67.249  31.432  1.00  0.00     0.080 A 
HETATM   35  C28 UNL     1      12.931  66.614  30.463  1.00  0.00     0.046 A 
HETATM   36  C30 UNL     1      10.903  65.196  30.839  1.00  0.00     0.018 C 
HETATM   37  C31 UNL     1      10.802  67.625  31.177  1.00  0.00     0.018 C 
BRANCH  34  38
HETATM   38  C25 UNL     1      14.414  68.570  31.060  1.00  0.00     0.013 C 
HETATM   39  C26 UNL     1      14.032  69.594  32.176  1.00  0.00     0.012 C 
HETATM   40  C27 UNL     1      13.780  69.215  29.830  1.00  0.00     0.012 C 
ENDBRANCH  34  38
ENDBRANCH  25  28
ENDBRANCH   1  25
TORSDOF 10
ENDMDL
MODEL 2
REMARK VINA RESULT: -9.714916310      1.585      2.511
REMARK  10 active torsions:
REMARK  status: ('A' for Active; 'I' for Inactive)
REMARK    1  A    between atoms: O1_2  and  C2_3 
REMARK    2  A    between atoms: C2_3  and  C3_5 
REMARK    3  A    between atoms: C3_5  and  C4_6 
REMARK    4  A    between atoms: C4_6  and  C5_7 
REMARK    5  A    between atoms: C4_6  and  C19_25 
REMARK    6  A    between atoms: C5_7  and  O4_9 
REMARK    7  A    between atoms: O4_9  and  C6_10 
REMARK    8  A    between atoms: C19_25  and  O7_26 
REMARK    9  A    between atoms: C19_25  and  C20_28 
REMARK   10  A    between atoms: C24_33  and  C25_34 
ROOT
HETATM    1  C4  UNL     1      16.244  64.208  29.690  1.00  0.00     0.124 C 
ENDROOT
BRANCH   1   2
HETATM    2  C3  UNL     1      17.272  64.008  28.630  1.00  0.00     0.128 C 
BRANCH   2   3
HETATM    3  C2  UNL     1      17.087  62.690  27.952  1.00  0.00     0.259 C 
HETATM    4  O2  UNL     1      16.717  61.667  28.566  1.00  0.00    -0.265 OA
BRANCH   3   5
HETATM    5  O1  UNL     1      17.327  62.572  26.593  1.00  0.00    -0.326 OA
HETATM    6  C1  UNL     1      16.859  63.533  25.654  1.00  0.00     0.213 C 
ENDBRANCH   3   5
ENDBRANCH   2   3
ENDBRANCH   1   2
BRANCH   1   7
HETATM    7  C5  UNL     1      16.902  64.765  30.907  1.00  0.00     0.266 C 
HETATM    8  O3  UNL     1      16.246  65.456  31.737  1.00  0.00    -0.265 OA
BRANCH   7   9
HETATM    9  O4  UNL     1      18.227  64.567  31.198  1.00  0.00    -0.313 OA
BRANCH   9  10
HETATM   10  C6  UNL     1      18.633  63.696  32.267  1.00  0.00     0.166 C 
HETATM   11  C7  UNL     1      17.519  63.352  33.169  1.00  0.00     0.035 C 
HETATM   12  C8  UNL     1      17.686  63.920  34.584  1.00  0.00     0.005 C 
HETATM   13  C9  UNL     1      18.283  62.953  35.546  1.00  0.00     0.032 C 
HETATM   14  C10 UNL     1      19.719  63.171  35.887  1.00  0.00     0.130 C 
HETATM   15  O5  UNL     1      20.366  64.144  35.181  1.00  0.00    -0.346 OA
HETATM   16  C18 UNL     1      20.469  61.914  35.429  1.00  0.00     0.028 C 
HETATM   17  C11 UNL     1      20.405  63.681  33.901  1.00  0.00     0.198 A 
HETATM   18  O6  UNL     1      21.027  64.267  32.846  1.00  0.00    -0.339 OA
HETATM   19  C12 UNL     1      19.684  64.487  33.009  1.00  0.00     0.217 A 
HETATM   20  C13 UNL     1      20.505  62.188  33.928  1.00  0.00     0.058 C 
HETATM   21  C14 UNL     1      21.914  61.809  33.479  1.00  0.00     0.011 C 
HETATM   22  C15 UNL     1      22.530  61.109  34.670  1.00  0.00     0.005 C 
HETATM   23  C16 UNL     1      21.910  61.919  35.816  1.00  0.00    -0.012 C 
HETATM   24  C17 UNL     1      22.118  61.175  37.120  1.00  0.00     0.010 C 
ENDBRANCH   9  10
ENDBRANCH   7   9
ENDBRANCH   1   7
BRANCH   1  25
HETATM   25  C19 UNL     1      14.988  64.902  29.360  1.00  0.00     0.144 C 
BRANCH  25  26
HETATM   26  O7  UNL     1      15.081  65.517  28.114  1.00  0.00    -0.394 OA
ATOM     27  H7  UNL     1      14.611  65.015  27.458  1.00  0.00     0.210 HD
ENDBRANCH  25  26
BRANCH  25  28
HETATM   28  C20 UNL     1      13.670  64.244  29.521  1.00  0.00     0.026 A 
HETATM   29  C21 UNL     1      13.680  62.751  29.299  1.00  0.00     0.018 C 
HETATM   30  C22 UNL     1      12.373  62.072  29.175  1.00  0.00     0.034 C 
HETATM   31  C23 UNL     1      11.288  63.045  29.630  1.00  0.00     0.131 C 
HETATM   32  O8  UNL     1      11.756  63.613  30.806  1.00  0.00    -0.372 OA
HETATM   33  C29 UNL     1      11.290  64.179  28.626  1.00  0.00    -0.014 C 
HETATM   34  C24 UNL     1      12.633  64.645  30.485  1.00  0.00     0.080 A 
HETATM   35  C28 UNL     1      12.487  64.940  29.027  1.00  0.00     0.046 A 
HETATM   36  C30 UNL     1      11.330  63.674  27.204  1.00  0.00     0.018 C 
HETATM   37  C31 UNL     1      10.034  64.993  28.818  1.00  0.00     0.018 C 
BRANCH  34  38
HETATM   38  C25 UNL     1      12.612  65.802  31.398  1.00  0.00     0.013 C 
HETATM   39  C26 UNL     1      13.043  65.319  32.820  1.00  0.00     0.012 C 
HETATM   40  C27 UNL     1      11.231  66.386  31.686  1.00  0.00     0.012 C 
ENDBRANCH  34  38
ENDBRANCH  25  28
ENDBRANCH   1  25
TORSDOF 10
ENDMDL
MODEL 3
REMARK VINA RESULT: -9.537881806      1.764      2.784
REMARK  10 active torsions:
REMARK  status: ('A' for Active; 'I' for Inactive)
REMARK    1  A    between atoms: O1_2  and  C2_3 
REMARK    2  A    between atoms: C2_3  and  C3_5 
REMARK    3  A    between atoms: C3_5  and  C4_6 
REMARK    4  A    between atoms: C4_6  and  C5_7 
REMARK    5  A    between atoms: C4_6  and  C19_25 
REMARK    6  A    between atoms: C5_7  and  O4_9 
REMARK    7  A    between atoms: O4_9  and  C6_10 
REMARK    8  A    between atoms: C19_25  and  O7_26 
REMARK    9  A    between atoms: C19_25  and  C20_28 
REMARK   10  A    between atoms: C24_33  and  C25_34 
ROOT
HETATM    1  C4  UNL     1      16.216  64.620  30.568  1.00  0.00     0.124 C 
ENDROOT
BRANCH   1   2
HETATM    2  C3  UNL     1      17.505  64.594  29.822  1.00  0.00     0.128 C 
BRANCH   2   3
HETATM    3  C2  UNL     1      17.565  63.416  28.906  1.00  0.00     0.259 C 
HETATM    4  O2  UNL     1      18.411  63.320  27.992  1.00  0.00    -0.265 OA
BRANCH   3   5
HETATM    5  O1  UNL     1      16.660  62.378  29.055  1.00  0.00    -0.326 OA
HETATM    6  C1  UNL     1      16.127  61.672  27.942  1.00  0.00     0.213 C 
ENDBRANCH   3   5
ENDBRANCH   2   3
ENDBRANCH   1   2
BRANCH   1   7
HETATM    7  C5  UNL     1      16.485  64.960  31.994  1.00  0.00     0.266 C 
HETATM    8  O3  UNL     1      16.441  66.159  32.392  1.00  0.00    -0.265 OA
BRANCH   7   9
HETATM    9  O4  UNL     1      16.787  64.019  32.944  1.00  0.00    -0.313 OA
BRANCH   9  10
HETATM   10  C6  UNL     1      18.111  63.915  33.495  1.00  0.00     0.166 C 
HETATM   11  C7  UNL     1      19.159  64.240  32.512  1.00  0.00     0.035 C 
HETATM   12  C8  UNL     1      20.038  63.040  32.142  1.00  0.00     0.005 C 
HETATM   13  C9  UNL     1      21.304  62.966  32.923  1.00  0.00     0.032 C 
HETATM   14  C10 UNL     1      21.340  61.951  34.016  1.00  0.00     0.130 C 
HETATM   15  O5  UNL     1      20.170  61.297  34.272  1.00  0.00    -0.346 OA
HETATM   16  C18 UNL     1      21.545  62.728  35.323  1.00  0.00     0.028 C 
HETATM   17  C11 UNL     1      19.329  62.255  34.750  1.00  0.00     0.198 A 
HETATM   18  O6  UNL     1      18.071  62.067  35.222  1.00  0.00    -0.339 OA
HETATM   19  C12 UNL     1      18.220  62.469  33.920  1.00  0.00     0.217 A 
HETATM   20  C13 UNL     1      20.130  63.270  35.506  1.00  0.00     0.058 C 
HETATM   21  C14 UNL     1      19.817  63.094  36.990  1.00  0.00     0.011 C 
HETATM   22  C15 UNL     1      21.133  62.704  37.625  1.00  0.00     0.005 C 
HETATM   23  C16 UNL     1      21.733  61.841  36.507  1.00  0.00    -0.012 C 
HETATM   24  C17 UNL     1      23.206  61.620  36.785  1.00  0.00     0.010 C 
ENDBRANCH   9  10
ENDBRANCH   7   9
ENDBRANCH   1   7
BRANCH   1  25
HETATM   25  C19 UNL     1      15.075  65.371  30.015  1.00  0.00     0.144 C 
BRANCH  25  26
HETATM   26  O7  UNL     1      15.305  65.698  28.681  1.00  0.00    -0.394 OA
ATOM     27  H7  UNL     1      14.707  66.380  28.397  1.00  0.00     0.210 HD
ENDBRANCH  25  26
BRANCH  25  28
HETATM   28  C20 UNL     1      13.678  64.916  30.208  1.00  0.00     0.026 A 
HETATM   29  C21 UNL     1      13.463  63.436  30.004  1.00  0.00     0.018 C 
HETATM   30  C22 UNL     1      12.067  62.956  29.912  1.00  0.00     0.034 C 
HETATM   31  C23 UNL     1      11.148  64.083  30.376  1.00  0.00     0.131 C 
HETATM   32  O8  UNL     1      11.719  64.586  31.537  1.00  0.00    -0.372 OA
HETATM   33  C29 UNL     1      11.296  65.196  29.360  1.00  0.00    -0.014 C 
HETATM   34  C24 UNL     1      12.732  65.474  31.187  1.00  0.00     0.080 A 
HETATM   35  C28 UNL     1      12.601  65.775  29.730  1.00  0.00     0.046 A 
HETATM   36  C30 UNL     1      11.232  64.678  27.944  1.00  0.00     0.018 C 
HETATM   37  C31 UNL     1      10.178  66.188  29.567  1.00  0.00     0.018 C 
BRANCH  34  38
HETATM   38  C25 UNL     1      12.900  66.628  32.088  1.00  0.00     0.013 C 
HETATM   39  C26 UNL     1      13.085  66.098  33.546  1.00  0.00     0.012 C 
HETATM   40  C27 UNL     1      11.673  67.522  32.247  1.00  0.00     0.012 C 
ENDBRANCH  34  38
ENDBRANCH  25  28
ENDBRANCH   1  25
TORSDOF 10
ENDMDL
MODEL 4
REMARK VINA RESULT: -9.523485207      1.250      1.626
REMARK  10 active torsions:
REMARK  status: ('A' for Active; 'I' for Inactive)
REMARK    1  A    between atoms: O1_2  and  C2_3 
REMARK    2  A    between atoms: C2_3  and  C3_5 
REMARK    3  A    between atoms: C3_5  and  C4_6 
REMARK    4  A    between atoms: C4_6  and  C5_7 
REMARK    5  A    between atoms: C4_6  and  C19_25 
REMARK    6  A    between atoms: C5_7  and  O4_9 
REMARK    7  A    between atoms: O4_9  and  C6_10 
REMARK    8  A    between atoms: C19_25  and  O7_26 
REMARK    9  A    between atoms: C19_25  and  C20_28 
REMARK   10  A    between atoms: C24_33  and  C25_34 
ROOT
HETATM    1  C4  UNL     1      15.992  64.066  29.459  1.00  0.00     0.124 C 
ENDROOT
BRANCH   1   2
HETATM    2  C3  UNL     1      16.124  63.478  28.096  1.00  0.00     0.128 C 
BRANCH   2   3
HETATM    3  C2  UNL     1      15.831  62.014  28.120  1.00  0.00     0.259 C 
HETATM    4  O2  UNL     1      16.462  61.216  28.844  1.00  0.00    -0.265 OA
BRANCH   3   5
HETATM    5  O1  UNL     1      14.827  61.497  27.318  1.00  0.00    -0.326 OA
HETATM    6  C1  UNL     1      13.958  62.330  26.560  1.00  0.00     0.213 C 
ENDBRANCH   3   5
ENDBRANCH   2   3
ENDBRANCH   1   2
BRANCH   1   7
HETATM    7  C5  UNL     1      17.345  64.443  29.959  1.00  0.00     0.266 C 
HETATM    8  O3  UNL     1      18.355  64.377  29.203  1.00  0.00    -0.265 OA
BRANCH   7   9
HETATM    9  O4  UNL     1      17.575  64.878  31.239  1.00  0.00    -0.313 OA
BRANCH   9  10
HETATM   10  C6  UNL     1      18.118  63.999  32.238  1.00  0.00     0.166 C 
HETATM   11  C7  UNL     1      17.147  63.686  33.303  1.00  0.00     0.035 C 
HETATM   12  C8  UNL     1      17.543  64.252  34.671  1.00  0.00     0.005 C 
HETATM   13  C9  UNL     1      18.256  63.272  35.536  1.00  0.00     0.032 C 
HETATM   14  C10 UNL     1      19.732  63.454  35.652  1.00  0.00     0.130 C 
HETATM   15  O5  UNL     1      20.288  64.409  34.849  1.00  0.00    -0.346 OA
HETATM   16  C18 UNL     1      20.373  62.178  35.092  1.00  0.00     0.028 C 
HETATM   17  C11 UNL     1      20.119  63.943  33.581  1.00  0.00     0.198 A 
HETATM   18  O6  UNL     1      20.586  64.511  32.441  1.00  0.00    -0.339 OA
HETATM   19  C12 UNL     1      19.290  64.765  32.806  1.00  0.00     0.217 A 
HETATM   20  C13 UNL     1      20.185  62.447  33.602  1.00  0.00     0.058 C 
HETATM   21  C14 UNL     1      21.499  62.033  32.945  1.00  0.00     0.011 C 
HETATM   22  C15 UNL     1      22.272  61.320  34.032  1.00  0.00     0.005 C 
HETATM   23  C16 UNL     1      21.855  62.148  35.255  1.00  0.00    -0.012 C 
HETATM   24  C17 UNL     1      22.243  61.402  36.516  1.00  0.00     0.010 C 
ENDBRANCH   9  10
ENDBRANCH   7   9
ENDBRANCH   1   7
BRANCH   1  25
HETATM   25  C19 UNL     1      14.988  65.117  29.700  1.00  0.00     0.144 C 
BRANCH  25  26
HETATM   26  O7  UNL     1      15.019  66.066  28.680  1.00  0.00    -0.394 OA
ATOM     27  H7  UNL     1      14.348  66.726  28.818  1.00  0.00     0.210 HD
ENDBRANCH  25  26
BRANCH  25  28
HETATM   28  C20 UNL     1      13.590  64.789  30.066  1.00  0.00     0.026 A 
HETATM   29  C21 UNL     1      13.289  63.311  30.142  1.00  0.00     0.018 C 
HETATM   30  C22 UNL     1      11.870  62.909  30.233  1.00  0.00     0.034 C 
HETATM   31  C23 UNL     1      11.044  64.154  30.551  1.00  0.00     0.131 C 
HETATM   32  O8  UNL     1      11.727  64.814  31.563  1.00  0.00    -0.372 OA
HETATM   33  C29 UNL     1      11.166  65.062  29.346  1.00  0.00    -0.014 C 
HETATM   34  C24 UNL     1      12.751  65.565  30.992  1.00  0.00     0.080 A 
HETATM   35  C28 UNL     1      12.521  65.616  29.517  1.00  0.00     0.046 A 
HETATM   36  C30 UNL     1      10.967  64.311  28.052  1.00  0.00     0.018 C 
HETATM   37  C31 UNL     1      10.116  66.141  29.449  1.00  0.00     0.018 C 
BRANCH  34  38
HETATM   38  C25 UNL     1      13.044  66.846  31.660  1.00  0.00     0.013 C 
HETATM   39  C26 UNL     1      14.014  66.573  32.854  1.00  0.00     0.012 C 
HETATM   40  C27 UNL     1      11.864  67.499  32.375  1.00  0.00     0.012 C 
ENDBRANCH  34  38
ENDBRANCH  25  28
ENDBRANCH   1  25
TORSDOF 10
ENDMDL
MODEL 5
REMARK VINA RESULT: -9.519339377      2.391      3.986
REMARK  10 active torsions:
REMARK  status: ('A' for Active; 'I' for Inactive)
REMARK    1  A    between atoms: O1_2  and  C2_3 
REMARK    2  A    between atoms: C2_3  and  C3_5 
REMARK    3  A    between atoms: C3_5  and  C4_6 
REMARK    4  A    between atoms: C4_6  and  C5_7 
REMARK    5  A    between atoms: C4_6  and  C19_25 
REMARK    6  A    between atoms: C5_7  and  O4_9 
REMARK    7  A    between atoms: O4_9  and  C6_10 
REMARK    8  A    between atoms: C19_25  and  O7_26 
REMARK    9  A    between atoms: C19_25  and  C20_28 
REMARK   10  A    between atoms: C24_33  and  C25_34 
ROOT
HETATM    1  C4  UNL     1      16.336  64.325  29.431  1.00  0.00     0.124 C 
ENDROOT
BRANCH   1   2
HETATM    2  C3  UNL     1      17.034  65.066  28.344  1.00  0.00     0.128 C 
BRANCH   2   3
HETATM    3  C2  UNL     1      17.862  64.140  27.516  1.00  0.00     0.259 C 
HETATM    4  O2  UNL     1      18.785  63.451  28.001  1.00  0.00    -0.265 OA
BRANCH   3   5
HETATM    5  O1  UNL     1      17.618  64.022  26.158  1.00  0.00    -0.326 OA
HETATM    6  C1  UNL     1      17.655  65.142  25.282  1.00  0.00     0.213 C 
ENDBRANCH   3   5
ENDBRANCH   2   3
ENDBRANCH   1   2
BRANCH   1   7
HETATM    7  C5  UNL     1      16.851  64.792  30.750  1.00  0.00     0.266 C 
HETATM    8  O3  UNL     1      16.075  65.322  31.595  1.00  0.00    -0.265 OA
BRANCH   7   9
HETATM    9  O4  UNL     1      18.166  64.679  31.122  1.00  0.00    -0.313 OA
BRANCH   9  10
HETATM   10  C6  UNL     1      18.565  63.802  32.190  1.00  0.00     0.166 C 
HETATM   11  C7  UNL     1      17.451  63.477  33.100  1.00  0.00     0.035 C 
HETATM   12  C8  UNL     1      17.637  64.044  34.512  1.00  0.00     0.005 C 
HETATM   13  C9  UNL     1      18.225  63.069  35.472  1.00  0.00     0.032 C 
HETATM   14  C10 UNL     1      19.666  63.265  35.803  1.00  0.00     0.130 C 
HETATM   15  O5  UNL     1      20.324  64.227  35.091  1.00  0.00    -0.346 OA
HETATM   16  C18 UNL     1      20.394  61.996  35.341  1.00  0.00     0.028 C 
HETATM   17  C11 UNL     1      20.347  63.763  33.811  1.00  0.00     0.198 A 
HETATM   18  O6  UNL     1      20.971  64.337  32.752  1.00  0.00    -0.339 OA
HETATM   19  C12 UNL     1      19.633  64.578  32.924  1.00  0.00     0.217 A 
HETATM   20  C13 UNL     1      20.424  62.267  33.840  1.00  0.00     0.058 C 
HETATM   21  C14 UNL     1      21.824  61.867  33.383  1.00  0.00     0.011 C 
HETATM   22  C15 UNL     1      22.437  61.159  34.571  1.00  0.00     0.005 C 
HETATM   23  C16 UNL     1      21.837  61.980  35.720  1.00  0.00    -0.012 C 
HETATM   24  C17 UNL     1      22.042  61.234  37.023  1.00  0.00     0.010 C 
ENDBRANCH   9  10
ENDBRANCH   7   9
ENDBRANCH   1   7
BRANCH   1  25
HETATM   25  C19 UNL     1      14.867  64.217  29.406  1.00  0.00     0.144 C 
BRANCH  25  26
HETATM   26  O7  UNL     1      14.282  65.478  29.497  1.00  0.00    -0.394 OA
ATOM     27  H7  UNL     1      14.931  66.130  29.736  1.00  0.00     0.210 HD
ENDBRANCH  25  26
BRANCH  25  28
HETATM   28  C20 UNL     1      14.165  63.388  28.398  1.00  0.00     0.026 A 
HETATM   29  C21 UNL     1      14.986  62.255  27.830  1.00  0.00     0.018 C 
HETATM   30  C22 UNL     1      14.456  61.560  26.638  1.00  0.00     0.034 C 
HETATM   31  C23 UNL     1      12.999  61.977  26.456  1.00  0.00     0.131 C 
HETATM   32  O8  UNL     1      12.421  61.902  27.715  1.00  0.00    -0.372 OA
HETATM   33  C29 UNL     1      13.019  63.455  26.128  1.00  0.00    -0.014 C 
HETATM   34  C24 UNL     1      12.729  63.064  28.417  1.00  0.00     0.080 A 
HETATM   35  C28 UNL     1      13.283  64.057  27.448  1.00  0.00     0.046 A 
HETATM   36  C30 UNL     1      14.056  63.787  25.082  1.00  0.00     0.018 C 
HETATM   37  C31 UNL     1      11.659  63.851  25.608  1.00  0.00     0.018 C 
BRANCH  34  38
HETATM   38  C25 UNL     1      11.680  63.548  29.331  1.00  0.00     0.013 C 
HETATM   39  C26 UNL     1      11.799  62.769  30.681  1.00  0.00     0.012 C 
HETATM   40  C27 UNL     1      10.247  63.219  28.920  1.00  0.00     0.012 C 
ENDBRANCH  34  38
ENDBRANCH  25  28
ENDBRANCH   1  25
TORSDOF 10
ENDMDL
