MODEL 1
REMARK VINA RESULT: -8.188850203      0.000      0.000
REMARK  10 active torsions:
REMARK  status: ('A' for Active; 'I' for Inactive)
REMARK    1  A    between atoms: C2_2  and  C3_3 
REMARK    2  A    between atoms: C3_3  and  O1_4 
REMARK    3  A    between atoms: O1_4  and  C4_5 
REMARK    4  A    between atoms: C7_9  and  C8_10 
REMARK    5  A    between atoms: C8_10  and  C9_12 
REMARK    6  A    between atoms: C19_23  and  C20_24 
REMARK    7  A    between atoms: C21_25  and  C22_26 
REMARK    8  A    between atoms: C22_26  and  O6_28 
REMARK    9  A    between atoms: O6_28  and  C23_29 
REMARK   10  A    between atoms: C31_38  and  O8_39 
ROOT
HETATM    1  C9  UNL     1      13.124  66.525  30.415  1.00  0.00     0.057 C 
HETATM    2  C10 UNL     1      13.181  67.768  31.201  1.00  0.00     0.021 C 
HETATM    3  C11 UNL     1      12.399  67.367  32.460  1.00  0.00     0.002 C 
HETATM    4  C12 UNL     1      11.536  66.183  32.062  1.00  0.00     0.013 C 
HETATM    5  C13 UNL     1      11.649  66.253  30.561  1.00  0.00    -0.000 C 
HETATM    6  C14 UNL     1      10.775  67.452  30.265  1.00  0.00     0.019 C 
HETATM    7  C15 UNL     1      11.111  65.090  29.804  1.00  0.00     0.140 C 
HETATM    8  O4  UNL     1       9.769  65.351  29.424  1.00  0.00    -0.370 OA
HETATM    9  C16 UNL     1       9.637  65.327  28.092  1.00  0.00     0.097 C 
HETATM   10  C17 UNL     1       9.019  66.521  27.376  1.00  0.00     0.050 C 
HETATM   11  C18 UNL     1      10.897  64.932  27.434  1.00  0.00     0.044 C 
HETATM   12  C19 UNL     1      10.206  63.779  26.779  1.00  0.00     0.056 C 
HETATM   13  C25 UNL     1       8.952  64.086  27.573  1.00  0.00     0.125 A 
HETATM   14  O7  UNL     1       8.414  63.155  28.425  1.00  0.00    -0.366 OA
HETATM   15  C26 UNL     1       7.652  63.856  27.329  1.00  0.00     0.157 A 
HETATM   16  C27 UNL     1       6.507  64.632  27.947  1.00  0.00     0.043 C 
HETATM   17  C28 UNL     1      11.831  64.655  28.586  1.00  0.00    -0.007 C 
HETATM   18  C29 UNL     1      12.020  63.147  28.560  1.00  0.00     0.018 C 
HETATM   19  C30 UNL     1      13.135  65.290  28.318  1.00  0.00     0.045 C 
HETATM   20  C31 UNL     1      13.446  66.607  28.963  1.00  0.00     0.135 C 
ENDROOT
BRANCH   1  21
HETATM   21  C8  UNL     1      14.012  65.555  30.995  1.00  0.00     0.150 C 
HETATM   22  O3  UNL     1      13.702  64.414  31.352  1.00  0.00    -0.296 OA
BRANCH  21  23
HETATM   23  C7  UNL     1      15.480  65.794  31.259  1.00  0.00     0.128 C 
HETATM   24  C6  UNL     1      16.265  64.759  30.500  1.00  0.00     0.140 C 
HETATM   25  C5  UNL     1      17.207  64.108  31.380  1.00  0.00     0.111 C 
HETATM   26  O2  UNL     1      16.122  64.504  29.299  1.00  0.00    -0.297 OA
HETATM   27  C4  UNL     1      17.331  65.027  32.610  1.00  0.00     0.130 C 
HETATM   28  C32 UNL     1      15.907  65.621  32.649  1.00  0.00     0.052 C 
BRANCH  27  29
HETATM   29  O1  UNL     1      17.721  64.459  33.651  1.00  0.00    -0.382 OA
BRANCH  29  30
HETATM   30  C3  UNL     1      18.108  63.901  34.680  1.00  0.00     0.194 C 
BRANCH  30  31
HETATM   31  C2  UNL     1      18.137  62.391  34.572  1.00  0.00    -0.011 C 
HETATM   32  C1  UNL     1      19.042  61.819  33.820  1.00  0.00     0.009 C 
ENDBRANCH  30  31
ENDBRANCH  29  30
ENDBRANCH  27  29
ENDBRANCH  21  23
ENDBRANCH   1  21
BRANCH  20  33
HETATM   33  O8  UNL     1      13.032  67.714  28.280  1.00  0.00    -0.394 OA
ATOM     34  H8  UNL     1      12.098  67.832  28.152  1.00  0.00     0.210 HD
ENDBRANCH  20  33
BRANCH  12  35
HETATM   35  C20 UNL     1      10.071  63.951  25.309  1.00  0.00    -0.012 C 
HETATM   36  C21 UNL     1      10.614  63.249  24.369  1.00  0.00     0.079 C 
BRANCH  36  37
HETATM   37  C22 UNL     1      11.486  62.117  24.438  1.00  0.00     0.282 C 
HETATM   38  O5  UNL     1      11.018  60.975  24.034  1.00  0.00    -0.260 OA
BRANCH  37  39
HETATM   39  O6  UNL     1      12.771  62.059  24.877  1.00  0.00    -0.319 OA
BRANCH  39  40
HETATM   40  C23 UNL     1      13.608  63.137  25.198  1.00  0.00     0.174 C 
HETATM   41  C24 UNL     1      14.637  62.608  26.193  1.00  0.00     0.034 C 
ENDBRANCH  39  40
ENDBRANCH  37  39
ENDBRANCH  36  37
ENDBRANCH  12  35
TORSDOF 10
ENDMDL
MODEL 2
REMARK VINA RESULT: -8.137132898      1.902      7.988
REMARK  10 active torsions:
REMARK  status: ('A' for Active; 'I' for Inactive)
REMARK    1  A    between atoms: C2_2  and  C3_3 
REMARK    2  A    between atoms: C3_3  and  O1_4 
REMARK    3  A    between atoms: O1_4  and  C4_5 
REMARK    4  A    between atoms: C7_9  and  C8_10 
REMARK    5  A    between atoms: C8_10  and  C9_12 
REMARK    6  A    between atoms: C19_23  and  C20_24 
REMARK    7  A    between atoms: C21_25  and  C22_26 
REMARK    8  A    between atoms: C22_26  and  O6_28 
REMARK    9  A    between atoms: O6_28  and  C23_29 
REMARK   10  A    between atoms: C31_38  and  O8_39 
ROOT
HETATM    1  C9  UNL     1      10.705  64.110  28.640  1.00  0.00     0.057 C 
HETATM    2  C10 UNL     1       9.236  64.038  28.690  1.00  0.00     0.021 C 
HETATM    3  C11 UNL     1       8.844  65.327  27.953  1.00  0.00     0.002 C 
HETATM    4  C12 UNL     1      10.050  66.245  28.036  1.00  0.00     0.013 C 
HETATM    5  C13 UNL     1      10.860  65.538  29.092  1.00  0.00    -0.000 C 
HETATM    6  C14 UNL     1      10.064  65.875  30.334  1.00  0.00     0.019 C 
HETATM    7  C15 UNL     1      12.253  66.024  29.289  1.00  0.00     0.140 C 
HETATM    8  O4  UNL     1      12.276  66.989  30.330  1.00  0.00    -0.370 OA
HETATM    9  C16 UNL     1      13.068  66.589  31.333  1.00  0.00     0.097 C 
HETATM   10  C17 UNL     1      12.516  66.537  32.752  1.00  0.00     0.050 C 
HETATM   11  C18 UNL     1      13.756  65.326  31.005  1.00  0.00     0.044 C 
HETATM   12  C19 UNL     1      15.084  65.984  31.206  1.00  0.00     0.056 C 
HETATM   13  C25 UNL     1      14.389  67.319  31.389  1.00  0.00     0.125 A 
HETATM   14  O7  UNL     1      14.661  68.373  30.556  1.00  0.00    -0.366 OA
HETATM   15  C26 UNL     1      14.733  68.430  32.061  1.00  0.00     0.157 A 
HETATM   16  C27 UNL     1      13.756  69.475  32.559  1.00  0.00     0.043 C 
HETATM   17  C28 UNL     1      13.304  65.028  29.597  1.00  0.00    -0.007 C 
HETATM   18  C29 UNL     1      14.547  65.251  28.750  1.00  0.00     0.018 C 
HETATM   19  C30 UNL     1      12.925  63.606  29.499  1.00  0.00     0.045 C 
HETATM   20  C31 UNL     1      11.475  63.236  29.568  1.00  0.00     0.135 C 
ENDROOT
BRANCH   1  21
HETATM   21  C8  UNL     1      11.150  63.812  27.306  1.00  0.00     0.150 C 
HETATM   22  O3  UNL     1      11.946  64.483  26.643  1.00  0.00    -0.296 OA
BRANCH  21  23
HETATM   23  C7  UNL     1      10.699  62.613  26.505  1.00  0.00     0.128 C 
HETATM   24  C6  UNL     1      11.921  61.834  26.103  1.00  0.00     0.140 C 
HETATM   25  C5  UNL     1      11.897  61.573  24.683  1.00  0.00     0.111 C 
HETATM   26  O2  UNL     1      12.814  61.470  26.876  1.00  0.00    -0.297 OA
HETATM   27  C4  UNL     1      10.442  61.812  24.239  1.00  0.00     0.130 C 
HETATM   28  C32 UNL     1      10.032  62.917  25.236  1.00  0.00     0.052 C 
BRANCH  27  29
HETATM   29  O1  UNL     1      10.300  62.080  23.029  1.00  0.00    -0.382 OA
BRANCH  29  30
HETATM   30  C3  UNL     1      10.161  62.343  21.832  1.00  0.00     0.194 C 
BRANCH  30  31
HETATM   31  C2  UNL     1       9.450  61.255  21.055  1.00  0.00    -0.011 C 
HETATM   32  C1  UNL     1       9.933  60.039  21.066  1.00  0.00     0.009 C 
ENDBRANCH  30  31
ENDBRANCH  29  30
ENDBRANCH  27  29
ENDBRANCH  21  23
ENDBRANCH   1  21
BRANCH  20  33
HETATM   33  O8  UNL     1      10.972  63.039  30.822  1.00  0.00    -0.394 OA
ATOM     34  H8  UNL     1      11.551  62.671  31.479  1.00  0.00     0.210 HD
ENDBRANCH  20  33
BRANCH  12  35
HETATM   35  C20 UNL     1      15.796  65.482  32.411  1.00  0.00    -0.012 C 
HETATM   36  C21 UNL     1      16.888  64.793  32.463  1.00  0.00     0.079 C 
BRANCH  36  37
HETATM   37  C22 UNL     1      17.736  64.311  31.417  1.00  0.00     0.282 C 
HETATM   38  O5  UNL     1      19.016  64.483  31.558  1.00  0.00    -0.260 OA
BRANCH  37  39
HETATM   39  O6  UNL     1      17.390  63.681  30.263  1.00  0.00    -0.319 OA
BRANCH  39  40
HETATM   40  C23 UNL     1      17.952  63.868  28.993  1.00  0.00     0.174 C 
HETATM   41  C24 UNL     1      17.266  62.873  28.063  1.00  0.00     0.034 C 
ENDBRANCH  39  40
ENDBRANCH  37  39
ENDBRANCH  36  37
ENDBRANCH  12  35
TORSDOF 10
ENDMDL
MODEL 3
REMARK VINA RESULT: -7.901618658      2.615      7.047
REMARK  10 active torsions:
REMARK  status: ('A' for Active; 'I' for Inactive)
REMARK    1  A    between atoms: C2_2  and  C3_3 
REMARK    2  A    between atoms: C3_3  and  O1_4 
REMARK    3  A    between atoms: O1_4  and  C4_5 
REMARK    4  A    between atoms: C7_9  and  C8_10 
REMARK    5  A    between atoms: C8_10  and  C9_12 
REMARK    6  A    between atoms: C19_23  and  C20_24 
REMARK    7  A    between atoms: C21_25  and  C22_26 
REMARK    8  A    between atoms: C22_26  and  O6_28 
REMARK    9  A    between atoms: O6_28  and  C23_29 
REMARK   10  A    between atoms: C31_38  and  O8_39 
ROOT
HETATM    1  C9  UNL     1      11.675  66.273  30.351  1.00  0.00     0.057 C 
HETATM    2  C10 UNL     1      11.817  66.626  31.772  1.00  0.00     0.021 C 
HETATM    3  C11 UNL     1      12.934  67.678  31.714  1.00  0.00     0.002 C 
HETATM    4  C12 UNL     1      13.673  67.437  30.411  1.00  0.00     0.013 C 
HETATM    5  C13 UNL     1      13.135  66.079  30.037  1.00  0.00    -0.000 C 
HETATM    6  C14 UNL     1      13.862  65.201  31.033  1.00  0.00     0.019 C 
HETATM    7  C15 UNL     1      13.461  65.594  28.668  1.00  0.00     0.140 C 
HETATM    8  O4  UNL     1      14.634  64.796  28.715  1.00  0.00    -0.370 OA
HETATM    9  C16 UNL     1      14.381  63.552  28.286  1.00  0.00     0.097 C 
HETATM   10  C17 UNL     1      14.743  62.365  29.168  1.00  0.00     0.050 C 
HETATM   11  C18 UNL     1      12.995  63.424  27.798  1.00  0.00     0.044 C 
HETATM   12  C19 UNL     1      13.496  62.986  26.457  1.00  0.00     0.056 C 
HETATM   13  C25 UNL     1      14.917  63.268  26.903  1.00  0.00     0.125 A 
HETATM   14  O7  UNL     1      15.696  64.178  26.235  1.00  0.00    -0.366 OA
HETATM   15  C26 UNL     1      16.099  62.754  26.525  1.00  0.00     0.157 A 
HETATM   16  C27 UNL     1      17.355  62.762  27.372  1.00  0.00     0.043 C 
HETATM   17  C28 UNL     1      12.434  64.817  27.939  1.00  0.00    -0.007 C 
HETATM   18  C29 UNL     1      12.279  65.305  26.508  1.00  0.00     0.018 C 
HETATM   19  C30 UNL     1      11.094  64.742  28.551  1.00  0.00     0.045 C 
HETATM   20  C31 UNL     1      10.951  65.015  30.017  1.00  0.00     0.135 C 
ENDROOT
BRANCH   1  21
HETATM   21  C8  UNL     1      11.011  67.343  29.659  1.00  0.00     0.150 C 
HETATM   22  O3  UNL     1      11.353  67.825  28.575  1.00  0.00    -0.296 OA
BRANCH  21  23
HETATM   23  C7  UNL     1       9.776  68.050  30.167  1.00  0.00     0.128 C 
HETATM   24  C6  UNL     1       8.674  67.843  29.165  1.00  0.00     0.140 C 
HETATM   25  C5  UNL     1       8.075  69.110  28.819  1.00  0.00     0.111 C 
HETATM   26  O2  UNL     1       8.333  66.747  28.704  1.00  0.00    -0.297 OA
HETATM   27  C4  UNL     1       8.504  70.091  29.927  1.00  0.00     0.130 C 
HETATM   28  C32 UNL     1       9.887  69.506  30.285  1.00  0.00     0.052 C 
BRANCH  27  29
HETATM   29  O1  UNL     1       8.481  71.295  29.599  1.00  0.00    -0.382 OA
BRANCH  29  30
HETATM   30  C3  UNL     1       8.456  72.484  29.275  1.00  0.00     0.194 C 
BRANCH  30  31
HETATM   31  C2  UNL     1       7.149  73.172  29.607  1.00  0.00    -0.011 C 
HETATM   32  C1  UNL     1       6.762  73.246  30.854  1.00  0.00     0.009 C 
ENDBRANCH  30  31
ENDBRANCH  29  30
ENDBRANCH  27  29
ENDBRANCH  21  23
ENDBRANCH   1  21
BRANCH  20  33
HETATM   33  O8  UNL     1      11.128  63.940  30.840  1.00  0.00    -0.394 OA
ATOM     34  H8  UNL     1      11.349  63.107  30.440  1.00  0.00     0.210 HD
ENDBRANCH  20  33
BRANCH  12  35
HETATM   35  C20 UNL     1      13.203  61.557  26.174  1.00  0.00    -0.012 C 
HETATM   36  C21 UNL     1      12.192  61.059  25.541  1.00  0.00     0.079 C 
BRANCH  36  37
HETATM   37  C22 UNL     1      11.071  61.700  24.927  1.00  0.00     0.282 C 
HETATM   38  O5  UNL     1      10.664  61.231  23.786  1.00  0.00    -0.260 OA
BRANCH  37  39
HETATM   39  O6  UNL     1      10.347  62.760  25.374  1.00  0.00    -0.319 OA
BRANCH  39  40
HETATM   40  C23 UNL     1       9.065  63.147  24.961  1.00  0.00     0.174 C 
HETATM   41  C24 UNL     1       8.344  63.662  26.203  1.00  0.00     0.034 C 
ENDBRANCH  39  40
ENDBRANCH  37  39
ENDBRANCH  36  37
ENDBRANCH  12  35
TORSDOF 10
ENDMDL
MODEL 4
REMARK VINA RESULT: -7.809260077      2.146      6.697
REMARK  10 active torsions:
REMARK  status: ('A' for Active; 'I' for Inactive)
REMARK    1  A    between atoms: C2_2  and  C3_3 
REMARK    2  A    between atoms: C3_3  and  O1_4 
REMARK    3  A    between atoms: O1_4  and  C4_5 
REMARK    4  A    between atoms: C7_9  and  C8_10 
REMARK    5  A    between atoms: C8_10  and  C9_12 
REMARK    6  A    between atoms: C19_23  and  C20_24 
REMARK    7  A    between atoms: C21_25  and  C22_26 
REMARK    8  A    between atoms: C22_26  and  O6_28 
REMARK    9  A    between atoms: O6_28  and  C23_29 
REMARK   10  A    between atoms: C31_38  and  O8_39 
ROOT
HETATM    1  C9  UNL     1      10.853  63.921  29.081  1.00  0.00     0.057 C 
HETATM    2  C10 UNL     1       9.556  63.227  29.061  1.00  0.00     0.021 C 
HETATM    3  C11 UNL     1       9.046  63.575  27.656  1.00  0.00     0.002 C 
HETATM    4  C12 UNL     1       9.796  64.824  27.231  1.00  0.00     0.013 C 
HETATM    5  C13 UNL     1      10.386  65.251  28.551  1.00  0.00    -0.000 C 
HETATM    6  C14 UNL     1       9.156  65.789  29.250  1.00  0.00     0.019 C 
HETATM    7  C15 UNL     1      11.401  66.338  28.498  1.00  0.00     0.140 C 
HETATM    8  O4  UNL     1      10.766  67.591  28.706  1.00  0.00    -0.370 OA
HETATM    9  C16 UNL     1      11.260  68.200  29.792  1.00  0.00     0.097 C 
HETATM   10  C17 UNL     1      10.311  68.667  30.889  1.00  0.00     0.050 C 
HETATM   11  C18 UNL     1      12.381  67.438  30.374  1.00  0.00     0.044 C 
HETATM   12  C19 UNL     1      13.283  68.621  30.213  1.00  0.00     0.056 C 
HETATM   13  C25 UNL     1      12.182  69.353  29.472  1.00  0.00     0.125 A 
HETATM   14  O7  UNL     1      12.368  69.786  28.184  1.00  0.00    -0.366 OA
HETATM   15  C26 UNL     1      11.910  70.660  29.324  1.00  0.00     0.157 A 
HETATM   16  C27 UNL     1      10.544  71.225  28.990  1.00  0.00     0.043 C 
HETATM   17  C28 UNL     1      12.547  66.270  29.434  1.00  0.00    -0.007 C 
HETATM   18  C29 UNL     1      13.862  66.546  28.723  1.00  0.00     0.018 C 
HETATM   19  C30 UNL     1      12.694  65.031  30.219  1.00  0.00     0.045 C 
HETATM   20  C31 UNL     1      11.502  64.142  30.402  1.00  0.00     0.135 C 
ENDROOT
BRANCH   1  21
HETATM   21  C8  UNL     1      11.789  63.202  28.261  1.00  0.00     0.150 C 
HETATM   22  O3  UNL     1      12.237  62.075  28.494  1.00  0.00    -0.296 OA
BRANCH  21  23
HETATM   23  C7  UNL     1      12.374  63.729  26.971  1.00  0.00     0.128 C 
HETATM   24  C6  UNL     1      12.282  62.640  25.938  1.00  0.00     0.140 C 
HETATM   25  C5  UNL     1      13.567  62.445  25.308  1.00  0.00     0.111 C 
HETATM   26  O2  UNL     1      11.256  62.005  25.668  1.00  0.00    -0.297 OA
HETATM   27  C4  UNL     1      14.386  63.708  25.633  1.00  0.00     0.130 C 
HETATM   28  C32 UNL     1      13.800  64.063  27.016  1.00  0.00     0.052 C 
BRANCH  27  29
HETATM   29  O1  UNL     1      15.624  63.557  25.581  1.00  0.00    -0.382 OA
BRANCH  29  30
HETATM   30  C3  UNL     1      16.847  63.411  25.528  1.00  0.00     0.194 C 
BRANCH  30  31
HETATM   31  C2  UNL     1      17.518  64.310  24.510  1.00  0.00    -0.011 C 
HETATM   32  C1  UNL     1      17.500  65.606  24.689  1.00  0.00     0.009 C 
ENDBRANCH  30  31
ENDBRANCH  29  30
ENDBRANCH  27  29
ENDBRANCH  21  23
ENDBRANCH   1  21
BRANCH  20  33
HETATM   33  O8  UNL     1      10.699  64.440  31.465  1.00  0.00    -0.394 OA
ATOM     34  H8  UNL     1      11.113  64.587  32.307  1.00  0.00     0.210 HD
ENDBRANCH  20  33
BRANCH  12  35
HETATM   35  C20 UNL     1      13.671  69.228  31.513  1.00  0.00    -0.012 C 
HETATM   36  C21 UNL     1      14.218  68.652  32.532  1.00  0.00     0.079 C 
BRANCH  36  37
HETATM   37  C22 UNL     1      14.617  67.293  32.729  1.00  0.00     0.282 C 
HETATM   38  O5  UNL     1      13.967  66.600  33.616  1.00  0.00    -0.260 OA
BRANCH  37  39
HETATM   39  O6  UNL     1      15.605  66.597  32.107  1.00  0.00    -0.319 OA
BRANCH  39  40
HETATM   40  C23 UNL     1      15.852  65.220  32.184  1.00  0.00     0.174 C 
HETATM   41  C24 UNL     1      16.423  64.803  30.832  1.00  0.00     0.034 C 
ENDBRANCH  39  40
ENDBRANCH  37  39
ENDBRANCH  36  37
ENDBRANCH  12  35
TORSDOF 10
ENDMDL
MODEL 5
REMARK VINA RESULT: -7.741737207      2.301      7.107
REMARK  10 active torsions:
REMARK  status: ('A' for Active; 'I' for Inactive)
REMARK    1  A    between atoms: C2_2  and  C3_3 
REMARK    2  A    between atoms: C3_3  and  O1_4 
REMARK    3  A    between atoms: O1_4  and  C4_5 
REMARK    4  A    between atoms: C7_9  and  C8_10 
REMARK    5  A    between atoms: C8_10  and  C9_12 
REMARK    6  A    between atoms: C19_23  and  C20_24 
REMARK    7  A    between atoms: C21_25  and  C22_26 
REMARK    8  A    between atoms: C22_26  and  O6_28 
REMARK    9  A    between atoms: O6_28  and  C23_29 
REMARK   10  A    between atoms: C31_38  and  O8_39 
ROOT
HETATM    1  C9  UNL     1      12.202  63.103  27.173  1.00  0.00     0.057 C 
HETATM    2  C10 UNL     1      10.954  62.419  26.798  1.00  0.00     0.021 C 
HETATM    3  C11 UNL     1      10.169  63.559  26.135  1.00  0.00     0.002 C 
HETATM    4  C12 UNL     1      10.772  64.849  26.661  1.00  0.00     0.013 C 
HETATM    5  C13 UNL     1      11.587  64.320  27.814  1.00  0.00    -0.000 C 
HETATM    6  C14 UNL     1      10.495  63.999  28.811  1.00  0.00     0.019 C 
HETATM    7  C15 UNL     1      12.528  65.281  28.451  1.00  0.00     0.140 C 
HETATM    8  O4  UNL     1      11.896  65.899  29.561  1.00  0.00    -0.370 OA
HETATM    9  C16 UNL     1      12.565  65.645  30.693  1.00  0.00     0.097 C 
HETATM   10  C17 UNL     1      11.828  65.043  31.883  1.00  0.00     0.050 C 
HETATM   11  C18 UNL     1      13.807  64.896  30.427  1.00  0.00     0.044 C 
HETATM   12  C19 UNL     1      14.612  65.980  31.070  1.00  0.00     0.056 C 
HETATM   13  C25 UNL     1      13.360  66.823  31.204  1.00  0.00     0.125 A 
HETATM   14  O7  UNL     1      13.276  68.057  30.609  1.00  0.00    -0.366 OA
HETATM   15  C26 UNL     1      13.011  67.789  32.070  1.00  0.00     0.157 A 
HETATM   16  C27 UNL     1      11.585  68.188  32.390  1.00  0.00     0.043 C 
HETATM   17  C28 UNL     1      13.835  64.770  28.924  1.00  0.00    -0.007 C 
HETATM   18  C29 UNL     1      14.976  65.678  28.495  1.00  0.00     0.018 C 
HETATM   19  C30 UNL     1      14.182  63.384  28.558  1.00  0.00     0.045 C 
HETATM   20  C31 UNL     1      13.085  62.440  28.172  1.00  0.00     0.135 C 
ENDROOT
BRANCH   1  21
HETATM   21  C8  UNL     1      12.990  63.334  25.993  1.00  0.00     0.150 C 
HETATM   22  O3  UNL     1      13.731  62.511  25.447  1.00  0.00    -0.296 OA
BRANCH  21  23
HETATM   23  C7  UNL     1      13.030  64.641  25.237  1.00  0.00     0.128 C 
HETATM   24  C6  UNL     1      12.945  64.332  23.767  1.00  0.00     0.140 C 
HETATM   25  C5  UNL     1      14.006  65.005  23.057  1.00  0.00     0.111 C 
HETATM   26  O2  UNL     1      12.090  63.606  23.245  1.00  0.00    -0.297 OA
HETATM   27  C4  UNL     1      14.519  66.099  24.013  1.00  0.00     0.130 C 
HETATM   28  C32 UNL     1      14.270  65.410  25.371  1.00  0.00     0.052 C 
BRANCH  27  29
HETATM   29  O1  UNL     1      15.687  66.481  23.793  1.00  0.00    -0.382 OA
BRANCH  29  30
HETATM   30  C3  UNL     1      16.839  66.862  23.577  1.00  0.00     0.194 C 
BRANCH  30  31
HETATM   31  C2  UNL     1      17.879  66.130  24.397  1.00  0.00    -0.011 C 
HETATM   32  C1  UNL     1      17.836  64.824  24.470  1.00  0.00     0.009 C 
ENDBRANCH  30  31
ENDBRANCH  29  30
ENDBRANCH  27  29
ENDBRANCH  21  23
ENDBRANCH   1  21
BRANCH  20  33
HETATM   33  O8  UNL     1      12.490  61.770  29.201  1.00  0.00    -0.394 OA
ATOM     34  H8  UNL     1      11.686  61.298  29.018  1.00  0.00     0.210 HD
ENDBRANCH  20  33
BRANCH  12  35
HETATM   35  C20 UNL     1      15.218  65.556  32.359  1.00  0.00    -0.012 C 
HETATM   36  C21 UNL     1      16.374  65.012  32.558  1.00  0.00     0.079 C 
BRANCH  36  37
HETATM   37  C22 UNL     1      17.407  64.658  31.634  1.00  0.00     0.282 C 
HETATM   38  O5  UNL     1      18.637  64.805  32.027  1.00  0.00    -0.260 OA
BRANCH  37  39
HETATM   39  O6  UNL     1      17.288  64.177  30.369  1.00  0.00    -0.319 OA
BRANCH  39  40
HETATM   40  C23 UNL     1      18.130  64.438  29.279  1.00  0.00     0.174 C 
HETATM   41  C24 UNL     1      17.804  63.393  28.216  1.00  0.00     0.034 C 
ENDBRANCH  39  40
ENDBRANCH  37  39
ENDBRANCH  36  37
ENDBRANCH  12  35
TORSDOF 10
ENDMDL
