MODEL 1
REMARK VINA RESULT: -7.521714837      0.000      0.000
REMARK  11 active torsions:
REMARK  status: ('A' for Active; 'I' for Inactive)
REMARK    1  A    between atoms: C2_2  and  C3_3 
REMARK    2  A    between atoms: C3_3  and  C4_4 
REMARK    3  A    between atoms: C5_8  and  O1_9 
REMARK    4  A    between atoms: O1_9  and  C6_10 
REMARK    5  A    between atoms: C7_11  and  O2_12 
REMARK    6  A    between atoms: C8_14  and  O3_15 
REMARK    7  A    between atoms: C10_17  and  O4_18 
REMARK    8  A    between atoms: C11_20  and  O5_21 
REMARK    9  A    between atoms: C12_23  and  N2_24 
REMARK   10  A    between atoms: C15_27  and  O6_28 
REMARK   11  A    between atoms: C16_30  and  O7_31 
ROOT
HETATM    1  C6  UNL     1     -22.565   6.609  28.107  1.00  0.00     0.203 C 
HETATM    2  C7  UNL     1     -23.477   6.627  29.281  1.00  0.00     0.184 C 
HETATM    3  C8  UNL     1     -23.701   5.283  29.918  1.00  0.00     0.184 C 
HETATM    4  C10 UNL     1     -24.011   4.207  28.932  1.00  0.00     0.184 C 
HETATM    5  C11 UNL     1     -23.149   4.202  27.718  1.00  0.00     0.197 C 
HETATM    6  C12 UNL     1     -22.798   5.501  27.103  1.00  0.00     0.047 C 
ENDROOT
BRANCH   1   7
HETATM    7  O1  UNL     1     -22.611   7.850  27.479  1.00  0.00    -0.343 OA
BRANCH   7   8
HETATM    8  C5  UNL     1     -21.493   8.078  26.676  1.00  0.00     0.353 C 
HETATM    9  N1  UNL     1     -21.854   8.864  25.515  1.00  0.00    -0.039 N 
HETATM   10  C4  UNL     1     -21.031  10.070  25.531  1.00  0.00     0.223 C 
ATOM     11  H12 UNL     1     -22.852   9.064  25.463  1.00  0.00     0.280 HD
ATOM     12  H11 UNL     1     -21.777   8.342  24.642  1.00  0.00     0.280 HD
HETATM   13  C16 UNL     1     -20.739  10.265  26.966  1.00  0.00     0.182 C 
HETATM   14  C15 UNL     1     -20.414   8.831  27.409  1.00  0.00     0.205 C 
BRANCH  10  15
HETATM   15  C3  UNL     1     -19.888   9.976  24.591  1.00  0.00     0.062 C 
BRANCH  15  16
HETATM   16  C2  UNL     1     -19.772  11.103  23.673  1.00  0.00    -0.035 C 
HETATM   17  C1  UNL     1     -20.615  11.194  22.621  1.00  0.00     0.007 C 
ENDBRANCH  15  16
ENDBRANCH  10  15
BRANCH  13  18
HETATM   18  O7  UNL     1     -19.788  11.167  27.320  1.00  0.00    -0.391 OA
ATOM     19  H7  UNL     1     -19.449  11.147  28.207  1.00  0.00     0.210 HD
ENDBRANCH  13  18
BRANCH  14  20
HETATM   20  O6  UNL     1     -19.133   8.449  27.104  1.00  0.00    -0.389 OA
ATOM     21  H6  UNL     1     -18.767   7.782  27.672  1.00  0.00     0.210 HD
ENDBRANCH  14  20
ENDBRANCH   7   8
ENDBRANCH   1   7
BRANCH   2  22
HETATM   22  O2  UNL     1     -24.684   7.305  29.072  1.00  0.00    -0.390 OA
ATOM     23  H2  UNL     1     -24.627   8.250  29.154  1.00  0.00     0.210 HD
ENDBRANCH   2  22
BRANCH   6  24
HETATM   24  N2  UNL     1     -23.468   5.897  25.937  1.00  0.00    -0.392 N 
HETATM   25  C13 UNL     1     -24.800   6.232  25.846  1.00  0.00     0.148 C 
HETATM   26  C14 UNL     1     -23.003   5.305  24.700  1.00  0.00     0.148 C 
ENDBRANCH   6  24
BRANCH   3  27
HETATM   27  O3  UNL     1     -24.806   5.416  30.767  1.00  0.00    -0.385 OA
HETATM   28  C9  UNL     1     -24.727   4.592  31.877  1.00  0.00     0.202 C 
ENDBRANCH   3  27
BRANCH   5  29
HETATM   29  O5  UNL     1     -23.700   3.329  26.783  1.00  0.00    -0.387 OA
ATOM     30  H5  UNL     1     -23.820   3.795  25.964  1.00  0.00     0.210 HD
ENDBRANCH   5  29
BRANCH   4  31
HETATM   31  O4  UNL     1     -25.378   4.200  28.688  1.00  0.00    -0.390 OA
ATOM     32  H4  UNL     1     -25.703   3.312  28.777  1.00  0.00     0.210 HD
ENDBRANCH   4  31
TORSDOF 11
ENDMDL
MODEL 2
REMARK VINA RESULT: -7.145419651      1.597      1.652
REMARK  11 active torsions:
REMARK  status: ('A' for Active; 'I' for Inactive)
REMARK    1  A    between atoms: C2_2  and  C3_3 
REMARK    2  A    between atoms: C3_3  and  C4_4 
REMARK    3  A    between atoms: C5_8  and  O1_9 
REMARK    4  A    between atoms: O1_9  and  C6_10 
REMARK    5  A    between atoms: C7_11  and  O2_12 
REMARK    6  A    between atoms: C8_14  and  O3_15 
REMARK    7  A    between atoms: C10_17  and  O4_18 
REMARK    8  A    between atoms: C11_20  and  O5_21 
REMARK    9  A    between atoms: C12_23  and  N2_24 
REMARK   10  A    between atoms: C15_27  and  O6_28 
REMARK   11  A    between atoms: C16_30  and  O7_31 
ROOT
HETATM    1  C6  UNL     1     -21.340   6.880  27.298  1.00  0.00     0.203 C 
HETATM    2  C7  UNL     1     -21.523   6.528  28.730  1.00  0.00     0.184 C 
HETATM    3  C8  UNL     1     -21.517   5.051  29.016  1.00  0.00     0.184 C 
HETATM    4  C10 UNL     1     -22.384   4.268  28.089  1.00  0.00     0.184 C 
HETATM    5  C11 UNL     1     -22.263   4.640  26.651  1.00  0.00     0.197 C 
HETATM    6  C12 UNL     1     -22.153   6.076  26.308  1.00  0.00     0.047 C 
ENDROOT
BRANCH   1   7
HETATM    7  O1  UNL     1     -21.582   8.240  27.132  1.00  0.00    -0.343 OA
BRANCH   7   8
HETATM    8  C5  UNL     1     -20.742   8.815  26.177  1.00  0.00     0.353 C 
HETATM    9  N1  UNL     1     -21.456   9.810  25.404  1.00  0.00    -0.039 N 
HETATM   10  C4  UNL     1     -20.742  11.074  25.555  1.00  0.00     0.223 C 
ATOM     11  H12 UNL     1     -22.442   9.877  25.655  1.00  0.00     0.280 HD
ATOM     12  H11 UNL     1     -21.585   9.540  24.430  1.00  0.00     0.280 HD
HETATM   13  C16 UNL     1     -20.084  10.940  26.871  1.00  0.00     0.182 C 
HETATM   14  C15 UNL     1     -19.557   9.500  26.804  1.00  0.00     0.205 C 
BRANCH  10  15
HETATM   15  C3  UNL     1     -19.894  11.378  24.377  1.00  0.00     0.062 C 
BRANCH  15  16
HETATM   16  C2  UNL     1     -20.556  11.178  23.093  1.00  0.00    -0.035 C 
HETATM   17  C1  UNL     1     -19.878  10.600  22.077  1.00  0.00     0.007 C 
ENDBRANCH  15  16
ENDBRANCH  10  15
BRANCH  13  18
HETATM   18  O7  UNL     1     -19.135  11.847  27.219  1.00  0.00    -0.391 OA
ATOM     19  H7  UNL     1     -18.987  12.019  28.142  1.00  0.00     0.210 HD
ENDBRANCH  13  18
BRANCH  14  20
HETATM   20  O6  UNL     1     -18.384   9.387  26.103  1.00  0.00    -0.389 OA
ATOM     21  H6  UNL     1     -18.219  10.086  25.481  1.00  0.00     0.210 HD
ENDBRANCH  14  20
ENDBRANCH   7   8
ENDBRANCH   1   7
BRANCH   2  22
HETATM   22  O2  UNL     1     -22.599   7.169  29.356  1.00  0.00    -0.390 OA
ATOM     23  H2  UNL     1     -23.456   6.895  29.051  1.00  0.00     0.210 HD
ENDBRANCH   2  22
BRANCH   6  24
HETATM   24  N2  UNL     1     -23.282   6.735  25.801  1.00  0.00    -0.392 N 
HETATM   25  C13 UNL     1     -24.555   6.667  26.321  1.00  0.00     0.148 C 
HETATM   26  C14 UNL     1     -23.323   6.923  24.366  1.00  0.00     0.148 C 
ENDBRANCH   6  24
BRANCH   3  27
HETATM   27  O3  UNL     1     -22.020   4.887  30.311  1.00  0.00    -0.385 OA
HETATM   28  C9  UNL     1     -21.132   4.231  31.148  1.00  0.00     0.202 C 
ENDBRANCH   3  27
BRANCH   5  29
HETATM   29  O5  UNL     1     -23.292   4.024  25.943  1.00  0.00    -0.387 OA
ATOM     30  H5  UNL     1     -23.152   3.084  25.958  1.00  0.00     0.210 HD
ENDBRANCH   5  29
BRANCH   4  31
HETATM   31  O4  UNL     1     -23.679   4.251  28.589  1.00  0.00    -0.390 OA
ATOM     32  H4  UNL     1     -24.130   3.486  28.253  1.00  0.00     0.210 HD
ENDBRANCH   4  31
TORSDOF 11
ENDMDL
MODEL 3
REMARK VINA RESULT: -6.937034570      1.230      1.562
REMARK  11 active torsions:
REMARK  status: ('A' for Active; 'I' for Inactive)
REMARK    1  A    between atoms: C2_2  and  C3_3 
REMARK    2  A    between atoms: C3_3  and  C4_4 
REMARK    3  A    between atoms: C5_8  and  O1_9 
REMARK    4  A    between atoms: O1_9  and  C6_10 
REMARK    5  A    between atoms: C7_11  and  O2_12 
REMARK    6  A    between atoms: C8_14  and  O3_15 
REMARK    7  A    between atoms: C10_17  and  O4_18 
REMARK    8  A    between atoms: C11_20  and  O5_21 
REMARK    9  A    between atoms: C12_23  and  N2_24 
REMARK   10  A    between atoms: C15_27  and  O6_28 
REMARK   11  A    between atoms: C16_30  and  O7_31 
ROOT
HETATM    1  C6  UNL     1     -22.619   6.596  28.185  1.00  0.00     0.203 C 
HETATM    2  C7  UNL     1     -23.555   6.616  29.338  1.00  0.00     0.184 C 
HETATM    3  C8  UNL     1     -23.790   5.275  29.977  1.00  0.00     0.184 C 
HETATM    4  C10 UNL     1     -24.077   4.195  28.989  1.00  0.00     0.184 C 
HETATM    5  C11 UNL     1     -23.190   4.186  27.792  1.00  0.00     0.197 C 
HETATM    6  C12 UNL     1     -22.828   5.484  27.181  1.00  0.00     0.047 C 
ENDROOT
BRANCH   1   7
HETATM    7  O1  UNL     1     -22.654   7.834  27.551  1.00  0.00    -0.343 OA
BRANCH   7   8
HETATM    8  C5  UNL     1     -21.406   8.457  27.537  1.00  0.00     0.353 C 
HETATM    9  N1  UNL     1     -20.475   7.716  26.712  1.00  0.00    -0.039 N 
HETATM   10  C4  UNL     1     -19.993   8.622  25.675  1.00  0.00     0.223 C 
ATOM     11  H12 UNL     1     -20.875   6.856  26.336  1.00  0.00     0.280 HD
ATOM     12  H11 UNL     1     -19.722   7.287  27.249  1.00  0.00     0.280 HD
HETATM   13  C16 UNL     1     -21.101   9.586  25.521  1.00  0.00     0.182 C 
HETATM   14  C15 UNL     1     -21.477   9.856  26.985  1.00  0.00     0.205 C 
BRANCH  10  15
HETATM   15  C3  UNL     1     -18.643   9.153  25.985  1.00  0.00     0.062 C 
BRANCH  15  16
HETATM   16  C2  UNL     1     -17.665   8.965  24.919  1.00  0.00    -0.035 C 
HETATM   17  C1  UNL     1     -18.012   8.272  23.812  1.00  0.00     0.007 C 
ENDBRANCH  15  16
ENDBRANCH  10  15
BRANCH  13  18
HETATM   18  O7  UNL     1     -20.885  10.717  24.802  1.00  0.00    -0.391 OA
ATOM     19  H7  UNL     1     -21.628  11.266  24.582  1.00  0.00     0.210 HD
ENDBRANCH  13  18
BRANCH  14  20
HETATM   20  O6  UNL     1     -20.650  10.764  27.595  1.00  0.00    -0.389 OA
ATOM     21  H6  UNL     1     -21.042  11.611  27.770  1.00  0.00     0.210 HD
ENDBRANCH  14  20
ENDBRANCH   7   8
ENDBRANCH   1   7
BRANCH   2  22
HETATM   22  O2  UNL     1     -24.759   7.291  29.102  1.00  0.00    -0.390 OA
ATOM     23  H2  UNL     1     -25.474   7.040  29.675  1.00  0.00     0.210 HD
ENDBRANCH   2  22
BRANCH   6  24
HETATM   24  N2  UNL     1     -23.474   5.873  25.998  1.00  0.00    -0.392 N 
HETATM   25  C13 UNL     1     -24.805   6.203  25.878  1.00  0.00     0.148 C 
HETATM   26  C14 UNL     1     -22.980   5.280  24.774  1.00  0.00     0.148 C 
ENDBRANCH   6  24
BRANCH   3  27
HETATM   27  O3  UNL     1     -24.913   5.409  30.801  1.00  0.00    -0.385 OA
HETATM   28  C9  UNL     1     -24.817   4.654  31.958  1.00  0.00     0.202 C 
ENDBRANCH   3  27
BRANCH   5  29
HETATM   29  O5  UNL     1     -23.719   3.308  26.850  1.00  0.00    -0.387 OA
ATOM     30  H5  UNL     1     -24.416   2.807  27.258  1.00  0.00     0.210 HD
ENDBRANCH   5  29
BRANCH   4  31
HETATM   31  O4  UNL     1     -25.438   4.184  28.716  1.00  0.00    -0.390 OA
ATOM     32  H4  UNL     1     -25.607   4.744  27.968  1.00  0.00     0.210 HD
ENDBRANCH   4  31
TORSDOF 11
ENDMDL
MODEL 4
REMARK VINA RESULT: -6.920330525      2.278      6.712
REMARK  11 active torsions:
REMARK  status: ('A' for Active; 'I' for Inactive)
REMARK    1  A    between atoms: C2_2  and  C3_3 
REMARK    2  A    between atoms: C3_3  and  C4_4 
REMARK    3  A    between atoms: C5_8  and  O1_9 
REMARK    4  A    between atoms: O1_9  and  C6_10 
REMARK    5  A    between atoms: C7_11  and  O2_12 
REMARK    6  A    between atoms: C8_14  and  O3_15 
REMARK    7  A    between atoms: C10_17  and  O4_18 
REMARK    8  A    between atoms: C11_20  and  O5_21 
REMARK    9  A    between atoms: C12_23  and  N2_24 
REMARK   10  A    between atoms: C15_27  and  O6_28 
REMARK   11  A    between atoms: C16_30  and  O7_31 
ROOT
HETATM    1  C6  UNL     1     -22.035   7.074  25.610  1.00  0.00     0.203 C 
HETATM    2  C7  UNL     1     -21.097   8.222  25.713  1.00  0.00     0.184 C 
HETATM    3  C8  UNL     1     -21.153   9.181  24.556  1.00  0.00     0.184 C 
HETATM    4  C10 UNL     1     -21.129   8.502  23.227  1.00  0.00     0.184 C 
HETATM    5  C11 UNL     1     -22.018   7.312  23.114  1.00  0.00     0.197 C 
HETATM    6  C12 UNL     1     -22.094   6.385  24.264  1.00  0.00     0.047 C 
ENDROOT
BRANCH   1   7
HETATM    7  O1  UNL     1     -21.739   6.155  26.612  1.00  0.00    -0.343 OA
BRANCH   7   8
HETATM    8  C5  UNL     1     -22.883   5.542  27.123  1.00  0.00     0.353 C 
HETATM    9  N1  UNL     1     -22.657   5.096  28.482  1.00  0.00    -0.039 N 
HETATM   10  C4  UNL     1     -23.660   5.741  29.325  1.00  0.00     0.223 C 
ATOM     11  H12 UNL     1     -21.703   5.261  28.802  1.00  0.00     0.280 HD
ATOM     12  H11 UNL     1     -22.655   4.081  28.573  1.00  0.00     0.280 HD
HETATM   13  C16 UNL     1     -23.972   6.986  28.593  1.00  0.00     0.182 C 
HETATM   14  C15 UNL     1     -24.064   6.476  27.148  1.00  0.00     0.205 C 
BRANCH  10  15
HETATM   15  C3  UNL     1     -24.779   4.826  29.657  1.00  0.00     0.062 C 
BRANCH  15  16
HETATM   16  C2  UNL     1     -24.557   4.014  30.848  1.00  0.00    -0.035 C 
HETATM   17  C1  UNL     1     -24.850   4.522  32.065  1.00  0.00     0.007 C 
ENDBRANCH  15  16
ENDBRANCH  10  15
BRANCH  13  18
HETATM   18  O7  UNL     1     -25.051   7.714  28.978  1.00  0.00    -0.391 OA
ATOM     19  H7  UNL     1     -24.909   8.514  29.471  1.00  0.00     0.210 HD
ENDBRANCH  13  18
BRANCH  14  20
HETATM   20  O6  UNL     1     -25.270   5.893  26.857  1.00  0.00    -0.389 OA
ATOM     21  H6  UNL     1     -25.855   6.423  26.328  1.00  0.00     0.210 HD
ENDBRANCH  14  20
ENDBRANCH   7   8
ENDBRANCH   1   7
BRANCH   2  22
HETATM   22  O2  UNL     1     -19.778   7.872  26.028  1.00  0.00    -0.390 OA
ATOM     23  H2  UNL     1     -19.125   8.200  25.420  1.00  0.00     0.210 HD
ENDBRANCH   2  22
BRANCH   6  24
HETATM   24  N2  UNL     1     -21.400   5.169  24.196  1.00  0.00    -0.392 N 
HETATM   25  C13 UNL     1     -20.122   4.997  23.712  1.00  0.00     0.148 C 
HETATM   26  C14 UNL     1     -22.202   3.987  23.959  1.00  0.00     0.148 C 
ENDBRANCH   6  24
BRANCH   3  27
HETATM   27  O3  UNL     1     -20.013   9.989  24.642  1.00  0.00    -0.385 OA
HETATM   28  C9  UNL     1     -20.322  11.329  24.797  1.00  0.00     0.202 C 
ENDBRANCH   3  27
BRANCH   5  29
HETATM   29  O5  UNL     1     -21.712   6.638  21.935  1.00  0.00    -0.387 OA
ATOM     30  H5  UNL     1     -21.974   7.178  21.198  1.00  0.00     0.210 HD
ENDBRANCH   5  29
BRANCH   4  31
HETATM   31  O4  UNL     1     -19.809   8.293  22.852  1.00  0.00    -0.390 OA
ATOM     32  H4  UNL     1     -19.778   7.596  22.207  1.00  0.00     0.210 HD
ENDBRANCH   4  31
TORSDOF 11
ENDMDL
MODEL 5
REMARK VINA RESULT: -6.911286961      2.435      7.163
REMARK  11 active torsions:
REMARK  status: ('A' for Active; 'I' for Inactive)
REMARK    1  A    between atoms: C2_2  and  C3_3 
REMARK    2  A    between atoms: C3_3  and  C4_4 
REMARK    3  A    between atoms: C5_8  and  O1_9 
REMARK    4  A    between atoms: O1_9  and  C6_10 
REMARK    5  A    between atoms: C7_11  and  O2_12 
REMARK    6  A    between atoms: C8_14  and  O3_15 
REMARK    7  A    between atoms: C10_17  and  O4_18 
REMARK    8  A    between atoms: C11_20  and  O5_21 
REMARK    9  A    between atoms: C12_23  and  N2_24 
REMARK   10  A    between atoms: C15_27  and  O6_28 
REMARK   11  A    between atoms: C16_30  and  O7_31 
ROOT
HETATM    1  C6  UNL     1     -21.097   7.638  25.390  1.00  0.00     0.203 C 
HETATM    2  C7  UNL     1     -20.872   7.366  23.947  1.00  0.00     0.184 C 
HETATM    3  C8  UNL     1     -19.427   7.348  23.532  1.00  0.00     0.184 C 
HETATM    4  C10 UNL     1     -18.649   8.509  24.054  1.00  0.00     0.184 C 
HETATM    5  C11 UNL     1     -18.899   8.841  25.484  1.00  0.00     0.197 C 
HETATM    6  C12 UNL     1     -20.290   8.771  25.985  1.00  0.00     0.047 C 
ENDROOT
BRANCH   1   7
HETATM    7  O1  UNL     1     -22.456   7.848  25.605  1.00  0.00    -0.343 OA
BRANCH   7   8
HETATM    8  C5  UNL     1     -23.075   6.745  26.194  1.00  0.00     0.353 C 
HETATM    9  N1  UNL     1     -22.300   6.269  27.320  1.00  0.00    -0.039 N 
HETATM   10  C4  UNL     1     -23.165   6.311  28.495  1.00  0.00     0.223 C 
ATOM     11  H12 UNL     1     -21.428   6.782  27.450  1.00  0.00     0.280 HD
ATOM     12  H11 UNL     1     -21.890   5.349  27.161  1.00  0.00     0.280 HD
HETATM   13  C16 UNL     1     -24.126   7.386  28.174  1.00  0.00     0.182 C 
HETATM   14  C15 UNL     1     -24.452   7.075  26.707  1.00  0.00     0.205 C 
BRANCH  10  15
HETATM   15  C3  UNL     1     -23.703   4.972  28.838  1.00  0.00     0.062 C 
BRANCH  15  16
HETATM   16  C2  UNL     1     -23.546   4.603  30.241  1.00  0.00    -0.035 C 
HETATM   17  C1  UNL     1     -24.639   4.307  30.977  1.00  0.00     0.007 C 
ENDBRANCH  15  16
ENDBRANCH  10  15
BRANCH  13  18
HETATM   18  O7  UNL     1     -25.228   7.528  28.954  1.00  0.00    -0.391 OA
ATOM     19  H7  UNL     1     -26.065   7.691  28.534  1.00  0.00     0.210 HD
ENDBRANCH  13  18
BRANCH  14  20
HETATM   20  O6  UNL     1     -25.380   6.075  26.560  1.00  0.00    -0.389 OA
ATOM     21  H6  UNL     1     -26.276   6.371  26.459  1.00  0.00     0.210 HD
ENDBRANCH  14  20
ENDBRANCH   7   8
ENDBRANCH   1   7
BRANCH   2  22
HETATM   22  O2  UNL     1     -21.646   8.145  23.078  1.00  0.00    -0.390 OA
ATOM     23  H2  UNL     1     -21.441   8.034  22.156  1.00  0.00     0.210 HD
ENDBRANCH   2  22
BRANCH   6  24
HETATM   24  N2  UNL     1     -21.000   9.966  26.170  1.00  0.00    -0.392 N 
HETATM   25  C13 UNL     1     -20.984  11.051  25.323  1.00  0.00     0.148 C 
HETATM   26  C14 UNL     1     -21.198  10.387  27.541  1.00  0.00     0.148 C 
ENDBRANCH   6  24
BRANCH   3  27
HETATM   27  O3  UNL     1     -19.404   7.412  22.135  1.00  0.00    -0.385 OA
HETATM   28  C9  UNL     1     -19.077   6.200  21.551  1.00  0.00     0.202 C 
ENDBRANCH   3  27
BRANCH   5  29
HETATM   29  O5  UNL     1     -18.318  10.075  25.764  1.00  0.00    -0.387 OA
ATOM     30  H5  UNL     1     -17.689  10.278  25.082  1.00  0.00     0.210 HD
ENDBRANCH   5  29
BRANCH   4  31
HETATM   31  O4  UNL     1     -18.778   9.571  23.168  1.00  0.00    -0.390 OA
ATOM     32  H4  UNL     1     -18.096   9.509  22.510  1.00  0.00     0.210 HD
ENDBRANCH   4  31
TORSDOF 11
ENDMDL
