MODEL 1
REMARK VINA RESULT: -7.298136416      0.000      0.000
REMARK  10 active torsions:
REMARK  status: ('A' for Active; 'I' for Inactive)
REMARK    1  A    between atoms: C2_2  and  N1_4 
REMARK    2  A    between atoms: C2_2  and  C4_8 
REMARK       I    between atoms: C4_8  and  N2_10 
REMARK    3  A    between atoms: C5_11  and  C6_12 
REMARK    4  A    between atoms: C8_16  and  N3_17 
REMARK    5  A    between atoms: C9_21  and  C10_22 
REMARK    6  A    between atoms: C10_22  and  O5_24 
REMARK    7  A    between atoms: O5_24  and  C11_25 
REMARK    8  A    between atoms: C11_25  and  C12_26 
REMARK    9  A    between atoms: C12_26  and  O6_28 
REMARK   10  A    between atoms: C12_26  and  C14_30 
ROOT
HETATM    1  C4  UNL     1     -21.447   6.030  25.716  1.00  0.00     0.257 C 
HETATM    2  O1  UNL     1     -20.321   6.631  25.554  1.00  0.00    -0.271 OA
HETATM    3  N2  UNL     1     -22.249   6.442  26.812  1.00  0.00    -0.319 N 
HETATM    4  C5  UNL     1     -23.560   5.958  27.160  1.00  0.00     0.191 C 
HETATM    5  C7  UNL     1     -23.854   6.569  28.521  1.00  0.00     0.072 C 
HETATM    6  C8  UNL     1     -23.090   7.878  28.439  1.00  0.00     0.218 C 
HETATM    7  C9  UNL     1     -21.817   7.426  27.779  1.00  0.00     0.218 C 
ENDROOT
BRANCH   7   8
HETATM    8  C10 UNL     1     -20.941   6.817  28.848  1.00  0.00     0.284 C 
HETATM    9  O4  UNL     1     -20.418   7.603  29.669  1.00  0.00    -0.263 OA
BRANCH   8  10
HETATM   10  O5  UNL     1     -20.721   5.493  28.936  1.00  0.00    -0.316 OA
BRANCH  10  11
HETATM   11  C11 UNL     1     -21.250   4.556  29.752  1.00  0.00     0.227 C 
BRANCH  11  12
HETATM   12  C12 UNL     1     -20.561   4.057  30.961  1.00  0.00     0.163 C 
HETATM   13  C13 UNL     1     -19.588   4.945  31.653  1.00  0.00     0.060 C 
BRANCH  12  14
HETATM   14  O6  UNL     1     -21.609   3.869  31.940  1.00  0.00    -0.377 OA
ATOM     15  H6  UNL     1     -21.249   4.203  32.752  1.00  0.00     0.211 HD
ENDBRANCH  12  14
BRANCH  12  16
HETATM   16  C14 UNL     1     -19.954   2.725  30.744  1.00  0.00     0.210 C 
HETATM   17  O7  UNL     1     -19.936   1.882  31.670  1.00  0.00    -0.646 OA
HETATM   18  O8  UNL     1     -19.414   2.415  29.529  1.00  0.00    -0.646 OA
ENDBRANCH  12  16
ENDBRANCH  11  12
ENDBRANCH  10  11
ENDBRANCH   8  10
ENDBRANCH   7   8
BRANCH   6  19
HETATM   19  N3  UNL     1     -23.810   8.884  27.726  1.00  0.00    -0.072 N 
ATOM     20  H33 UNL     1     -24.024   8.580  26.775  1.00  0.00     0.274 HD
ATOM     21  H32 UNL     1     -24.761   8.979  28.084  1.00  0.00     0.274 HD
ATOM     22  H31 UNL     1     -23.326   9.781  27.725  1.00  0.00     0.274 HD
ENDBRANCH   6  19
BRANCH   1  23
HETATM   23  C2  UNL     1     -21.730   4.997  24.729  1.00  0.00     0.196 C 
HETATM   24  C1  UNL     1     -20.535   4.770  23.786  1.00  0.00     0.056 C 
HETATM   25  C3  UNL     1     -21.842   3.663  25.494  1.00  0.00     0.056 C 
BRANCH  23  26
HETATM   26  N1  UNL     1     -22.868   5.168  23.903  1.00  0.00    -0.062 N 
ATOM     27  H13 UNL     1     -22.651   5.581  22.996  1.00  0.00     0.275 HD
ATOM     28  H12 UNL     1     -23.250   4.289  23.553  1.00  0.00     0.275 HD
ATOM     29  H11 UNL     1     -23.540   5.713  24.444  1.00  0.00     0.275 HD
ENDBRANCH  23  26
ENDBRANCH   1  23
BRANCH   4  30
HETATM   30  C6  UNL     1     -24.636   6.493  26.264  1.00  0.00     0.197 C 
HETATM   31  O2  UNL     1     -25.814   6.108  26.445  1.00  0.00    -0.646 OA
HETATM   32  O3  UNL     1     -24.394   7.394  25.243  1.00  0.00    -0.646 OA
ENDBRANCH   4  30
TORSDOF 10
ENDMDL
MODEL 2
REMARK VINA RESULT: -7.087681522      2.787      4.942
REMARK  10 active torsions:
REMARK  status: ('A' for Active; 'I' for Inactive)
REMARK    1  A    between atoms: C2_2  and  N1_4 
REMARK    2  A    between atoms: C2_2  and  C4_8 
REMARK       I    between atoms: C4_8  and  N2_10 
REMARK    3  A    between atoms: C5_11  and  C6_12 
REMARK    4  A    between atoms: C8_16  and  N3_17 
REMARK    5  A    between atoms: C9_21  and  C10_22 
REMARK    6  A    between atoms: C10_22  and  O5_24 
REMARK    7  A    between atoms: O5_24  and  C11_25 
REMARK    8  A    between atoms: C11_25  and  C12_26 
REMARK    9  A    between atoms: C12_26  and  O6_28 
REMARK   10  A    between atoms: C12_26  and  C14_30 
ROOT
HETATM    1  C4  UNL     1     -22.413   7.889  26.280  1.00  0.00     0.257 C 
HETATM    2  O1  UNL     1     -23.615   7.956  26.733  1.00  0.00    -0.271 OA
HETATM    3  N2  UNL     1     -22.072   6.744  25.514  1.00  0.00    -0.319 N 
HETATM    4  C5  UNL     1     -20.815   6.476  24.864  1.00  0.00     0.191 C 
HETATM    5  C7  UNL     1     -20.923   5.037  24.383  1.00  0.00     0.072 C 
HETATM    6  C8  UNL     1     -22.412   4.917  24.113  1.00  0.00     0.218 C 
HETATM    7  C9  UNL     1     -22.979   5.637  25.305  1.00  0.00     0.218 C 
ENDROOT
BRANCH   7   8
HETATM    8  C10 UNL     1     -22.966   4.673  26.468  1.00  0.00     0.284 C 
HETATM    9  O4  UNL     1     -23.390   3.516  26.251  1.00  0.00    -0.263 OA
BRANCH   8  10
HETATM   10  O5  UNL     1     -22.522   5.019  27.689  1.00  0.00    -0.316 OA
BRANCH  10  11
HETATM   11  C11 UNL     1     -22.921   4.638  28.922  1.00  0.00     0.227 C 
BRANCH  11  12
HETATM   12  C12 UNL     1     -24.079   5.241  29.618  1.00  0.00     0.163 C 
HETATM   13  C13 UNL     1     -24.266   4.972  31.068  1.00  0.00     0.060 C 
BRANCH  12  14
HETATM   14  O6  UNL     1     -23.850   6.667  29.560  1.00  0.00    -0.377 OA
ATOM     15  H6  UNL     1     -22.918   6.772  29.715  1.00  0.00     0.211 HD
ENDBRANCH  12  14
BRANCH  12  16
HETATM   16  C14 UNL     1     -25.348   4.996  28.896  1.00  0.00     0.210 C 
HETATM   17  O7  UNL     1     -25.734   5.795  28.013  1.00  0.00    -0.646 OA
HETATM   18  O8  UNL     1     -26.097   3.894  29.194  1.00  0.00    -0.646 OA
ENDBRANCH  12  16
ENDBRANCH  11  12
ENDBRANCH  10  11
ENDBRANCH   8  10
ENDBRANCH   7   8
BRANCH   6  19
HETATM   19  N3  UNL     1     -22.782   5.468  22.849  1.00  0.00    -0.072 N 
ATOM     20  H33 UNL     1     -21.958   5.732  22.307  1.00  0.00     0.274 HD
ATOM     21  H32 UNL     1     -23.160   4.749  22.231  1.00  0.00     0.274 HD
ATOM     22  H31 UNL     1     -23.429   6.251  22.941  1.00  0.00     0.274 HD
ENDBRANCH   6  19
BRANCH   1  23
HETATM   23  C2  UNL     1     -21.569   9.024  26.631  1.00  0.00     0.196 C 
HETATM   24  C1  UNL     1     -22.214   9.894  27.725  1.00  0.00     0.056 C 
HETATM   25  C3  UNL     1     -20.313   8.453  27.320  1.00  0.00     0.056 C 
BRANCH  23  26
HETATM   26  N1  UNL     1     -21.181   9.905  25.591  1.00  0.00    -0.062 N 
ATOM     27  H13 UNL     1     -21.766  10.738  25.529  1.00  0.00     0.275 HD
ATOM     28  H12 UNL     1     -20.299  10.383  25.774  1.00  0.00     0.275 HD
ATOM     29  H11 UNL     1     -21.171   9.354  24.733  1.00  0.00     0.275 HD
ENDBRANCH  23  26
ENDBRANCH   1  23
BRANCH   4  30
HETATM   30  C6  UNL     1     -20.622   7.280  23.614  1.00  0.00     0.197 C 
HETATM   31  O2  UNL     1     -19.551   7.150  22.977  1.00  0.00    -0.646 OA
HETATM   32  O3  UNL     1     -21.568   8.162  23.126  1.00  0.00    -0.646 OA
ENDBRANCH   4  30
TORSDOF 10
ENDMDL
MODEL 3
REMARK VINA RESULT: -7.085825396      2.614      3.967
REMARK  10 active torsions:
REMARK  status: ('A' for Active; 'I' for Inactive)
REMARK    1  A    between atoms: C2_2  and  N1_4 
REMARK    2  A    between atoms: C2_2  and  C4_8 
REMARK       I    between atoms: C4_8  and  N2_10 
REMARK    3  A    between atoms: C5_11  and  C6_12 
REMARK    4  A    between atoms: C8_16  and  N3_17 
REMARK    5  A    between atoms: C9_21  and  C10_22 
REMARK    6  A    between atoms: C10_22  and  O5_24 
REMARK    7  A    between atoms: O5_24  and  C11_25 
REMARK    8  A    between atoms: C11_25  and  C12_26 
REMARK    9  A    between atoms: C12_26  and  O6_28 
REMARK   10  A    between atoms: C12_26  and  C14_30 
ROOT
HETATM    1  C4  UNL     1     -21.349   5.866  25.461  1.00  0.00     0.257 C 
HETATM    2  O1  UNL     1     -21.147   4.932  26.323  1.00  0.00    -0.271 OA
HETATM    3  N2  UNL     1     -21.193   7.204  25.908  1.00  0.00    -0.319 N 
HETATM    4  C5  UNL     1     -21.313   8.403  25.118  1.00  0.00     0.191 C 
HETATM    5  C7  UNL     1     -21.268   9.541  26.127  1.00  0.00     0.072 C 
HETATM    6  C8  UNL     1     -20.381   8.954  27.209  1.00  0.00     0.218 C 
HETATM    7  C9  UNL     1     -20.909   7.548  27.283  1.00  0.00     0.218 C 
ENDROOT
BRANCH   7   8
HETATM    8  C10 UNL     1     -22.162   7.576  28.126  1.00  0.00     0.284 C 
HETATM    9  O4  UNL     1     -22.062   8.060  29.275  1.00  0.00    -0.263 OA
BRANCH   8  10
HETATM   10  O5  UNL     1     -23.342   7.110  27.682  1.00  0.00    -0.316 OA
BRANCH  10  11
HETATM   11  C11 UNL     1     -24.508   6.882  28.326  1.00  0.00     0.227 C 
BRANCH  11  12
HETATM   12  C12 UNL     1     -24.813   5.608  29.014  1.00  0.00     0.163 C 
HETATM   13  C13 UNL     1     -25.049   5.623  30.482  1.00  0.00     0.060 C 
BRANCH  12  14
HETATM   14  O6  UNL     1     -26.083   5.183  28.467  1.00  0.00    -0.377 OA
ATOM     15  H6  UNL     1     -25.875   4.438  27.915  1.00  0.00     0.211 HD
ENDBRANCH  12  14
BRANCH  12  16
HETATM   16  C14 UNL     1     -23.839   4.547  28.674  1.00  0.00     0.210 C 
HETATM   17  O7  UNL     1     -24.021   3.824  27.668  1.00  0.00    -0.646 OA
HETATM   18  O8  UNL     1     -22.740   4.358  29.461  1.00  0.00    -0.646 OA
ENDBRANCH  12  16
ENDBRANCH  11  12
ENDBRANCH  10  11
ENDBRANCH   8  10
ENDBRANCH   7   8
BRANCH   6  19
HETATM   19  N3  UNL     1     -18.993   9.057  26.889  1.00  0.00    -0.072 N 
ATOM     20  H33 UNL     1     -18.840   8.972  25.884  1.00  0.00     0.274 HD
ATOM     21  H32 UNL     1     -18.653  10.009  27.026  1.00  0.00     0.274 HD
ATOM     22  H31 UNL     1     -18.424   8.386  27.406  1.00  0.00     0.274 HD
ENDBRANCH   6  19
BRANCH   1  23
HETATM   23  C2  UNL     1     -21.716   5.395  24.132  1.00  0.00     0.196 C 
HETATM   24  C1  UNL     1     -20.476   5.139  23.258  1.00  0.00     0.056 C 
HETATM   25  C3  UNL     1     -22.330   3.992  24.306  1.00  0.00     0.056 C 
BRANCH  23  26
HETATM   26  N1  UNL     1     -22.590   6.205  23.364  1.00  0.00    -0.062 N 
ATOM     27  H13 UNL     1     -22.444   6.115  22.358  1.00  0.00     0.275 HD
ATOM     28  H12 UNL     1     -23.557   5.883  23.380  1.00  0.00     0.275 HD
ATOM     29  H11 UNL     1     -22.476   7.159  23.705  1.00  0.00     0.275 HD
ENDBRANCH  23  26
ENDBRANCH   1  23
BRANCH   4  30
HETATM   30  C6  UNL     1     -20.128   8.638  24.230  1.00  0.00     0.197 C 
HETATM   31  O2  UNL     1     -20.202   9.532  23.356  1.00  0.00    -0.646 OA
HETATM   32  O3  UNL     1     -18.953   7.915  24.326  1.00  0.00    -0.646 OA
ENDBRANCH   4  30
TORSDOF 10
ENDMDL
MODEL 4
REMARK VINA RESULT: -7.056293109      2.820      6.359
REMARK  10 active torsions:
REMARK  status: ('A' for Active; 'I' for Inactive)
REMARK    1  A    between atoms: C2_2  and  N1_4 
REMARK    2  A    between atoms: C2_2  and  C4_8 
REMARK       I    between atoms: C4_8  and  N2_10 
REMARK    3  A    between atoms: C5_11  and  C6_12 
REMARK    4  A    between atoms: C8_16  and  N3_17 
REMARK    5  A    between atoms: C9_21  and  C10_22 
REMARK    6  A    between atoms: C10_22  and  O5_24 
REMARK    7  A    between atoms: O5_24  and  C11_25 
REMARK    8  A    between atoms: C11_25  and  C12_26 
REMARK    9  A    between atoms: C12_26  and  O6_28 
REMARK   10  A    between atoms: C12_26  and  C14_30 
ROOT
HETATM    1  C4  UNL     1     -21.994   4.879  27.758  1.00  0.00     0.257 C 
HETATM    2  O1  UNL     1     -21.437   4.112  26.889  1.00  0.00    -0.271 OA
HETATM    3  N2  UNL     1     -22.811   5.930  27.267  1.00  0.00    -0.319 N 
HETATM    4  C5  UNL     1     -23.573   6.874  28.043  1.00  0.00     0.191 C 
HETATM    5  C7  UNL     1     -24.074   7.896  27.033  1.00  0.00     0.072 C 
HETATM    6  C8  UNL     1     -24.216   7.045  25.784  1.00  0.00     0.218 C 
HETATM    7  C9  UNL     1     -22.963   6.216  25.857  1.00  0.00     0.218 C 
ENDROOT
BRANCH   7   8
HETATM    8  C10 UNL     1     -21.827   7.059  25.328  1.00  0.00     0.284 C 
HETATM    9  O4  UNL     1     -20.770   7.071  25.997  1.00  0.00    -0.263 OA
BRANCH   8  10
HETATM   10  O5  UNL     1     -21.924   7.769  24.190  1.00  0.00    -0.316 OA
BRANCH  10  11
HETATM   11  C11 UNL     1     -21.063   7.920  23.160  1.00  0.00     0.227 C 
BRANCH  11  12
HETATM   12  C12 UNL     1     -21.461   7.752  21.745  1.00  0.00     0.163 C 
HETATM   13  C13 UNL     1     -22.907   7.756  21.399  1.00  0.00     0.060 C 
BRANCH  12  14
HETATM   14  O6  UNL     1     -20.943   8.922  21.070  1.00  0.00    -0.377 OA
ATOM     15  H6  UNL     1     -20.942   8.692  20.148  1.00  0.00     0.211 HD
ENDBRANCH  12  14
BRANCH  12  16
HETATM   16  C14 UNL     1     -20.799   6.586  21.118  1.00  0.00     0.210 C 
HETATM   17  O7  UNL     1     -21.055   6.279  19.932  1.00  0.00    -0.646 OA
HETATM   18  O8  UNL     1     -19.908   5.843  21.838  1.00  0.00    -0.646 OA
ENDBRANCH  12  16
ENDBRANCH  11  12
ENDBRANCH  10  11
ENDBRANCH   8  10
ENDBRANCH   7   8
BRANCH   6  19
HETATM   19  N3  UNL     1     -25.431   6.295  25.771  1.00  0.00    -0.072 N 
ATOM     20  H33 UNL     1     -25.293   5.365  26.168  1.00  0.00     0.274 HD
ATOM     21  H32 UNL     1     -26.098   6.665  26.448  1.00  0.00     0.274 HD
ATOM     22  H31 UNL     1     -25.844   6.241  24.840  1.00  0.00     0.274 HD
ENDBRANCH   6  19
BRANCH   1  23
HETATM   23  C2  UNL     1     -21.693   4.543  29.144  1.00  0.00     0.196 C 
HETATM   24  C1  UNL     1     -20.785   3.305  29.243  1.00  0.00     0.056 C 
HETATM   25  C3  UNL     1     -20.813   5.680  29.701  1.00  0.00     0.056 C 
BRANCH  23  26
HETATM   26  N1  UNL     1     -22.784   4.314  30.019  1.00  0.00    -0.062 N 
ATOM     27  H13 UNL     1     -23.583   4.920  29.836  1.00  0.00     0.275 HD
ATOM     28  H12 UNL     1     -23.257   3.426  29.851  1.00  0.00     0.275 HD
ATOM     29  H11 UNL     1     -22.419   4.404  30.967  1.00  0.00     0.275 HD
ENDBRANCH  23  26
ENDBRANCH   1  23
BRANCH   4  30
HETATM   30  C6  UNL     1     -24.818   6.277  28.628  1.00  0.00     0.197 C 
HETATM   31  O2  UNL     1     -25.592   7.020  29.275  1.00  0.00    -0.646 OA
HETATM   32  O3  UNL     1     -25.158   4.944  28.489  1.00  0.00    -0.646 OA
ENDBRANCH   4  30
TORSDOF 10
ENDMDL
MODEL 5
REMARK VINA RESULT: -7.041157836      2.602      4.734
REMARK  10 active torsions:
REMARK  status: ('A' for Active; 'I' for Inactive)
REMARK    1  A    between atoms: C2_2  and  N1_4 
REMARK    2  A    between atoms: C2_2  and  C4_8 
REMARK       I    between atoms: C4_8  and  N2_10 
REMARK    3  A    between atoms: C5_11  and  C6_12 
REMARK    4  A    between atoms: C8_16  and  N3_17 
REMARK    5  A    between atoms: C9_21  and  C10_22 
REMARK    6  A    between atoms: C10_22  and  O5_24 
REMARK    7  A    between atoms: O5_24  and  C11_25 
REMARK    8  A    between atoms: C11_25  and  C12_26 
REMARK    9  A    between atoms: C12_26  and  O6_28 
REMARK   10  A    between atoms: C12_26  and  C14_30 
ROOT
HETATM    1  C4  UNL     1     -22.385   7.973  26.192  1.00  0.00     0.257 C 
HETATM    2  O1  UNL     1     -23.591   8.077  26.626  1.00  0.00    -0.271 OA
HETATM    3  N2  UNL     1     -22.064   6.813  25.442  1.00  0.00    -0.319 N 
HETATM    4  C5  UNL     1     -20.805   6.504  24.813  1.00  0.00     0.191 C 
HETATM    5  C7  UNL     1     -20.946   5.064  24.342  1.00  0.00     0.072 C 
HETATM    6  C8  UNL     1     -22.433   4.983  24.051  1.00  0.00     0.218 C 
HETATM    7  C9  UNL     1     -22.998   5.729  25.229  1.00  0.00     0.218 C 
ENDROOT
BRANCH   7   8
HETATM    8  C10 UNL     1     -23.029   4.775  26.399  1.00  0.00     0.284 C 
HETATM    9  O4  UNL     1     -23.503   3.636  26.191  1.00  0.00    -0.263 OA
BRANCH   8  10
HETATM   10  O5  UNL     1     -22.572   5.112  27.619  1.00  0.00    -0.316 OA
BRANCH  10  11
HETATM   11  C11 UNL     1     -22.853   4.615  28.843  1.00  0.00     0.227 C 
BRANCH  11  12
HETATM   12  C12 UNL     1     -24.148   4.833  29.524  1.00  0.00     0.163 C 
HETATM   13  C13 UNL     1     -24.815   6.156  29.395  1.00  0.00     0.060 C 
BRANCH  12  14
HETATM   14  O6  UNL     1     -25.068   3.921  28.881  1.00  0.00    -0.377 OA
ATOM     15  H6  UNL     1     -25.623   4.472  28.343  1.00  0.00     0.211 HD
ENDBRANCH  12  14
BRANCH  12  16
HETATM   16  C14 UNL     1     -24.098   4.435  30.948  1.00  0.00     0.210 C 
HETATM   17  O7  UNL     1     -23.013   4.092  31.469  1.00  0.00    -0.646 OA
HETATM   18  O8  UNL     1     -25.241   4.442  31.695  1.00  0.00    -0.646 OA
ENDBRANCH  12  16
ENDBRANCH  11  12
ENDBRANCH  10  11
ENDBRANCH   8  10
ENDBRANCH   7   8
BRANCH   6  19
HETATM   19  N3  UNL     1     -22.770   5.533  22.777  1.00  0.00    -0.072 N 
ATOM     20  H33 UNL     1     -22.415   6.485  22.682  1.00  0.00     0.274 HD
ATOM     21  H32 UNL     1     -22.236   5.085  22.031  1.00  0.00     0.274 HD
ATOM     22  H31 UNL     1     -23.771   5.492  22.588  1.00  0.00     0.274 HD
ENDBRANCH   6  19
BRANCH   1  23
HETATM   23  C2  UNL     1     -21.515   9.087  26.547  1.00  0.00     0.196 C 
HETATM   24  C1  UNL     1     -22.131   9.958  27.656  1.00  0.00     0.056 C 
HETATM   25  C3  UNL     1     -20.264   8.484  27.216  1.00  0.00     0.056 C 
BRANCH  23  26
HETATM   26  N1  UNL     1     -21.121   9.972  25.512  1.00  0.00    -0.062 N 
ATOM     27  H13 UNL     1     -20.222  10.421  25.685  1.00  0.00     0.275 HD
ATOM     28  H12 UNL     1     -20.860   9.494  24.650  1.00  0.00     0.275 HD
ATOM     29  H11 UNL     1     -21.886  10.635  25.390  1.00  0.00     0.275 HD
ENDBRANCH  23  26
ENDBRANCH   1  23
BRANCH   4  30
HETATM   30  C6  UNL     1     -20.572   7.292  23.559  1.00  0.00     0.197 C 
HETATM   31  O2  UNL     1     -19.505   7.110  22.927  1.00  0.00    -0.646 OA
HETATM   32  O3  UNL     1     -21.476   8.212  23.062  1.00  0.00    -0.646 OA
ENDBRANCH   4  30
TORSDOF 10
ENDMDL
