MODEL 1
REMARK VINA RESULT: -7.987428088      0.000      0.000
REMARK  7 active torsions:
REMARK  status: ('A' for Active; 'I' for Inactive)
REMARK       I    between atoms: C1_4  and  N3_6 
REMARK    1  A    between atoms: N3_6  and  S1_8 
REMARK    2  A    between atoms: S1_8  and  C2_11 
REMARK    3  A    between atoms: C5_14  and  N4_15 
REMARK    4  A    between atoms: C6_17  and  C7_18 
REMARK    5  A    between atoms: C7_18  and  N5_19 
REMARK       I    between atoms: N5_19  and  C8_21 
REMARK       I    between atoms: C8_21  and  N8_27 
REMARK    6  A    between atoms: N6_22  and  N7_24 
REMARK    7  A    between atoms: N8_27  and  N9_29 
ROOT
HETATM    1  N4  UNL     1     -21.552   5.414  26.841  1.00  0.00    -0.368 N 
ATOM      2  H4  UNL     1     -20.767   5.645  27.449  1.00  0.00     0.165 HD
HETATM    3  C6  UNL     1     -22.535   4.730  27.288  1.00  0.00     0.081 C 
ENDROOT
BRANCH   1   4
HETATM    4  C5  UNL     1     -21.566   5.847  25.491  1.00  0.00     0.031 A 
HETATM    5  C4  UNL     1     -21.979   7.128  25.201  1.00  0.00     0.031 A 
HETATM    6  C3  UNL     1     -22.027   7.636  23.931  1.00  0.00     0.027 A 
HETATM    7  C2  UNL     1     -21.649   6.856  22.860  1.00  0.00     0.080 A 
HETATM    8  C10 UNL     1     -21.232   5.570  23.121  1.00  0.00     0.027 A 
HETATM    9  C9  UNL     1     -21.191   5.074  24.412  1.00  0.00     0.031 A 
BRANCH   7  10
HETATM   10  S1  UNL     1     -21.717   7.522  21.251  1.00  0.00     0.265 S 
HETATM   11  O1  UNL     1     -21.292   6.446  20.276  1.00  0.00    -0.200 OA
HETATM   12  O2  UNL     1     -23.103   7.945  20.916  1.00  0.00    -0.200 OA
BRANCH  10  13
HETATM   13  N3  UNL     1     -20.607   8.848  21.168  1.00  0.00    -0.254 N 
HETATM   14  C1  UNL     1     -21.003  10.173  21.404  1.00  0.00     0.195 C 
HETATM   15  N1  UNL     1     -21.590  10.920  20.523  1.00  0.00    -0.373 N 
HETATM   16  N2  UNL     1     -20.757  10.753  22.671  1.00  0.00    -0.063 NA
ATOM     17  H12 UNL     1     -21.878  11.884  20.695  1.00  0.00     0.158 HD
ATOM     18  H11 UNL     1     -21.768  10.502  19.610  1.00  0.00     0.158 HD
ATOM     19  H3  UNL     1     -19.632   8.659  20.939  1.00  0.00     0.181 HD
ENDBRANCH  10  13
ENDBRANCH   7  10
ENDBRANCH   1   4
BRANCH   3  20
HETATM   20  C7  UNL     1     -22.502   4.280  28.718  1.00  0.00     0.182 C 
BRANCH  20  21
HETATM   21  N5  UNL     1     -23.841   4.406  29.245  1.00  0.00    -0.219 N 
HETATM   22  C8  UNL     1     -24.401   5.695  29.440  1.00  0.00     0.711 C 
HETATM   23  N6  UNL     1     -25.679   5.859  29.235  1.00  0.00    -0.137 N 
HETATM   24  N8  UNL     1     -23.556   6.736  29.846  1.00  0.00    -0.071 N 
ATOM     25  H6  UNL     1     -26.095   6.780  29.372  1.00  0.00     0.205 HD
ATOM     26  H8  UNL     1     -23.321   6.858  30.830  1.00  0.00     0.212 HD
ATOM     27  H5  UNL     1     -24.382   3.572  29.476  1.00  0.00     0.178 HD
BRANCH  23  28
HETATM   28  N7  UNL     1     -26.478   4.801  28.835  1.00  0.00    -0.331 N 
ATOM     29  H72 UNL     1     -26.209   3.857  29.108  1.00  0.00     0.177 HD
ATOM     30  H71 UNL     1     -27.319   4.959  28.279  1.00  0.00     0.177 HD
ENDBRANCH  23  28
BRANCH  24  31
HETATM   31  N9  UNL     1     -23.040   7.603  28.879  1.00  0.00    -0.024 N 
HETATM   32  O3  UNL     1     -23.771   8.125  27.991  1.00  0.00    -0.516 OA
HETATM   33  O4  UNL     1     -21.715   7.928  28.849  1.00  0.00    -0.516 OA
ENDBRANCH  24  31
ENDBRANCH  20  21
ENDBRANCH   3  20
TORSDOF 7
ENDMDL
MODEL 2
REMARK VINA RESULT: -7.914473483      3.991      7.694
REMARK  7 active torsions:
REMARK  status: ('A' for Active; 'I' for Inactive)
REMARK       I    between atoms: C1_4  and  N3_6 
REMARK    1  A    between atoms: N3_6  and  S1_8 
REMARK    2  A    between atoms: S1_8  and  C2_11 
REMARK    3  A    between atoms: C5_14  and  N4_15 
REMARK    4  A    between atoms: C6_17  and  C7_18 
REMARK    5  A    between atoms: C7_18  and  N5_19 
REMARK       I    between atoms: N5_19  and  C8_21 
REMARK       I    between atoms: C8_21  and  N8_27 
REMARK    6  A    between atoms: N6_22  and  N7_24 
REMARK    7  A    between atoms: N8_27  and  N9_29 
ROOT
HETATM    1  N4  UNL     1     -19.838   9.239  24.554  1.00  0.00    -0.368 N 
ATOM      2  H4  UNL     1     -20.069  10.076  24.019  1.00  0.00     0.165 HD
HETATM    3  C6  UNL     1     -18.624   8.855  24.660  1.00  0.00     0.081 C 
ENDROOT
BRANCH   1   4
HETATM    4  C5  UNL     1     -20.860   8.488  25.189  1.00  0.00     0.031 A 
HETATM    5  C4  UNL     1     -21.003   7.154  24.881  1.00  0.00     0.031 A 
HETATM    6  C3  UNL     1     -21.957   6.348  25.441  1.00  0.00     0.027 A 
HETATM    7  C2  UNL     1     -22.840   6.862  26.366  1.00  0.00     0.080 A 
HETATM    8  C10 UNL     1     -22.720   8.194  26.693  1.00  0.00     0.027 A 
HETATM    9  C9  UNL     1     -21.748   8.993  26.115  1.00  0.00     0.031 A 
BRANCH   7  10
HETATM   10  S1  UNL     1     -24.047   5.819  27.067  1.00  0.00     0.265 S 
HETATM   11  O1  UNL     1     -25.395   6.213  26.505  1.00  0.00    -0.200 OA
HETATM   12  O2  UNL     1     -23.783   4.399  26.713  1.00  0.00    -0.200 OA
BRANCH  10  13
HETATM   13  N3  UNL     1     -24.042   6.063  28.781  1.00  0.00    -0.254 N 
HETATM   14  C1  UNL     1     -25.221   6.073  29.540  1.00  0.00     0.195 C 
HETATM   15  N1  UNL     1     -26.009   7.097  29.638  1.00  0.00    -0.373 N 
HETATM   16  N2  UNL     1     -25.596   4.909  30.253  1.00  0.00    -0.063 NA
ATOM     17  H12 UNL     1     -26.867   7.105  30.190  1.00  0.00     0.158 HD
ATOM     18  H11 UNL     1     -25.739   7.936  29.124  1.00  0.00     0.158 HD
ATOM     19  H3  UNL     1     -23.150   6.203  29.255  1.00  0.00     0.181 HD
ENDBRANCH  10  13
ENDBRANCH   7  10
ENDBRANCH   1   4
BRANCH   3  20
HETATM   20  C7  UNL     1     -17.557   9.663  23.982  1.00  0.00     0.182 C 
BRANCH  20  21
HETATM   21  N5  UNL     1     -16.510   9.900  24.949  1.00  0.00    -0.219 N 
HETATM   22  C8  UNL     1     -16.712  10.849  25.985  1.00  0.00     0.711 C 
HETATM   23  N6  UNL     1     -16.190  10.614  27.157  1.00  0.00    -0.137 N 
HETATM   24  N8  UNL     1     -17.463  11.996  25.702  1.00  0.00    -0.071 N 
ATOM     25  H6  UNL     1     -16.327  11.287  27.911  1.00  0.00     0.205 HD
ATOM     26  H8  UNL     1     -17.027  12.804  25.258  1.00  0.00     0.212 HD
ATOM     27  H5  UNL     1     -15.630   9.389  24.887  1.00  0.00     0.178 HD
BRANCH  23  28
HETATM   28  N7  UNL     1     -15.453   9.466  27.393  1.00  0.00    -0.331 N 
ATOM     29  H72 UNL     1     -15.508   8.705  26.716  1.00  0.00     0.177 HD
ATOM     30  H71 UNL     1     -14.868   9.378  28.224  1.00  0.00     0.177 HD
ENDBRANCH  23  28
BRANCH  24  31
HETATM   31  N9  UNL     1     -18.819  12.016  26.038  1.00  0.00    -0.024 N 
HETATM   32  O3  UNL     1     -19.217  11.833  27.222  1.00  0.00    -0.516 OA
HETATM   33  O4  UNL     1     -19.783  12.236  25.096  1.00  0.00    -0.516 OA
ENDBRANCH  24  31
ENDBRANCH  20  21
ENDBRANCH   3  20
TORSDOF 7
ENDMDL
MODEL 3
REMARK VINA RESULT: -7.874249492      5.451      8.490
REMARK  7 active torsions:
REMARK  status: ('A' for Active; 'I' for Inactive)
REMARK       I    between atoms: C1_4  and  N3_6 
REMARK    1  A    between atoms: N3_6  and  S1_8 
REMARK    2  A    between atoms: S1_8  and  C2_11 
REMARK    3  A    between atoms: C5_14  and  N4_15 
REMARK    4  A    between atoms: C6_17  and  C7_18 
REMARK    5  A    between atoms: C7_18  and  N5_19 
REMARK       I    between atoms: N5_19  and  C8_21 
REMARK       I    between atoms: C8_21  and  N8_27 
REMARK    6  A    between atoms: N6_22  and  N7_24 
REMARK    7  A    between atoms: N8_27  and  N9_29 
ROOT
HETATM    1  N4  UNL     1     -18.716   9.367  26.752  1.00  0.00    -0.368 N 
ATOM      2  H4  UNL     1     -17.889   8.849  27.046  1.00  0.00     0.165 HD
HETATM    3  C6  UNL     1     -18.620  10.590  26.395  1.00  0.00     0.081 C 
ENDROOT
BRANCH   1   4
HETATM    4  C5  UNL     1     -19.988   8.739  26.736  1.00  0.00     0.031 A 
HETATM    5  C4  UNL     1     -20.273   7.774  27.675  1.00  0.00     0.031 A 
HETATM    6  C3  UNL     1     -21.470   7.114  27.739  1.00  0.00     0.027 A 
HETATM    7  C2  UNL     1     -22.468   7.402  26.834  1.00  0.00     0.080 A 
HETATM    8  C10 UNL     1     -22.210   8.363  25.882  1.00  0.00     0.027 A 
HETATM    9  C9  UNL     1     -20.992   9.020  25.833  1.00  0.00     0.031 A 
BRANCH   7  10
HETATM   10  S1  UNL     1     -23.985   6.550  26.933  1.00  0.00     0.265 S 
HETATM   11  O1  UNL     1     -25.092   7.513  26.568  1.00  0.00    -0.200 OA
HETATM   12  O2  UNL     1     -24.011   5.413  25.976  1.00  0.00    -0.200 OA
BRANCH  10  13
HETATM   13  N3  UNL     1     -24.199   6.016  28.566  1.00  0.00    -0.254 N 
HETATM   14  C1  UNL     1     -25.460   5.966  29.178  1.00  0.00     0.195 C 
HETATM   15  N1  UNL     1     -26.057   6.996  29.689  1.00  0.00    -0.373 N 
HETATM   16  N2  UNL     1     -26.142   4.728  29.257  1.00  0.00    -0.063 NA
ATOM     17  H12 UNL     1     -26.974   6.959  30.135  1.00  0.00     0.158 HD
ATOM     18  H11 UNL     1     -25.565   7.888  29.632  1.00  0.00     0.158 HD
ATOM     19  H3  UNL     1     -23.380   5.727  29.101  1.00  0.00     0.181 HD
ENDBRANCH  10  13
ENDBRANCH   7  10
ENDBRANCH   1   4
BRANCH   3  20
HETATM   20  C7  UNL     1     -17.267  11.237  26.420  1.00  0.00     0.182 C 
BRANCH  20  21
HETATM   21  N5  UNL     1     -16.308  10.227  26.807  1.00  0.00    -0.219 N 
HETATM   22  C8  UNL     1     -14.947  10.583  26.988  1.00  0.00     0.711 C 
HETATM   23  N6  UNL     1     -14.263   9.983  27.922  1.00  0.00    -0.137 N 
HETATM   24  N8  UNL     1     -14.397  11.565  26.154  1.00  0.00    -0.071 N 
ATOM     25  H6  UNL     1     -13.283  10.228  28.063  1.00  0.00     0.205 HD
ATOM     26  H8  UNL     1     -14.050  11.321  25.226  1.00  0.00     0.212 HD
ATOM     27  H5  UNL     1     -16.609   9.263  26.950  1.00  0.00     0.178 HD
BRANCH  23  28
HETATM   28  N7  UNL     1     -14.846   9.017  28.725  1.00  0.00    -0.331 N 
ATOM     29  H72 UNL     1     -15.851   8.859  28.644  1.00  0.00     0.177 HD
ATOM     30  H71 UNL     1     -14.289   8.473  29.383  1.00  0.00     0.177 HD
ENDBRANCH  23  28
BRANCH  24  31
HETATM   31  N9  UNL     1     -14.332  12.883  26.613  1.00  0.00    -0.024 N 
HETATM   32  O3  UNL     1     -14.143  13.855  25.829  1.00  0.00    -0.516 OA
HETATM   33  O4  UNL     1     -14.470  13.183  27.937  1.00  0.00    -0.516 OA
ENDBRANCH  24  31
ENDBRANCH  20  21
ENDBRANCH   3  20
TORSDOF 7
ENDMDL
MODEL 4
REMARK VINA RESULT: -7.856455144      4.321      5.084
REMARK  7 active torsions:
REMARK  status: ('A' for Active; 'I' for Inactive)
REMARK       I    between atoms: C1_4  and  N3_6 
REMARK    1  A    between atoms: N3_6  and  S1_8 
REMARK    2  A    between atoms: S1_8  and  C2_11 
REMARK    3  A    between atoms: C5_14  and  N4_15 
REMARK    4  A    between atoms: C6_17  and  C7_18 
REMARK    5  A    between atoms: C7_18  and  N5_19 
REMARK       I    between atoms: N5_19  and  C8_21 
REMARK       I    between atoms: C8_21  and  N8_27 
REMARK    6  A    between atoms: N6_22  and  N7_24 
REMARK    7  A    between atoms: N8_27  and  N9_29 
ROOT
HETATM    1  N4  UNL     1     -21.956   7.313  28.692  1.00  0.00    -0.368 N 
ATOM      2  H4  UNL     1     -22.967   7.368  28.810  1.00  0.00     0.165 HD
HETATM    3  C6  UNL     1     -21.307   6.308  29.141  1.00  0.00     0.081 C 
ENDROOT
BRANCH   1   4
HETATM    4  C5  UNL     1     -21.253   8.351  28.028  1.00  0.00     0.031 A 
HETATM    5  C4  UNL     1     -20.073   8.058  27.384  1.00  0.00     0.031 A 
HETATM    6  C3  UNL     1     -19.325   8.990  26.717  1.00  0.00     0.027 A 
HETATM    7  C2  UNL     1     -19.742  10.302  26.664  1.00  0.00     0.080 A 
HETATM    8  C10 UNL     1     -20.920  10.624  27.301  1.00  0.00     0.027 A 
HETATM    9  C9  UNL     1     -21.662   9.667  27.972  1.00  0.00     0.031 A 
BRANCH   7  10
HETATM   10  S1  UNL     1     -18.776  11.473  25.810  1.00  0.00     0.265 S 
HETATM   11  O1  UNL     1     -18.318  10.850  24.510  1.00  0.00    -0.200 OA
HETATM   12  O2  UNL     1     -19.576  12.686  25.498  1.00  0.00    -0.200 OA
BRANCH  10  13
HETATM   13  N3  UNL     1     -17.397  11.851  26.786  1.00  0.00    -0.254 N 
HETATM   14  C1  UNL     1     -16.151  11.237  26.593  1.00  0.00     0.195 C 
HETATM   15  N1  UNL     1     -15.847  10.060  27.043  1.00  0.00    -0.373 N 
HETATM   16  N2  UNL     1     -15.146  11.921  25.868  1.00  0.00    -0.063 NA
ATOM     17  H12 UNL     1     -14.941   9.613  26.903  1.00  0.00     0.158 HD
ATOM     18  H11 UNL     1     -16.571   9.567  27.566  1.00  0.00     0.158 HD
ATOM     19  H3  UNL     1     -17.493  12.546  27.526  1.00  0.00     0.181 HD
ENDBRANCH  10  13
ENDBRANCH   7  10
ENDBRANCH   1   4
BRANCH   3  20
HETATM   20  C7  UNL     1     -22.067   5.221  29.840  1.00  0.00     0.182 C 
BRANCH  20  21
HETATM   21  N5  UNL     1     -22.292   4.162  28.883  1.00  0.00    -0.219 N 
HETATM   22  C8  UNL     1     -23.521   4.104  28.175  1.00  0.00     0.711 C 
HETATM   23  N6  UNL     1     -23.512   3.685  26.940  1.00  0.00    -0.137 N 
HETATM   24  N8  UNL     1     -24.691   4.500  28.836  1.00  0.00    -0.071 N 
ATOM     25  H6  UNL     1     -24.388   3.638  26.420  1.00  0.00     0.205 HD
ATOM     26  H8  UNL     1     -25.188   3.849  29.443  1.00  0.00     0.212 HD
ATOM     27  H5  UNL     1     -21.572   3.460  28.716  1.00  0.00     0.178 HD
BRANCH  23  28
HETATM   28  N7  UNL     1     -22.331   3.303  26.325  1.00  0.00    -0.331 N 
ATOM     29  H72 UNL     1     -21.609   4.008  26.178  1.00  0.00     0.177 HD
ATOM     30  H71 UNL     1     -22.183   2.340  26.025  1.00  0.00     0.177 HD
ENDBRANCH  23  28
BRANCH  24  31
HETATM   31  N9  UNL     1     -25.166   5.801  28.649  1.00  0.00    -0.024 N 
HETATM   32  O3  UNL     1     -24.816   6.504  27.661  1.00  0.00    -0.516 OA
HETATM   33  O4  UNL     1     -26.036   6.374  29.530  1.00  0.00    -0.516 OA
ENDBRANCH  24  31
ENDBRANCH  20  21
ENDBRANCH   3  20
TORSDOF 7
ENDMDL
MODEL 5
REMARK VINA RESULT: -7.824869367      2.135      2.775
REMARK  7 active torsions:
REMARK  status: ('A' for Active; 'I' for Inactive)
REMARK       I    between atoms: C1_4  and  N3_6 
REMARK    1  A    between atoms: N3_6  and  S1_8 
REMARK    2  A    between atoms: S1_8  and  C2_11 
REMARK    3  A    between atoms: C5_14  and  N4_15 
REMARK    4  A    between atoms: C6_17  and  C7_18 
REMARK    5  A    between atoms: C7_18  and  N5_19 
REMARK       I    between atoms: N5_19  and  C8_21 
REMARK       I    between atoms: C8_21  and  N8_27 
REMARK    6  A    between atoms: N6_22  and  N7_24 
REMARK    7  A    between atoms: N8_27  and  N9_29 
ROOT
HETATM    1  N4  UNL     1     -22.385   5.863  26.814  1.00  0.00    -0.368 N 
ATOM      2  H4  UNL     1     -22.038   6.023  27.759  1.00  0.00     0.165 HD
HETATM    3  C6  UNL     1     -23.180   4.891  26.574  1.00  0.00     0.081 C 
ENDROOT
BRANCH   1   4
HETATM    4  C5  UNL     1     -21.992   6.715  25.750  1.00  0.00     0.031 A 
HETATM    5  C4  UNL     1     -21.609   6.159  24.551  1.00  0.00     0.031 A 
HETATM    6  C3  UNL     1     -21.215   6.898  23.469  1.00  0.00     0.027 A 
HETATM    7  C2  UNL     1     -21.187   8.273  23.543  1.00  0.00     0.080 A 
HETATM    8  C10 UNL     1     -21.565   8.856  24.732  1.00  0.00     0.027 A 
HETATM    9  C9  UNL     1     -21.960   8.092  25.816  1.00  0.00     0.031 A 
BRANCH   7  10
HETATM   10  S1  UNL     1     -20.682   9.195  22.154  1.00  0.00     0.265 S 
HETATM   11  O1  UNL     1     -20.899  10.662  22.455  1.00  0.00    -0.200 OA
HETATM   12  O2  UNL     1     -19.238   8.978  21.876  1.00  0.00    -0.200 OA
BRANCH  10  13
HETATM   13  N3  UNL     1     -21.668   8.730  20.809  1.00  0.00    -0.254 N 
HETATM   14  C1  UNL     1     -23.069   8.769  20.858  1.00  0.00     0.195 C 
HETATM   15  N1  UNL     1     -23.800   7.849  21.404  1.00  0.00    -0.373 N 
HETATM   16  N2  UNL     1     -23.752   9.867  20.282  1.00  0.00    -0.063 NA
ATOM     17  H12 UNL     1     -24.819   7.877  21.440  1.00  0.00     0.158 HD
ATOM     18  H11 UNL     1     -23.308   7.058  21.820  1.00  0.00     0.158 HD
ATOM     19  H3  UNL     1     -21.214   8.417  19.951  1.00  0.00     0.181 HD
ENDBRANCH  10  13
ENDBRANCH   7  10
ENDBRANCH   1   4
BRANCH   3  20
HETATM   20  C7  UNL     1     -23.584   4.001  27.712  1.00  0.00     0.182 C 
BRANCH  20  21
HETATM   21  N5  UNL     1     -24.600   4.696  28.469  1.00  0.00    -0.219 N 
HETATM   22  C8  UNL     1     -24.316   5.135  29.788  1.00  0.00     0.711 C 
HETATM   23  N6  UNL     1     -24.841   6.255  30.200  1.00  0.00    -0.137 N 
HETATM   24  N8  UNL     1     -23.484   4.344  30.590  1.00  0.00    -0.071 N 
ATOM     25  H6  UNL     1     -24.645   6.583  31.146  1.00  0.00     0.205 HD
ATOM     26  H8  UNL     1     -23.863   3.548  31.102  1.00  0.00     0.212 HD
ATOM     27  H5  UNL     1     -25.517   4.870  28.057  1.00  0.00     0.178 HD
BRANCH  23  28
HETATM   28  N7  UNL     1     -25.659   7.007  29.373  1.00  0.00    -0.331 N 
ATOM     29  H72 UNL     1     -25.327   7.234  28.436  1.00  0.00     0.177 HD
ATOM     30  H71 UNL     1     -26.574   7.328  29.690  1.00  0.00     0.177 HD
ENDBRANCH  23  28
BRANCH  24  31
HETATM   31  N9  UNL     1     -22.126   4.663  30.677  1.00  0.00    -0.024 N 
HETATM   32  O3  UNL     1     -21.607   5.574  29.973  1.00  0.00    -0.516 OA
HETATM   33  O4  UNL     1     -21.293   4.003  31.533  1.00  0.00    -0.516 OA
ENDBRANCH  24  31
ENDBRANCH  20  21
ENDBRANCH   3  20
TORSDOF 7
ENDMDL
