MODEL 1
REMARK VINA RESULT: -11.589758397      0.000      0.000
REMARK  5 active torsions:
REMARK  status: ('A' for Active; 'I' for Inactive)
REMARK    1  A    between atoms: C4_4  and  N1_5 
REMARK    2  A    between atoms: N2_8  and  C7_9 
REMARK    3  A    between atoms: C8_12  and  N4_13 
REMARK    4  A    between atoms: N4_13  and  C9_15 
REMARK    5  A    between atoms: C15_23  and  N6_24 
ROOT
HETATM    1  C7  UNL     1       8.598  -4.572  -3.207  1.00  0.00     0.709 A 
HETATM    2  N3  UNL     1       9.283  -3.425  -3.334  1.00  0.00    -0.021 N 
ATOM      3  H3  UNL     1      10.275  -3.475  -3.567  1.00  0.00     0.203 HD
HETATM    4  C8  UNL     1       8.731  -2.223  -3.172  1.00  0.00     0.707 A 
HETATM    5  N5  UNL     1       7.404  -2.206  -2.861  1.00  0.00    -0.021 N 
ATOM      6  H5  UNL     1       6.951  -1.301  -2.730  1.00  0.00     0.203 HD
HETATM    7  C15 UNL     1       6.662  -3.315  -2.720  1.00  0.00     0.709 A 
HETATM    8  N7  UNL     1       7.270  -4.479  -2.895  1.00  0.00    -0.021 N 
ATOM      9  H7  UNL     1       6.729  -5.337  -2.794  1.00  0.00     0.203 HD
ENDROOT
BRANCH   1  10
HETATM   10  N2  UNL     1       9.129  -5.869  -3.358  1.00  0.00    -0.214 N 
HETATM   11  C6  UNL     1       8.321  -7.074  -3.268  1.00  0.00     0.161 C 
HETATM   12  C5  UNL     1       8.685  -7.923  -4.489  1.00  0.00     0.143 C 
HETATM   13  N1  UNL     1      10.101  -8.155  -4.516  1.00  0.00    -0.377 N 
HETATM   14  C22 UNL     1      10.951  -7.422  -3.613  1.00  0.00     0.143 C 
HETATM   15  C21 UNL     1      10.544  -5.972  -3.626  1.00  0.00     0.161 C 
BRANCH  13  16
HETATM   16  C4  UNL     1      10.670  -9.067  -5.434  1.00  0.00     0.046 A 
HETATM   17  C3  UNL     1      10.999 -10.355  -4.952  1.00  0.00     0.055 A 
HETATM   18  C2  UNL     1      11.594 -11.259  -5.773  1.00  0.00     0.009 A 
HETATM   19  C1  UNL     1      11.916 -12.610  -5.201  1.00  0.00     0.068 C 
HETATM   20  N9  UNL     1      11.879 -10.949  -7.046  1.00  0.00    -0.345 N 
HETATM   21  C28 UNL     1      11.587  -9.743  -7.546  1.00  0.00     0.119 A 
ATOM     22  H9  UNL     1      12.327 -11.645  -7.643  1.00  0.00     0.167 HD
HETATM   23  C23 UNL     1      10.974  -8.781  -6.740  1.00  0.00     0.042 A 
HETATM   24  N8  UNL     1      11.747  -9.181  -8.761  1.00  0.00    -0.345 N 
HETATM   25  C24 UNL     1      10.768  -7.643  -7.488  1.00  0.00    -0.024 A 
HETATM   26  C25 UNL     1      10.134  -6.365  -7.091  1.00  0.00     0.051 C 
HETATM   27  C26 UNL     1      11.273  -7.938  -8.764  1.00  0.00     0.014 A 
HETATM   28  C27 UNL     1      11.237  -6.944  -9.876  1.00  0.00     0.068 C 
ATOM     29  H8  UNL     1      12.171  -9.644  -9.564  1.00  0.00     0.167 HD
ENDBRANCH  13  16
ENDBRANCH   1  10
BRANCH   4  30
HETATM   30  N4  UNL     1       9.281  -1.090  -3.294  1.00  0.00    -0.220 N 
ATOM     31  H4  UNL     1       9.326  -0.538  -2.437  1.00  0.00     0.178 HD
BRANCH  30  32
HETATM   32  C9  UNL     1       9.847  -0.467  -4.441  1.00  0.00     0.099 C 
HETATM   33  C10 UNL     1       9.116  -0.911  -5.673  1.00  0.00     0.026 C 
HETATM   34  C11 UNL     1       9.712  -0.246  -6.899  1.00  0.00     0.002 C 
HETATM   35  C12 UNL     1      11.201  -0.173  -6.887  1.00  0.00     0.000 C 
HETATM   36  C13 UNL     1      11.760  -1.197  -5.917  1.00  0.00     0.002 C 
HETATM   37  C14 UNL     1      11.310  -0.865  -4.520  1.00  0.00     0.026 C 
ENDBRANCH  30  32
ENDBRANCH   4  30
BRANCH   7  38
HETATM   38  N6  UNL     1       5.279  -3.171  -2.391  1.00  0.00    -0.217 N 
HETATM   39  C16 UNL     1       4.314  -4.201  -2.789  1.00  0.00     0.141 C 
HETATM   40  C17 UNL     1       3.194  -4.314  -1.785  1.00  0.00     0.020 C 
HETATM   41  C18 UNL     1       3.744  -3.927  -0.429  1.00  0.00     0.003 C 
HETATM   42  C19 UNL     1       4.004  -2.445  -0.407  1.00  0.00     0.020 C 
HETATM   43  C20 UNL     1       4.734  -2.047  -1.674  1.00  0.00     0.141 C 
ENDBRANCH   7  38
TORSDOF 5
ENDMDL
MODEL 2
REMARK VINA RESULT: -11.235049722      1.188      1.197
REMARK  5 active torsions:
REMARK  status: ('A' for Active; 'I' for Inactive)
REMARK    1  A    between atoms: C4_4  and  N1_5 
REMARK    2  A    between atoms: N2_8  and  C7_9 
REMARK    3  A    between atoms: C8_12  and  N4_13 
REMARK    4  A    between atoms: N4_13  and  C9_15 
REMARK    5  A    between atoms: C15_23  and  N6_24 
ROOT
HETATM    1  C7  UNL     1       8.541  -4.565  -3.141  1.00  0.00     0.709 A 
HETATM    2  N3  UNL     1       9.293  -3.460  -3.265  1.00  0.00    -0.021 N 
ATOM      3  H3  UNL     1      10.282  -3.570  -3.486  1.00  0.00     0.203 HD
HETATM    4  C8  UNL     1       8.810  -2.228  -3.114  1.00  0.00     0.707 A 
HETATM    5  N5  UNL     1       7.483  -2.132  -2.818  1.00  0.00    -0.021 N 
ATOM      6  H5  UNL     1       7.082  -1.202  -2.695  1.00  0.00     0.203 HD
HETATM    7  C15 UNL     1       6.676  -3.195  -2.679  1.00  0.00     0.709 A 
HETATM    8  N7  UNL     1       7.217  -4.393  -2.844  1.00  0.00    -0.021 N 
ATOM      9  H7  UNL     1       6.625  -5.218  -2.745  1.00  0.00     0.203 HD
ENDROOT
BRANCH   1  10
HETATM   10  N2  UNL     1       8.996  -5.892  -3.281  1.00  0.00    -0.214 N 
HETATM   11  C6  UNL     1       8.186  -6.953  -3.856  1.00  0.00     0.161 C 
HETATM   12  C5  UNL     1       9.075  -7.655  -4.887  1.00  0.00     0.143 C 
HETATM   13  N1  UNL     1      10.288  -8.101  -4.262  1.00  0.00    -0.377 N 
HETATM   14  C22 UNL     1      10.596  -7.656  -2.927  1.00  0.00     0.143 C 
HETATM   15  C21 UNL     1      10.339  -6.175  -2.833  1.00  0.00     0.161 C 
BRANCH  13  16
HETATM   16  C4  UNL     1      11.192  -8.941  -4.951  1.00  0.00     0.046 A 
HETATM   17  C3  UNL     1      11.086 -10.333  -4.725  1.00  0.00     0.055 A 
HETATM   18  C2  UNL     1      11.959 -11.188  -5.318  1.00  0.00     0.009 A 
HETATM   19  C1  UNL     1      11.792 -12.655  -5.039  1.00  0.00     0.068 C 
HETATM   20  N9  UNL     1      12.930 -10.732  -6.123  1.00  0.00    -0.345 N 
HETATM   21  C28 UNL     1      13.068  -9.424  -6.366  1.00  0.00     0.119 A 
ATOM     22  H9  UNL     1      13.573 -11.394  -6.557  1.00  0.00     0.167 HD
HETATM   23  C23 UNL     1      12.194  -8.506  -5.779  1.00  0.00     0.042 A 
HETATM   24  N8  UNL     1      13.925  -8.709  -7.123  1.00  0.00    -0.345 N 
HETATM   25  C24 UNL     1      12.537  -7.240  -6.197  1.00  0.00    -0.024 A 
HETATM   26  C25 UNL     1      11.900  -5.943  -5.869  1.00  0.00     0.051 C 
HETATM   27  C26 UNL     1      13.640  -7.412  -7.047  1.00  0.00     0.014 A 
HETATM   28  C27 UNL     1      14.313  -6.257  -7.709  1.00  0.00     0.068 C 
ATOM     29  H8  UNL     1      14.684  -9.107  -7.676  1.00  0.00     0.167 HD
ENDBRANCH  13  16
ENDBRANCH   1  10
BRANCH   4  30
HETATM   30  N4  UNL     1       9.427  -1.130  -3.234  1.00  0.00    -0.220 N 
ATOM     31  H4  UNL     1       9.545  -0.605  -2.367  1.00  0.00     0.178 HD
BRANCH  30  32
HETATM   32  C9  UNL     1       9.981  -0.514  -4.391  1.00  0.00     0.099 C 
HETATM   33  C10 UNL     1       9.233  -0.961  -5.611  1.00  0.00     0.026 C 
HETATM   34  C11 UNL     1       9.817  -0.304  -6.847  1.00  0.00     0.002 C 
HETATM   35  C12 UNL     1      11.306  -0.237  -6.855  1.00  0.00     0.000 C 
HETATM   36  C13 UNL     1      11.873  -1.258  -5.887  1.00  0.00     0.002 C 
HETATM   37  C14 UNL     1      11.442  -0.918  -4.486  1.00  0.00     0.026 C 
ENDBRANCH  30  32
ENDBRANCH   4  30
BRANCH   7  38
HETATM   38  N6  UNL     1       5.300  -2.968  -2.366  1.00  0.00    -0.217 N 
HETATM   39  C16 UNL     1       4.286  -3.961  -2.737  1.00  0.00     0.141 C 
HETATM   40  C17 UNL     1       3.156  -3.982  -1.738  1.00  0.00     0.020 C 
HETATM   41  C18 UNL     1       3.716  -3.578  -0.393  1.00  0.00     0.003 C 
HETATM   42  C19 UNL     1       4.052  -2.111  -0.418  1.00  0.00     0.020 C 
HETATM   43  C20 UNL     1       4.810  -1.795  -1.692  1.00  0.00     0.141 C 
ENDBRANCH   7  38
TORSDOF 5
ENDMDL
MODEL 3
REMARK VINA RESULT: -10.998055267      0.988      1.350
REMARK  5 active torsions:
REMARK  status: ('A' for Active; 'I' for Inactive)
REMARK    1  A    between atoms: C4_4  and  N1_5 
REMARK    2  A    between atoms: N2_8  and  C7_9 
REMARK    3  A    between atoms: C8_12  and  N4_13 
REMARK    4  A    between atoms: N4_13  and  C9_15 
REMARK    5  A    between atoms: C15_23  and  N6_24 
ROOT
HETATM    1  C7  UNL     1       7.904  -4.727  -3.666  1.00  0.00     0.709 A 
HETATM    2  N3  UNL     1       7.973  -3.748  -4.581  1.00  0.00    -0.021 N 
ATOM      3  H3  UNL     1       8.538  -3.903  -5.416  1.00  0.00     0.203 HD
HETATM    4  C8  UNL     1       7.341  -2.583  -4.452  1.00  0.00     0.707 A 
HETATM    5  N5  UNL     1       6.600  -2.420  -3.320  1.00  0.00    -0.021 N 
ATOM      6  H5  UNL     1       6.103  -1.538  -3.191  1.00  0.00     0.203 HD
HETATM    7  C15 UNL     1       6.488  -3.358  -2.366  1.00  0.00     0.709 A 
HETATM    8  N7  UNL     1       7.141  -4.495  -2.555  1.00  0.00    -0.021 N 
ATOM      9  H7  UNL     1       7.073  -5.225  -1.846  1.00  0.00     0.203 HD
ENDROOT
BRANCH   1  10
HETATM   10  N2  UNL     1       8.557  -5.974  -3.743  1.00  0.00    -0.214 N 
HETATM   11  C6  UNL     1       7.857  -7.245  -3.645  1.00  0.00     0.161 C 
HETATM   12  C5  UNL     1       8.357  -8.097  -4.815  1.00  0.00     0.143 C 
HETATM   13  N1  UNL     1       9.788  -8.199  -4.767  1.00  0.00    -0.377 N 
HETATM   14  C22 UNL     1      10.522  -7.360  -3.854  1.00  0.00     0.143 C 
HETATM   15  C21 UNL     1       9.987  -5.956  -3.940  1.00  0.00     0.161 C 
BRANCH  13  16
HETATM   16  C4  UNL     1      10.482  -9.084  -5.622  1.00  0.00     0.046 A 
HETATM   17  C3  UNL     1      10.839 -10.348  -5.099  1.00  0.00     0.055 A 
HETATM   18  C2  UNL     1      11.551 -11.223  -5.855  1.00  0.00     0.009 A 
HETATM   19  C1  UNL     1      11.897 -12.550  -5.241  1.00  0.00     0.068 C 
HETATM   20  N9  UNL     1      11.925 -10.908  -7.103  1.00  0.00    -0.345 N 
HETATM   21  C28 UNL     1      11.610  -9.724  -7.641  1.00  0.00     0.119 A 
ATOM     22  H9  UNL     1      12.460 -11.582  -7.652  1.00  0.00     0.167 HD
HETATM   23  C23 UNL     1      10.879  -8.791  -6.902  1.00  0.00     0.042 A 
HETATM   24  N8  UNL     1      11.842  -9.163  -8.845  1.00  0.00    -0.345 N 
HETATM   25  C24 UNL     1      10.675  -7.673  -7.679  1.00  0.00    -0.024 A 
HETATM   26  C25 UNL     1       9.940  -6.429  -7.352  1.00  0.00     0.051 C 
HETATM   27  C26 UNL     1      11.302  -7.949  -8.903  1.00  0.00     0.014 A 
HETATM   28  C27 UNL     1      11.306  -6.967 -10.026  1.00  0.00     0.068 C 
ATOM     29  H8  UNL     1      12.358  -9.608  -9.604  1.00  0.00     0.167 HD
ENDBRANCH  13  16
ENDBRANCH   1  10
BRANCH   4  30
HETATM   30  N4  UNL     1       7.323  -1.612  -5.265  1.00  0.00    -0.220 N 
ATOM     31  H4  UNL     1       6.413  -1.416  -5.682  1.00  0.00     0.178 HD
BRANCH  30  32
HETATM   32  C9  UNL     1       8.376  -0.754  -5.687  1.00  0.00     0.099 C 
HETATM   33  C10 UNL     1       9.103  -1.372  -6.843  1.00  0.00     0.026 C 
HETATM   34  C11 UNL     1      10.224  -0.459  -7.300  1.00  0.00     0.002 C 
HETATM   35  C12 UNL     1      10.979   0.182  -6.186  1.00  0.00     0.000 C 
HETATM   36  C13 UNL     1      10.770  -0.602  -4.904  1.00  0.00     0.002 C 
HETATM   37  C14 UNL     1       9.318  -0.551  -4.514  1.00  0.00     0.026 C 
ENDBRANCH  30  32
ENDBRANCH   4  30
BRANCH   7  38
HETATM   38  N6  UNL     1       5.683  -3.071  -1.222  1.00  0.00    -0.217 N 
HETATM   39  C16 UNL     1       5.477  -1.684  -0.793  1.00  0.00     0.141 C 
HETATM   40  C17 UNL     1       4.115  -1.505  -0.169  1.00  0.00     0.020 C 
HETATM   41  C18 UNL     1       3.176  -2.506  -0.804  1.00  0.00     0.003 C 
HETATM   42  C19 UNL     1       3.533  -3.889  -0.328  1.00  0.00     0.020 C 
HETATM   43  C20 UNL     1       5.034  -4.077  -0.422  1.00  0.00     0.141 C 
ENDBRANCH   7  38
TORSDOF 5
ENDMDL
MODEL 4
REMARK VINA RESULT: -10.997633175      1.871      5.874
REMARK  5 active torsions:
REMARK  status: ('A' for Active; 'I' for Inactive)
REMARK    1  A    between atoms: C4_4  and  N1_5 
REMARK    2  A    between atoms: N2_8  and  C7_9 
REMARK    3  A    between atoms: C8_12  and  N4_13 
REMARK    4  A    between atoms: N4_13  and  C9_15 
REMARK    5  A    between atoms: C15_23  and  N6_24 
ROOT
HETATM    1  C7  UNL     1       8.278  -5.100  -5.492  1.00  0.00     0.709 A 
HETATM    2  N3  UNL     1       7.069  -4.970  -4.925  1.00  0.00    -0.021 N 
ATOM      3  H3  UNL     1       6.532  -5.815  -4.728  1.00  0.00     0.203 HD
HETATM    4  C8  UNL     1       6.534  -3.793  -4.607  1.00  0.00     0.707 A 
HETATM    5  N5  UNL     1       7.287  -2.692  -4.889  1.00  0.00    -0.021 N 
ATOM      6  H5  UNL     1       6.906  -1.774  -4.658  1.00  0.00     0.203 HD
HETATM    7  C15 UNL     1       8.503  -2.751  -5.454  1.00  0.00     0.709 A 
HETATM    8  N7  UNL     1       8.978  -3.953  -5.746  1.00  0.00    -0.021 N 
ATOM      9  H7  UNL     1       9.900  -4.026  -6.175  1.00  0.00     0.203 HD
ENDROOT
BRANCH   1  10
HETATM   10  N2  UNL     1       8.891  -6.316  -5.858  1.00  0.00    -0.214 N 
HETATM   11  C6  UNL     1      10.168  -6.386  -6.547  1.00  0.00     0.161 C 
HETATM   12  C5  UNL     1      11.010  -7.410  -5.780  1.00  0.00     0.143 C 
HETATM   13  N1  UNL     1      10.305  -8.658  -5.701  1.00  0.00    -0.377 N 
HETATM   14  C22 UNL     1       8.922  -8.711  -6.100  1.00  0.00     0.143 C 
HETATM   15  C21 UNL     1       8.196  -7.532  -5.507  1.00  0.00     0.161 C 
BRANCH  13  16
HETATM   16  C4  UNL     1      10.941  -9.821  -5.210  1.00  0.00     0.046 A 
HETATM   17  C3  UNL     1      11.387 -10.768  -6.160  1.00  0.00     0.055 A 
HETATM   18  C2  UNL     1      11.961 -11.928  -5.748  1.00  0.00     0.009 A 
HETATM   19  C1  UNL     1      12.415 -12.893  -6.808  1.00  0.00     0.068 C 
HETATM   20  N9  UNL     1      12.113 -12.196  -4.443  1.00  0.00    -0.345 N 
HETATM   21  C28 UNL     1      11.706 -11.329  -3.509  1.00  0.00     0.119 A 
ATOM     22  H9  UNL     1      12.547 -13.074  -4.159  1.00  0.00     0.167 HD
HETATM   23  C23 UNL     1      11.112 -10.123  -3.883  1.00  0.00     0.042 A 
HETATM   24  N8  UNL     1      11.745 -11.336  -2.161  1.00  0.00    -0.345 N 
HETATM   25  C24 UNL     1      10.801  -9.411  -2.747  1.00  0.00    -0.024 A 
HETATM   26  C25 UNL     1      10.181  -8.071  -2.623  1.00  0.00     0.051 C 
HETATM   27  C26 UNL     1      11.218 -10.215  -1.676  1.00  0.00     0.014 A 
HETATM   28  C27 UNL     1      11.049  -9.789  -0.256  1.00  0.00     0.068 C 
ATOM     29  H8  UNL     1      12.126 -12.093  -1.594  1.00  0.00     0.167 HD
ENDBRANCH  13  16
ENDBRANCH   1  10
BRANCH   4  30
HETATM   30  N4  UNL     1       5.420  -3.568  -4.051  1.00  0.00    -0.220 N 
ATOM     31  H4  UNL     1       4.712  -3.152  -4.656  1.00  0.00     0.178 HD
BRANCH  30  32
HETATM   32  C9  UNL     1       5.001  -3.805  -2.712  1.00  0.00     0.099 C 
HETATM   33  C10 UNL     1       3.770  -4.660  -2.708  1.00  0.00     0.026 C 
HETATM   34  C11 UNL     1       3.321  -4.920  -1.283  1.00  0.00     0.002 C 
HETATM   35  C12 UNL     1       3.421  -3.732  -0.388  1.00  0.00     0.000 C 
HETATM   36  C13 UNL     1       3.471  -2.464  -1.219  1.00  0.00     0.002 C 
HETATM   37  C14 UNL     1       4.717  -2.463  -2.062  1.00  0.00     0.026 C 
ENDBRANCH  30  32
ENDBRANCH   4  30
BRANCH   7  38
HETATM   38  N6  UNL     1       9.197  -1.528  -5.704  1.00  0.00    -0.217 N 
HETATM   39  C16 UNL     1       9.500  -0.612  -4.598  1.00  0.00     0.141 C 
HETATM   40  C17 UNL     1      10.792   0.127  -4.843  1.00  0.00     0.020 C 
HETATM   41  C18 UNL     1      11.685  -0.762  -5.681  1.00  0.00     0.003 C 
HETATM   42  C19 UNL     1      11.130  -0.845  -7.078  1.00  0.00     0.020 C 
HETATM   43  C20 UNL     1       9.638  -1.103  -7.007  1.00  0.00     0.141 C 
ENDBRANCH   7  38
TORSDOF 5
ENDMDL
MODEL 5
REMARK VINA RESULT: -10.724334621      2.615      5.529
REMARK  5 active torsions:
REMARK  status: ('A' for Active; 'I' for Inactive)
REMARK    1  A    between atoms: C4_4  and  N1_5 
REMARK    2  A    between atoms: N2_8  and  C7_9 
REMARK    3  A    between atoms: C8_12  and  N4_13 
REMARK    4  A    between atoms: N4_13  and  C9_15 
REMARK    5  A    between atoms: C15_23  and  N6_24 
ROOT
HETATM    1  C7  UNL     1       6.989  -5.576  -4.377  1.00  0.00     0.709 A 
HETATM    2  N3  UNL     1       6.826  -6.701  -3.663  1.00  0.00    -0.021 N 
ATOM      3  H3  UNL     1       7.334  -7.537  -3.952  1.00  0.00     0.203 HD
HETATM    4  C8  UNL     1       6.035  -6.779  -2.595  1.00  0.00     0.707 A 
HETATM    5  N5  UNL     1       5.376  -5.638  -2.247  1.00  0.00    -0.021 N 
ATOM      6  H5  UNL     1       4.761  -5.664  -1.433  1.00  0.00     0.203 HD
HETATM    7  C15 UNL     1       5.494  -4.481  -2.917  1.00  0.00     0.709 A 
HETATM    8  N7  UNL     1       6.298  -4.469  -3.970  1.00  0.00    -0.021 N 
ATOM      9  H7  UNL     1       6.406  -3.602  -4.497  1.00  0.00     0.203 HD
ENDROOT
BRANCH   1  10
HETATM   10  N2  UNL     1       7.803  -5.436  -5.519  1.00  0.00    -0.214 N 
HETATM   11  C6  UNL     1       8.648  -4.277  -5.755  1.00  0.00     0.161 C 
HETATM   12  C5  UNL     1      10.027  -4.825  -6.134  1.00  0.00     0.143 C 
HETATM   13  N1  UNL     1       9.906  -5.713  -7.255  1.00  0.00    -0.377 N 
HETATM   14  C22 UNL     1       8.595  -6.131  -7.684  1.00  0.00     0.143 C 
HETATM   15  C21 UNL     1       7.785  -6.518  -6.476  1.00  0.00     0.161 C 
BRANCH  13  16
HETATM   16  C4  UNL     1      11.053  -6.205  -7.919  1.00  0.00     0.046 A 
HETATM   17  C3  UNL     1      11.423  -5.576  -9.130  1.00  0.00     0.055 A 
HETATM   18  C2  UNL     1      12.486  -6.036  -9.839  1.00  0.00     0.009 A 
HETATM   19  C1  UNL     1      12.828  -5.323 -11.117  1.00  0.00     0.068 C 
HETATM   20  N9  UNL     1      13.200  -7.085  -9.408  1.00  0.00    -0.345 N 
HETATM   21  C28 UNL     1      12.887  -7.712  -8.268  1.00  0.00     0.119 A 
ATOM     22  H9  UNL     1      13.994  -7.412  -9.959  1.00  0.00     0.167 HD
HETATM   23  C23 UNL     1      11.803  -7.276  -7.504  1.00  0.00     0.042 A 
HETATM   24  N8  UNL     1      13.425  -8.758  -7.610  1.00  0.00    -0.345 N 
HETATM   25  C24 UNL     1      11.703  -8.070  -6.383  1.00  0.00    -0.024 A 
HETATM   26  C25 UNL     1      10.735  -7.991  -5.265  1.00  0.00     0.051 C 
HETATM   27  C26 UNL     1      12.750  -8.998  -6.488  1.00  0.00     0.014 A 
HETATM   28  C27 UNL     1      12.981 -10.047  -5.454  1.00  0.00     0.068 C 
ATOM     29  H8  UNL     1      14.236  -9.290  -7.926  1.00  0.00     0.167 HD
ENDBRANCH  13  16
ENDBRANCH   1  10
BRANCH   4  30
HETATM   30  N4  UNL     1       5.835  -7.779  -1.845  1.00  0.00    -0.220 N 
ATOM     31  H4  UNL     1       4.854  -8.018  -1.698  1.00  0.00     0.178 HD
BRANCH  30  32
HETATM   32  C9  UNL     1       6.766  -8.620  -1.175  1.00  0.00     0.099 C 
HETATM   33  C10 UNL     1       7.963  -7.819  -0.755  1.00  0.00     0.026 C 
HETATM   34  C11 UNL     1       8.958  -8.711  -0.036  1.00  0.00     0.002 C 
HETATM   35  C12 UNL     1       9.126 -10.057  -0.654  1.00  0.00     0.000 C 
HETATM   36  C13 UNL     1       8.650 -10.026  -2.094  1.00  0.00     0.002 C 
HETATM   37  C14 UNL     1       7.176  -9.726  -2.131  1.00  0.00     0.026 C 
ENDBRANCH  30  32
ENDBRANCH   4  30
BRANCH   7  38
HETATM   38  N6  UNL     1       4.752  -3.350  -2.457  1.00  0.00    -0.217 N 
HETATM   39  C16 UNL     1       3.421  -3.531  -1.866  1.00  0.00     0.141 C 
HETATM   40  C17 UNL     1       3.151  -2.492  -0.807  1.00  0.00     0.020 C 
HETATM   41  C18 UNL     1       4.476  -2.101  -0.190  1.00  0.00     0.003 C 
HETATM   42  C19 UNL     1       5.268  -1.298  -1.186  1.00  0.00     0.020 C 
HETATM   43  C20 UNL     1       5.223  -1.992  -2.534  1.00  0.00     0.141 C 
ENDBRANCH   7  38
TORSDOF 5
ENDMDL
