MODEL 1
REMARK VINA RESULT: -11.559157527      0.000      0.000
REMARK  6 active torsions:
REMARK  status: ('A' for Active; 'I' for Inactive)
REMARK    1  A    between atoms: C5_6  and  N2_7 
REMARK    2  A    between atoms: N2_7  and  C6_9 
REMARK    3  A    between atoms: N6_21  and  C12_22 
REMARK    4  A    between atoms: C22_32  and  C23_33 
REMARK    5  A    between atoms: C26_36  and  S1_37 
REMARK    6  A    between atoms: S1_37  and  N7_38 
ROOT
HETATM    1  N1  UNL     1      11.053 -10.086  -5.153  1.00  0.00    -0.191 NA
HETATM    2  C1  UNL     1      10.952  -9.055  -4.602  1.00  0.00     0.100 C 
HETATM    3  C2  UNL     1      10.852  -7.802  -3.911  1.00  0.00     0.055 A 
HETATM    4  C3  UNL     1      10.556  -7.766  -2.562  1.00  0.00     0.026 A 
HETATM    5  C4  UNL     1      10.477  -6.555  -1.906  1.00  0.00     0.031 A 
HETATM    6  C5  UNL     1      10.685  -5.351  -2.555  1.00  0.00     0.034 A 
HETATM    7  C21 UNL     1      10.978  -5.427  -3.902  1.00  0.00     0.043 A 
HETATM    8  C22 UNL     1      11.062  -6.626  -4.578  1.00  0.00    -0.003 A 
ENDROOT
BRANCH   8   9
HETATM    9  C23 UNL     1      11.370  -6.559  -6.027  1.00  0.00    -0.024 A 
HETATM   10  C24 UNL     1      12.684  -6.425  -6.415  1.00  0.00     0.014 A 
HETATM   11  C25 UNL     1      12.966  -6.352  -7.759  1.00  0.00     0.026 A 
HETATM   12  C26 UNL     1      11.993  -6.407  -8.726  1.00  0.00     0.079 A 
HETATM   13  C27 UNL     1      10.694  -6.541  -8.303  1.00  0.00     0.026 A 
HETATM   14  C28 UNL     1      10.377  -6.617  -6.977  1.00  0.00     0.014 A 
BRANCH  12  15
HETATM   15  S1  UNL     1      12.391  -6.312 -10.444  1.00  0.00     0.256 S 
HETATM   16  O1  UNL     1      11.456  -7.210 -11.207  1.00  0.00    -0.201 OA
HETATM   17  O2  UNL     1      13.804  -6.752 -10.619  1.00  0.00    -0.201 OA
BRANCH  15  18
HETATM   18  N7  UNL     1      12.144  -4.676 -10.929  1.00  0.00    -0.324 N 
ATOM     19  H72 UNL     1      12.876  -4.012 -11.182  1.00  0.00     0.169 HD
ATOM     20  H71 UNL     1      11.138  -4.508 -10.913  1.00  0.00     0.169 HD
ENDBRANCH  15  18
ENDBRANCH  12  15
ENDBRANCH   8   9
BRANCH   6  21
HETATM   21  N2  UNL     1      10.591  -4.128  -1.837  1.00  0.00    -0.342 N 
ATOM     22  H2  UNL     1      10.283  -4.106  -0.866  1.00  0.00     0.167 HD
BRANCH  21  23
HETATM   23  C6  UNL     1      10.912  -3.046  -2.463  1.00  0.00     0.119 A 
HETATM   24  N3  UNL     1      12.207  -2.702  -2.699  1.00  0.00    -0.338 N 
HETATM   25  C7  UNL     1      12.404  -1.553  -3.359  1.00  0.00     0.182 A 
ATOM     26  H3  UNL     1      12.984  -3.286  -2.392  1.00  0.00     0.168 HD
HETATM   27  N4  UNL     1      11.424  -0.743  -3.789  1.00  0.00    -0.352 N 
HETATM   28  C8  UNL     1      10.134  -1.059  -3.569  1.00  0.00     0.048 A 
ATOM     29  H4  UNL     1      11.659   0.117  -4.285  1.00  0.00     0.166 HD
HETATM   30  C9  UNL     1       9.088  -0.282  -3.978  1.00  0.00     0.045 A 
HETATM   31  C20 UNL     1       9.883  -2.237  -2.891  1.00  0.00     0.037 A 
HETATM   32  C10 UNL     1       7.795  -0.682  -3.711  1.00  0.00     0.012 A 
HETATM   33  C11 UNL     1       6.546  -0.116  -3.994  1.00  0.00     0.121 A 
HETATM   34  C18 UNL     1       7.495  -1.852  -3.036  1.00  0.00     0.069 A 
HETATM   35  N5  UNL     1       5.592  -0.938  -3.497  1.00  0.00    -0.304 N 
HETATM   36  N6  UNL     1       6.161  -1.982  -2.921  1.00  0.00    -0.256 N 
ATOM     37  H5  UNL     1       4.587  -0.775  -3.558  1.00  0.00     0.186 HD
HETATM   38  C19 UNL     1       8.583  -2.616  -2.636  1.00  0.00     0.050 A 
BRANCH  36  39
HETATM   39  C12 UNL     1       5.487  -3.069  -2.282  1.00  0.00     0.057 A 
HETATM   40  C13 UNL     1       5.072  -2.968  -0.968  1.00  0.00     0.031 A 
HETATM   41  C14 UNL     1       4.420  -3.999  -0.326  1.00  0.00     0.002 A 
HETATM   42  C15 UNL     1       4.176  -5.165  -1.014  1.00  0.00     0.000 A 
HETATM   43  C16 UNL     1       4.583  -5.283  -2.326  1.00  0.00     0.002 A 
HETATM   44  C17 UNL     1       5.232  -4.239  -2.946  1.00  0.00     0.031 A 
ENDBRANCH  36  39
ENDBRANCH  21  23
ENDBRANCH   6  21
TORSDOF 6
ENDMDL
MODEL 2
REMARK VINA RESULT: -11.185318913      3.868      7.215
REMARK  6 active torsions:
REMARK  status: ('A' for Active; 'I' for Inactive)
REMARK    1  A    between atoms: C5_6  and  N2_7 
REMARK    2  A    between atoms: N2_7  and  C6_9 
REMARK    3  A    between atoms: N6_21  and  C12_22 
REMARK    4  A    between atoms: C22_32  and  C23_33 
REMARK    5  A    between atoms: C26_36  and  S1_37 
REMARK    6  A    between atoms: S1_37  and  N7_38 
ROOT
HETATM    1  N1  UNL     1      11.538  -3.049  -7.887  1.00  0.00    -0.191 NA
HETATM    2  C1  UNL     1      11.131  -4.091  -7.534  1.00  0.00     0.100 C 
HETATM    3  C2  UNL     1      10.660  -5.373  -7.093  1.00  0.00     0.055 A 
HETATM    4  C3  UNL     1      11.140  -6.533  -7.670  1.00  0.00     0.026 A 
HETATM    5  C4  UNL     1      10.690  -7.759  -7.228  1.00  0.00     0.031 A 
HETATM    6  C5  UNL     1       9.760  -7.879  -6.211  1.00  0.00     0.034 A 
HETATM    7  C21 UNL     1       9.303  -6.699  -5.660  1.00  0.00     0.043 A 
HETATM    8  C22 UNL     1       9.739  -5.461  -6.086  1.00  0.00    -0.003 A 
ENDROOT
BRANCH   8   9
HETATM    9  C23 UNL     1       9.153  -4.276  -5.415  1.00  0.00    -0.024 A 
HETATM   10  C24 UNL     1       9.767  -3.791  -4.283  1.00  0.00     0.014 A 
HETATM   11  C25 UNL     1       9.216  -2.698  -3.656  1.00  0.00     0.026 A 
HETATM   12  C26 UNL     1       8.081  -2.073  -4.112  1.00  0.00     0.079 A 
HETATM   13  C27 UNL     1       7.496  -2.585  -5.244  1.00  0.00     0.026 A 
HETATM   14  C28 UNL     1       8.015  -3.668  -5.892  1.00  0.00     0.014 A 
BRANCH  12  15
HETATM   15  S1  UNL     1       7.401  -0.671  -3.283  1.00  0.00     0.256 S 
HETATM   16  O1  UNL     1       6.465   0.039  -4.224  1.00  0.00    -0.201 OA
HETATM   17  O2  UNL     1       8.524   0.223  -2.883  1.00  0.00    -0.201 OA
BRANCH  15  18
HETATM   18  N7  UNL     1       6.515  -1.266  -1.928  1.00  0.00    -0.324 N 
ATOM     19  H72 UNL     1       6.919  -1.629  -1.065  1.00  0.00     0.169 HD
ATOM     20  H71 UNL     1       5.525  -1.185  -2.160  1.00  0.00     0.169 HD
ENDBRANCH  15  18
ENDBRANCH  12  15
ENDBRANCH   8   9
BRANCH   6  21
HETATM   21  N2  UNL     1       9.325  -9.165  -5.789  1.00  0.00    -0.342 N 
ATOM     22  H2  UNL     1       8.406  -9.524  -6.048  1.00  0.00     0.167 HD
BRANCH  21  23
HETATM   23  C6  UNL     1      10.137  -9.860  -5.066  1.00  0.00     0.119 A 
HETATM   24  N3  UNL     1      11.078 -10.675  -5.614  1.00  0.00    -0.338 N 
HETATM   25  C7  UNL     1      11.858 -11.342  -4.753  1.00  0.00     0.182 A 
ATOM     26  H3  UNL     1      11.185 -10.774  -6.624  1.00  0.00     0.168 HD
HETATM   27  N4  UNL     1      11.768 -11.254  -3.418  1.00  0.00    -0.352 N 
HETATM   28  C8  UNL     1      10.846 -10.454  -2.849  1.00  0.00     0.048 A 
ATOM     29  H4  UNL     1      12.401 -11.796  -2.830  1.00  0.00     0.166 HD
HETATM   30  C9  UNL     1      10.698 -10.317  -1.498  1.00  0.00     0.045 A 
HETATM   31  C20 UNL     1      10.018  -9.747  -3.699  1.00  0.00     0.037 A 
HETATM   32  C10 UNL     1       9.726  -9.475  -0.999  1.00  0.00     0.012 A 
HETATM   33  C11 UNL     1       9.340  -9.132   0.302  1.00  0.00     0.121 A 
HETATM   34  C18 UNL     1       8.875  -8.747  -1.812  1.00  0.00     0.069 A 
HETATM   35  N5  UNL     1       8.317  -8.250   0.217  1.00  0.00    -0.304 N 
HETATM   36  N6  UNL     1       8.036  -8.018  -1.053  1.00  0.00    -0.256 N 
ATOM     37  H5  UNL     1       7.836  -7.830   1.012  1.00  0.00     0.186 HD
HETATM   38  C19 UNL     1       9.054  -8.911  -3.178  1.00  0.00     0.050 A 
BRANCH  36  39
HETATM   39  C12 UNL     1       7.019  -7.144  -1.550  1.00  0.00     0.057 A 
HETATM   40  C13 UNL     1       7.350  -6.034  -2.306  1.00  0.00     0.031 A 
HETATM   41  C14 UNL     1       6.392  -5.174  -2.799  1.00  0.00     0.002 A 
HETATM   42  C15 UNL     1       5.067  -5.426  -2.528  1.00  0.00     0.000 A 
HETATM   43  C16 UNL     1       4.719  -6.528  -1.776  1.00  0.00     0.002 A 
HETATM   44  C17 UNL     1       5.695  -7.373  -1.295  1.00  0.00     0.031 A 
ENDBRANCH  36  39
ENDBRANCH  21  23
ENDBRANCH   6  21
TORSDOF 6
ENDMDL
MODEL 3
REMARK VINA RESULT: -11.179933029      4.617      7.881
REMARK  6 active torsions:
REMARK  status: ('A' for Active; 'I' for Inactive)
REMARK    1  A    between atoms: C5_6  and  N2_7 
REMARK    2  A    between atoms: N2_7  and  C6_9 
REMARK    3  A    between atoms: N6_21  and  C12_22 
REMARK    4  A    between atoms: C22_32  and  C23_33 
REMARK    5  A    between atoms: C26_36  and  S1_37 
REMARK    6  A    between atoms: S1_37  and  N7_38 
ROOT
HETATM    1  N1  UNL     1       9.374  -2.042  -6.794  1.00  0.00    -0.191 NA
HETATM    2  C1  UNL     1       9.303  -3.210  -6.711  1.00  0.00     0.100 C 
HETATM    3  C2  UNL     1       9.245  -4.640  -6.602  1.00  0.00     0.055 A 
HETATM    4  C3  UNL     1      10.002  -5.438  -7.439  1.00  0.00     0.026 A 
HETATM    5  C4  UNL     1       9.948  -6.811  -7.315  1.00  0.00     0.031 A 
HETATM    6  C5  UNL     1       9.154  -7.434  -6.369  1.00  0.00     0.034 A 
HETATM    7  C21 UNL     1       8.413  -6.604  -5.552  1.00  0.00     0.043 A 
HETATM    8  C22 UNL     1       8.451  -5.229  -5.658  1.00  0.00    -0.003 A 
ENDROOT
BRANCH   8   9
HETATM    9  C23 UNL     1       7.592  -4.460  -4.726  1.00  0.00    -0.024 A 
HETATM   10  C24 UNL     1       8.118  -4.075  -3.513  1.00  0.00     0.014 A 
HETATM   11  C25 UNL     1       7.317  -3.371  -2.645  1.00  0.00     0.026 A 
HETATM   12  C26 UNL     1       6.016  -3.039  -2.938  1.00  0.00     0.079 A 
HETATM   13  C27 UNL     1       5.525  -3.441  -4.155  1.00  0.00     0.026 A 
HETATM   14  C28 UNL     1       6.292  -4.140  -5.042  1.00  0.00     0.014 A 
BRANCH  12  15
HETATM   15  S1  UNL     1       5.016  -2.134  -1.799  1.00  0.00     0.256 S 
HETATM   16  O1  UNL     1       3.612  -2.675  -1.855  1.00  0.00    -0.201 OA
HETATM   17  O2  UNL     1       5.043  -0.698  -2.196  1.00  0.00    -0.201 OA
BRANCH  15  18
HETATM   18  N7  UNL     1       5.673  -2.398  -0.227  1.00  0.00    -0.324 N 
ATOM     19  H72 UNL     1       6.436  -3.036  -0.000  1.00  0.00     0.169 HD
ATOM     20  H71 UNL     1       5.156  -1.801   0.417  1.00  0.00     0.169 HD
ENDBRANCH  15  18
ENDBRANCH  12  15
ENDBRANCH   8   9
BRANCH   6  21
HETATM   21  N2  UNL     1       9.131  -8.852  -6.279  1.00  0.00    -0.342 N 
ATOM     22  H2  UNL     1       8.311  -9.388  -6.566  1.00  0.00     0.167 HD
BRANCH  21  23
HETATM   23  C6  UNL     1      10.185  -9.436  -5.820  1.00  0.00     0.119 A 
HETATM   24  N3  UNL     1      11.199  -9.844  -6.631  1.00  0.00    -0.338 N 
HETATM   25  C7  UNL     1      12.238 -10.437  -6.029  1.00  0.00     0.182 A 
ATOM     26  H3  UNL     1      11.170  -9.706  -7.641  1.00  0.00     0.168 HD
HETATM   27  N4  UNL     1      12.334 -10.647  -4.707  1.00  0.00    -0.352 N 
HETATM   28  C8  UNL     1      11.347 -10.253  -3.881  1.00  0.00     0.048 A 
ATOM     29  H4  UNL     1      13.161 -11.108  -4.326  1.00  0.00     0.166 HD
HETATM   30  C9  UNL     1      11.379 -10.435  -2.528  1.00  0.00     0.045 A 
HETATM   31  C20 UNL     1      10.254  -9.636  -4.459  1.00  0.00     0.037 A 
HETATM   32  C10 UNL     1      10.322 -10.000  -1.755  1.00  0.00     0.012 A 
HETATM   33  C11 UNL     1      10.069 -10.042  -0.379  1.00  0.00     0.121 A 
HETATM   34  C18 UNL     1       9.208  -9.377  -2.289  1.00  0.00     0.069 A 
HETATM   35  N5  UNL     1       8.864  -9.466  -0.157  1.00  0.00    -0.304 N 
HETATM   36  N6  UNL     1       8.346  -9.066  -1.305  1.00  0.00    -0.256 N 
ATOM     37  H5  UNL     1       8.424  -9.357   0.757  1.00  0.00     0.186 HD
HETATM   38  C19 UNL     1       9.210  -9.210  -3.667  1.00  0.00     0.050 A 
BRANCH  36  39
HETATM   39  C12 UNL     1       7.086  -8.413  -1.483  1.00  0.00     0.057 A 
HETATM   40  C13 UNL     1       6.947  -7.063  -1.219  1.00  0.00     0.031 A 
HETATM   41  C14 UNL     1       5.746  -6.406  -1.382  1.00  0.00     0.002 A 
HETATM   42  C15 UNL     1       4.652  -7.117  -1.820  1.00  0.00     0.000 A 
HETATM   43  C16 UNL     1       4.773  -8.463  -2.088  1.00  0.00     0.002 A 
HETATM   44  C17 UNL     1       5.984  -9.097  -1.918  1.00  0.00     0.031 A 
ENDBRANCH  36  39
ENDBRANCH  21  23
ENDBRANCH   6  21
TORSDOF 6
ENDMDL
MODEL 4
REMARK VINA RESULT: -11.174083326      3.549      7.415
REMARK  6 active torsions:
REMARK  status: ('A' for Active; 'I' for Inactive)
REMARK    1  A    between atoms: C5_6  and  N2_7 
REMARK    2  A    between atoms: N2_7  and  C6_9 
REMARK    3  A    between atoms: N6_21  and  C12_22 
REMARK    4  A    between atoms: C22_32  and  C23_33 
REMARK    5  A    between atoms: C26_36  and  S1_37 
REMARK    6  A    between atoms: S1_37  and  N7_38 
ROOT
HETATM    1  N1  UNL     1      12.100  -3.818  -6.176  1.00  0.00    -0.191 NA
HETATM    2  C1  UNL     1      11.249  -4.585  -5.921  1.00  0.00     0.100 C 
HETATM    3  C2  UNL     1      10.189  -5.500  -5.613  1.00  0.00     0.055 A 
HETATM    4  C3  UNL     1       9.425  -5.330  -4.474  1.00  0.00     0.026 A 
HETATM    5  C4  UNL     1       8.398  -6.209  -4.196  1.00  0.00     0.031 A 
HETATM    6  C5  UNL     1       8.097  -7.275  -5.024  1.00  0.00     0.034 A 
HETATM    7  C21 UNL     1       8.882  -7.413  -6.151  1.00  0.00     0.043 A 
HETATM    8  C22 UNL     1       9.913  -6.546  -6.450  1.00  0.00    -0.003 A 
ENDROOT
BRANCH   8   9
HETATM    9  C23 UNL     1      10.686  -6.822  -7.685  1.00  0.00    -0.024 A 
HETATM   10  C24 UNL     1      10.215  -6.325  -8.880  1.00  0.00     0.014 A 
HETATM   11  C25 UNL     1      10.926  -6.591 -10.026  1.00  0.00     0.026 A 
HETATM   12  C26 UNL     1      12.083  -7.331 -10.027  1.00  0.00     0.079 A 
HETATM   13  C27 UNL     1      12.522  -7.811  -8.818  1.00  0.00     0.026 A 
HETATM   14  C28 UNL     1      11.842  -7.566  -7.660  1.00  0.00     0.014 A 
BRANCH  12  15
HETATM   15  S1  UNL     1      12.972  -7.653 -11.518  1.00  0.00     0.256 S 
HETATM   16  O1  UNL     1      14.200  -8.457 -11.184  1.00  0.00    -0.201 OA
HETATM   17  O2  UNL     1      13.349  -6.346 -12.127  1.00  0.00    -0.201 OA
BRANCH  15  18
HETATM   18  N7  UNL     1      11.934  -8.581 -12.535  1.00  0.00    -0.324 N 
ATOM     19  H72 UNL     1      11.929  -9.598 -12.611  1.00  0.00     0.169 HD
ATOM     20  H71 UNL     1      11.338  -7.921 -13.035  1.00  0.00     0.169 HD
ENDBRANCH  15  18
ENDBRANCH  12  15
ENDBRANCH   8   9
BRANCH   6  21
HETATM   21  N2  UNL     1       7.031  -8.155  -4.696  1.00  0.00    -0.342 N 
ATOM     22  H2  UNL     1       6.568  -8.716  -5.411  1.00  0.00     0.167 HD
BRANCH  21  23
HETATM   23  C6  UNL     1       6.670  -8.217  -3.459  1.00  0.00     0.119 A 
HETATM   24  N3  UNL     1       5.538  -7.616  -3.002  1.00  0.00    -0.338 N 
HETATM   25  C7  UNL     1       5.278  -7.755  -1.696  1.00  0.00     0.182 A 
ATOM     26  H3  UNL     1       4.921  -7.089  -3.621  1.00  0.00     0.168 HD
HETATM   27  N4  UNL     1       6.048  -8.436  -0.834  1.00  0.00    -0.352 N 
HETATM   28  C8  UNL     1       7.174  -9.041  -1.258  1.00  0.00     0.048 A 
ATOM     29  H4  UNL     1       5.780  -8.495   0.149  1.00  0.00     0.166 HD
HETATM   30  C9  UNL     1       8.004  -9.749  -0.436  1.00  0.00     0.045 A 
HETATM   31  C20 UNL     1       7.483  -8.923  -2.600  1.00  0.00     0.037 A 
HETATM   32  C10 UNL     1       9.139 -10.338  -0.954  1.00  0.00     0.012 A 
HETATM   33  C11 UNL     1      10.158 -11.106  -0.382  1.00  0.00     0.121 A 
HETATM   34  C18 UNL     1       9.488 -10.247  -2.291  1.00  0.00     0.069 A 
HETATM   35  N5  UNL     1      11.039 -11.430  -1.358  1.00  0.00    -0.304 N 
HETATM   36  N6  UNL     1      10.637 -10.913  -2.506  1.00  0.00    -0.256 N 
ATOM     37  H5  UNL     1      11.883 -11.987  -1.228  1.00  0.00     0.186 HD
HETATM   38  C19 UNL     1       8.622  -9.520  -3.095  1.00  0.00     0.050 A 
BRANCH  36  39
HETATM   39  C12 UNL     1      11.298 -11.035  -3.768  1.00  0.00     0.057 A 
HETATM   40  C13 UNL     1      11.280 -12.231  -4.462  1.00  0.00     0.031 A 
HETATM   41  C14 UNL     1      11.909 -12.379  -5.680  1.00  0.00     0.002 A 
HETATM   42  C15 UNL     1      12.575 -11.304  -6.221  1.00  0.00     0.000 A 
HETATM   43  C16 UNL     1      12.604 -10.104  -5.543  1.00  0.00     0.002 A 
HETATM   44  C17 UNL     1      11.968  -9.981  -4.327  1.00  0.00     0.031 A 
ENDBRANCH  36  39
ENDBRANCH  21  23
ENDBRANCH   6  21
TORSDOF 6
ENDMDL
MODEL 5
REMARK VINA RESULT: -11.061925931      2.850      5.129
REMARK  6 active torsions:
REMARK  status: ('A' for Active; 'I' for Inactive)
REMARK    1  A    between atoms: C5_6  and  N2_7 
REMARK    2  A    between atoms: N2_7  and  C6_9 
REMARK    3  A    between atoms: N6_21  and  C12_22 
REMARK    4  A    between atoms: C22_32  and  C23_33 
REMARK    5  A    between atoms: C26_36  and  S1_37 
REMARK    6  A    between atoms: S1_37  and  N7_38 
ROOT
HETATM    1  N1  UNL     1      10.500  -8.828  -0.771  1.00  0.00    -0.191 NA
HETATM    2  C1  UNL     1       9.498  -8.312  -1.095  1.00  0.00     0.100 C 
HETATM    3  C2  UNL     1       8.280  -7.656  -1.475  1.00  0.00     0.055 A 
HETATM    4  C3  UNL     1       7.330  -7.336  -0.524  1.00  0.00     0.026 A 
HETATM    5  C4  UNL     1       6.169  -6.693  -0.900  1.00  0.00     0.031 A 
HETATM    6  C5  UNL     1       5.910  -6.349  -2.215  1.00  0.00     0.034 A 
HETATM    7  C21 UNL     1       6.882  -6.685  -3.136  1.00  0.00     0.043 A 
HETATM    8  C22 UNL     1       8.050  -7.328  -2.783  1.00  0.00    -0.003 A 
ENDROOT
BRANCH   8   9
HETATM    9  C23 UNL     1       9.000  -7.643  -3.877  1.00  0.00    -0.024 A 
HETATM   10  C24 UNL     1       8.719  -8.706  -4.707  1.00  0.00     0.014 A 
HETATM   11  C25 UNL     1       9.606  -9.003  -5.714  1.00  0.00     0.026 A 
HETATM   12  C26 UNL     1      10.758  -8.285  -5.925  1.00  0.00     0.079 A 
HETATM   13  C27 UNL     1      11.006  -7.233  -5.079  1.00  0.00     0.026 A 
HETATM   14  C28 UNL     1      10.147  -6.909  -4.068  1.00  0.00     0.014 A 
BRANCH  12  15
HETATM   15  S1  UNL     1      11.875  -8.694  -7.230  1.00  0.00     0.256 S 
HETATM   16  O1  UNL     1      13.282  -8.620  -6.701  1.00  0.00    -0.201 OA
HETATM   17  O2  UNL     1      11.676  -7.716  -8.336  1.00  0.00    -0.201 OA
BRANCH  15  18
HETATM   18  N7  UNL     1      11.523 -10.313  -7.707  1.00  0.00    -0.324 N 
ATOM     19  H72 UNL     1      11.250 -11.072  -7.083  1.00  0.00     0.169 HD
ATOM     20  H71 UNL     1      11.641 -10.359  -8.719  1.00  0.00     0.169 HD
ENDBRANCH  15  18
ENDBRANCH  12  15
ENDBRANCH   8   9
BRANCH   6  21
HETATM   21  N2  UNL     1       4.699  -5.688  -2.555  1.00  0.00    -0.342 N 
ATOM     22  H2  UNL     1       4.027  -6.110  -3.196  1.00  0.00     0.167 HD
BRANCH  21  23
HETATM   23  C6  UNL     1       4.482  -4.533  -2.023  1.00  0.00     0.119 A 
HETATM   24  N3  UNL     1       3.640  -4.368  -0.967  1.00  0.00    -0.338 N 
HETATM   25  C7  UNL     1       3.502  -3.118  -0.508  1.00  0.00     0.182 A 
ATOM     26  H3  UNL     1       3.141  -5.153  -0.548  1.00  0.00     0.168 HD
HETATM   27  N4  UNL     1       4.131  -2.046  -1.015  1.00  0.00    -0.352 N 
HETATM   28  C8  UNL     1       4.970  -2.180  -2.059  1.00  0.00     0.048 A 
ATOM     29  H4  UNL     1       3.971  -1.125  -0.607  1.00  0.00     0.166 HD
HETATM   30  C9  UNL     1       5.642  -1.134  -2.625  1.00  0.00     0.045 A 
HETATM   31  C20 UNL     1       5.143  -3.454  -2.566  1.00  0.00     0.037 A 
HETATM   32  C10 UNL     1       6.484  -1.361  -3.693  1.00  0.00     0.012 A 
HETATM   33  C11 UNL     1       7.289  -0.517  -4.467  1.00  0.00     0.121 A 
HETATM   34  C18 UNL     1       6.688  -2.618  -4.234  1.00  0.00     0.069 A 
HETATM   35  N5  UNL     1       7.915  -1.273  -5.399  1.00  0.00    -0.304 N 
HETATM   36  N6  UNL     1       7.554  -2.536  -5.260  1.00  0.00    -0.256 N 
ATOM     37  H5  UNL     1       8.566  -0.920  -6.101  1.00  0.00     0.186 HD
HETATM   38  C19 UNL     1       5.990  -3.656  -3.635  1.00  0.00     0.050 A 
BRANCH  36  39
HETATM   39  C12 UNL     1       8.001  -3.637  -6.057  1.00  0.00     0.057 A 
HETATM   40  C13 UNL     1       7.173  -4.717  -6.296  1.00  0.00     0.031 A 
HETATM   41  C14 UNL     1       7.575  -5.792  -7.060  1.00  0.00     0.002 A 
HETATM   42  C15 UNL     1       8.841  -5.790  -7.598  1.00  0.00     0.000 A 
HETATM   43  C16 UNL     1       9.681  -4.722  -7.369  1.00  0.00     0.002 A 
HETATM   44  C17 UNL     1       9.255  -3.659  -6.603  1.00  0.00     0.031 A 
ENDBRANCH  36  39
ENDBRANCH  21  23
ENDBRANCH   6  21
TORSDOF 6
ENDMDL
