MODEL 1
REMARK VINA RESULT: -11.218581220      0.000      0.000
REMARK  5 active torsions:
REMARK  status: ('A' for Active; 'I' for Inactive)
REMARK    1  A    between atoms: S1_2  and  C2_5 
REMARK    2  A    between atoms: C6_11  and  C7_12 
REMARK    3  A    between atoms: C19_28  and  N4_29 
REMARK    4  A    between atoms: N4_29  and  C20_30 
REMARK    5  A    between atoms: C20_30  and  C21_31 
ROOT
HETATM    1  C2  UNL     1      11.899  -7.406  -8.895  1.00  0.00     0.061 A 
HETATM    2  C3  UNL     1      11.434  -8.686  -8.598  1.00  0.00     0.026 A 
HETATM    3  C4  UNL     1      11.017  -9.012  -7.322  1.00  0.00     0.033 A 
HETATM    4  C5  UNL     1      11.036  -8.104  -6.283  1.00  0.00     0.059 A 
HETATM    5  N1  UNL     1      10.625  -8.429  -5.044  1.00  0.00    -0.350 N 
ATOM      6  H1  UNL     1      10.293  -9.379  -4.879  1.00  0.00     0.166 HD
HETATM    7  C6  UNL     1      10.629  -7.574  -4.017  1.00  0.00     0.104 A 
HETATM    8  C19 UNL     1      11.094  -6.274  -4.282  1.00  0.00     0.206 A 
HETATM    9  N6  UNL     1      11.511  -5.960  -5.566  1.00  0.00    -0.327 N 
ATOM     10  H6  UNL     1      11.846  -5.014  -5.751  1.00  0.00     0.168 HD
HETATM   11  C27 UNL     1      11.493  -6.835  -6.565  1.00  0.00     0.062 A 
HETATM   12  C28 UNL     1      11.911  -6.512  -7.850  1.00  0.00     0.055 A 
ENDROOT
BRANCH   7  13
HETATM   13  C7  UNL     1      10.176  -7.958  -2.683  1.00  0.00     0.025 A 
HETATM   14  C8  UNL     1      10.925  -8.745  -1.836  1.00  0.00     0.016 A 
HETATM   15  C9  UNL     1      10.496  -9.083  -0.562  1.00  0.00     0.003 A 
HETATM   16  C10 UNL     1       9.285  -8.627  -0.102  1.00  0.00     0.032 A 
HETATM   17  C11 UNL     1       8.519  -7.835  -0.938  1.00  0.00     0.060 A 
HETATM   18  N2  UNL     1       7.327  -7.377  -0.513  1.00  0.00    -0.353 N 
HETATM   19  C18 UNL     1       8.965  -7.503  -2.220  1.00  0.00     0.072 A 
HETATM   20  C12 UNL     1       6.574  -6.606  -1.327  1.00  0.00     0.059 A 
ATOM     21  H2  UNL     1       6.992  -7.613   0.421  1.00  0.00     0.166 HD
HETATM   22  C13 UNL     1       5.336  -6.136  -0.880  1.00  0.00     0.032 A 
HETATM   23  C17 UNL     1       7.022  -6.284  -2.591  1.00  0.00     0.059 A 
HETATM   24  C14 UNL     1       4.591  -5.353  -1.730  1.00  0.00     0.002 A 
HETATM   25  C15 UNL     1       5.058  -5.043  -2.992  1.00  0.00     0.002 A 
HETATM   26  C16 UNL     1       6.272  -5.493  -3.456  1.00  0.00     0.032 A 
HETATM   27  N3  UNL     1       8.224  -6.740  -3.032  1.00  0.00    -0.352 N 
ATOM     28  H3  UNL     1       8.557  -6.503  -3.967  1.00  0.00     0.166 HD
ENDBRANCH   7  13
BRANCH   8  29
HETATM   29  N4  UNL     1      11.139  -5.459  -3.412  1.00  0.00    -0.397 NA
BRANCH  29  30
HETATM   30  C20 UNL     1      11.193  -4.539  -2.445  1.00  0.00     0.196 C 
BRANCH  30  31
HETATM   31  C21 UNL     1      10.416  -3.268  -2.718  1.00  0.00    -0.007 A 
HETATM   32  C22 UNL     1      11.022  -2.066  -2.975  1.00  0.00     0.016 A 
HETATM   33  C23 UNL     1      10.280  -0.914  -3.225  1.00  0.00     0.027 A 
HETATM   34  C24 UNL     1       8.905  -0.983  -3.213  1.00  0.00     0.046 A 
HETATM   35  N5  UNL     1       8.081   0.152  -3.461  1.00  0.00    -0.102 NA
HETATM   36  C25 UNL     1       8.277  -2.171  -2.959  1.00  0.00     0.027 A 
HETATM   37  C26 UNL     1       9.041  -3.295  -2.716  1.00  0.00     0.016 A 
ENDBRANCH  30  31
ENDBRANCH  29  30
ENDBRANCH   8  29
BRANCH   1  38
HETATM   38  S1  UNL     1      12.427  -7.002 -10.513  1.00  0.00     0.172 S 
HETATM   39  C1  UNL     1      14.099  -7.454 -10.813  1.00  0.00     0.167 C 
HETATM   40  O1  UNL     1      11.543  -7.712 -11.503  1.00  0.00    -0.223 OA
HETATM   41  O2  UNL     1      12.288  -5.531 -10.789  1.00  0.00    -0.223 OA
ENDBRANCH   1  38
TORSDOF 5
ENDMDL
MODEL 2
REMARK VINA RESULT: -11.065785905      3.044      3.645
REMARK  5 active torsions:
REMARK  status: ('A' for Active; 'I' for Inactive)
REMARK    1  A    between atoms: S1_2  and  C2_5 
REMARK    2  A    between atoms: C6_11  and  C7_12 
REMARK    3  A    between atoms: C19_28  and  N4_29 
REMARK    4  A    between atoms: N4_29  and  C20_30 
REMARK    5  A    between atoms: C20_30  and  C21_31 
ROOT
HETATM    1  C2  UNL     1      12.593  -7.041 -10.094  1.00  0.00     0.061 A 
HETATM    2  C3  UNL     1      12.658  -7.874  -8.979  1.00  0.00     0.026 A 
HETATM    3  C4  UNL     1      12.421  -7.381  -7.709  1.00  0.00     0.033 A 
HETATM    4  C5  UNL     1      12.113  -6.057  -7.475  1.00  0.00     0.059 A 
HETATM    5  N1  UNL     1      11.882  -5.587  -6.237  1.00  0.00    -0.350 N 
ATOM      6  H1  UNL     1      11.940  -6.238  -5.454  1.00  0.00     0.166 HD
HETATM    7  C6  UNL     1      11.580  -4.311  -5.976  1.00  0.00     0.104 A 
HETATM    8  C19 UNL     1      11.508  -3.443  -7.079  1.00  0.00     0.206 A 
HETATM    9  N6  UNL     1      11.748  -3.949  -8.347  1.00  0.00    -0.327 N 
ATOM     10  H6  UNL     1      11.694  -3.313  -9.143  1.00  0.00     0.168 HD
HETATM   11  C27 UNL     1      12.046  -5.224  -8.571  1.00  0.00     0.062 A 
HETATM   12  C28 UNL     1      12.284  -5.724  -9.845  1.00  0.00     0.055 A 
ENDROOT
BRANCH   7  13
HETATM   13  C7  UNL     1      11.334  -3.832  -4.619  1.00  0.00     0.025 A 
HETATM   14  C8  UNL     1      12.346  -3.476  -3.756  1.00  0.00     0.016 A 
HETATM   15  C9  UNL     1      12.101  -2.998  -2.478  1.00  0.00     0.003 A 
HETATM   16  C10 UNL     1      10.809  -2.863  -2.032  1.00  0.00     0.032 A 
HETATM   17  C11 UNL     1       9.778  -3.215  -2.885  1.00  0.00     0.060 A 
HETATM   18  N2  UNL     1       8.503  -3.095  -2.473  1.00  0.00    -0.353 N 
HETATM   19  C18 UNL     1      10.042  -3.696  -4.170  1.00  0.00     0.072 A 
HETATM   20  C12 UNL     1       7.493  -3.440  -3.301  1.00  0.00     0.059 A 
ATOM     21  H2  UNL     1       8.299  -2.745  -1.537  1.00  0.00     0.166 HD
HETATM   22  C13 UNL     1       6.171  -3.315  -2.865  1.00  0.00     0.032 A 
HETATM   23  C17 UNL     1       7.762  -3.914  -4.568  1.00  0.00     0.059 A 
HETATM   24  C14 UNL     1       5.163  -3.675  -3.729  1.00  0.00     0.002 A 
HETATM   25  C15 UNL     1       5.455  -4.147  -4.993  1.00  0.00     0.002 A 
HETATM   26  C16 UNL     1       6.747  -4.280  -5.446  1.00  0.00     0.032 A 
HETATM   27  N3  UNL     1       9.047  -4.040  -4.996  1.00  0.00    -0.352 N 
ATOM     28  H3  UNL     1       9.248  -4.390  -5.932  1.00  0.00     0.166 HD
ENDBRANCH   7  13
BRANCH   8  29
HETATM   29  N4  UNL     1      11.256  -2.288  -6.923  1.00  0.00    -0.397 NA
BRANCH  29  30
HETATM   30  C20 UNL     1      10.982  -0.991  -6.757  1.00  0.00     0.196 C 
BRANCH  30  31
HETATM   31  C21 UNL     1       9.739  -0.693  -5.944  1.00  0.00    -0.007 A 
HETATM   32  C22 UNL     1       9.786  -0.266  -4.642  1.00  0.00     0.016 A 
HETATM   33  C23 UNL     1       8.625   0.003  -3.921  1.00  0.00     0.027 A 
HETATM   34  C24 UNL     1       7.400  -0.162  -4.529  1.00  0.00     0.046 A 
HETATM   35  N5  UNL     1       6.172   0.095  -3.855  1.00  0.00    -0.102 NA
HETATM   36  C25 UNL     1       7.328  -0.587  -5.827  1.00  0.00     0.027 A 
HETATM   37  C26 UNL     1       8.496  -0.845  -6.515  1.00  0.00     0.016 A 
ENDBRANCH  30  31
ENDBRANCH  29  30
ENDBRANCH   8  29
BRANCH   1  38
HETATM   38  S1  UNL     1      12.895  -7.671 -11.698  1.00  0.00     0.172 S 
HETATM   39  C1  UNL     1      14.174  -8.877 -11.722  1.00  0.00     0.167 C 
HETATM   40  O1  UNL     1      11.627  -8.292 -12.221  1.00  0.00    -0.223 OA
HETATM   41  O2  UNL     1      13.269  -6.579 -12.660  1.00  0.00    -0.223 OA
ENDBRANCH   1  38
TORSDOF 5
ENDMDL
MODEL 3
REMARK VINA RESULT: -10.974948552      1.363      1.770
REMARK  5 active torsions:
REMARK  status: ('A' for Active; 'I' for Inactive)
REMARK    1  A    between atoms: S1_2  and  C2_5 
REMARK    2  A    between atoms: C6_11  and  C7_12 
REMARK    3  A    between atoms: C19_28  and  N4_29 
REMARK    4  A    between atoms: N4_29  and  C20_30 
REMARK    5  A    between atoms: C20_30  and  C21_31 
ROOT
HETATM    1  C2  UNL     1      12.436  -7.644 -10.033  1.00  0.00     0.061 A 
HETATM    2  C3  UNL     1      11.718  -8.775  -9.648  1.00  0.00     0.026 A 
HETATM    3  C4  UNL     1      11.166  -8.870  -8.385  1.00  0.00     0.033 A 
HETATM    4  C5  UNL     1      11.293  -7.868  -7.444  1.00  0.00     0.059 A 
HETATM    5  N1  UNL     1      10.751  -7.968  -6.217  1.00  0.00    -0.350 N 
ATOM      6  H1  UNL     1      10.233  -8.816  -5.986  1.00  0.00     0.166 HD
HETATM    7  C6  UNL     1      10.854  -7.016  -5.285  1.00  0.00     0.104 A 
HETATM    8  C19 UNL     1      11.575  -5.863  -5.640  1.00  0.00     0.206 A 
HETATM    9  N6  UNL     1      12.124  -5.780  -6.910  1.00  0.00    -0.327 N 
ATOM     10  H6  UNL     1      12.645  -4.939  -7.161  1.00  0.00     0.168 HD
HETATM   11  C27 UNL     1      12.002  -6.745  -7.814  1.00  0.00     0.062 A 
HETATM   12  C28 UNL     1      12.554  -6.654  -9.086  1.00  0.00     0.055 A 
ENDROOT
BRANCH   7  13
HETATM   13  C7  UNL     1      10.253  -7.156  -3.962  1.00  0.00     0.025 A 
HETATM   14  C8  UNL     1      10.795  -7.946  -2.973  1.00  0.00     0.016 A 
HETATM   15  C9  UNL     1      10.230  -8.051  -1.712  1.00  0.00     0.003 A 
HETATM   16  C10 UNL     1       9.088  -7.350  -1.410  1.00  0.00     0.032 A 
HETATM   17  C11 UNL     1       8.529  -6.550  -2.391  1.00  0.00     0.060 A 
HETATM   18  N2  UNL     1       7.409  -5.854  -2.123  1.00  0.00    -0.353 N 
HETATM   19  C18 UNL     1       9.110  -6.455  -3.658  1.00  0.00     0.072 A 
HETATM   20  C12 UNL     1       6.857  -5.074  -3.078  1.00  0.00     0.059 A 
ATOM     21  H2  UNL     1       6.976  -5.916  -1.202  1.00  0.00     0.166 HD
HETATM   22  C13 UNL     1       5.693  -4.356  -2.793  1.00  0.00     0.032 A 
HETATM   23  C17 UNL     1       7.438  -4.986  -4.326  1.00  0.00     0.059 A 
HETATM   24  C14 UNL     1       5.153  -3.570  -3.785  1.00  0.00     0.002 A 
HETATM   25  C15 UNL     1       5.750  -3.497  -5.028  1.00  0.00     0.002 A 
HETATM   26  C16 UNL     1       6.896  -4.194  -5.333  1.00  0.00     0.032 A 
HETATM   27  N3  UNL     1       8.570  -5.684  -4.609  1.00  0.00    -0.352 N 
ATOM     28  H3  UNL     1       9.000  -5.621  -5.531  1.00  0.00     0.166 HD
ENDBRANCH   7  13
BRANCH   8  29
HETATM   29  N4  UNL     1      11.720  -4.976  -4.856  1.00  0.00    -0.397 NA
BRANCH  29  30
HETATM   30  C20 UNL     1      11.890  -3.978  -3.985  1.00  0.00     0.196 C 
BRANCH  30  31
HETATM   31  C21 UNL     1      10.714  -3.034  -3.845  1.00  0.00    -0.007 A 
HETATM   32  C22 UNL     1       9.996  -2.906  -2.685  1.00  0.00     0.016 A 
HETATM   33  C23 UNL     1       8.920  -2.027  -2.585  1.00  0.00     0.027 A 
HETATM   34  C24 UNL     1       8.568  -1.268  -3.679  1.00  0.00     0.046 A 
HETATM   35  N5  UNL     1       7.481  -0.348  -3.652  1.00  0.00    -0.102 NA
HETATM   36  C25 UNL     1       9.268  -1.379  -4.848  1.00  0.00     0.027 A 
HETATM   37  C26 UNL     1      10.330  -2.258  -4.914  1.00  0.00     0.016 A 
ENDBRANCH  30  31
ENDBRANCH  29  30
ENDBRANCH   8  29
BRANCH   1  38
HETATM   38  S1  UNL     1      13.133  -7.532 -11.634  1.00  0.00     0.172 S 
HETATM   39  C1  UNL     1      14.704  -8.311 -11.745  1.00  0.00     0.167 C 
HETATM   40  O1  UNL     1      12.194  -8.180 -12.616  1.00  0.00    -0.223 OA
HETATM   41  O2  UNL     1      13.292  -6.102 -12.068  1.00  0.00    -0.223 OA
ENDBRANCH   1  38
TORSDOF 5
ENDMDL
MODEL 4
REMARK VINA RESULT: -10.821352166      2.260      4.742
REMARK  5 active torsions:
REMARK  status: ('A' for Active; 'I' for Inactive)
REMARK    1  A    between atoms: S1_2  and  C2_5 
REMARK    2  A    between atoms: C6_11  and  C7_12 
REMARK    3  A    between atoms: C19_28  and  N4_29 
REMARK    4  A    between atoms: N4_29  and  C20_30 
REMARK    5  A    between atoms: C20_30  and  C21_31 
ROOT
HETATM    1  C2  UNL     1      12.982  -7.497 -10.413  1.00  0.00     0.061 A 
HETATM    2  C3  UNL     1      14.079  -7.281  -9.580  1.00  0.00     0.026 A 
HETATM    3  C4  UNL     1      13.907  -6.872  -8.272  1.00  0.00     0.033 A 
HETATM    4  C5  UNL     1      12.660  -6.656  -7.721  1.00  0.00     0.059 A 
HETATM    5  N1  UNL     1      12.502  -6.260  -6.446  1.00  0.00    -0.350 N 
ATOM      6  H1  UNL     1      13.338  -6.118  -5.877  1.00  0.00     0.166 HD
HETATM    7  C6  UNL     1      11.310  -6.044  -5.882  1.00  0.00     0.104 A 
HETATM    8  C19 UNL     1      10.183  -6.251  -6.695  1.00  0.00     0.206 A 
HETATM    9  N6  UNL     1      10.368  -6.660  -8.006  1.00  0.00    -0.327 N 
ATOM     10  H6  UNL     1       9.545  -6.810  -8.591  1.00  0.00     0.168 HD
HETATM   11  C27 UNL     1      11.568  -6.867  -8.536  1.00  0.00     0.062 A 
HETATM   12  C28 UNL     1      11.746  -7.278  -9.851  1.00  0.00     0.055 A 
ENDROOT
BRANCH   7  13
HETATM   13  C7  UNL     1      11.173  -5.615  -4.493  1.00  0.00     0.025 A 
HETATM   14  C8  UNL     1      11.328  -4.306  -4.095  1.00  0.00     0.016 A 
HETATM   15  C9  UNL     1      11.170  -3.905  -2.778  1.00  0.00     0.003 A 
HETATM   16  C10 UNL     1      10.845  -4.828  -1.814  1.00  0.00     0.032 A 
HETATM   17  C11 UNL     1      10.684  -6.148  -2.195  1.00  0.00     0.060 A 
HETATM   18  N2  UNL     1      10.368  -7.074  -1.270  1.00  0.00    -0.353 N 
HETATM   19  C18 UNL     1      10.847  -6.537  -3.527  1.00  0.00     0.072 A 
HETATM   20  C12 UNL     1      10.213  -8.364  -1.636  1.00  0.00     0.059 A 
ATOM     21  H2  UNL     1      10.247  -6.801  -0.295  1.00  0.00     0.166 HD
HETATM   22  C13 UNL     1       9.887  -9.320  -0.670  1.00  0.00     0.032 A 
HETATM   23  C17 UNL     1      10.375  -8.739  -2.953  1.00  0.00     0.059 A 
HETATM   24  C14 UNL     1       9.735 -10.627  -1.072  1.00  0.00     0.002 A 
HETATM   25  C15 UNL     1       9.903 -10.980  -2.396  1.00  0.00     0.002 A 
HETATM   26  C16 UNL     1      10.225 -10.059  -3.365  1.00  0.00     0.032 A 
HETATM   27  N3  UNL     1      10.695  -7.814  -3.897  1.00  0.00    -0.352 N 
ATOM     28  H3  UNL     1      10.816  -8.088  -4.872  1.00  0.00     0.166 HD
ENDBRANCH   7  13
BRANCH   8  29
HETATM   29  N4  UNL     1       9.086  -6.066  -6.266  1.00  0.00    -0.397 NA
BRANCH  29  30
HETATM   30  C20 UNL     1       7.858  -5.869  -5.778  1.00  0.00     0.196 C 
BRANCH  30  31
HETATM   31  C21 UNL     1       7.421  -6.849  -4.710  1.00  0.00    -0.007 A 
HETATM   32  C22 UNL     1       7.220  -6.486  -3.404  1.00  0.00     0.016 A 
HETATM   33  C23 UNL     1       6.815  -7.411  -2.443  1.00  0.00     0.027 A 
HETATM   34  C24 UNL     1       6.613  -8.722  -2.814  1.00  0.00     0.046 A 
HETATM   35  N5  UNL     1       6.198  -9.722  -1.888  1.00  0.00    -0.102 NA
HETATM   36  C25 UNL     1       6.808  -9.108  -4.111  1.00  0.00     0.027 A 
HETATM   37  C26 UNL     1       7.208  -8.168  -5.039  1.00  0.00     0.016 A 
ENDBRANCH  30  31
ENDBRANCH  29  30
ENDBRANCH   8  29
BRANCH   1  38
HETATM   38  S1  UNL     1      13.208  -8.013 -12.070  1.00  0.00     0.172 S 
HETATM   39  C1  UNL     1      14.537  -9.148 -12.251  1.00  0.00     0.167 C 
HETATM   40  O1  UNL     1      11.938  -8.664 -12.550  1.00  0.00    -0.223 OA
HETATM   41  O2  UNL     1      13.466  -6.847 -12.981  1.00  0.00    -0.223 OA
ENDBRANCH   1  38
TORSDOF 5
ENDMDL
MODEL 5
REMARK VINA RESULT: -10.768492364      2.367      3.574
REMARK  5 active torsions:
REMARK  status: ('A' for Active; 'I' for Inactive)
REMARK    1  A    between atoms: S1_2  and  C2_5 
REMARK    2  A    between atoms: C6_11  and  C7_12 
REMARK    3  A    between atoms: C19_28  and  N4_29 
REMARK    4  A    between atoms: N4_29  and  C20_30 
REMARK    5  A    between atoms: C20_30  and  C21_31 
ROOT
HETATM    1  C2  UNL     1      13.000  -7.088 -10.223  1.00  0.00     0.061 A 
HETATM    2  C3  UNL     1      13.477  -7.717  -9.075  1.00  0.00     0.026 A 
HETATM    3  C4  UNL     1      13.213  -7.203  -7.821  1.00  0.00     0.033 A 
HETATM    4  C5  UNL     1      12.473  -6.053  -7.633  1.00  0.00     0.059 A 
HETATM    5  N1  UNL     1      12.219  -5.560  -6.408  1.00  0.00    -0.350 N 
ATOM      6  H1  UNL     1      12.590  -6.060  -5.600  1.00  0.00     0.166 HD
HETATM    7  C6  UNL     1      11.505  -4.451  -6.192  1.00  0.00     0.104 A 
HETATM    8  C19 UNL     1      11.010  -3.789  -7.329  1.00  0.00     0.206 A 
HETATM    9  N6  UNL     1      11.283  -4.315  -8.582  1.00  0.00    -0.327 N 
ATOM     10  H6  UNL     1      10.920  -3.830  -9.403  1.00  0.00     0.168 HD
HETATM   11  C27 UNL     1      11.996  -5.421  -8.762  1.00  0.00     0.062 A 
HETATM   12  C28 UNL     1      12.264  -5.943 -10.021  1.00  0.00     0.055 A 
ENDROOT
BRANCH   7  13
HETATM   13  C7  UNL     1      11.247  -3.942  -4.848  1.00  0.00     0.025 A 
HETATM   14  C8  UNL     1      12.014  -2.963  -4.257  1.00  0.00     0.016 A 
HETATM   15  C9  UNL     1      11.744  -2.469  -2.991  1.00  0.00     0.003 A 
HETATM   16  C10 UNL     1      10.676  -2.956  -2.277  1.00  0.00     0.032 A 
HETATM   17  C11 UNL     1       9.892  -3.940  -2.855  1.00  0.00     0.060 A 
HETATM   18  N2  UNL     1       8.841  -4.437  -2.177  1.00  0.00    -0.353 N 
HETATM   19  C18 UNL     1      10.178  -4.428  -4.132  1.00  0.00     0.072 A 
HETATM   20  C12 UNL     1       8.075  -5.399  -2.735  1.00  0.00     0.059 A 
ATOM     21  H2  UNL     1       8.624  -4.088  -1.243  1.00  0.00     0.166 HD
HETATM   22  C13 UNL     1       6.987  -5.912  -2.024  1.00  0.00     0.032 A 
HETATM   23  C17 UNL     1       8.365  -5.875  -3.996  1.00  0.00     0.059 A 
HETATM   24  C14 UNL     1       6.225  -6.892  -2.617  1.00  0.00     0.002 A 
HETATM   25  C15 UNL     1       6.533  -7.354  -3.881  1.00  0.00     0.002 A 
HETATM   26  C16 UNL     1       7.598  -6.866  -4.600  1.00  0.00     0.032 A 
HETATM   27  N3  UNL     1       9.424  -5.381  -4.691  1.00  0.00    -0.352 N 
ATOM     28  H3  UNL     1       9.640  -5.732  -5.624  1.00  0.00     0.166 HD
ENDBRANCH   7  13
BRANCH   8  29
HETATM   29  N4  UNL     1      10.376  -2.786  -7.216  1.00  0.00    -0.397 NA
BRANCH  29  30
HETATM   30  C20 UNL     1       9.666  -1.661  -7.100  1.00  0.00     0.196 C 
BRANCH  30  31
HETATM   31  C21 UNL     1       8.814  -1.558  -5.852  1.00  0.00    -0.007 A 
HETATM   32  C22 UNL     1       7.734  -2.368  -5.619  1.00  0.00     0.016 A 
HETATM   33  C23 UNL     1       6.971  -2.252  -4.459  1.00  0.00     0.027 A 
HETATM   34  C24 UNL     1       7.311  -1.300  -3.523  1.00  0.00     0.046 A 
HETATM   35  N5  UNL     1       6.579  -1.124  -2.314  1.00  0.00    -0.102 NA
HETATM   36  C25 UNL     1       8.384  -0.480  -3.733  1.00  0.00     0.027 A 
HETATM   37  C26 UNL     1       9.120  -0.621  -4.892  1.00  0.00     0.016 A 
ENDBRANCH  30  31
ENDBRANCH  29  30
ENDBRANCH   8  29
BRANCH   1  38
HETATM   38  S1  UNL     1      13.340  -7.744 -11.809  1.00  0.00     0.172 S 
HETATM   39  C1  UNL     1      14.779  -8.753 -11.830  1.00  0.00     0.167 C 
HETATM   40  O1  UNL     1      12.160  -8.565 -12.256  1.00  0.00    -0.223 OA
HETATM   41  O2  UNL     1      13.520  -6.657 -12.830  1.00  0.00    -0.223 OA
ENDBRANCH   1  38
TORSDOF 5
ENDMDL
