MODEL 1
REMARK VINA RESULT: -7.575304138      0.000      0.000
REMARK  10 active torsions:
REMARK  status: ('A' for Active; 'I' for Inactive)
REMARK    1  A    between atoms: N1_1  and  N2_4 
REMARK    2  A    between atoms: N2_4  and  N3_5 
REMARK       I    between atoms: N3_5  and  C1_7 
REMARK       I    between atoms: C1_7  and  N4_9 
REMARK    3  A    between atoms: N4_9  and  N5_11 
REMARK    4  A    between atoms: C2_13  and  C3_14 
REMARK    5  A    between atoms: C5_16  and  N6_17 
REMARK    6  A    between atoms: C6_22  and  N8_23 
REMARK    7  A    between atoms: N8_23  and  C7_24 
REMARK       I    between atoms: N8_23  and  C9_32 
REMARK    8  A    between atoms: C7_24  and  C8_25 
REMARK       I    between atoms: C8_25  and  N9_27 
REMARK    9  A    between atoms: N9_27  and  N10_29 
REMARK   10  A    between atoms: C9_32  and  C10_34 
ROOT
HETATM    1  C3  UNL     1      15.147   0.931  20.269  1.00  0.00     0.029 A 
HETATM    2  C4  UNL     1      15.277  -0.378  19.897  1.00  0.00     0.071 A 
HETATM    3  C5  UNL     1      14.272  -0.695  19.031  1.00  0.00     0.176 A 
HETATM    4  N7  UNL     1      13.552   0.429  18.896  1.00  0.00    -0.323 N 
ATOM      5  H7  UNL     1      12.726   0.495  18.302  1.00  0.00     0.169 HD
HETATM    6  C6  UNL     1      14.018   1.444  19.609  1.00  0.00     0.124 A 
ENDROOT
BRANCH   6   7
HETATM    7  N8  UNL     1      13.565   2.797  19.778  1.00  0.00    -0.286 N 
HETATM    8  C9  UNL     1      14.060   3.827  18.983  1.00  0.00     0.314 C 
HETATM    9  O5  UNL     1      13.615   5.009  19.161  1.00  0.00    -0.262 OA
BRANCH   7  10
HETATM   10  C7  UNL     1      12.593   3.083  20.831  1.00  0.00     0.238 C 
BRANCH  10  11
HETATM   11  C8  UNL     1      13.296   3.292  22.121  1.00  0.00     0.254 C 
HETATM   12  O4  UNL     1      13.199   2.423  23.037  1.00  0.00    -0.270 OA
HETATM   13  N9  UNL     1      14.077   4.441  22.349  1.00  0.00    -0.275 N 
ATOM     14  H9  UNL     1      14.174   5.144  21.617  1.00  0.00     0.189 HD
BRANCH  13  15
HETATM   15  N10 UNL     1      14.729   4.623  23.596  1.00  0.00    -0.343 N 
ATOM     16 2H10 UNL     1      15.439   3.949  23.885  1.00  0.00     0.176 HD
ATOM     17 1H10 UNL     1      14.487   5.416  24.190  1.00  0.00     0.176 HD
ENDBRANCH  13  15
ENDBRANCH  10  11
ENDBRANCH   7  10
BRANCH   8  18
HETATM   18  C10 UNL     1      15.053   3.645  17.960  1.00  0.00     0.323 C 
HETATM   19  N11 UNL     1      14.661   3.326  16.599  1.00  0.00    -0.053 NA
HETATM   20  O6  UNL     1      16.286   3.743  18.143  1.00  0.00    -0.266 OA
ENDBRANCH   8  18
ENDBRANCH   6   7
BRANCH   1  21
HETATM   21  C2  UNL     1      16.031   1.632  21.179  1.00  0.00     0.122 C 
HETATM   22  N5  UNL     1      16.896   2.500  20.802  1.00  0.00    -0.307 N 
ATOM     23  H5  UNL     1      16.995   2.735  19.814  1.00  0.00     0.186 HD
BRANCH  22  24
HETATM   24  N4  UNL     1      17.714   3.131  21.774  1.00  0.00    -0.250 N 
HETATM   25  C1  UNL     1      17.720   4.534  21.969  1.00  0.00     0.365 C 
HETATM   26  N3  UNL     1      18.569   5.083  22.956  1.00  0.00    -0.164 N 
HETATM   27  O1  UNL     1      16.976   5.247  21.263  1.00  0.00    -0.243 OA
ATOM     28  H3  UNL     1      19.327   5.704  22.673  1.00  0.00     0.209 HD
ATOM     29  H4  UNL     1      18.320   2.552  22.356  1.00  0.00     0.192 HD
BRANCH  26  30
HETATM   30  N2  UNL     1      18.411   4.824  24.161  1.00  0.00    -0.239 NA
BRANCH  30  31
HETATM   31  N1  UNL     1      17.982   4.840  25.316  1.00  0.00    -0.260 N 
ATOM     32  H12 UNL     1      17.021   4.607  25.066  1.00  0.00     0.193 HD
ATOM     33  H11 UNL     1      17.934   4.925  26.331  1.00  0.00     0.193 HD
ENDBRANCH  30  31
ENDBRANCH  26  30
ENDBRANCH  22  24
ENDBRANCH   1  21
BRANCH   3  34
HETATM   34  N6  UNL     1      14.062  -1.960  18.412  1.00  0.00    -0.098 N 
HETATM   35  O2  UNL     1      14.647  -2.287  17.352  1.00  0.00    -0.531 OA
HETATM   36  O3  UNL     1      13.208  -2.897  18.935  1.00  0.00    -0.531 OA
ENDBRANCH   3  34
TORSDOF 10
ENDMDL
MODEL 2
REMARK VINA RESULT: -7.507842744      2.616      5.031
REMARK  10 active torsions:
REMARK  status: ('A' for Active; 'I' for Inactive)
REMARK    1  A    between atoms: N1_1  and  N2_4 
REMARK    2  A    between atoms: N2_4  and  N3_5 
REMARK       I    between atoms: N3_5  and  C1_7 
REMARK       I    between atoms: C1_7  and  N4_9 
REMARK    3  A    between atoms: N4_9  and  N5_11 
REMARK    4  A    between atoms: C2_13  and  C3_14 
REMARK    5  A    between atoms: C5_16  and  N6_17 
REMARK    6  A    between atoms: C6_22  and  N8_23 
REMARK    7  A    between atoms: N8_23  and  C7_24 
REMARK       I    between atoms: N8_23  and  C9_32 
REMARK    8  A    between atoms: C7_24  and  C8_25 
REMARK       I    between atoms: C8_25  and  N9_27 
REMARK    9  A    between atoms: N9_27  and  N10_29 
REMARK   10  A    between atoms: C9_32  and  C10_34 
ROOT
HETATM    1  C3  UNL     1      13.112   4.595  19.734  1.00  0.00     0.029 A 
HETATM    2  C4  UNL     1      12.336   5.239  18.810  1.00  0.00     0.071 A 
HETATM    3  C5  UNL     1      11.089   4.688  18.817  1.00  0.00     0.176 A 
HETATM    4  N7  UNL     1      11.133   3.721  19.745  1.00  0.00    -0.323 N 
ATOM      5  H7  UNL     1      10.335   3.128  19.974  1.00  0.00     0.169 HD
HETATM    6  C6  UNL     1      12.315   3.608  20.336  1.00  0.00     0.124 A 
ENDROOT
BRANCH   6   7
HETATM    7  N8  UNL     1      12.809   2.719  21.350  1.00  0.00    -0.286 N 
HETATM    8  C9  UNL     1      12.840   3.100  22.688  1.00  0.00     0.314 C 
HETATM    9  O5  UNL     1      13.274   2.269  23.554  1.00  0.00    -0.262 OA
BRANCH   7  10
HETATM   10  C7  UNL     1      13.316   1.409  20.946  1.00  0.00     0.238 C 
BRANCH  10  11
HETATM   11  C8  UNL     1      14.741   1.523  20.547  1.00  0.00     0.254 C 
HETATM   12  O4  UNL     1      15.060   1.437  19.325  1.00  0.00    -0.270 OA
HETATM   13  N9  UNL     1      15.753   1.729  21.504  1.00  0.00    -0.275 N 
ATOM     14  H9  UNL     1      15.510   1.811  22.492  1.00  0.00     0.189 HD
BRANCH  13  15
HETATM   15  N10 UNL     1      17.109   1.822  21.098  1.00  0.00    -0.343 N 
ATOM     16 2H10 UNL     1      17.538   1.028  20.623  1.00  0.00     0.176 HD
ATOM     17 1H10 UNL     1      17.642   2.672  21.282  1.00  0.00     0.176 HD
ENDBRANCH  13  15
ENDBRANCH  10  11
ENDBRANCH   7  10
BRANCH   8  18
HETATM   18  C10 UNL     1      12.410   4.385  23.169  1.00  0.00     0.323 C 
HETATM   19  N11 UNL     1      11.012   4.770  23.094  1.00  0.00    -0.053 NA
HETATM   20  O6  UNL     1      13.167   5.244  23.670  1.00  0.00    -0.266 OA
ENDBRANCH   8  18
ENDBRANCH   6   7
BRANCH   1  21
HETATM   21  C2  UNL     1      14.499   4.902  20.018  1.00  0.00     0.122 C 
HETATM   22  N5  UNL     1      14.887   5.556  21.051  1.00  0.00    -0.307 N 
ATOM     23  H5  UNL     1      14.206   5.895  21.732  1.00  0.00     0.186 HD
BRANCH  22  24
HETATM   24  N4  UNL     1      16.271   5.803  21.237  1.00  0.00    -0.250 N 
HETATM   25  C1  UNL     1      17.030   5.159  22.243  1.00  0.00     0.365 C 
HETATM   26  N3  UNL     1      18.404   5.466  22.365  1.00  0.00    -0.164 N 
HETATM   27  O1  UNL     1      16.465   4.337  22.996  1.00  0.00    -0.243 OA
ATOM     28  H3  UNL     1      18.742   5.917  23.215  1.00  0.00     0.209 HD
ATOM     29  H4  UNL     1      16.737   6.471  20.622  1.00  0.00     0.192 HD
BRANCH  26  30
HETATM   30  N2  UNL     1      19.209   5.198  21.457  1.00  0.00    -0.239 NA
BRANCH  30  31
HETATM   31  N1  UNL     1      19.680   4.817  20.383  1.00  0.00    -0.260 N 
ATOM     32  H12 UNL     1      20.227   5.661  20.212  1.00  0.00     0.193 HD
ATOM     33  H11 UNL     1      19.892   4.245  19.566  1.00  0.00     0.193 HD
ENDBRANCH  30  31
ENDBRANCH  26  30
ENDBRANCH  22  24
ENDBRANCH   1  21
BRANCH   3  34
HETATM   34  N6  UNL     1       9.989   5.083  18.004  1.00  0.00    -0.098 N 
HETATM   35  O2  UNL     1       8.808   4.765  18.281  1.00  0.00    -0.531 OA
HETATM   36  O3  UNL     1      10.152   5.835  16.868  1.00  0.00    -0.531 OA
ENDBRANCH   3  34
TORSDOF 10
ENDMDL
MODEL 3
REMARK VINA RESULT: -7.428560228      1.944      5.904
REMARK  10 active torsions:
REMARK  status: ('A' for Active; 'I' for Inactive)
REMARK    1  A    between atoms: N1_1  and  N2_4 
REMARK    2  A    between atoms: N2_4  and  N3_5 
REMARK       I    between atoms: N3_5  and  C1_7 
REMARK       I    between atoms: C1_7  and  N4_9 
REMARK    3  A    between atoms: N4_9  and  N5_11 
REMARK    4  A    between atoms: C2_13  and  C3_14 
REMARK    5  A    between atoms: C5_16  and  N6_17 
REMARK    6  A    between atoms: C6_22  and  N8_23 
REMARK    7  A    between atoms: N8_23  and  C7_24 
REMARK       I    between atoms: N8_23  and  C9_32 
REMARK    8  A    between atoms: C7_24  and  C8_25 
REMARK       I    between atoms: C8_25  and  N9_27 
REMARK    9  A    between atoms: N9_27  and  N10_29 
REMARK   10  A    between atoms: C9_32  and  C10_34 
ROOT
HETATM    1  C3  UNL     1      16.146   2.668  21.039  1.00  0.00     0.029 A 
HETATM    2  C4  UNL     1      17.392   2.939  21.537  1.00  0.00     0.071 A 
HETATM    3  C5  UNL     1      17.354   4.125  22.208  1.00  0.00     0.176 A 
HETATM    4  N7  UNL     1      16.086   4.551  22.104  1.00  0.00    -0.323 N 
ATOM      5  H7  UNL     1      15.754   5.424  22.514  1.00  0.00     0.169 HD
HETATM    6  C6  UNL     1      15.306   3.728  21.417  1.00  0.00     0.124 A 
ENDROOT
BRANCH   6   7
HETATM    7  N8  UNL     1      13.918   3.790  21.052  1.00  0.00    -0.286 N 
HETATM    8  C9  UNL     1      13.473   4.656  20.057  1.00  0.00     0.314 C 
HETATM    9  O5  UNL     1      12.233   4.664  19.758  1.00  0.00    -0.262 OA
BRANCH   7  10
HETATM   10  C7  UNL     1      12.966   2.947  21.773  1.00  0.00     0.238 C 
BRANCH  10  11
HETATM   11  C8  UNL     1      12.753   3.485  23.140  1.00  0.00     0.254 C 
HETATM   12  O4  UNL     1      13.257   2.887  24.135  1.00  0.00    -0.270 OA
HETATM   13  N9  UNL     1      12.001   4.656  23.355  1.00  0.00    -0.275 N 
ATOM     14  H9  UNL     1      11.598   5.155  22.561  1.00  0.00     0.189 HD
BRANCH  13  15
HETATM   15  N10 UNL     1      11.802   5.142  24.672  1.00  0.00    -0.343 N 
ATOM     16 2H10 UNL     1      11.531   4.487  25.405  1.00  0.00     0.176 HD
ATOM     17 1H10 UNL     1      11.928   6.134  24.877  1.00  0.00     0.176 HD
ENDBRANCH  13  15
ENDBRANCH  10  11
ENDBRANCH   7  10
BRANCH   8  18
HETATM   18  C10 UNL     1      14.330   5.556  19.333  1.00  0.00     0.323 C 
HETATM   19  N11 UNL     1      14.352   5.545  17.881  1.00  0.00    -0.053 NA
HETATM   20  O6  UNL     1      15.095   6.389  19.866  1.00  0.00    -0.266 OA
ENDBRANCH   8  18
ENDBRANCH   6   7
BRANCH   1  21
HETATM   21  C2  UNL     1      15.792   1.493  20.270  1.00  0.00     0.122 C 
HETATM   22  N5  UNL     1      15.511   0.357  20.795  1.00  0.00    -0.307 N 
ATOM     23  H5  UNL     1      15.529   0.238  21.808  1.00  0.00     0.186 HD
BRANCH  22  24
HETATM   24  N4  UNL     1      15.175  -0.732  19.951  1.00  0.00    -0.250 N 
HETATM   25  C1  UNL     1      13.846  -0.991  19.535  1.00  0.00     0.365 C 
HETATM   26  N3  UNL     1      13.596  -2.101  18.698  1.00  0.00    -0.164 N 
HETATM   27  O1  UNL     1      12.932  -0.231  19.919  1.00  0.00    -0.243 OA
ATOM     28  H3  UNL     1      13.019  -2.868  19.044  1.00  0.00     0.209 HD
ATOM     29  H4  UNL     1      15.919  -1.354  19.632  1.00  0.00     0.192 HD
BRANCH  26  30
HETATM   30  N2  UNL     1      14.066  -2.163  17.549  1.00  0.00    -0.239 NA
BRANCH  30  31
HETATM   31  N1  UNL     1      14.291  -1.925  16.361  1.00  0.00    -0.260 N 
ATOM     32  H12 UNL     1      15.279  -1.705  16.492  1.00  0.00     0.193 HD
ATOM     33  H11 UNL     1      14.167  -1.800  15.357  1.00  0.00     0.193 HD
ENDBRANCH  30  31
ENDBRANCH  26  30
ENDBRANCH  22  24
ENDBRANCH   1  21
BRANCH   3  34
HETATM   34  N6  UNL     1      18.445   4.751  22.874  1.00  0.00    -0.098 N 
HETATM   35  O2  UNL     1      19.485   5.099  22.265  1.00  0.00    -0.531 OA
HETATM   36  O3  UNL     1      18.427   5.013  24.220  1.00  0.00    -0.531 OA
ENDBRANCH   3  34
TORSDOF 10
ENDMDL
MODEL 4
REMARK VINA RESULT: -7.413118725      2.669      4.962
REMARK  10 active torsions:
REMARK  status: ('A' for Active; 'I' for Inactive)
REMARK    1  A    between atoms: N1_1  and  N2_4 
REMARK    2  A    between atoms: N2_4  and  N3_5 
REMARK       I    between atoms: N3_5  and  C1_7 
REMARK       I    between atoms: C1_7  and  N4_9 
REMARK    3  A    between atoms: N4_9  and  N5_11 
REMARK    4  A    between atoms: C2_13  and  C3_14 
REMARK    5  A    between atoms: C5_16  and  N6_17 
REMARK    6  A    between atoms: C6_22  and  N8_23 
REMARK    7  A    between atoms: N8_23  and  C7_24 
REMARK       I    between atoms: N8_23  and  C9_32 
REMARK    8  A    between atoms: C7_24  and  C8_25 
REMARK       I    between atoms: C8_25  and  N9_27 
REMARK    9  A    between atoms: N9_27  and  N10_29 
REMARK   10  A    between atoms: C9_32  and  C10_34 
ROOT
HETATM    1  C3  UNL     1      12.705   5.122  20.900  1.00  0.00     0.029 A 
HETATM    2  C4  UNL     1      11.782   5.929  21.506  1.00  0.00     0.071 A 
HETATM    3  C5  UNL     1      10.531   5.503  21.171  1.00  0.00     0.176 A 
HETATM    4  N7  UNL     1      10.720   4.445  20.368  1.00  0.00    -0.323 N 
ATOM      5  H7  UNL     1       9.954   3.912  19.956  1.00  0.00     0.169 HD
HETATM    6  C6  UNL     1      11.998   4.159  20.162  1.00  0.00     0.124 A 
ENDROOT
BRANCH   6   7
HETATM    7  N8  UNL     1      12.648   3.147  19.377  1.00  0.00    -0.286 N 
HETATM    8  C9  UNL     1      13.158   3.433  18.113  1.00  0.00     0.314 C 
HETATM    9  O5  UNL     1      13.740   2.504  17.461  1.00  0.00    -0.262 OA
BRANCH   7  10
HETATM   10  C7  UNL     1      12.735   1.792  19.916  1.00  0.00     0.238 C 
BRANCH  10  11
HETATM   11  C8  UNL     1      13.897   1.689  20.834  1.00  0.00     0.254 C 
HETATM   12  O4  UNL     1      13.720   1.786  22.084  1.00  0.00    -0.270 OA
HETATM   13  N9  UNL     1      15.200   1.483  20.342  1.00  0.00    -0.275 N 
ATOM     14  H9  UNL     1      15.357   1.392  19.338  1.00  0.00     0.189 HD
BRANCH  13  15
HETATM   15  N10 UNL     1      16.295   1.401  21.240  1.00  0.00    -0.343 N 
ATOM     16 2H10 UNL     1      16.387   0.576  21.834  1.00  0.00     0.176 HD
ATOM     17 1H10 UNL     1      16.977   2.158  21.287  1.00  0.00     0.176 HD
ENDBRANCH  13  15
ENDBRANCH  10  11
ENDBRANCH   7  10
BRANCH   8  18
HETATM   18  C10 UNL     1      13.071   4.723  17.484  1.00  0.00     0.323 C 
HETATM   19  N11 UNL     1      14.252   5.554  17.341  1.00  0.00    -0.053 NA
HETATM   20  O6  UNL     1      12.019   5.219  17.027  1.00  0.00    -0.266 OA
ENDBRANCH   8  18
ENDBRANCH   6   7
BRANCH   1  21
HETATM   21  C2  UNL     1      14.142   5.260  21.021  1.00  0.00     0.122 C 
HETATM   22  N5  UNL     1      14.810   4.874  22.045  1.00  0.00    -0.307 N 
ATOM     23  H5  UNL     1      14.336   4.442  22.838  1.00  0.00     0.186 HD
BRANCH  22  24
HETATM   24  N4  UNL     1      16.217   5.055  22.063  1.00  0.00    -0.250 N 
HETATM   25  C1  UNL     1      16.969   5.049  23.263  1.00  0.00     0.365 C 
HETATM   26  N3  UNL     1      18.367   5.242  23.194  1.00  0.00    -0.164 N 
HETATM   27  O1  UNL     1      16.377   4.874  24.349  1.00  0.00    -0.243 OA
ATOM     28  H3  UNL     1      18.779   6.069  23.624  1.00  0.00     0.209 HD
ATOM     29  H4  UNL     1      16.706   5.195  21.179  1.00  0.00     0.192 HD
BRANCH  26  30
HETATM   30  N2  UNL     1      19.105   4.423  22.619  1.00  0.00    -0.239 NA
BRANCH  30  31
HETATM   31  N1  UNL     1      19.493   3.483  21.923  1.00  0.00    -0.260 N 
ATOM     32  H12 UNL     1      18.567   3.223  21.585  1.00  0.00     0.193 HD
ATOM     33  H11 UNL     1      20.097   2.802  21.463  1.00  0.00     0.193 HD
ENDBRANCH  30  31
ENDBRANCH  26  30
ENDBRANCH  22  24
ENDBRANCH   1  21
BRANCH   3  34
HETATM   34  N6  UNL     1       9.302   6.076  21.604  1.00  0.00    -0.098 N 
HETATM   35  O2  UNL     1       8.804   7.082  21.045  1.00  0.00    -0.531 OA
HETATM   36  O3  UNL     1       8.586   5.564  22.657  1.00  0.00    -0.531 OA
ENDBRANCH   3  34
TORSDOF 10
ENDMDL
MODEL 5
REMARK VINA RESULT: -7.386984457      3.289      6.881
REMARK  10 active torsions:
REMARK  status: ('A' for Active; 'I' for Inactive)
REMARK    1  A    between atoms: N1_1  and  N2_4 
REMARK    2  A    between atoms: N2_4  and  N3_5 
REMARK       I    between atoms: N3_5  and  C1_7 
REMARK       I    between atoms: C1_7  and  N4_9 
REMARK    3  A    between atoms: N4_9  and  N5_11 
REMARK    4  A    between atoms: C2_13  and  C3_14 
REMARK    5  A    between atoms: C5_16  and  N6_17 
REMARK    6  A    between atoms: C6_22  and  N8_23 
REMARK    7  A    between atoms: N8_23  and  C7_24 
REMARK       I    between atoms: N8_23  and  C9_32 
REMARK    8  A    between atoms: C7_24  and  C8_25 
REMARK       I    between atoms: C8_25  and  N9_27 
REMARK    9  A    between atoms: N9_27  and  N10_29 
REMARK   10  A    between atoms: C9_32  and  C10_34 
ROOT
HETATM    1  C3  UNL     1      13.947   4.302  23.208  1.00  0.00     0.029 A 
HETATM    2  C4  UNL     1      14.775   4.851  24.148  1.00  0.00     0.071 A 
HETATM    3  C5  UNL     1      16.068   4.695  23.746  1.00  0.00     0.176 A 
HETATM    4  N7  UNL     1      15.999   4.054  22.569  1.00  0.00    -0.323 N 
ATOM      5  H7  UNL     1      16.821   3.798  22.023  1.00  0.00     0.169 HD
HETATM    6  C6  UNL     1      14.759   3.786  22.185  1.00  0.00     0.124 A 
ENDROOT
BRANCH   6   7
HETATM    7  N8  UNL     1      14.227   3.116  21.031  1.00  0.00    -0.286 N 
HETATM    8  C9  UNL     1      13.994   3.804  19.843  1.00  0.00     0.314 C 
HETATM    9  O5  UNL     1      13.535   3.161  18.841  1.00  0.00    -0.262 OA
BRANCH   7  10
HETATM   10  C7  UNL     1      13.897   1.696  21.136  1.00  0.00     0.238 C 
BRANCH  10  11
HETATM   11  C8  UNL     1      15.099   0.878  20.838  1.00  0.00     0.254 C 
HETATM   12  O4  UNL     1      16.245   1.300  21.172  1.00  0.00    -0.270 OA
HETATM   13  N9  UNL     1      14.991  -0.368  20.191  1.00  0.00    -0.275 N 
ATOM     14  H9  UNL     1      14.073  -0.727  19.926  1.00  0.00     0.189 HD
BRANCH  13  15
HETATM   15  N10 UNL     1      16.157  -1.126  19.906  1.00  0.00    -0.343 N 
ATOM     16 2H10 UNL     1      16.291  -2.021  20.377  1.00  0.00     0.176 HD
ATOM     17 1H10 UNL     1      16.846  -0.775  19.241  1.00  0.00     0.176 HD
ENDBRANCH  13  15
ENDBRANCH  10  11
ENDBRANCH   7  10
BRANCH   8  18
HETATM   18  C10 UNL     1      14.240   5.209  19.666  1.00  0.00     0.323 C 
HETATM   19  N11 UNL     1      13.264   6.190  20.106  1.00  0.00    -0.053 NA
HETATM   20  O6  UNL     1      15.269   5.688  19.142  1.00  0.00    -0.266 OA
ENDBRANCH   8  18
ENDBRANCH   6   7
BRANCH   1  21
HETATM   21  C2  UNL     1      12.500   4.276  23.283  1.00  0.00     0.122 C 
HETATM   22  N5  UNL     1      11.740   5.101  22.663  1.00  0.00    -0.307 N 
ATOM     23  H5  UNL     1      12.143   5.831  22.074  1.00  0.00     0.186 HD
BRANCH  22  24
HETATM   24  N4  UNL     1      10.334   4.989  22.803  1.00  0.00    -0.250 N 
HETATM   25  C1  UNL     1       9.429   5.771  22.045  1.00  0.00     0.365 C 
HETATM   26  N3  UNL     1       8.041   5.601  22.250  1.00  0.00    -0.164 N 
HETATM   27  O1  UNL     1       9.881   6.588  21.215  1.00  0.00    -0.243 OA
ATOM     28  H3  UNL     1       7.492   6.377  22.620  1.00  0.00     0.209 HD
ATOM     29  H4  UNL     1       9.959   4.320  23.476  1.00  0.00     0.192 HD
BRANCH  26  30
HETATM   30  N2  UNL     1       7.476   4.526  21.987  1.00  0.00    -0.239 NA
BRANCH  30  31
HETATM   31  N1  UNL     1       7.002   3.572  21.367  1.00  0.00    -0.260 N 
ATOM     32  H12 UNL     1       6.122   4.033  21.135  1.00  0.00     0.193 HD
ATOM     33  H11 UNL     1       6.893   2.654  20.936  1.00  0.00     0.193 HD
ENDBRANCH  30  31
ENDBRANCH  26  30
ENDBRANCH  22  24
ENDBRANCH   1  21
BRANCH   3  34
HETATM   34  N6  UNL     1      17.227   5.136  24.445  1.00  0.00    -0.098 N 
HETATM   35  O2  UNL     1      17.153   5.730  25.547  1.00  0.00    -0.531 OA
HETATM   36  O3  UNL     1      18.494   4.939  23.959  1.00  0.00    -0.531 OA
ENDBRANCH   3  34
TORSDOF 10
ENDMDL
