MODEL 1
REMARK VINA RESULT: -7.926303672      0.000      0.000
REMARK  7 active torsions:
REMARK  status: ('A' for Active; 'I' for Inactive)
REMARK    1  A    between atoms: C2_3  and  C3_4 
REMARK    2  A    between atoms: C6_9  and  N3_10 
REMARK    3  A    between atoms: N5_16  and  S1_17 
REMARK    4  A    between atoms: S1_17  and  N6_20 
REMARK    5  A    between atoms: N6_20  and  C8_22 
REMARK    6  A    between atoms: C8_22  and  C9_23 
REMARK    7  A    between atoms: C9_23  and  N7_24 
ROOT
HETATM    1  C1  UNL     1      13.801   5.506  17.263  1.00  0.00     0.161 C 
HETATM    2  N1  UNL     1      14.733   4.731  18.074  1.00  0.00    -0.299 N 
HETATM    3  C2  UNL     1      15.189   3.492  17.851  1.00  0.00     0.082 A 
HETATM    4  C7  UNL     1      16.049   3.157  18.873  1.00  0.00     0.147 A 
HETATM    5  N5  UNL     1      16.116   4.213  19.728  1.00  0.00    -0.182 N 
HETATM    6  C13 UNL     1      15.316   5.156  19.233  1.00  0.00     0.343 A 
HETATM    7  O3  UNL     1      15.102   6.290  19.736  1.00  0.00    -0.245 OA
ENDROOT
BRANCH   5   8
HETATM    8  S1  UNL     1      17.076   4.258  21.157  1.00  0.00     0.328 S 
HETATM    9  O1  UNL     1      18.471   4.691  20.762  1.00  0.00    -0.182 OA
HETATM   10  O2  UNL     1      17.227   2.851  21.683  1.00  0.00    -0.182 OA
BRANCH   8  11
HETATM   11  N6  UNL     1      16.469   5.243  22.382  1.00  0.00    -0.300 N 
ATOM     12  H6  UNL     1      16.294   6.235  22.219  1.00  0.00     0.173 HD
BRANCH  11  13
HETATM   13  C8  UNL     1      16.209   4.655  23.641  1.00  0.00     0.153 C 
BRANCH  13  14
HETATM   14  C9  UNL     1      14.685   4.489  23.747  1.00  0.00     0.143 C 
BRANCH  14  15
HETATM   15  N7  UNL     1      14.300   3.351  22.973  1.00  0.00    -0.361 N 
HETATM   16  C10 UNL     1      13.528   3.421  21.935  1.00  0.00     0.171 C 
HETATM   17  N8  UNL     1      13.126   2.316  21.144  1.00  0.00    -0.361 N 
HETATM   18  N9  UNL     1      12.961   4.622  21.426  1.00  0.00    -0.361 N 
HETATM   19  C11 UNL     1      12.300   2.859  20.089  1.00  0.00     0.142 C 
ATOM     20  H8  UNL     1      13.371   1.337  21.290  1.00  0.00     0.162 HD
HETATM   21  C12 UNL     1      11.827   4.180  20.615  1.00  0.00     0.142 C 
ATOM     22  H9  UNL     1      13.274   5.578  21.589  1.00  0.00     0.162 HD
ATOM     23  H7  UNL     1      14.651   2.435  23.252  1.00  0.00     0.162 HD
ENDBRANCH  14  15
ENDBRANCH  13  14
ENDBRANCH  11  13
ENDBRANCH   8  11
ENDBRANCH   5   8
BRANCH   3  24
HETATM   24  C3  UNL     1      14.835   2.625  16.710  1.00  0.00     0.079 A 
HETATM   25  C4  UNL     1      13.994   1.552  16.904  1.00  0.00     0.050 A 
HETATM   26  C5  UNL     1      13.674   0.754  15.832  1.00  0.00     0.108 A 
HETATM   27  N2  UNL     1      14.189   1.035  14.608  1.00  0.00    -0.202 N 
HETATM   28  C6  UNL     1      15.009   2.084  14.431  1.00  0.00     0.676 A 
ATOM     29  H2  UNL     1      13.950   0.441  13.813  1.00  0.00     0.183 HD
HETATM   30  N4  UNL     1      15.318   2.860  15.481  1.00  0.00    -0.190 N 
ATOM     31  H4  UNL     1      15.940   3.655  15.340  1.00  0.00     0.184 HD
BRANCH  28  32
HETATM   32  N3  UNL     1      15.465   2.301  13.247  1.00  0.00    -0.234 N 
ATOM     33  H32 UNL     1      15.308   1.660  12.469  1.00  0.00     0.174 HD
ATOM     34  H31 UNL     1      16.005   3.152  13.090  1.00  0.00     0.174 HD
ENDBRANCH  28  32
ENDBRANCH   3  24
TORSDOF 7
ENDMDL
MODEL 2
REMARK VINA RESULT: -7.923645460      1.376      1.766
REMARK  7 active torsions:
REMARK  status: ('A' for Active; 'I' for Inactive)
REMARK    1  A    between atoms: C2_3  and  C3_4 
REMARK    2  A    between atoms: C6_9  and  N3_10 
REMARK    3  A    between atoms: N5_16  and  S1_17 
REMARK    4  A    between atoms: S1_17  and  N6_20 
REMARK    5  A    between atoms: N6_20  and  C8_22 
REMARK    6  A    between atoms: C8_22  and  C9_23 
REMARK    7  A    between atoms: C9_23  and  N7_24 
ROOT
HETATM    1  C1  UNL     1      13.706   5.293  18.543  1.00  0.00     0.161 C 
HETATM    2  N1  UNL     1      14.963   4.675  18.953  1.00  0.00    -0.299 N 
HETATM    3  C2  UNL     1      15.577   3.617  18.411  1.00  0.00     0.082 A 
HETATM    4  C7  UNL     1      16.736   3.381  19.116  1.00  0.00     0.147 A 
HETATM    5  N5  UNL     1      16.824   4.314  20.103  1.00  0.00    -0.182 N 
HETATM    6  C13 UNL     1      15.746   5.089  19.992  1.00  0.00     0.343 A 
HETATM    7  O3  UNL     1      15.457   6.071  20.724  1.00  0.00    -0.245 OA
ENDROOT
BRANCH   5   8
HETATM    8  S1  UNL     1      18.112   4.421  21.239  1.00  0.00     0.328 S 
HETATM    9  O1  UNL     1      19.354   4.855  20.490  1.00  0.00    -0.182 OA
HETATM   10  O2  UNL     1      18.420   3.035  21.754  1.00  0.00    -0.182 OA
BRANCH   8  11
HETATM   11  N6  UNL     1      17.815   5.442  22.546  1.00  0.00    -0.300 N 
ATOM     12  H6  UNL     1      17.528   6.410  22.401  1.00  0.00     0.173 HD
BRANCH  11  13
HETATM   13  C8  UNL     1      17.975   4.918  23.850  1.00  0.00     0.153 C 
BRANCH  13  14
HETATM   14  C9  UNL     1      16.581   4.900  24.495  1.00  0.00     0.143 C 
BRANCH  14  15
HETATM   15  N7  UNL     1      15.602   4.850  23.454  1.00  0.00    -0.361 N 
HETATM   16  C10 UNL     1      14.352   4.584  23.662  1.00  0.00     0.171 C 
HETATM   17  N8  UNL     1      13.354   4.528  22.657  1.00  0.00    -0.361 N 
HETATM   18  N9  UNL     1      13.782   4.307  24.936  1.00  0.00    -0.361 N 
HETATM   19  C11 UNL     1      12.115   4.230  23.340  1.00  0.00     0.142 C 
ATOM     20  H8  UNL     1      13.485   4.668  21.655  1.00  0.00     0.162 HD
HETATM   21  C12 UNL     1      12.533   3.608  24.637  1.00  0.00     0.142 C 
ATOM     22  H9  UNL     1      14.160   4.543  25.853  1.00  0.00     0.162 HD
ATOM     23  H7  UNL     1      15.905   5.033  22.497  1.00  0.00     0.162 HD
ENDBRANCH  14  15
ENDBRANCH  13  14
ENDBRANCH  11  13
ENDBRANCH   8  11
ENDBRANCH   5   8
BRANCH   3  24
HETATM   24  C3  UNL     1      15.103   2.830  17.254  1.00  0.00     0.079 A 
HETATM   25  C4  UNL     1      14.340   1.704  17.465  1.00  0.00     0.050 A 
HETATM   26  C5  UNL     1      13.905   0.982  16.379  1.00  0.00     0.108 A 
HETATM   27  N2  UNL     1      14.234   1.388  15.126  1.00  0.00    -0.202 N 
HETATM   28  C6  UNL     1      14.980   2.489  14.934  1.00  0.00     0.676 A 
ATOM     29  H2  UNL     1      13.911   0.852  14.321  1.00  0.00     0.183 HD
HETATM   30  N4  UNL     1      15.401   3.191  15.998  1.00  0.00    -0.190 N 
ATOM     31  H4  UNL     1      15.966   4.025  15.845  1.00  0.00     0.184 HD
BRANCH  28  32
HETATM   32  N3  UNL     1      15.258   2.826  13.723  1.00  0.00    -0.234 N 
ATOM     33  H32 UNL     1      15.674   2.180  13.052  1.00  0.00     0.174 HD
ATOM     34  H31 UNL     1      15.051   3.781  13.432  1.00  0.00     0.174 HD
ENDBRANCH  28  32
ENDBRANCH   3  24
TORSDOF 7
ENDMDL
MODEL 3
REMARK VINA RESULT: -7.836537740      1.193      1.331
REMARK  7 active torsions:
REMARK  status: ('A' for Active; 'I' for Inactive)
REMARK    1  A    between atoms: C2_3  and  C3_4 
REMARK    2  A    between atoms: C6_9  and  N3_10 
REMARK    3  A    between atoms: N5_16  and  S1_17 
REMARK    4  A    between atoms: S1_17  and  N6_20 
REMARK    5  A    between atoms: N6_20  and  C8_22 
REMARK    6  A    between atoms: C8_22  and  C9_23 
REMARK    7  A    between atoms: C9_23  and  N7_24 
ROOT
HETATM    1  C1  UNL     1      13.749   5.495  17.218  1.00  0.00     0.161 C 
HETATM    2  N1  UNL     1      14.662   4.717  18.048  1.00  0.00    -0.299 N 
HETATM    3  C2  UNL     1      15.119   3.477  17.834  1.00  0.00     0.082 A 
HETATM    4  C7  UNL     1      15.956   3.139  18.874  1.00  0.00     0.147 A 
HETATM    5  N5  UNL     1      16.007   4.195  19.732  1.00  0.00    -0.182 N 
HETATM    6  C13 UNL     1      15.221   5.140  19.220  1.00  0.00     0.343 A 
HETATM    7  O3  UNL     1      14.999   6.274  19.719  1.00  0.00    -0.245 OA
ENDROOT
BRANCH   5   8
HETATM    8  S1  UNL     1      16.936   4.237  21.180  1.00  0.00     0.328 S 
HETATM    9  O1  UNL     1      18.336   4.685  20.819  1.00  0.00    -0.182 OA
HETATM   10  O2  UNL     1      17.089   2.826  21.698  1.00  0.00    -0.182 OA
BRANCH   8  11
HETATM   11  N6  UNL     1      16.295   5.206  22.400  1.00  0.00    -0.300 N 
ATOM     12  H6  UNL     1      16.175   6.210  22.264  1.00  0.00     0.173 HD
BRANCH  11  13
HETATM   13  C8  UNL     1      15.927   4.588  23.618  1.00  0.00     0.153 C 
BRANCH  13  14
HETATM   14  C9  UNL     1      14.397   4.682  23.718  1.00  0.00     0.143 C 
BRANCH  14  15
HETATM   15  N7  UNL     1      13.891   5.171  22.474  1.00  0.00    -0.361 N 
HETATM   16  C10 UNL     1      12.630   5.347  22.235  1.00  0.00     0.171 C 
HETATM   17  N8  UNL     1      12.093   5.831  21.016  1.00  0.00    -0.361 N 
HETATM   18  N9  UNL     1      11.584   5.083  23.162  1.00  0.00    -0.361 N 
HETATM   19  C11 UNL     1      10.661   5.893  21.206  1.00  0.00     0.142 C 
ATOM     20  H8  UNL     1      12.612   6.084  20.175  1.00  0.00     0.162 HD
HETATM   21  C12 UNL     1      10.385   4.949  22.337  1.00  0.00     0.142 C 
ATOM     22  H9  UNL     1      11.655   5.004  24.176  1.00  0.00     0.162 HD
ATOM     23  H7  UNL     1      14.558   5.392  21.735  1.00  0.00     0.162 HD
ENDBRANCH  14  15
ENDBRANCH  13  14
ENDBRANCH  11  13
ENDBRANCH   8  11
ENDBRANCH   5   8
BRANCH   3  24
HETATM   24  C3  UNL     1      14.788   2.611  16.685  1.00  0.00     0.079 A 
HETATM   25  C4  UNL     1      13.955   1.530  16.864  1.00  0.00     0.050 A 
HETATM   26  C5  UNL     1      13.655   0.734  15.785  1.00  0.00     0.108 A 
HETATM   27  N2  UNL     1      14.184   1.024  14.569  1.00  0.00    -0.202 N 
HETATM   28  C6  UNL     1      14.996   2.082  14.406  1.00  0.00     0.676 A 
ATOM     29  H2  UNL     1      13.961   0.432  13.768  1.00  0.00     0.183 HD
HETATM   30  N4  UNL     1      15.284   2.856  15.464  1.00  0.00    -0.190 N 
ATOM     31  H4  UNL     1      15.901   3.658  15.333  1.00  0.00     0.184 HD
BRANCH  28  32
HETATM   32  N3  UNL     1      15.466   2.308  13.229  1.00  0.00    -0.234 N 
ATOM     33  H32 UNL     1      15.688   1.561  12.571  1.00  0.00     0.174 HD
ATOM     34  H31 UNL     1      15.618   3.277  12.952  1.00  0.00     0.174 HD
ENDBRANCH  28  32
ENDBRANCH   3  24
TORSDOF 7
ENDMDL
MODEL 4
REMARK VINA RESULT: -7.821387140      1.935      3.264
REMARK  7 active torsions:
REMARK  status: ('A' for Active; 'I' for Inactive)
REMARK    1  A    between atoms: C2_3  and  C3_4 
REMARK    2  A    between atoms: C6_9  and  N3_10 
REMARK    3  A    between atoms: N5_16  and  S1_17 
REMARK    4  A    between atoms: S1_17  and  N6_20 
REMARK    5  A    between atoms: N6_20  and  C8_22 
REMARK    6  A    between atoms: C8_22  and  C9_23 
REMARK    7  A    between atoms: C9_23  and  N7_24 
ROOT
HETATM    1  C1  UNL     1      14.291   5.013  16.638  1.00  0.00     0.161 C 
HETATM    2  N1  UNL     1      14.381   3.836  17.495  1.00  0.00    -0.299 N 
HETATM    3  C2  UNL     1      14.584   2.563  17.131  1.00  0.00     0.082 A 
HETATM    4  C7  UNL     1      14.596   1.785  18.267  1.00  0.00     0.147 A 
HETATM    5  N5  UNL     1      14.397   2.602  19.337  1.00  0.00    -0.182 N 
HETATM    6  C13 UNL     1      14.269   3.837  18.856  1.00  0.00     0.343 A 
HETATM    7  O3  UNL     1      14.070   4.881  19.530  1.00  0.00    -0.245 OA
ENDROOT
BRANCH   5   8
HETATM    8  S1  UNL     1      14.341   2.075  20.975  1.00  0.00     0.328 S 
HETATM    9  O1  UNL     1      15.759   1.790  21.418  1.00  0.00    -0.182 OA
HETATM   10  O2  UNL     1      13.629   0.743  21.031  1.00  0.00    -0.182 OA
BRANCH   8  11
HETATM   11  N6  UNL     1      13.588   3.147  22.034  1.00  0.00    -0.300 N 
ATOM     12  H6  UNL     1      12.622   3.439  21.886  1.00  0.00     0.173 HD
BRANCH  11  13
HETATM   13  C8  UNL     1      14.334   3.632  23.134  1.00  0.00     0.153 C 
BRANCH  13  14
HETATM   14  C9  UNL     1      14.931   4.981  22.705  1.00  0.00     0.143 C 
BRANCH  14  15
HETATM   15  N7  UNL     1      16.310   5.003  23.077  1.00  0.00    -0.361 N 
HETATM   16  C10 UNL     1      17.280   4.828  22.236  1.00  0.00     0.171 C 
HETATM   17  N8  UNL     1      18.657   4.846  22.567  1.00  0.00    -0.361 N 
HETATM   18  N9  UNL     1      17.112   4.590  20.843  1.00  0.00    -0.361 N 
HETATM   19  C11 UNL     1      19.370   4.637  21.327  1.00  0.00     0.142 C 
ATOM     20  H8  UNL     1      19.063   4.978  23.494  1.00  0.00     0.162 HD
HETATM   21  C12 UNL     1      18.373   3.983  20.419  1.00  0.00     0.142 C 
ATOM     22  H9  UNL     1      16.296   4.797  20.269  1.00  0.00     0.162 HD
ATOM     23  H7  UNL     1      16.544   5.167  24.056  1.00  0.00     0.162 HD
ENDBRANCH  14  15
ENDBRANCH  13  14
ENDBRANCH  11  13
ENDBRANCH   8  11
ENDBRANCH   5   8
BRANCH   3  24
HETATM   24  C3  UNL     1      14.765   2.069  15.752  1.00  0.00     0.079 A 
HETATM   25  C4  UNL     1      13.919   1.101  15.259  1.00  0.00     0.050 A 
HETATM   26  C5  UNL     1      14.100   0.651  13.973  1.00  0.00     0.108 A 
HETATM   27  N2  UNL     1      15.103   1.164  13.216  1.00  0.00    -0.202 N 
HETATM   28  C6  UNL     1      15.922   2.108  13.708  1.00  0.00     0.676 A 
ATOM     29  H2  UNL     1      15.236   0.829  12.262  1.00  0.00     0.183 HD
HETATM   30  N4  UNL     1      15.741   2.544  14.965  1.00  0.00    -0.190 N 
ATOM     31  H4  UNL     1      16.366   3.261  15.332  1.00  0.00     0.184 HD
BRANCH  28  32
HETATM   32  N3  UNL     1      16.855   2.557  12.943  1.00  0.00    -0.234 N 
ATOM     33  H32 UNL     1      16.810   2.498  11.926  1.00  0.00     0.174 HD
ATOM     34  H31 UNL     1      17.668   2.989  13.382  1.00  0.00     0.174 HD
ENDBRANCH  28  32
ENDBRANCH   3  24
TORSDOF 7
ENDMDL
MODEL 5
REMARK VINA RESULT: -7.654343777      1.850      3.192
REMARK  7 active torsions:
REMARK  status: ('A' for Active; 'I' for Inactive)
REMARK    1  A    between atoms: C2_3  and  C3_4 
REMARK    2  A    between atoms: C6_9  and  N3_10 
REMARK    3  A    between atoms: N5_16  and  S1_17 
REMARK    4  A    between atoms: S1_17  and  N6_20 
REMARK    5  A    between atoms: N6_20  and  C8_22 
REMARK    6  A    between atoms: C8_22  and  C9_23 
REMARK    7  A    between atoms: C9_23  and  N7_24 
ROOT
HETATM    1  C1  UNL     1      14.244   5.009  16.656  1.00  0.00     0.161 C 
HETATM    2  N1  UNL     1      14.276   3.829  17.513  1.00  0.00    -0.299 N 
HETATM    3  C2  UNL     1      14.463   2.553  17.155  1.00  0.00     0.082 A 
HETATM    4  C7  UNL     1      14.416   1.773  18.289  1.00  0.00     0.147 A 
HETATM    5  N5  UNL     1      14.198   2.593  19.353  1.00  0.00    -0.182 N 
HETATM    6  C13 UNL     1      14.115   3.832  18.869  1.00  0.00     0.343 A 
HETATM    7  O3  UNL     1      13.916   4.880  19.537  1.00  0.00    -0.245 OA
ENDROOT
BRANCH   5   8
HETATM    8  S1  UNL     1      14.070   2.066  20.986  1.00  0.00     0.328 S 
HETATM    9  O1  UNL     1      15.453   2.117  21.598  1.00  0.00    -0.182 OA
HETATM   10  O2  UNL     1      13.682   0.606  20.995  1.00  0.00    -0.182 OA
BRANCH   8  11
HETATM   11  N6  UNL     1      12.971   2.934  21.922  1.00  0.00    -0.300 N 
ATOM     12  H6  UNL     1      12.187   3.425  21.491  1.00  0.00     0.173 HD
BRANCH  11  13
HETATM   13  C8  UNL     1      13.165   2.964  23.323  1.00  0.00     0.153 C 
BRANCH  13  14
HETATM   14  C9  UNL     1      13.323   4.440  23.717  1.00  0.00     0.143 C 
BRANCH  14  15
HETATM   15  N7  UNL     1      14.477   4.565  24.552  1.00  0.00    -0.361 N 
HETATM   16  C10 UNL     1      15.666   4.800  24.096  1.00  0.00     0.171 C 
HETATM   17  N8  UNL     1      16.831   4.930  24.891  1.00  0.00    -0.361 N 
HETATM   18  N9  UNL     1      15.989   4.964  22.720  1.00  0.00    -0.361 N 
HETATM   19  C11 UNL     1      17.913   5.213  23.974  1.00  0.00     0.142 C 
ATOM     20  H8  UNL     1      16.894   4.843  25.905  1.00  0.00     0.162 HD
HETATM   21  C12 UNL     1      17.428   4.713  22.647  1.00  0.00     0.142 C 
ATOM     22  H9  UNL     1      15.359   5.203  21.955  1.00  0.00     0.162 HD
ATOM     23  H7  UNL     1      14.357   4.463  25.559  1.00  0.00     0.162 HD
ENDBRANCH  14  15
ENDBRANCH  13  14
ENDBRANCH  11  13
ENDBRANCH   8  11
ENDBRANCH   5   8
BRANCH   3  24
HETATM   24  C3  UNL     1      14.683   2.055  15.782  1.00  0.00     0.079 A 
HETATM   25  C4  UNL     1      13.873   1.061  15.281  1.00  0.00     0.050 A 
HETATM   26  C5  UNL     1      14.089   0.609  14.001  1.00  0.00     0.108 A 
HETATM   27  N2  UNL     1      15.090   1.145  13.258  1.00  0.00    -0.202 N 
HETATM   28  C6  UNL     1      15.874   2.115  13.759  1.00  0.00     0.676 A 
ATOM     29  H2  UNL     1      15.249   0.809  12.309  1.00  0.00     0.183 HD
HETATM   30  N4  UNL     1      15.658   2.554  15.009  1.00  0.00    -0.190 N 
ATOM     31  H4  UNL     1      16.256   3.290  15.382  1.00  0.00     0.184 HD
BRANCH  28  32
HETATM   32  N3  UNL     1      16.806   2.586  13.007  1.00  0.00    -0.234 N 
ATOM     33  H32 UNL     1      17.520   3.230  13.350  1.00  0.00     0.174 HD
ATOM     34  H31 UNL     1      16.825   2.298  12.028  1.00  0.00     0.174 HD
ENDBRANCH  28  32
ENDBRANCH   3  24
TORSDOF 7
ENDMDL
