MODEL 1
REMARK VINA RESULT: -7.962392329      0.000      0.000
REMARK  10 active torsions:
REMARK  status: ('A' for Active; 'I' for Inactive)
REMARK    1  A    between atoms: O1_2  and  C2_3 
REMARK    2  A    between atoms: C2_3  and  C3_4 
REMARK    3  A    between atoms: C3_4  and  N1_5 
REMARK    4  A    between atoms: N1_5  and  C4_7 
REMARK    5  A    between atoms: C5_10  and  N3_11 
REMARK    6  A    between atoms: C11_18  and  C12_19 
REMARK    7  A    between atoms: C12_19  and  N5_20 
REMARK    8  A    between atoms: C13_24  and  N6_25 
REMARK    9  A    between atoms: N6_25  and  C14_27 
REMARK   10  A    between atoms: C16_33  and  N9_34 
ROOT
HETATM    1  C4  UNL     1      14.465   0.408  18.609  1.00  0.00     0.681 A 
HETATM    2  N2  UNL     1      14.818   1.143  19.660  1.00  0.00    -0.176 N 
ATOM      3  H2  UNL     1      14.903   0.678  20.564  1.00  0.00     0.186 HD
HETATM    4  C5  UNL     1      15.072   2.482  19.598  1.00  0.00     0.131 A 
HETATM    5  C11 UNL     1      14.936   3.051  18.338  1.00  0.00     0.057 A 
HETATM    6  C13 UNL     1      14.574   2.299  17.251  1.00  0.00     0.148 A 
HETATM    7  N11 UNL     1      14.345   0.988  17.415  1.00  0.00    -0.175 N 
ATOM      8  H11 UNL     1      14.075   0.424  16.610  1.00  0.00     0.186 HD
ENDROOT
BRANCH   6   9
HETATM    9  N6  UNL     1      14.429   2.833  15.951  1.00  0.00    -0.175 N 
ATOM     10  H6  UNL     1      13.904   3.703  15.867  1.00  0.00     0.186 HD
BRANCH   9  11
HETATM   11  C14 UNL     1      14.891   2.335  14.867  1.00  0.00     0.699 A 
HETATM   12  N7  UNL     1      15.936   2.795  14.164  1.00  0.00    -0.186 N 
HETATM   13  C15 UNL     1      16.363   2.196  13.040  1.00  0.00     0.215 A 
ATOM     14  H7  UNL     1      16.423   3.628  14.494  1.00  0.00     0.185 HD
HETATM   15  N8  UNL     1      15.752   1.096  12.566  1.00  0.00    -0.187 N 
HETATM   16  C16 UNL     1      14.696   0.610  13.255  1.00  0.00     0.691 A 
ATOM     17  H8  UNL     1      16.076   0.642  11.712  1.00  0.00     0.185 HD
HETATM   18  N10 UNL     1      14.300   1.228  14.365  1.00  0.00    -0.022 N 
ATOM     19  H10 UNL     1      13.500   0.843  14.867  1.00  0.00     0.203 HD
BRANCH  16  20
HETATM   20  N9  UNL     1      14.049  -0.456  12.858  1.00  0.00    -0.234 N 
ATOM     21  H92 UNL     1      14.549  -1.343  12.799  1.00  0.00     0.174 HD
ATOM     22  H91 UNL     1      13.061  -0.421  12.608  1.00  0.00     0.174 HD
ENDBRANCH  16  20
ENDBRANCH   9  11
ENDBRANCH   6   9
BRANCH   5  23
HETATM   23  C12 UNL     1      15.170   4.490  18.179  1.00  0.00     0.275 C 
BRANCH  23  24
HETATM   24  N5  UNL     1      13.981   5.297  18.334  1.00  0.00    -0.075 N 
ATOM     25  H53 UNL     1      13.555   5.136  19.246  1.00  0.00     0.274 HD
ATOM     26  H52 UNL     1      14.226   6.283  18.429  1.00  0.00     0.274 HD
ATOM     27  H51 UNL     1      13.295   5.169  17.590  1.00  0.00     0.274 HD
ENDBRANCH  23  24
ENDBRANCH   5  23
BRANCH   4  28
HETATM   28  N3  UNL     1      15.451   3.200  20.747  1.00  0.00    -0.363 N 
HETATM   29  C6  UNL     1      16.791   3.482  21.197  1.00  0.00     0.154 C 
HETATM   30  C7  UNL     1      16.822   4.904  21.714  1.00  0.00     0.291 C 
HETATM   31  N4  UNL     1      16.006   5.055  22.874  1.00  0.00     0.087 N 
HETATM   32  C8  UNL     1      16.831   4.934  24.052  1.00  0.00     0.310 C 
HETATM   33  C9  UNL     1      14.927   4.103  22.956  1.00  0.00     0.291 C 
HETATM   34  C10 UNL     1      14.389   3.726  21.592  1.00  0.00     0.154 C 
ENDBRANCH   4  28
BRANCH   1  35
HETATM   35  N1  UNL     1      14.230  -0.855  18.700  1.00  0.00    -0.224 N 
ATOM     36  H1  UNL     1      13.684  -1.189  19.493  1.00  0.00     0.177 HD
BRANCH  35  37
HETATM   37  C3  UNL     1      14.697  -1.818  17.743  1.00  0.00     0.164 C 
BRANCH  37  38
HETATM   38  C2  UNL     1      13.486  -2.323  16.977  1.00  0.00     0.187 C 
BRANCH  38  39
HETATM   39  O1  UNL     1      13.314  -1.487  15.877  1.00  0.00    -0.394 OA
HETATM   40  C1  UNL     1      11.975  -1.235  15.615  1.00  0.00     0.201 C 
ENDBRANCH  38  39
ENDBRANCH  37  38
ENDBRANCH  35  37
ENDBRANCH   1  35
TORSDOF 10
ENDMDL
MODEL 2
REMARK VINA RESULT: -7.786067274      3.174      8.218
REMARK  10 active torsions:
REMARK  status: ('A' for Active; 'I' for Inactive)
REMARK    1  A    between atoms: O1_2  and  C2_3 
REMARK    2  A    between atoms: C2_3  and  C3_4 
REMARK    3  A    between atoms: C3_4  and  N1_5 
REMARK    4  A    between atoms: N1_5  and  C4_7 
REMARK    5  A    between atoms: C5_10  and  N3_11 
REMARK    6  A    between atoms: C11_18  and  C12_19 
REMARK    7  A    between atoms: C12_19  and  N5_20 
REMARK    8  A    between atoms: C13_24  and  N6_25 
REMARK    9  A    between atoms: N6_25  and  C14_27 
REMARK   10  A    between atoms: C16_33  and  N9_34 
ROOT
HETATM    1  C4  UNL     1      16.721   2.563  20.887  1.00  0.00     0.681 A 
HETATM    2  N2  UNL     1      16.378   2.312  19.627  1.00  0.00    -0.176 N 
ATOM      3  H2  UNL     1      17.108   2.339  18.916  1.00  0.00     0.186 HD
HETATM    4  C5  UNL     1      15.105   2.020  19.231  1.00  0.00     0.131 A 
HETATM    5  C11 UNL     1      14.160   2.001  20.249  1.00  0.00     0.057 A 
HETATM    6  C13 UNL     1      14.507   2.257  21.550  1.00  0.00     0.148 A 
HETATM    7  N11 UNL     1      15.787   2.534  21.838  1.00  0.00    -0.175 N 
ATOM      8  H11 UNL     1      16.052   2.726  22.804  1.00  0.00     0.186 HD
ENDROOT
BRANCH   6   9
HETATM    9  N6  UNL     1      13.582   2.243  22.618  1.00  0.00    -0.175 N 
ATOM     10  H6  UNL     1      13.246   1.330  22.922  1.00  0.00     0.186 HD
BRANCH   9  11
HETATM   11  C14 UNL     1      13.125   3.261  23.243  1.00  0.00     0.699 A 
HETATM   12  N7  UNL     1      13.697   3.871  24.292  1.00  0.00    -0.186 N 
HETATM   13  C15 UNL     1      13.150   4.949  24.879  1.00  0.00     0.215 A 
ATOM     14  H7  UNL     1      14.576   3.504  24.657  1.00  0.00     0.185 HD
HETATM   15  N8  UNL     1      11.992   5.467  24.434  1.00  0.00    -0.187 N 
HETATM   16  C16 UNL     1      11.394   4.872  23.378  1.00  0.00     0.691 A 
ATOM     17  H8  UNL     1      11.576   6.286  24.881  1.00  0.00     0.185 HD
HETATM   18  N10 UNL     1      11.963   3.806  22.821  1.00  0.00    -0.022 N 
ATOM     19  H10 UNL     1      11.493   3.374  22.026  1.00  0.00     0.203 HD
BRANCH  16  20
HETATM   20  N9  UNL     1      10.266   5.318  22.888  1.00  0.00    -0.234 N 
ATOM     21  H92 UNL     1      10.203   6.295  22.603  1.00  0.00     0.174 HD
ATOM     22  H91 UNL     1       9.452   4.713  22.783  1.00  0.00     0.174 HD
ENDBRANCH  16  20
ENDBRANCH   9  11
ENDBRANCH   6   9
BRANCH   5  23
HETATM   23  C12 UNL     1      12.760   1.716  19.915  1.00  0.00     0.275 C 
BRANCH  23  24
HETATM   24  N5  UNL     1      12.390   0.329  20.078  1.00  0.00    -0.075 N 
ATOM     25  H53 UNL     1      12.518  -0.181  19.204  1.00  0.00     0.274 HD
ATOM     26  H52 UNL     1      13.069  -0.158  20.663  1.00  0.00     0.274 HD
ATOM     27  H51 UNL     1      11.445   0.192  20.437  1.00  0.00     0.274 HD
ENDBRANCH  23  24
ENDBRANCH   5  23
BRANCH   4  28
HETATM   28  N3  UNL     1      14.810   1.755  17.882  1.00  0.00    -0.363 N 
HETATM   29  C6  UNL     1      14.470   0.482  17.297  1.00  0.00     0.154 C 
HETATM   30  C7  UNL     1      13.364   0.710  16.288  1.00  0.00     0.291 C 
HETATM   31  N4  UNL     1      13.813   1.508  15.195  1.00  0.00     0.087 N 
HETATM   32  C8  UNL     1      14.207   0.644  14.108  1.00  0.00     0.310 C 
HETATM   33  C9  UNL     1      14.911   2.383  15.522  1.00  0.00     0.291 C 
HETATM   34  C10 UNL     1      14.846   2.875  16.953  1.00  0.00     0.154 C 
ENDBRANCH   4  28
BRANCH   1  35
HETATM   35  N1  UNL     1      17.932   2.836  21.229  1.00  0.00    -0.224 N 
ATOM     36  H1  UNL     1      18.577   2.061  21.383  1.00  0.00     0.177 HD
BRANCH  35  37
HETATM   37  C3  UNL     1      18.423   4.173  21.406  1.00  0.00     0.164 C 
BRANCH  37  38
HETATM   38  C2  UNL     1      18.646   4.385  22.894  1.00  0.00     0.187 C 
BRANCH  38  39
HETATM   39  O1  UNL     1      17.886   5.487  23.274  1.00  0.00    -0.394 OA
HETATM   40  C1  UNL     1      17.108   5.226  24.393  1.00  0.00     0.201 C 
ENDBRANCH  38  39
ENDBRANCH  37  38
ENDBRANCH  35  37
ENDBRANCH   1  35
TORSDOF 10
ENDMDL
MODEL 3
REMARK VINA RESULT: -7.644706820      0.996      1.478
REMARK  10 active torsions:
REMARK  status: ('A' for Active; 'I' for Inactive)
REMARK    1  A    between atoms: O1_2  and  C2_3 
REMARK    2  A    between atoms: C2_3  and  C3_4 
REMARK    3  A    between atoms: C3_4  and  N1_5 
REMARK    4  A    between atoms: N1_5  and  C4_7 
REMARK    5  A    between atoms: C5_10  and  N3_11 
REMARK    6  A    between atoms: C11_18  and  C12_19 
REMARK    7  A    between atoms: C12_19  and  N5_20 
REMARK    8  A    between atoms: C13_24  and  N6_25 
REMARK    9  A    between atoms: N6_25  and  C14_27 
REMARK   10  A    between atoms: C16_33  and  N9_34 
ROOT
HETATM    1  C4  UNL     1      14.304   0.167  18.506  1.00  0.00     0.681 A 
HETATM    2  N2  UNL     1      14.231   0.834  19.654  1.00  0.00    -0.176 N 
ATOM      3  H2  UNL     1      14.212   0.298  20.521  1.00  0.00     0.186 HD
HETATM    4  C5  UNL     1      14.182   2.196  19.739  1.00  0.00     0.131 A 
HETATM    5  C11 UNL     1      14.211   2.864  18.522  1.00  0.00     0.057 A 
HETATM    6  C13 UNL     1      14.287   2.183  17.335  1.00  0.00     0.148 A 
HETATM    7  N11 UNL     1      14.332   0.843  17.357  1.00  0.00    -0.175 N 
ATOM      8  H11 UNL     1      14.387   0.330  16.477  1.00  0.00     0.186 HD
ENDROOT
BRANCH   6   9
HETATM    9  N6  UNL     1      14.326   2.820  16.074  1.00  0.00    -0.175 N 
ATOM     10  H6  UNL     1      13.932   3.759  16.022  1.00  0.00     0.186 HD
BRANCH   9  11
HETATM   11  C14 UNL     1      14.804   2.337  14.991  1.00  0.00     0.699 A 
HETATM   12  N7  UNL     1      15.873   2.795  14.321  1.00  0.00    -0.186 N 
HETATM   13  C15 UNL     1      16.316   2.212  13.195  1.00  0.00     0.215 A 
ATOM     14  H7  UNL     1      16.365   3.613  14.680  1.00  0.00     0.185 HD
HETATM   15  N8  UNL     1      15.698   1.132  12.684  1.00  0.00    -0.187 N 
HETATM   16  C16 UNL     1      14.619   0.649  13.338  1.00  0.00     0.691 A 
ATOM     17  H8  UNL     1      16.035   0.690  11.828  1.00  0.00     0.185 HD
HETATM   18  N10 UNL     1      14.207   1.251  14.452  1.00  0.00    -0.022 N 
ATOM     19  H10 UNL     1      13.390   0.868  14.928  1.00  0.00     0.203 HD
BRANCH  16  20
HETATM   20  N9  UNL     1      13.965  -0.398  12.905  1.00  0.00    -0.234 N 
ATOM     21  H92 UNL     1      12.974  -0.488  13.126  1.00  0.00     0.174 HD
ATOM     22  H91 UNL     1      14.422  -1.123  12.352  1.00  0.00     0.174 HD
ENDBRANCH  16  20
ENDBRANCH   9  11
ENDBRANCH   6   9
BRANCH   5  23
HETATM   23  C12 UNL     1      14.142   4.329  18.513  1.00  0.00     0.275 C 
BRANCH  23  24
HETATM   24  N5  UNL     1      15.431   4.977  18.602  1.00  0.00    -0.075 N 
ATOM     25  H53 UNL     1      16.054   4.452  19.216  1.00  0.00     0.274 HD
ATOM     26  H52 UNL     1      15.940   4.887  17.723  1.00  0.00     0.274 HD
ATOM     27  H51 UNL     1      15.384   5.954  18.890  1.00  0.00     0.274 HD
ENDBRANCH  23  24
ENDBRANCH   5  23
BRANCH   4  28
HETATM   28  N3  UNL     1      14.115   2.841  20.987  1.00  0.00    -0.363 N 
HETATM   29  C6  UNL     1      12.929   3.277  21.680  1.00  0.00     0.154 C 
HETATM   30  C7  UNL     1      13.108   2.970  23.152  1.00  0.00     0.291 C 
HETATM   31  N4  UNL     1      14.168   3.738  23.719  1.00  0.00     0.087 N 
HETATM   32  C8  UNL     1      13.617   4.916  24.346  1.00  0.00     0.310 C 
HETATM   33  C9  UNL     1      15.173   4.139  22.767  1.00  0.00     0.291 C 
HETATM   34  C10 UNL     1      15.369   3.110  21.673  1.00  0.00     0.154 C 
ENDBRANCH   4  28
BRANCH   1  35
HETATM   35  N1  UNL     1      14.348  -1.119  18.459  1.00  0.00    -0.224 N 
ATOM     36  H1  UNL     1      14.208  -1.639  19.325  1.00  0.00     0.177 HD
BRANCH  35  37
HETATM   37  C3  UNL     1      14.585  -1.860  17.252  1.00  0.00     0.164 C 
BRANCH  37  38
HETATM   38  C2  UNL     1      13.231  -2.268  16.695  1.00  0.00     0.187 C 
BRANCH  38  39
HETATM   39  O1  UNL     1      12.938  -1.403  15.644  1.00  0.00    -0.394 OA
HETATM   40  C1  UNL     1      11.577  -1.159  15.533  1.00  0.00     0.201 C 
ENDBRANCH  38  39
ENDBRANCH  37  38
ENDBRANCH  35  37
ENDBRANCH   1  35
TORSDOF 10
ENDMDL
MODEL 4
REMARK VINA RESULT: -7.641080745      0.882      1.435
REMARK  10 active torsions:
REMARK  status: ('A' for Active; 'I' for Inactive)
REMARK    1  A    between atoms: O1_2  and  C2_3 
REMARK    2  A    between atoms: C2_3  and  C3_4 
REMARK    3  A    between atoms: C3_4  and  N1_5 
REMARK    4  A    between atoms: N1_5  and  C4_7 
REMARK    5  A    between atoms: C5_10  and  N3_11 
REMARK    6  A    between atoms: C11_18  and  C12_19 
REMARK    7  A    between atoms: C12_19  and  N5_20 
REMARK    8  A    between atoms: C13_24  and  N6_25 
REMARK    9  A    between atoms: N6_25  and  C14_27 
REMARK   10  A    between atoms: C16_33  and  N9_34 
ROOT
HETATM    1  C4  UNL     1      14.526   0.004  19.175  1.00  0.00     0.681 A 
HETATM    2  N2  UNL     1      14.954   0.816  20.137  1.00  0.00    -0.176 N 
ATOM      3  H2  UNL     1      15.187   0.408  21.042  1.00  0.00     0.186 HD
HETATM    4  C5  UNL     1      15.100   2.165  19.983  1.00  0.00     0.131 A 
HETATM    5  C11 UNL     1      14.764   2.654  18.727  1.00  0.00     0.057 A 
HETATM    6  C13 UNL     1      14.324   1.822  17.731  1.00  0.00     0.148 A 
HETATM    7  N11 UNL     1      14.215   0.510  17.982  1.00  0.00    -0.175 N 
ATOM      8  H11 UNL     1      13.886  -0.114  17.245  1.00  0.00     0.186 HD
ENDROOT
BRANCH   6   9
HETATM    9  N6  UNL     1      13.977   2.274  16.438  1.00  0.00    -0.175 N 
ATOM     10  H6  UNL     1      13.356   3.082  16.385  1.00  0.00     0.186 HD
BRANCH   9  11
HETATM   11  C14 UNL     1      14.364   1.773  15.327  1.00  0.00     0.699 A 
HETATM   12  N7  UNL     1      13.815   0.725  14.695  1.00  0.00    -0.186 N 
HETATM   13  C15 UNL     1      14.280   0.274  13.518  1.00  0.00     0.215 A 
ATOM     14  H7  UNL     1      13.017   0.254  15.123  1.00  0.00     0.185 HD
HETATM   15  N8  UNL     1      15.330   0.862  12.917  1.00  0.00    -0.187 N 
HETATM   16  C16 UNL     1      15.902   1.920  13.531  1.00  0.00     0.691 A 
ATOM     17  H8  UNL     1      15.683   0.519  12.023  1.00  0.00     0.185 HD
HETATM   18  N10 UNL     1      15.415   2.341  14.697  1.00  0.00    -0.022 N 
ATOM     19  H10 UNL     1      15.865   3.141  15.141  1.00  0.00     0.203 HD
BRANCH  16  20
HETATM   20  N9  UNL     1      16.926   2.545  13.009  1.00  0.00    -0.234 N 
ATOM     21  H92 UNL     1      17.318   2.204  12.132  1.00  0.00     0.174 HD
ATOM     22  H91 UNL     1      17.340   3.362  13.458  1.00  0.00     0.174 HD
ENDBRANCH  16  20
ENDBRANCH   9  11
ENDBRANCH   6   9
BRANCH   5  23
HETATM   23  C12 UNL     1      14.870   4.095  18.475  1.00  0.00     0.275 C 
BRANCH  23  24
HETATM   24  N5  UNL     1      16.192   4.525  18.078  1.00  0.00    -0.075 N 
ATOM     25  H53 UNL     1      16.698   3.760  17.630  1.00  0.00     0.274 HD
ATOM     26  H52 UNL     1      16.138   5.177  17.296  1.00  0.00     0.274 HD
ATOM     27  H51 UNL     1      16.743   4.922  18.838  1.00  0.00     0.274 HD
ENDBRANCH  23  24
ENDBRANCH   5  23
BRANCH   4  28
HETATM   28  N3  UNL     1      15.567   2.967  21.039  1.00  0.00    -0.363 N 
HETATM   29  C6  UNL     1      16.936   3.169  21.442  1.00  0.00     0.154 C 
HETATM   30  C7  UNL     1      17.111   4.631  21.794  1.00  0.00     0.291 C 
HETATM   31  N4  UNL     1      16.336   4.987  22.937  1.00  0.00     0.087 N 
HETATM   32  C8  UNL     1      17.170   4.921  24.114  1.00  0.00     0.310 C 
HETATM   33  C9  UNL     1      15.174   4.158  23.137  1.00  0.00     0.291 C 
HETATM   34  C10 UNL     1      14.576   3.683  21.829  1.00  0.00     0.154 C 
ENDBRANCH   4  28
BRANCH   1  35
HETATM   35  N1  UNL     1      14.398  -1.265  19.352  1.00  0.00    -0.224 N 
ATOM     36  H1  UNL     1      15.099  -1.747  19.914  1.00  0.00     0.177 HD
BRANCH  35  37
HETATM   37  C3  UNL     1      13.322  -2.038  18.800  1.00  0.00     0.164 C 
BRANCH  37  38
HETATM   38  C2  UNL     1      13.853  -2.742  17.563  1.00  0.00     0.187 C 
BRANCH  38  39
HETATM   39  O1  UNL     1      13.496  -1.970  16.461  1.00  0.00    -0.394 OA
HETATM   40  C1  UNL     1      12.133  -2.019  16.209  1.00  0.00     0.201 C 
ENDBRANCH  38  39
ENDBRANCH  37  38
ENDBRANCH  35  37
ENDBRANCH   1  35
TORSDOF 10
ENDMDL
MODEL 5
REMARK VINA RESULT: -7.460391620      2.880      4.838
REMARK  10 active torsions:
REMARK  status: ('A' for Active; 'I' for Inactive)
REMARK    1  A    between atoms: O1_2  and  C2_3 
REMARK    2  A    between atoms: C2_3  and  C3_4 
REMARK    3  A    between atoms: C3_4  and  N1_5 
REMARK    4  A    between atoms: N1_5  and  C4_7 
REMARK    5  A    between atoms: C5_10  and  N3_11 
REMARK    6  A    between atoms: C11_18  and  C12_19 
REMARK    7  A    between atoms: C12_19  and  N5_20 
REMARK    8  A    between atoms: C13_24  and  N6_25 
REMARK    9  A    between atoms: N6_25  and  C14_27 
REMARK   10  A    between atoms: C16_33  and  N9_34 
ROOT
HETATM    1  C4  UNL     1      17.329   3.924  19.426  1.00  0.00     0.681 A 
HETATM    2  N2  UNL     1      16.535   4.135  20.472  1.00  0.00    -0.176 N 
ATOM      3  H2  UNL     1      16.958   4.160  21.399  1.00  0.00     0.186 HD
HETATM    4  C5  UNL     1      15.186   4.319  20.375  1.00  0.00     0.131 A 
HETATM    5  C11 UNL     1      14.676   4.272  19.084  1.00  0.00     0.057 A 
HETATM    6  C13 UNL     1      15.489   4.056  18.002  1.00  0.00     0.148 A 
HETATM    7  N11 UNL     1      16.804   3.887  18.202  1.00  0.00    -0.175 N 
ATOM      8  H11 UNL     1      17.414   3.725  17.401  1.00  0.00     0.186 HD
ENDROOT
BRANCH   6   9
HETATM    9  N6  UNL     1      15.016   4.006  16.671  1.00  0.00    -0.175 N 
ATOM     10  H6  UNL     1      14.883   4.899  16.197  1.00  0.00     0.186 HD
BRANCH   9  11
HETATM   11  C14 UNL     1      14.737   2.953  16.002  1.00  0.00     0.699 A 
HETATM   12  N7  UNL     1      13.974   1.929  16.413  1.00  0.00    -0.186 N 
HETATM   13  C15 UNL     1      13.722   0.865  15.632  1.00  0.00     0.215 A 
ATOM     14  H7  UNL     1      13.572   1.960  17.350  1.00  0.00     0.185 HD
HETATM   15  N8  UNL     1      14.231   0.780  14.390  1.00  0.00    -0.187 N 
HETATM   16  C16 UNL     1      15.004   1.798  13.950  1.00  0.00     0.691 A 
ATOM     17  H8  UNL     1      14.040  -0.028  13.798  1.00  0.00     0.185 HD
HETATM   18  N10 UNL     1      15.233   2.837  14.750  1.00  0.00    -0.022 N 
ATOM     19  H10 UNL     1      15.820   3.592  14.396  1.00  0.00     0.203 HD
BRANCH  16  20
HETATM   20  N9  UNL     1      15.535   1.789  12.754  1.00  0.00    -0.234 N 
ATOM     21  H92 UNL     1      16.480   1.426  12.636  1.00  0.00     0.174 HD
ATOM     22  H91 UNL     1      15.026   2.135  11.941  1.00  0.00     0.174 HD
ENDBRANCH  16  20
ENDBRANCH   9  11
ENDBRANCH   6   9
BRANCH   5  23
HETATM   23  C12 UNL     1      13.232   4.439  18.883  1.00  0.00     0.275 C 
BRANCH  23  24
HETATM   24  N5  UNL     1      12.461   3.247  19.154  1.00  0.00    -0.075 N 
ATOM     25  H53 UNL     1      12.768   2.811  20.023  1.00  0.00     0.274 HD
ATOM     26  H52 UNL     1      11.504   3.488  19.410  1.00  0.00     0.274 HD
ATOM     27  H51 UNL     1      12.468   2.569  18.392  1.00  0.00     0.274 HD
ENDBRANCH  23  24
ENDBRANCH   5  23
BRANCH   4  28
HETATM   28  N3  UNL     1      14.402   4.547  21.520  1.00  0.00    -0.363 N 
HETATM   29  C6  UNL     1      13.624   5.720  21.825  1.00  0.00     0.154 C 
HETATM   30  C7  UNL     1      12.316   5.269  22.441  1.00  0.00     0.291 C 
HETATM   31  N4  UNL     1      12.527   4.631  23.699  1.00  0.00     0.087 N 
HETATM   32  C8  UNL     1      12.337   5.595  24.757  1.00  0.00     0.310 C 
HETATM   33  C9  UNL     1      13.829   4.030  23.839  1.00  0.00     0.291 C 
HETATM   34  C10 UNL     1      14.358   3.495  22.525  1.00  0.00     0.154 C 
ENDBRANCH   4  28
BRANCH   1  35
HETATM   35  N1  UNL     1      18.600   3.753  19.551  1.00  0.00    -0.224 N 
ATOM     36  H1  UNL     1      19.042   3.008  19.013  1.00  0.00     0.177 HD
BRANCH  35  37
HETATM   37  C3  UNL     1      19.426   4.553  20.409  1.00  0.00     0.164 C 
BRANCH  37  38
HETATM   38  C2  UNL     1      19.343   3.962  21.806  1.00  0.00     0.187 C 
BRANCH  38  39
HETATM   39  O1  UNL     1      18.818   4.944  22.641  1.00  0.00    -0.394 OA
HETATM   40  C1  UNL     1      18.083   4.405  23.686  1.00  0.00     0.201 C 
ENDBRANCH  38  39
ENDBRANCH  37  38
ENDBRANCH  35  37
ENDBRANCH   1  35
TORSDOF 10
ENDMDL
