MODEL 1
REMARK VINA RESULT: -7.617924770      0.000      0.000
REMARK  8 active torsions:
REMARK  status: ('A' for Active; 'I' for Inactive)
REMARK    1  A    between atoms: N1_2  and  N2_3 
REMARK    2  A    between atoms: N1_2  and  S1_6 
REMARK    3  A    between atoms: S1_6  and  N3_9 
REMARK    4  A    between atoms: N3_9  and  N4_11 
REMARK    5  A    between atoms: N4_11  and  C2_13 
REMARK    6  A    between atoms: C7_18  and  S2_19 
REMARK    7  A    between atoms: S2_19  and  N5_20 
REMARK    8  A    between atoms: S2_19  and  N6_24 
REMARK       I    between atoms: N6_24  and  C8_26 
ROOT
HETATM    1  C2  UNL     1      15.604   1.862  20.989  1.00  0.00     0.073 A 
HETATM    2  C3  UNL     1      15.412   0.637  20.383  1.00  0.00     0.072 A 
HETATM    3  C4  UNL     1      14.172   0.144  20.013  1.00  0.00     0.107 A 
HETATM    4  C5  UNL     1      13.036   0.924  20.265  1.00  0.00     0.106 A 
HETATM    5  C6  UNL     1      13.221   2.138  20.864  1.00  0.00     0.065 A 
HETATM    6  C7  UNL     1      14.474   2.623  21.232  1.00  0.00     0.089 A 
HETATM    7  O4  UNL     1      11.922   0.209  19.803  1.00  0.00    -0.323 OA
HETATM    8  C9  UNL     1      12.370  -0.799  18.914  1.00  0.00     0.352 C 
HETATM    9  O5  UNL     1      13.687  -1.007  19.410  1.00  0.00    -0.323 OA
ENDROOT
BRANCH   1  10
HETATM   10  N4  UNL     1      16.884   2.353  21.359  1.00  0.00    -0.289 N 
ATOM     11  H4  UNL     1      16.963   2.792  22.276  1.00  0.00     0.188 HD
BRANCH  10  12
HETATM   12  N3  UNL     1      18.034   2.292  20.594  1.00  0.00    -0.212 N 
ATOM     13  H3  UNL     1      18.659   1.488  20.526  1.00  0.00     0.201 HD
BRANCH  12  14
HETATM   14  S1  UNL     1      18.240   3.800  19.772  1.00  0.00     0.332 S 
HETATM   15  O1  UNL     1      19.143   3.613  18.576  1.00  0.00    -0.185 OA
HETATM   16  O2  UNL     1      16.909   4.248  19.228  1.00  0.00    -0.185 OA
BRANCH  14  17
HETATM   17  N1  UNL     1      18.898   5.016  20.794  1.00  0.00    -0.113 NA
HETATM   18  C1  UNL     1      19.893   4.468  21.681  1.00  0.00     0.157 C 
BRANCH  17  19
HETATM   19  N2  UNL     1      17.870   5.599  21.529  1.00  0.00    -0.349 NA
ATOM     20  H22 UNL     1      18.272   6.206  22.243  1.00  0.00     0.172 HD
ATOM     21  H21 UNL     1      17.247   6.120  20.911  1.00  0.00     0.172 HD
ENDBRANCH  17  19
ENDBRANCH  14  17
ENDBRANCH  12  14
ENDBRANCH  10  12
ENDBRANCH   1  10
BRANCH   6  22
HETATM   22  S2  UNL     1      14.581   4.181  21.996  1.00  0.00     0.141 S 
HETATM   23  O3  UNL     1      15.734   4.302  22.944  1.00  0.00    -0.223 OA
BRANCH  22  24
HETATM   24  N5  UNL     1      14.731   5.383  20.767  1.00  0.00    -0.341 N 
ATOM     25  H52 UNL     1      15.467   5.409  20.061  1.00  0.00     0.167 HD
ATOM     26  H51 UNL     1      13.966   6.050  20.872  1.00  0.00     0.167 HD
ENDBRANCH  22  24
BRANCH  22  27
HETATM   27  N6  UNL     1      13.288   4.411  22.876  1.00  0.00    -0.271 N 
HETATM   28  C8  UNL     1      13.289   3.854  24.178  1.00  0.00     0.194 C 
HETATM   29  N7  UNL     1      13.618   4.607  25.161  1.00  0.00    -0.373 N 
HETATM   30  N8  UNL     1      12.943   2.497  24.415  1.00  0.00    -0.063 NA
ATOM     31  H72 UNL     1      13.866   5.581  24.991  1.00  0.00     0.158 HD
ATOM     32  H71 UNL     1      13.619   4.206  26.099  1.00  0.00     0.158 HD
ATOM     33  H6  UNL     1      12.488   4.936  22.523  1.00  0.00     0.180 HD
ENDBRANCH  22  27
ENDBRANCH   6  22
TORSDOF 8
ENDMDL
MODEL 2
REMARK VINA RESULT: -7.566776038      2.201      2.522
REMARK  8 active torsions:
REMARK  status: ('A' for Active; 'I' for Inactive)
REMARK    1  A    between atoms: N1_2  and  N2_3 
REMARK    2  A    between atoms: N1_2  and  S1_6 
REMARK    3  A    between atoms: S1_6  and  N3_9 
REMARK    4  A    between atoms: N3_9  and  N4_11 
REMARK    5  A    between atoms: N4_11  and  C2_13 
REMARK    6  A    between atoms: C7_18  and  S2_19 
REMARK    7  A    between atoms: S2_19  and  N5_20 
REMARK    8  A    between atoms: S2_19  and  N6_24 
REMARK       I    between atoms: N6_24  and  C8_26 
ROOT
HETATM    1  C2  UNL     1      14.872   2.641  21.476  1.00  0.00     0.073 A 
HETATM    2  C3  UNL     1      15.570   1.512  21.098  1.00  0.00     0.072 A 
HETATM    3  C4  UNL     1      15.033   0.494  20.327  1.00  0.00     0.107 A 
HETATM    4  C5  UNL     1      13.703   0.603  19.902  1.00  0.00     0.106 A 
HETATM    5  C6  UNL     1      13.007   1.719  20.274  1.00  0.00     0.065 A 
HETATM    6  C7  UNL     1      13.559   2.737  21.049  1.00  0.00     0.089 A 
HETATM    7  O4  UNL     1      13.406  -0.541  19.149  1.00  0.00    -0.323 OA
HETATM    8  C9  UNL     1      14.623  -1.153  18.759  1.00  0.00     0.352 C 
HETATM    9  O5  UNL     1      15.475  -0.714  19.810  1.00  0.00    -0.323 OA
ENDROOT
BRANCH   1  10
HETATM   10  N4  UNL     1      15.440   3.677  22.265  1.00  0.00    -0.289 N 
ATOM     11  H4  UNL     1      15.330   3.600  23.276  1.00  0.00     0.188 HD
BRANCH  10  12
HETATM   12  N3  UNL     1      16.127   4.778  21.793  1.00  0.00    -0.212 N 
ATOM     13  H3  UNL     1      15.820   5.389  21.035  1.00  0.00     0.201 HD
BRANCH  12  14
HETATM   14  S1  UNL     1      17.592   4.953  22.696  1.00  0.00     0.332 S 
HETATM   15  O1  UNL     1      18.330   3.636  22.736  1.00  0.00    -0.185 OA
HETATM   16  O2  UNL     1      18.497   5.920  21.979  1.00  0.00    -0.185 OA
BRANCH  14  17
HETATM   17  N1  UNL     1      17.308   5.492  24.303  1.00  0.00    -0.113 NA
HETATM   18  C1  UNL     1      18.201   4.851  25.234  1.00  0.00     0.157 C 
BRANCH  17  19
HETATM   19  N2  UNL     1      15.985   5.226  24.645  1.00  0.00    -0.349 NA
ATOM     20  H22 UNL     1      15.967   4.646  25.484  1.00  0.00     0.172 HD
ATOM     21  H21 UNL     1      15.476   6.098  24.789  1.00  0.00     0.172 HD
ENDBRANCH  17  19
ENDBRANCH  14  17
ENDBRANCH  12  14
ENDBRANCH  10  12
ENDBRANCH   1  10
BRANCH   6  22
HETATM   22  S2  UNL     1      12.571   4.106  21.465  1.00  0.00     0.141 S 
HETATM   23  O3  UNL     1      13.358   5.357  21.704  1.00  0.00    -0.223 OA
BRANCH  22  24
HETATM   24  N5  UNL     1      11.449   4.379  20.183  1.00  0.00    -0.341 N 
ATOM     25  H52 UNL     1      11.703   4.550  19.210  1.00  0.00     0.167 HD
ATOM     26  H51 UNL     1      10.505   4.339  20.566  1.00  0.00     0.167 HD
ENDBRANCH  22  24
BRANCH  22  27
HETATM   27  N6  UNL     1      11.830   3.808  22.830  1.00  0.00    -0.271 N 
HETATM   28  C8  UNL     1      12.415   4.336  24.007  1.00  0.00     0.194 C 
HETATM   29  N7  UNL     1      11.972   5.450  24.459  1.00  0.00    -0.373 N 
HETATM   30  N8  UNL     1      13.469   3.669  24.687  1.00  0.00    -0.063 NA
ATOM     31  H72 UNL     1      11.215   5.929  23.971  1.00  0.00     0.158 HD
ATOM     32  H71 UNL     1      12.393   5.831  25.307  1.00  0.00     0.158 HD
ATOM     33  H6  UNL     1      10.970   3.261  22.862  1.00  0.00     0.180 HD
ENDBRANCH  22  27
ENDBRANCH   6  22
TORSDOF 8
ENDMDL
MODEL 3
REMARK VINA RESULT: -7.551088764      2.352      2.526
REMARK  8 active torsions:
REMARK  status: ('A' for Active; 'I' for Inactive)
REMARK    1  A    between atoms: N1_2  and  N2_3 
REMARK    2  A    between atoms: N1_2  and  S1_6 
REMARK    3  A    between atoms: S1_6  and  N3_9 
REMARK    4  A    between atoms: N3_9  and  N4_11 
REMARK    5  A    between atoms: N4_11  and  C2_13 
REMARK    6  A    between atoms: C7_18  and  S2_19 
REMARK    7  A    between atoms: S2_19  and  N5_20 
REMARK    8  A    between atoms: S2_19  and  N6_24 
REMARK       I    between atoms: N6_24  and  C8_26 
ROOT
HETATM    1  C2  UNL     1      14.571   2.834  20.818  1.00  0.00     0.073 A 
HETATM    2  C3  UNL     1      15.021   1.850  19.960  1.00  0.00     0.072 A 
HETATM    3  C4  UNL     1      14.395   1.519  18.770  1.00  0.00     0.107 A 
HETATM    4  C5  UNL     1      13.236   2.214  18.403  1.00  0.00     0.106 A 
HETATM    5  C6  UNL     1      12.786   3.189  19.250  1.00  0.00     0.065 A 
HETATM    6  C7  UNL     1      13.425   3.513  20.445  1.00  0.00     0.089 A 
HETATM    7  O4  UNL     1      12.803   1.695  17.175  1.00  0.00    -0.323 OA
HETATM    8  C9  UNL     1      13.878   0.990  16.580  1.00  0.00     0.352 C 
HETATM    9  O5  UNL     1      14.607   0.613  17.742  1.00  0.00    -0.323 OA
ENDROOT
BRANCH   1  10
HETATM   10  N4  UNL     1      15.227   3.162  22.034  1.00  0.00    -0.289 N 
ATOM     11  H4  UNL     1      14.657   3.586  22.766  1.00  0.00     0.188 HD
BRANCH  10  12
HETATM   12  N3  UNL     1      16.564   2.962  22.320  1.00  0.00    -0.212 N 
ATOM     13  H3  UNL     1      17.023   2.055  22.407  1.00  0.00     0.201 HD
BRANCH  12  14
HETATM   14  S1  UNL     1      17.333   4.501  22.506  1.00  0.00     0.332 S 
HETATM   15  O1  UNL     1      18.829   4.348  22.361  1.00  0.00    -0.185 OA
HETATM   16  O2  UNL     1      16.892   5.408  21.388  1.00  0.00    -0.185 OA
BRANCH  14  17
HETATM   17  N1  UNL     1      16.983   5.225  24.025  1.00  0.00    -0.113 NA
HETATM   18  C1  UNL     1      17.975   4.874  25.011  1.00  0.00     0.157 C 
BRANCH  17  19
HETATM   19  N2  UNL     1      15.722   4.814  24.446  1.00  0.00    -0.349 NA
ATOM     20  H22 UNL     1      15.722   4.720  25.462  1.00  0.00     0.172 HD
ATOM     21  H21 UNL     1      15.013   5.480  24.138  1.00  0.00     0.172 HD
ENDBRANCH  17  19
ENDBRANCH  14  17
ENDBRANCH  12  14
ENDBRANCH  10  12
ENDBRANCH   1  10
BRANCH   6  22
HETATM   22  S2  UNL     1      12.753   4.768  21.442  1.00  0.00     0.141 S 
HETATM   23  O3  UNL     1      13.782   5.515  22.235  1.00  0.00    -0.223 OA
BRANCH  22  24
HETATM   24  N5  UNL     1      11.906   5.877  20.428  1.00  0.00    -0.341 N 
ATOM     25  H52 UNL     1      12.319   6.388  19.647  1.00  0.00     0.167 HD
ATOM     26  H51 UNL     1      10.937   5.929  20.744  1.00  0.00     0.167 HD
ENDBRANCH  22  24
BRANCH  22  27
HETATM   27  N6  UNL     1      11.792   4.113  22.514  1.00  0.00    -0.271 N 
HETATM   28  C8  UNL     1      12.277   4.023  23.841  1.00  0.00     0.194 C 
HETATM   29  N7  UNL     1      11.943   4.937  24.674  1.00  0.00    -0.373 N 
HETATM   30  N8  UNL     1      13.115   2.956  24.264  1.00  0.00    -0.063 NA
ATOM     31  H72 UNL     1      11.341   5.702  24.371  1.00  0.00     0.158 HD
ATOM     32  H71 UNL     1      12.292   4.872  25.631  1.00  0.00     0.158 HD
ATOM     33  H6  UNL     1      10.865   3.771  22.262  1.00  0.00     0.180 HD
ENDBRANCH  22  27
ENDBRANCH   6  22
TORSDOF 8
ENDMDL
MODEL 4
REMARK VINA RESULT: -7.529239602      1.034      1.307
REMARK  8 active torsions:
REMARK  status: ('A' for Active; 'I' for Inactive)
REMARK    1  A    between atoms: N1_2  and  N2_3 
REMARK    2  A    between atoms: N1_2  and  S1_6 
REMARK    3  A    between atoms: S1_6  and  N3_9 
REMARK    4  A    between atoms: N3_9  and  N4_11 
REMARK    5  A    between atoms: N4_11  and  C2_13 
REMARK    6  A    between atoms: C7_18  and  S2_19 
REMARK    7  A    between atoms: S2_19  and  N5_20 
REMARK    8  A    between atoms: S2_19  and  N6_24 
REMARK       I    between atoms: N6_24  and  C8_26 
ROOT
HETATM    1  C2  UNL     1      15.398   1.440  20.958  1.00  0.00     0.073 A 
HETATM    2  C3  UNL     1      15.431   0.283  20.207  1.00  0.00     0.072 A 
HETATM    3  C4  UNL     1      14.301  -0.353  19.719  1.00  0.00     0.107 A 
HETATM    4  C5  UNL     1      13.045   0.200  19.999  1.00  0.00     0.106 A 
HETATM    5  C6  UNL     1      13.008   1.346  20.742  1.00  0.00     0.065 A 
HETATM    6  C7  UNL     1      14.152   1.977  21.227  1.00  0.00     0.089 A 
HETATM    7  O4  UNL     1      12.080  -0.622  19.402  1.00  0.00    -0.323 OA
HETATM    8  C9  UNL     1      12.716  -1.431  18.428  1.00  0.00     0.352 C 
HETATM    9  O5  UNL     1      14.033  -1.485  18.965  1.00  0.00    -0.323 OA
ENDROOT
BRANCH   1  10
HETATM   10  N4  UNL     1      16.568   2.081  21.448  1.00  0.00    -0.289 N 
ATOM     11  H4  UNL     1      16.525   2.459  22.394  1.00  0.00     0.188 HD
BRANCH  10  12
HETATM   12  N3  UNL     1      17.758   2.240  20.764  1.00  0.00    -0.212 N 
ATOM     13  H3  UNL     1      18.474   1.522  20.643  1.00  0.00     0.201 HD
BRANCH  12  14
HETATM   14  S1  UNL     1      17.838   3.854  20.147  1.00  0.00     0.332 S 
HETATM   15  O1  UNL     1      18.924   3.951  19.102  1.00  0.00    -0.185 OA
HETATM   16  O2  UNL     1      16.546   4.174  19.443  1.00  0.00    -0.185 OA
BRANCH  14  17
HETATM   17  N1  UNL     1      18.138   5.011  21.383  1.00  0.00    -0.113 NA
HETATM   18  C1  UNL     1      18.855   4.421  22.485  1.00  0.00     0.157 C 
BRANCH  17  19
HETATM   19  N2  UNL     1      16.925   5.532  21.823  1.00  0.00    -0.349 NA
ATOM     20  H22 UNL     1      17.067   6.002  22.717  1.00  0.00     0.172 HD
ATOM     21  H21 UNL     1      16.543   6.173  21.128  1.00  0.00     0.172 HD
ENDBRANCH  17  19
ENDBRANCH  14  17
ENDBRANCH  12  14
ENDBRANCH  10  12
ENDBRANCH   1  10
BRANCH   6  22
HETATM   22  S2  UNL     1      13.976   3.428  22.168  1.00  0.00     0.141 S 
HETATM   23  O3  UNL     1      15.062   3.616  23.182  1.00  0.00    -0.223 OA
BRANCH  22  24
HETATM   24  N5  UNL     1      13.965   4.778  21.094  1.00  0.00    -0.341 N 
ATOM     25  H52 UNL     1      13.591   4.767  20.145  1.00  0.00     0.167 HD
ATOM     26  H51 UNL     1      14.393   5.573  21.570  1.00  0.00     0.167 HD
ENDBRANCH  22  24
BRANCH  22  27
HETATM   27  N6  UNL     1      12.635   3.340  23.002  1.00  0.00    -0.271 N 
HETATM   28  C8  UNL     1      11.934   4.550  23.222  1.00  0.00     0.194 C 
HETATM   29  N7  UNL     1      10.967   4.844  22.435  1.00  0.00    -0.373 N 
HETATM   30  N8  UNL     1      12.275   5.434  24.280  1.00  0.00    -0.063 NA
ATOM     31  H72 UNL     1      10.722   4.210  21.675  1.00  0.00     0.158 HD
ATOM     32  H71 UNL     1      10.462   5.716  22.593  1.00  0.00     0.158 HD
ATOM     33  H6  UNL     1      12.290   2.451  23.365  1.00  0.00     0.180 HD
ENDBRANCH  22  27
ENDBRANCH   6  22
TORSDOF 8
ENDMDL
MODEL 5
REMARK VINA RESULT: -7.516990082      2.748      5.305
REMARK  8 active torsions:
REMARK  status: ('A' for Active; 'I' for Inactive)
REMARK    1  A    between atoms: N1_2  and  N2_3 
REMARK    2  A    between atoms: N1_2  and  S1_6 
REMARK    3  A    between atoms: S1_6  and  N3_9 
REMARK    4  A    between atoms: N3_9  and  N4_11 
REMARK    5  A    between atoms: N4_11  and  C2_13 
REMARK    6  A    between atoms: C7_18  and  S2_19 
REMARK    7  A    between atoms: S2_19  and  N5_20 
REMARK    8  A    between atoms: S2_19  and  N6_24 
REMARK       I    between atoms: N6_24  and  C8_26 
ROOT
HETATM    1  C2  UNL     1      15.022   3.720  21.179  1.00  0.00     0.073 A 
HETATM    2  C3  UNL     1      16.187   3.704  20.439  1.00  0.00     0.072 A 
HETATM    3  C4  UNL     1      17.395   4.211  20.889  1.00  0.00     0.107 A 
HETATM    4  C5  UNL     1      17.450   4.779  22.168  1.00  0.00     0.106 A 
HETATM    5  C6  UNL     1      16.299   4.798  22.905  1.00  0.00     0.065 A 
HETATM    6  C7  UNL     1      15.090   4.284  22.441  1.00  0.00     0.089 A 
HETATM    7  O4  UNL     1      18.767   5.212  22.380  1.00  0.00    -0.323 OA
HETATM    8  C9  UNL     1      19.610   4.568  21.442  1.00  0.00     0.352 C 
HETATM    9  O5  UNL     1      18.683   4.329  20.390  1.00  0.00    -0.323 OA
ENDROOT
BRANCH   1  10
HETATM   10  N4  UNL     1      13.792   3.193  20.702  1.00  0.00    -0.289 N 
ATOM     11  H4  UNL     1      13.233   3.798  20.101  1.00  0.00     0.188 HD
BRANCH  10  12
HETATM   12  N3  UNL     1      13.283   1.938  20.975  1.00  0.00    -0.212 N 
ATOM     13  H3  UNL     1      12.797   1.667  21.830  1.00  0.00     0.201 HD
BRANCH  12  14
HETATM   14  S1  UNL     1      13.602   0.899  19.628  1.00  0.00     0.332 S 
HETATM   15  O1  UNL     1      12.524  -0.154  19.525  1.00  0.00    -0.185 OA
HETATM   16  O2  UNL     1      13.524   1.705  18.358  1.00  0.00    -0.185 OA
BRANCH  14  17
HETATM   17  N1  UNL     1      15.135   0.131  19.746  1.00  0.00    -0.113 NA
HETATM   18  C1  UNL     1      15.066  -1.240  19.308  1.00  0.00     0.157 C 
BRANCH  17  19
HETATM   19  N2  UNL     1      15.575   0.193  21.065  1.00  0.00    -0.349 NA
ATOM     20  H22 UNL     1      16.143  -0.630  21.266  1.00  0.00     0.172 HD
ATOM     21  H21 UNL     1      16.102   1.051  21.221  1.00  0.00     0.172 HD
ENDBRANCH  17  19
ENDBRANCH  14  17
ENDBRANCH  12  14
ENDBRANCH  10  12
ENDBRANCH   1  10
BRANCH   6  22
HETATM   22  S2  UNL     1      13.691   4.372  23.468  1.00  0.00     0.141 S 
HETATM   23  O3  UNL     1      12.873   3.117  23.470  1.00  0.00    -0.223 OA
BRANCH  22  24
HETATM   24  N5  UNL     1      14.215   4.709  25.077  1.00  0.00    -0.341 N 
ATOM     25  H52 UNL     1      14.350   5.643  25.464  1.00  0.00     0.167 HD
ATOM     26  H51 UNL     1      14.362   3.823  25.561  1.00  0.00     0.167 HD
ENDBRANCH  22  24
BRANCH  22  27
HETATM   27  N6  UNL     1      12.725   5.501  22.925  1.00  0.00    -0.271 N 
HETATM   28  C8  UNL     1      11.464   5.086  22.433  1.00  0.00     0.194 C 
HETATM   29  N7  UNL     1      10.455   5.145  23.220  1.00  0.00    -0.373 N 
HETATM   30  N8  UNL     1      11.295   4.609  21.105  1.00  0.00    -0.063 NA
ATOM     31  H72 UNL     1      10.576   5.488  24.172  1.00  0.00     0.158 HD
ATOM     32  H71 UNL     1       9.546   4.846  22.865  1.00  0.00     0.158 HD
ATOM     33  H6  UNL     1      12.998   6.483  22.928  1.00  0.00     0.180 HD
ENDBRANCH  22  27
ENDBRANCH   6  22
TORSDOF 8
ENDMDL
