MODEL 1
REMARK VINA RESULT: -8.560612840      0.000      0.000
REMARK  10 active torsions:
REMARK  status: ('A' for Active; 'I' for Inactive)
REMARK    1  A    between atoms: C2_2  and  S1_5 
REMARK    2  A    between atoms: S1_5  and  N1_8 
REMARK    3  A    between atoms: N1_8  and  N2_10 
REMARK    4  A    between atoms: N2_10  and  C5_12 
REMARK    5  A    between atoms: C8_15  and  C9_16 
REMARK    6  A    between atoms: N3_17  and  N4_19 
REMARK    7  A    between atoms: C11_24  and  O3_25 
REMARK    8  A    between atoms: O3_25  and  N7_26 
REMARK    9  A    between atoms: N8_28  and  N9_29 
REMARK   10  A    between atoms: N8_28  and  O4_32 
ROOT
HETATM    1  C5  UNL     1      15.468   3.014  17.975  1.00  0.00     0.122 A 
HETATM    2  C6  UNL     1      14.724   2.007  18.549  1.00  0.00     0.051 A 
HETATM    3  C7  UNL     1      13.981   1.171  17.720  1.00  0.00     0.021 A 
HETATM    4  C8  UNL     1      13.984   1.344  16.348  1.00  0.00     0.034 A 
HETATM    5  C11 UNL     1      14.756   2.385  15.801  1.00  0.00     0.185 A 
HETATM    6  N10 UNL     1      15.449   3.154  16.636  1.00  0.00    -0.319 N 
ATOM      7  H10 UNL     1      16.008   3.906  16.231  1.00  0.00     0.169 HD
ENDROOT
BRANCH   1   8
HETATM    8  N2  UNL     1      16.173   3.812  18.707  1.00  0.00    -0.276 N 
ATOM      9  H2  UNL     1      16.907   4.384  18.290  1.00  0.00     0.189 HD
BRANCH   8  10
HETATM   10  N1  UNL     1      15.913   3.878  20.077  1.00  0.00    -0.225 N 
ATOM     11  H1  UNL     1      16.189   3.091  20.665  1.00  0.00     0.200 HD
BRANCH  10  12
HETATM   12  S1  UNL     1      15.149   5.230  20.819  1.00  0.00     0.251 S 
HETATM   13  O1  UNL     1      15.615   5.337  22.246  1.00  0.00    -0.204 OA
HETATM   14  O2  UNL     1      15.546   6.471  20.065  1.00  0.00    -0.204 OA
BRANCH  12  15
HETATM   15  C2  UNL     1      13.365   5.062  20.773  1.00  0.00     0.073 C 
HETATM   16  C1  UNL     1      12.958   3.717  21.283  1.00  0.00     0.033 C 
HETATM   17  C3  UNL     1      12.791   6.119  21.695  1.00  0.00     0.033 C 
HETATM   18  C4  UNL     1      12.914   5.304  19.347  1.00  0.00     0.033 C 
ENDBRANCH  12  15
ENDBRANCH  10  12
ENDBRANCH   8  10
ENDBRANCH   1   8
BRANCH   5  19
HETATM   19  O3  UNL     1      14.754   2.550  14.434  1.00  0.00    -0.200 OA
BRANCH  19  20
HETATM   20  N7  UNL     1      15.852   2.536  13.646  1.00  0.00    -0.158 N 
HETATM   21  N8  UNL     1      16.121   1.607  12.826  1.00  0.00    -0.081 N 
ATOM     22  H7  UNL     1      16.502   3.319  13.715  1.00  0.00     0.220 HD
BRANCH  21  23
HETATM   23  N9  UNL     1      15.312   0.481  12.641  1.00  0.00    -0.302 N 
ATOM     24  H92 UNL     1      14.489   0.389  13.236  1.00  0.00     0.181 HD
ATOM     25  H91 UNL     1      15.502  -0.242  11.947  1.00  0.00     0.181 HD
ENDBRANCH  21  23
BRANCH  21  26
HETATM   26  O4  UNL     1      17.269   1.696  12.073  1.00  0.00    -0.252 OA
ATOM     27  H4  UNL     1      17.234   1.457  11.154  1.00  0.00     0.248 HD
ENDBRANCH  21  26
ENDBRANCH  19  20
ENDBRANCH   5  19
BRANCH   4  28
HETATM   28  C9  UNL     1      13.230   0.505  15.439  1.00  0.00     0.123 C 
HETATM   29  N3  UNL     1      13.197  -0.734  15.434  1.00  0.00    -0.309 N 
ATOM     30  H3  UNL     1      12.596  -1.110  14.700  1.00  0.00     0.186 HD
BRANCH  29  31
HETATM   31  N4  UNL     1      13.769  -1.684  16.168  1.00  0.00    -0.276 N 
HETATM   32  C10 UNL     1      13.097  -2.427  16.978  1.00  0.00     0.215 C 
HETATM   33  N5  UNL     1      11.697  -2.267  17.130  1.00  0.00    -0.065 NA
HETATM   34  N6  UNL     1      13.787  -3.413  17.720  1.00  0.00    -0.065 NA
ATOM     35  H4  UNL     1      14.775  -1.829  16.087  1.00  0.00     0.189 HD
ENDBRANCH  29  31
ENDBRANCH   4  28
TORSDOF 10
ENDMDL
MODEL 2
REMARK VINA RESULT: -8.448800797      0.912      1.327
REMARK  10 active torsions:
REMARK  status: ('A' for Active; 'I' for Inactive)
REMARK    1  A    between atoms: C2_2  and  S1_5 
REMARK    2  A    between atoms: S1_5  and  N1_8 
REMARK    3  A    between atoms: N1_8  and  N2_10 
REMARK    4  A    between atoms: N2_10  and  C5_12 
REMARK    5  A    between atoms: C8_15  and  C9_16 
REMARK    6  A    between atoms: N3_17  and  N4_19 
REMARK    7  A    between atoms: C11_24  and  O3_25 
REMARK    8  A    between atoms: O3_25  and  N7_26 
REMARK    9  A    between atoms: N8_28  and  N9_29 
REMARK   10  A    between atoms: N8_28  and  O4_32 
ROOT
HETATM    1  C5  UNL     1      15.530   3.168  17.926  1.00  0.00     0.122 A 
HETATM    2  C6  UNL     1      14.788   2.174  18.525  1.00  0.00     0.051 A 
HETATM    3  C7  UNL     1      14.039   1.322  17.718  1.00  0.00     0.021 A 
HETATM    4  C8  UNL     1      14.033   1.466  16.343  1.00  0.00     0.034 A 
HETATM    5  C11 UNL     1      14.803   2.494  15.770  1.00  0.00     0.185 A 
HETATM    6  N10 UNL     1      15.503   3.280  16.584  1.00  0.00    -0.319 N 
ATOM      7  H10 UNL     1      16.060   4.022  16.160  1.00  0.00     0.169 HD
ENDROOT
BRANCH   1   8
HETATM    8  N2  UNL     1      16.240   3.980  18.636  1.00  0.00    -0.276 N 
ATOM      9  H2  UNL     1      16.797   4.708  18.189  1.00  0.00     0.189 HD
BRANCH   8  10
HETATM   10  N1  UNL     1      16.234   3.845  20.025  1.00  0.00    -0.225 N 
ATOM     11  H1  UNL     1      16.438   2.930  20.427  1.00  0.00     0.200 HD
BRANCH  10  12
HETATM   12  S1  UNL     1      15.897   5.155  21.089  1.00  0.00     0.251 S 
HETATM   13  O1  UNL     1      17.152   5.517  21.837  1.00  0.00    -0.204 OA
HETATM   14  O2  UNL     1      15.444   6.330  20.265  1.00  0.00    -0.204 OA
BRANCH  12  15
HETATM   15  C2  UNL     1      14.602   4.720  22.251  1.00  0.00     0.073 C 
HETATM   16  C1  UNL     1      13.415   5.608  22.060  1.00  0.00     0.033 C 
HETATM   17  C3  UNL     1      14.189   3.294  21.949  1.00  0.00     0.033 C 
HETATM   18  C4  UNL     1      15.182   4.818  23.647  1.00  0.00     0.033 C 
ENDBRANCH  12  15
ENDBRANCH  10  12
ENDBRANCH   8  10
ENDBRANCH   1   8
BRANCH   5  19
HETATM   19  O3  UNL     1      14.792   2.630  14.399  1.00  0.00    -0.200 OA
BRANCH  19  20
HETATM   20  N7  UNL     1      15.882   2.569  13.602  1.00  0.00    -0.158 N 
HETATM   21  N8  UNL     1      16.129   1.606  12.816  1.00  0.00    -0.081 N 
ATOM     22  H7  UNL     1      16.545   3.344  13.635  1.00  0.00     0.220 HD
BRANCH  21  23
HETATM   23  N9  UNL     1      15.301   0.486  12.681  1.00  0.00    -0.302 N 
ATOM     24  H92 UNL     1      14.973   0.037  13.536  1.00  0.00     0.181 HD
ATOM     25  H91 UNL     1      15.013   0.103  11.781  1.00  0.00     0.181 HD
ENDBRANCH  21  23
BRANCH  21  26
HETATM   26  O4  UNL     1      17.270   1.648  12.048  1.00  0.00    -0.252 OA
ATOM     27  H4  UNL     1      17.595   0.843  11.664  1.00  0.00     0.248 HD
ENDBRANCH  21  26
ENDBRANCH  19  20
ENDBRANCH   5  19
BRANCH   4  28
HETATM   28  C9  UNL     1      13.272   0.609  15.458  1.00  0.00     0.123 C 
HETATM   29  N3  UNL     1      13.233  -0.630  15.482  1.00  0.00    -0.309 N 
ATOM     30  H3  UNL     1      12.628  -1.020  14.759  1.00  0.00     0.186 HD
BRANCH  29  31
HETATM   31  N4  UNL     1      13.803  -1.564  16.237  1.00  0.00    -0.276 N 
HETATM   32  C10 UNL     1      13.115  -2.387  16.951  1.00  0.00     0.215 C 
HETATM   33  N5  UNL     1      11.699  -2.337  16.969  1.00  0.00    -0.065 NA
HETATM   34  N6  UNL     1      13.804  -3.350  17.725  1.00  0.00    -0.065 NA
ATOM     35  H4  UNL     1      14.820  -1.632  16.252  1.00  0.00     0.189 HD
ENDBRANCH  29  31
ENDBRANCH   4  28
TORSDOF 10
ENDMDL
MODEL 3
REMARK VINA RESULT: -8.368155009      4.637      7.678
REMARK  10 active torsions:
REMARK  status: ('A' for Active; 'I' for Inactive)
REMARK    1  A    between atoms: C2_2  and  S1_5 
REMARK    2  A    between atoms: S1_5  and  N1_8 
REMARK    3  A    between atoms: N1_8  and  N2_10 
REMARK    4  A    between atoms: N2_10  and  C5_12 
REMARK    5  A    between atoms: C8_15  and  C9_16 
REMARK    6  A    between atoms: N3_17  and  N4_19 
REMARK    7  A    between atoms: C11_24  and  O3_25 
REMARK    8  A    between atoms: O3_25  and  N7_26 
REMARK    9  A    between atoms: N8_28  and  N9_29 
REMARK   10  A    between atoms: N8_28  and  O4_32 
ROOT
HETATM    1  C5  UNL     1      11.543   4.323  21.271  1.00  0.00     0.122 A 
HETATM    2  C6  UNL     1      11.173   5.132  22.324  1.00  0.00     0.051 A 
HETATM    3  C7  UNL     1      12.002   5.194  23.441  1.00  0.00     0.021 A 
HETATM    4  C8  UNL     1      13.174   4.462  23.499  1.00  0.00     0.034 A 
HETATM    5  C11 UNL     1      13.516   3.648  22.405  1.00  0.00     0.185 A 
HETATM    6  N10 UNL     1      12.691   3.624  21.361  1.00  0.00    -0.319 N 
ATOM      7  H10 UNL     1      12.946   3.033  20.571  1.00  0.00     0.169 HD
ENDROOT
BRANCH   1   8
HETATM    8  N2  UNL     1      10.804   4.236  20.216  1.00  0.00    -0.276 N 
ATOM      9  H2  UNL     1       9.817   4.491  20.252  1.00  0.00     0.189 HD
BRANCH   8  10
HETATM   10  N1  UNL     1      11.377   3.787  19.025  1.00  0.00    -0.225 N 
ATOM     11  H1  UNL     1      11.090   2.880  18.657  1.00  0.00     0.200 HD
BRANCH  10  12
HETATM   12  S1  UNL     1      12.546   4.698  18.149  1.00  0.00     0.251 S 
HETATM   13  O1  UNL     1      11.866   5.401  17.006  1.00  0.00    -0.204 OA
HETATM   14  O2  UNL     1      13.148   5.716  19.081  1.00  0.00    -0.204 OA
BRANCH  12  15
HETATM   15  C2  UNL     1      13.847   3.636  17.522  1.00  0.00     0.073 C 
HETATM   16  C1  UNL     1      13.355   2.229  17.404  1.00  0.00     0.033 C 
HETATM   17  C3  UNL     1      14.206   4.137  16.138  1.00  0.00     0.033 C 
HETATM   18  C4  UNL     1      15.034   3.760  18.454  1.00  0.00     0.033 C 
ENDBRANCH  12  15
ENDBRANCH  10  12
ENDBRANCH   8  10
ENDBRANCH   1   8
BRANCH   5  19
HETATM   19  O3  UNL     1      14.684   2.922  22.471  1.00  0.00    -0.200 OA
BRANCH  19  20
HETATM   20  N7  UNL     1      14.977   1.846  21.709  1.00  0.00    -0.158 N 
HETATM   21  N8  UNL     1      16.125   1.615  21.223  1.00  0.00    -0.081 N 
ATOM     22  H7  UNL     1      14.230   1.179  21.512  1.00  0.00     0.220 HD
BRANCH  21  23
HETATM   23  N9  UNL     1      17.229   2.452  21.418  1.00  0.00    -0.302 N 
ATOM     24  H92 UNL     1      17.147   3.184  22.124  1.00  0.00     0.181 HD
ATOM     25  H91 UNL     1      18.101   2.366  20.896  1.00  0.00     0.181 HD
ENDBRANCH  21  23
BRANCH  21  26
HETATM   26  O4  UNL     1      16.311   0.486  20.459  1.00  0.00    -0.252 OA
ATOM     27  H4  UNL     1      17.196   0.190  20.284  1.00  0.00     0.248 HD
ENDBRANCH  21  26
ENDBRANCH  19  20
ENDBRANCH   5  19
BRANCH   4  28
HETATM   28  C9  UNL     1      14.072   4.489  24.635  1.00  0.00     0.123 C 
HETATM   29  N3  UNL     1      15.290   4.721  24.608  1.00  0.00    -0.309 N 
ATOM     30  H3  UNL     1      15.720   4.686  25.532  1.00  0.00     0.186 HD
BRANCH  29  31
HETATM   31  N4  UNL     1      16.162   5.006  23.645  1.00  0.00    -0.276 N 
HETATM   32  C10 UNL     1      17.427   5.100  23.866  1.00  0.00     0.215 C 
HETATM   33  N5  UNL     1      17.962   4.902  25.164  1.00  0.00    -0.065 NA
HETATM   34  N6  UNL     1      18.282   5.406  22.782  1.00  0.00    -0.065 NA
ATOM     35  H4  UNL     1      15.816   5.156  22.697  1.00  0.00     0.189 HD
ENDBRANCH  29  31
ENDBRANCH   4  28
TORSDOF 10
ENDMDL
MODEL 4
REMARK VINA RESULT: -8.357390984      5.011      7.544
REMARK  10 active torsions:
REMARK  status: ('A' for Active; 'I' for Inactive)
REMARK    1  A    between atoms: C2_2  and  S1_5 
REMARK    2  A    between atoms: S1_5  and  N1_8 
REMARK    3  A    between atoms: N1_8  and  N2_10 
REMARK    4  A    between atoms: N2_10  and  C5_12 
REMARK    5  A    between atoms: C8_15  and  C9_16 
REMARK    6  A    between atoms: N3_17  and  N4_19 
REMARK    7  A    between atoms: C11_24  and  O3_25 
REMARK    8  A    between atoms: O3_25  and  N7_26 
REMARK    9  A    between atoms: N8_28  and  N9_29 
REMARK   10  A    between atoms: N8_28  and  O4_32 
ROOT
HETATM    1  C5  UNL     1      13.347   3.775  19.049  1.00  0.00     0.122 A 
HETATM    2  C6  UNL     1      13.981   2.777  18.340  1.00  0.00     0.051 A 
HETATM    3  C7  UNL     1      15.044   2.107  18.938  1.00  0.00     0.021 A 
HETATM    4  C8  UNL     1      15.463   2.431  20.215  1.00  0.00     0.034 A 
HETATM    5  C11 UNL     1      14.791   3.456  20.905  1.00  0.00     0.185 A 
HETATM    6  N10 UNL     1      13.780   4.065  20.291  1.00  0.00    -0.319 N 
ATOM      7  H10 UNL     1      13.297   4.806  20.798  1.00  0.00     0.169 HD
ENDROOT
BRANCH   1   8
HETATM    8  N2  UNL     1      12.356   4.422  18.533  1.00  0.00    -0.276 N 
ATOM      9  H2  UNL     1      12.176   4.381  17.530  1.00  0.00     0.189 HD
BRANCH   8  10
HETATM   10  N1  UNL     1      11.535   5.179  19.370  1.00  0.00    -0.225 N 
ATOM     11  H1  UNL     1      11.956   5.928  19.921  1.00  0.00     0.200 HD
BRANCH  10  12
HETATM   12  S1  UNL     1       9.841   4.905  19.514  1.00  0.00     0.251 S 
HETATM   13  O1  UNL     1       9.113   5.815  18.561  1.00  0.00    -0.204 OA
HETATM   14  O2  UNL     1       9.561   3.470  19.154  1.00  0.00    -0.204 OA
BRANCH  12  15
HETATM   15  C2  UNL     1       9.283   5.209  21.190  1.00  0.00     0.073 C 
HETATM   16  C1  UNL     1      10.354   4.844  22.167  1.00  0.00     0.033 C 
HETATM   17  C3  UNL     1       9.009   6.694  21.309  1.00  0.00     0.033 C 
HETATM   18  C4  UNL     1       8.009   4.417  21.403  1.00  0.00     0.033 C 
ENDBRANCH  12  15
ENDBRANCH  10  12
ENDBRANCH   8  10
ENDBRANCH   1   8
BRANCH   5  19
HETATM   19  O3  UNL     1      15.214   3.772  22.177  1.00  0.00    -0.200 OA
BRANCH  19  20
HETATM   20  N7  UNL     1      14.406   4.126  23.201  1.00  0.00    -0.158 N 
HETATM   21  N8  UNL     1      14.822   4.632  24.286  1.00  0.00    -0.081 N 
ATOM     22  H7  UNL     1      13.402   3.976  23.095  1.00  0.00     0.220 HD
BRANCH  21  23
HETATM   23  N9  UNL     1      16.172   4.885  24.554  1.00  0.00    -0.302 N 
ATOM     24  H92 UNL     1      16.820   4.863  23.767  1.00  0.00     0.181 HD
ATOM     25  H91 UNL     1      16.533   5.088  25.485  1.00  0.00     0.181 HD
ENDBRANCH  21  23
BRANCH  21  26
HETATM   26  O4  UNL     1      13.909   4.955  25.263  1.00  0.00    -0.252 OA
ATOM     27  H4  UNL     1      14.019   5.766  25.745  1.00  0.00     0.248 HD
ENDBRANCH  21  26
ENDBRANCH  19  20
ENDBRANCH   5  19
BRANCH   4  28
HETATM   28  C9  UNL     1      16.562   1.767  20.884  1.00  0.00     0.123 C 
HETATM   29  N3  UNL     1      17.690   2.239  21.097  1.00  0.00    -0.309 N 
ATOM     30  H3  UNL     1      18.304   1.587  21.585  1.00  0.00     0.186 HD
BRANCH  29  31
HETATM   31  N4  UNL     1      18.277   3.402  20.832  1.00  0.00    -0.276 N 
HETATM   32  C10 UNL     1      18.672   4.201  21.760  1.00  0.00     0.215 C 
HETATM   33  N5  UNL     1      18.498   3.879  23.130  1.00  0.00    -0.065 NA
HETATM   34  N6  UNL     1      19.288   5.419  21.388  1.00  0.00    -0.065 NA
ATOM     35  H4  UNL     1      18.420   3.670  19.858  1.00  0.00     0.189 HD
ENDBRANCH  29  31
ENDBRANCH   4  28
TORSDOF 10
ENDMDL
MODEL 5
REMARK VINA RESULT: -8.339418113      5.135      7.480
REMARK  10 active torsions:
REMARK  status: ('A' for Active; 'I' for Inactive)
REMARK    1  A    between atoms: C2_2  and  S1_5 
REMARK    2  A    between atoms: S1_5  and  N1_8 
REMARK    3  A    between atoms: N1_8  and  N2_10 
REMARK    4  A    between atoms: N2_10  and  C5_12 
REMARK    5  A    between atoms: C8_15  and  C9_16 
REMARK    6  A    between atoms: N3_17  and  N4_19 
REMARK    7  A    between atoms: C11_24  and  O3_25 
REMARK    8  A    between atoms: O3_25  and  N7_26 
REMARK    9  A    between atoms: N8_28  and  N9_29 
REMARK   10  A    between atoms: N8_28  and  O4_32 
ROOT
HETATM    1  C5  UNL     1      13.159   3.455  19.329  1.00  0.00     0.122 A 
HETATM    2  C6  UNL     1      13.950   2.701  18.489  1.00  0.00     0.051 A 
HETATM    3  C7  UNL     1      15.106   2.121  19.005  1.00  0.00     0.021 A 
HETATM    4  C8  UNL     1      15.459   2.294  20.330  1.00  0.00     0.034 A 
HETATM    5  C11 UNL     1      14.626   3.071  21.154  1.00  0.00     0.185 A 
HETATM    6  N10 UNL     1      13.532   3.603  20.615  1.00  0.00    -0.319 N 
ATOM      7  H10 UNL     1      12.932   4.164  21.219  1.00  0.00     0.169 HD
ENDROOT
BRANCH   1   8
HETATM    8  N2  UNL     1      12.078   4.010  18.893  1.00  0.00    -0.276 N 
ATOM      9  H2  UNL     1      12.067   4.486  17.991  1.00  0.00     0.189 HD
BRANCH   8  10
HETATM   10  N1  UNL     1      10.923   3.948  19.675  1.00  0.00    -0.225 N 
ATOM     11  H1  UNL     1      10.216   3.249  19.447  1.00  0.00     0.200 HD
BRANCH  10  12
HETATM   12  S1  UNL     1      10.641   4.999  21.009  1.00  0.00     0.251 S 
HETATM   13  O1  UNL     1      11.083   4.317  22.276  1.00  0.00    -0.204 OA
HETATM   14  O2  UNL     1      11.449   6.253  20.803  1.00  0.00    -0.204 OA
BRANCH  12  15
HETATM   15  C2  UNL     1       8.906   5.434  21.126  1.00  0.00     0.073 C 
HETATM   16  C1  UNL     1       8.604   5.999  22.477  1.00  0.00     0.033 C 
HETATM   17  C3  UNL     1       8.640   6.503  20.087  1.00  0.00     0.033 C 
HETATM   18  C4  UNL     1       8.097   4.189  20.823  1.00  0.00     0.033 C 
ENDBRANCH  12  15
ENDBRANCH  10  12
ENDBRANCH   8  10
ENDBRANCH   1   8
BRANCH   5  19
HETATM   19  O3  UNL     1      14.984   3.239  22.473  1.00  0.00    -0.200 OA
BRANCH  19  20
HETATM   20  N7  UNL     1      14.215   3.817  23.422  1.00  0.00    -0.158 N 
HETATM   21  N8  UNL     1      14.672   4.547  24.353  1.00  0.00    -0.081 N 
ATOM     22  H7  UNL     1      13.209   3.656  23.389  1.00  0.00     0.220 HD
BRANCH  21  23
HETATM   23  N9  UNL     1      16.030   4.841  24.509  1.00  0.00    -0.302 N 
ATOM     24  H92 UNL     1      16.296   5.825  24.564  1.00  0.00     0.181 HD
ATOM     25  H91 UNL     1      16.758   4.130  24.571  1.00  0.00     0.181 HD
ENDBRANCH  21  23
BRANCH  21  26
HETATM   26  O4  UNL     1      13.796   5.085  25.267  1.00  0.00    -0.252 OA
ATOM     27  H4  UNL     1      13.876   6.004  25.494  1.00  0.00     0.248 HD
ENDBRANCH  21  26
ENDBRANCH  19  20
ENDBRANCH   5  19
BRANCH   4  28
HETATM   28  C9  UNL     1      16.649   1.715  20.918  1.00  0.00     0.123 C 
HETATM   29  N3  UNL     1      17.738   2.284  21.094  1.00  0.00    -0.309 N 
ATOM     30  H3  UNL     1      18.435   1.677  21.526  1.00  0.00     0.186 HD
BRANCH  29  31
HETATM   31  N4  UNL     1      18.200   3.505  20.846  1.00  0.00    -0.276 N 
HETATM   32  C10 UNL     1      18.540   4.318  21.785  1.00  0.00     0.215 C 
HETATM   33  N5  UNL     1      18.435   3.946  23.150  1.00  0.00    -0.065 NA
HETATM   34  N6  UNL     1      19.022   5.599  21.430  1.00  0.00    -0.065 NA
ATOM     35  H4  UNL     1      18.289   3.810  19.876  1.00  0.00     0.189 HD
ENDBRANCH  29  31
ENDBRANCH   4  28
TORSDOF 10
ENDMDL
