MODEL 1
REMARK VINA RESULT: -6.185481110      0.000      0.000
REMARK  2 active torsions:
REMARK  status: ('A' for Active; 'I' for Inactive)
REMARK    1  A    between atoms: C8_10  and  O1_11 
REMARK    2  A    between atoms: C15_20  and  O2_21 
ROOT
HETATM    1  C1  UNL     1      40.725 126.362  26.023  1.00  0.00     0.018 C 
HETATM    2  C2  UNL     1      40.774 125.410  24.844  1.00  0.00    -0.010 C 
HETATM    3  C3  UNL     1      39.809 125.893  23.761  1.00  0.00     0.021 C 
HETATM    4  C4  UNL     1      38.946 124.695  23.442  1.00  0.00     0.048 C 
HETATM    5  C5  UNL     1      39.660 123.668  22.646  1.00  0.00     0.326 C 
HETATM    6  N1  UNL     1      40.745 124.106  21.848  1.00  0.00    -0.372 N 
ATOM      7  H1  UNL     1      40.536 124.255  20.860  1.00  0.00     0.160 HD
HETATM    8  C6  UNL     1      41.944 124.338  22.198  1.00  0.00     0.067 C 
HETATM    9  C7  UNL     1      42.549 124.221  23.524  1.00  0.00     0.084 C 
HETATM   10  C8  UNL     1      42.278 122.989  24.292  1.00  0.00     0.163 C 
HETATM   11  C9  UNL     1      40.814 122.884  24.597  1.00  0.00     0.260 C 
HETATM   12  C10 UNL     1      40.249 124.083  25.266  1.00  0.00     0.041 C 
HETATM   13  C11 UNL     1      38.770 124.128  24.853  1.00  0.00    -0.029 C 
HETATM   14  C12 UNL     1      37.938 124.975  25.738  1.00  0.00     0.016 C 
HETATM   15  C13 UNL     1      38.150 122.750  24.834  1.00  0.00     0.040 C 
HETATM   16  C14 UNL     1      38.815 121.841  23.830  1.00  0.00     0.276 C 
HETATM   17  N2  UNL     1      40.042 122.488  23.435  1.00  0.00     0.119 N 
HETATM   18  C15 UNL     1      42.159 125.437  24.318  1.00  0.00     0.138 C 
ENDROOT
BRANCH  10  19
HETATM   19  O1  UNL     1      42.756 121.838  23.697  1.00  0.00    -0.393 OA
ATOM     20  H1  UNL     1      43.500 121.452  24.145  1.00  0.00     0.210 HD
ENDBRANCH  10  19
BRANCH  18  21
HETATM   21  O2  UNL     1      43.145 125.623  25.287  1.00  0.00    -0.394 OA
ATOM     22  H2  UNL     1      42.845 126.052  26.080  1.00  0.00     0.210 HD
ENDBRANCH  18  21
TORSDOF 2
ENDMDL
MODEL 2
REMARK VINA RESULT: -6.101828959      2.001      3.668
REMARK  2 active torsions:
REMARK  status: ('A' for Active; 'I' for Inactive)
REMARK    1  A    between atoms: C8_10  and  O1_11 
REMARK    2  A    between atoms: C15_20  and  O2_21 
ROOT
HETATM    1  C1  UNL     1      38.449 123.309  24.341  1.00  0.00     0.018 C 
HETATM    2  C2  UNL     1      39.937 123.364  24.058  1.00  0.00    -0.010 C 
HETATM    3  C3  UNL     1      40.710 123.256  25.372  1.00  0.00     0.021 C 
HETATM    4  C4  UNL     1      41.656 124.433  25.370  1.00  0.00     0.048 C 
HETATM    5  C5  UNL     1      42.796 124.252  24.440  1.00  0.00     0.326 C 
HETATM    6  N1  UNL     1      43.174 122.923  24.129  1.00  0.00    -0.372 N 
ATOM      7  H1  UNL     1      43.969 122.556  24.654  1.00  0.00     0.160 HD
HETATM    8  C6  UNL     1      42.656 122.128  23.284  1.00  0.00     0.067 C 
HETATM    9  C7  UNL     1      41.522 122.354  22.390  1.00  0.00     0.084 C 
HETATM   10  C8  UNL     1      41.498 123.616  21.623  1.00  0.00     0.163 C 
HETATM   11  C9  UNL     1      41.410 124.786  22.555  1.00  0.00     0.260 C 
HETATM   12  C10 UNL     1      40.281 124.707  23.517  1.00  0.00     0.041 C 
HETATM   13  C11 UNL     1      40.738 125.493  24.755  1.00  0.00    -0.029 C 
HETATM   14  C12 UNL     1      39.621 125.900  25.638  1.00  0.00     0.016 C 
HETATM   15  C13 UNL     1      41.495 126.746  24.379  1.00  0.00     0.040 C 
HETATM   16  C14 UNL     1      42.760 126.437  23.616  1.00  0.00     0.276 C 
HETATM   17  N2  UNL     1      42.675 125.054  23.214  1.00  0.00     0.119 N 
HETATM   18  C15 UNL     1      40.262 122.202  23.197  1.00  0.00     0.138 C 
ENDROOT
BRANCH  10  19
HETATM   19  O1  UNL     1      42.547 123.753  20.734  1.00  0.00    -0.393 OA
ATOM     20  H1  UNL     1      42.708 124.649  20.462  1.00  0.00     0.210 HD
ENDBRANCH  10  19
BRANCH  18  21
HETATM   21  O2  UNL     1      39.251 121.838  22.307  1.00  0.00    -0.394 OA
ATOM     22  H2  UNL     1      39.557 121.418  21.512  1.00  0.00     0.210 HD
ENDBRANCH  18  21
TORSDOF 2
ENDMDL
MODEL 3
REMARK VINA RESULT: -5.736498551      1.942      3.811
REMARK  2 active torsions:
REMARK  status: ('A' for Active; 'I' for Inactive)
REMARK    1  A    between atoms: C8_10  and  O1_11 
REMARK    2  A    between atoms: C15_20  and  O2_21 
ROOT
HETATM    1  C1  UNL     1      40.877 127.074  23.519  1.00  0.00     0.018 C 
HETATM    2  C2  UNL     1      40.887 125.595  23.851  1.00  0.00    -0.010 C 
HETATM    3  C3  UNL     1      41.756 125.357  25.085  1.00  0.00     0.021 C 
HETATM    4  C4  UNL     1      42.729 124.276  24.678  1.00  0.00     0.048 C 
HETATM    5  C5  UNL     1      42.099 122.936  24.601  1.00  0.00     0.326 C 
HETATM    6  N1  UNL     1      40.947 122.715  25.394  1.00  0.00    -0.372 N 
ATOM      7  H1  UNL     1      41.103 122.230  26.277  1.00  0.00     0.160 HD
HETATM    8  C6  UNL     1      39.743 123.041  25.150  1.00  0.00     0.067 C 
HETATM    9  C7  UNL     1      39.201 123.737  23.984  1.00  0.00     0.084 C 
HETATM   10  C8  UNL     1      39.629 123.270  22.650  1.00  0.00     0.163 C 
HETATM   11  C9  UNL     1      41.105 123.467  22.484  1.00  0.00     0.260 C 
HETATM   12  C10 UNL     1      41.564 124.853  22.752  1.00  0.00     0.041 C 
HETATM   13  C11 UNL     1      43.014 124.721  23.241  1.00  0.00    -0.029 C 
HETATM   14  C12 UNL     1      43.783 125.983  23.148  1.00  0.00     0.016 C 
HETATM   15  C13 UNL     1      43.776 123.671  22.466  1.00  0.00     0.040 C 
HETATM   16  C14 UNL     1      43.175 122.296  22.629  1.00  0.00     0.276 C 
HETATM   17  N2  UNL     1      41.873 122.482  23.222  1.00  0.00     0.119 N 
HETATM   18  C15 UNL     1      39.489 125.205  24.149  1.00  0.00     0.138 C 
ENDROOT
BRANCH  10  19
HETATM   19  O1  UNL     1      39.254 121.973  22.362  1.00  0.00    -0.393 OA
ATOM     20  H1  UNL     1      38.477 121.906  21.820  1.00  0.00     0.210 HD
ENDBRANCH  10  19
BRANCH  18  21
HETATM   21  O2  UNL     1      38.524 125.893  23.413  1.00  0.00    -0.394 OA
ATOM     22  H2  UNL     1      37.885 126.360  23.937  1.00  0.00     0.210 HD
ENDBRANCH  18  21
TORSDOF 2
ENDMDL
MODEL 4
REMARK VINA RESULT: -5.656207423      2.367      4.158
REMARK  2 active torsions:
REMARK  status: ('A' for Active; 'I' for Inactive)
REMARK    1  A    between atoms: C8_10  and  O1_11 
REMARK    2  A    between atoms: C15_20  and  O2_21 
ROOT
HETATM    1  C1  UNL     1      39.561 125.111  23.793  1.00  0.00     0.018 C 
HETATM    2  C2  UNL     1      40.872 124.374  23.606  1.00  0.00    -0.010 C 
HETATM    3  C3  UNL     1      41.587 124.258  24.952  1.00  0.00     0.021 C 
HETATM    4  C4  UNL     1      42.977 124.795  24.706  1.00  0.00     0.048 C 
HETATM    5  C5  UNL     1      43.827 123.857  23.935  1.00  0.00     0.326 C 
HETATM    6  N1  UNL     1      43.504 122.480  24.009  1.00  0.00    -0.372 N 
ATOM      7  H1  UNL     1      44.061 121.930  24.664  1.00  0.00     0.160 HD
HETATM    8  C6  UNL     1      42.614 121.838  23.368  1.00  0.00     0.067 C 
HETATM    9  C7  UNL     1      41.667 122.335  22.372  1.00  0.00     0.084 C 
HETATM   10  C8  UNL     1      42.195 123.205  21.301  1.00  0.00     0.163 C 
HETATM   11  C9  UNL     1      42.739 124.472  21.887  1.00  0.00     0.260 C 
HETATM   12  C10 UNL     1      41.777 125.196  22.757  1.00  0.00     0.041 C 
HETATM   13  C11 UNL     1      42.636 125.961  23.775  1.00  0.00    -0.029 C 
HETATM   14  C12 UNL     1      41.911 127.066  24.443  1.00  0.00     0.016 C 
HETATM   15  C13 UNL     1      43.871 126.554  23.137  1.00  0.00     0.040 C 
HETATM   16  C14 UNL     1      44.781 125.492  22.567  1.00  0.00     0.276 C 
HETATM   17  N2  UNL     1      44.020 124.267  22.537  1.00  0.00     0.119 N 
HETATM   18  C15 UNL     1      40.544 123.019  23.103  1.00  0.00     0.138 C 
ENDROOT
BRANCH  10  19
HETATM   19  O1  UNL     1      43.120 122.588  20.481  1.00  0.00    -0.393 OA
ATOM     20  H1  UNL     1      43.646 123.192  19.970  1.00  0.00     0.210 HD
ENDBRANCH  10  19
BRANCH  18  21
HETATM   21  O2  UNL     1      39.425 122.962  22.273  1.00  0.00    -0.394 OA
ATOM     22  H2  UNL     1      38.937 123.775  22.210  1.00  0.00     0.210 HD
ENDBRANCH  18  21
TORSDOF 2
ENDMDL
MODEL 5
REMARK VINA RESULT: -5.457030895      1.366      1.778
REMARK  2 active torsions:
REMARK  status: ('A' for Active; 'I' for Inactive)
REMARK    1  A    between atoms: C8_10  and  O1_11 
REMARK    2  A    between atoms: C15_20  and  O2_21 
ROOT
HETATM    1  C1  UNL     1      38.263 126.288  26.479  1.00  0.00     0.018 C 
HETATM    2  C2  UNL     1      39.236 125.764  25.442  1.00  0.00    -0.010 C 
HETATM    3  C3  UNL     1      38.628 125.920  24.048  1.00  0.00     0.021 C 
HETATM    4  C4  UNL     1      38.732 124.552  23.418  1.00  0.00     0.048 C 
HETATM    5  C5  UNL     1      40.115 124.213  23.007  1.00  0.00     0.326 C 
HETATM    6  N1  UNL     1      40.990 125.290  22.725  1.00  0.00    -0.372 N 
ATOM      7  H1  UNL     1      41.104 125.522  21.738  1.00  0.00     0.160 HD
HETATM    8  C6  UNL     1      41.653 126.007  23.539  1.00  0.00     0.067 C 
HETATM    9  C7  UNL     1      41.704 125.927  24.998  1.00  0.00     0.084 C 
HETATM   10  C8  UNL     1      41.888 124.592  25.603  1.00  0.00     0.163 C 
HETATM   11  C9  UNL     1      40.721 123.711  25.273  1.00  0.00     0.260 C 
HETATM   12  C10 UNL     1      39.403 124.297  25.628  1.00  0.00     0.041 C 
HETATM   13  C11 UNL     1      38.401 123.687  24.637  1.00  0.00    -0.029 C 
HETATM   14  C12 UNL     1      36.993 123.797  25.082  1.00  0.00     0.016 C 
HETATM   15  C13 UNL     1      38.679 122.224  24.383  1.00  0.00     0.040 C 
HETATM   16  C14 UNL     1      40.037 122.004  23.760  1.00  0.00     0.276 C 
HETATM   17  N2  UNL     1      40.762 123.242  23.901  1.00  0.00     0.119 N 
HETATM   18  C15 UNL     1      40.465 126.586  25.539  1.00  0.00     0.138 C 
ENDROOT
BRANCH  10  19
HETATM   19  O1  UNL     1      43.087 123.988  25.278  1.00  0.00    -0.393 OA
ATOM     20  H1  UNL     1      43.394 123.366  25.926  1.00  0.00     0.210 HD
ENDBRANCH  10  19
BRANCH  18  21
HETATM   21  O2  UNL     1      40.769 127.026  26.828  1.00  0.00    -0.394 OA
ATOM     22  H2  UNL     1      41.542 127.574  26.886  1.00  0.00     0.210 HD
ENDBRANCH  18  21
TORSDOF 2
ENDMDL
