MODEL 1
REMARK VINA RESULT: -5.763270088      0.000      0.000
REMARK  3 active torsions:
REMARK  status: ('A' for Active; 'I' for Inactive)
REMARK    1  A    between atoms: N2_8  and  C5_9 
REMARK    2  A    between atoms: C5_9  and  N3_11 
REMARK    3  A    between atoms: N3_11  and  N4_13 
ROOT
HETATM    1  C5  UNL     1      43.645 131.801  19.133  1.00  0.00     0.191 C 
HETATM    2  S2  UNL     1      42.092 131.970  18.559  1.00  0.00    -0.039 SA
ENDROOT
BRANCH   1   3
HETATM    3  N2  UNL     1      43.773 131.680  20.533  1.00  0.00    -0.300 N 
HETATM    4  C1  UNL     1      44.945 131.125  21.108  1.00  0.00     0.176 C 
HETATM    5  S1  UNL     1      46.429 131.606  20.644  1.00  0.00    -0.041 SA
HETATM    6  N1  UNL     1      44.772 130.128  22.138  1.00  0.00    -0.367 N 
HETATM    7  C2  UNL     1      43.391 130.005  22.614  1.00  0.00     0.123 C 
ATOM      8  H1  UNL     1      45.540 129.563  22.500  1.00  0.00     0.161 HD
HETATM    9  C3  UNL     1      42.781 131.382  22.755  1.00  0.00     0.040 C 
HETATM   10  C4  UNL     1      42.694 132.103  21.435  1.00  0.00     0.135 C 
ENDBRANCH   1   3
BRANCH   1  11
HETATM   11  N3  UNL     1      44.689 131.801  18.192  1.00  0.00    -0.295 N 
ATOM     12  H3  UNL     1      45.491 132.418  18.315  1.00  0.00     0.183 HD
BRANCH  11  13
HETATM   13  N4  UNL     1      44.618 130.940  17.074  1.00  0.00    -0.225 NA
HETATM   14  C6  UNL     1      45.678 129.979  17.053  1.00  0.00     0.140 C 
HETATM   15  C7  UNL     1      46.597 130.101  15.876  1.00  0.00     0.183 C 
HETATM   16  O1  UNL     1      45.964 130.166  14.661  1.00  0.00    -0.389 OA
HETATM   17  C8  UNL     1      44.678 130.668  14.709  1.00  0.00     0.183 C 
HETATM   18  C9  UNL     1      44.643 131.695  15.837  1.00  0.00     0.140 C 
ENDBRANCH  11  13
ENDBRANCH   1  11
TORSDOF 3
ENDMDL
MODEL 2
REMARK VINA RESULT: -5.521385853      2.261      3.137
REMARK  3 active torsions:
REMARK  status: ('A' for Active; 'I' for Inactive)
REMARK    1  A    between atoms: N2_8  and  C5_9 
REMARK    2  A    between atoms: C5_9  and  N3_11 
REMARK    3  A    between atoms: N3_11  and  N4_13 
ROOT
HETATM    1  C5  UNL     1      44.831 131.573  16.819  1.00  0.00     0.191 C 
HETATM    2  S2  UNL     1      43.356 131.640  16.049  1.00  0.00    -0.039 SA
ENDROOT
BRANCH   1   3
HETATM    3  N2  UNL     1      44.794 131.240  18.189  1.00  0.00    -0.300 N 
HETATM    4  C1  UNL     1      43.849 131.843  19.057  1.00  0.00     0.176 C 
HETATM    5  S1  UNL     1      42.273 131.939  18.661  1.00  0.00    -0.041 SA
HETATM    6  N1  UNL     1      44.333 132.352  20.317  1.00  0.00    -0.367 N 
HETATM    7  C2  UNL     1      45.710 131.953  20.625  1.00  0.00     0.123 C 
ATOM      8  H1  UNL     1      43.769 132.936  20.936  1.00  0.00     0.161 HD
HETATM    9  C3  UNL     1      45.913 130.504  20.243  1.00  0.00     0.040 C 
HETATM   10  C4  UNL     1      45.744 130.277  18.763  1.00  0.00     0.135 C 
ENDBRANCH   1   3
BRANCH   1  11
HETATM   11  N3  UNL     1      45.975 131.859  16.055  1.00  0.00    -0.295 N 
ATOM     12  H3  UNL     1      46.667 132.524  16.397  1.00  0.00     0.183 HD
BRANCH  11  13
HETATM   13  N4  UNL     1      46.159 131.216  14.810  1.00  0.00    -0.225 NA
HETATM   14  C6  UNL     1      46.344 129.803  14.943  1.00  0.00     0.140 C 
HETATM   15  C7  UNL     1      47.679 129.310  14.475  1.00  0.00     0.183 C 
HETATM   16  O1  UNL     1      48.040 129.741  13.224  1.00  0.00    -0.389 OA
HETATM   17  C8  UNL     1      47.466 130.937  12.839  1.00  0.00     0.183 C 
HETATM   18  C9  UNL     1      47.294 131.775  14.103  1.00  0.00     0.140 C 
ENDBRANCH  11  13
ENDBRANCH   1  11
TORSDOF 3
ENDMDL
MODEL 3
REMARK VINA RESULT: -5.265710023      1.476      2.471
REMARK  3 active torsions:
REMARK  status: ('A' for Active; 'I' for Inactive)
REMARK    1  A    between atoms: N2_8  and  C5_9 
REMARK    2  A    between atoms: C5_9  and  N3_11 
REMARK    3  A    between atoms: N3_11  and  N4_13 
ROOT
HETATM    1  C5  UNL     1      45.680 131.133  20.558  1.00  0.00     0.191 C 
HETATM    2  S2  UNL     1      46.362 132.567  21.056  1.00  0.00    -0.039 SA
ENDROOT
BRANCH   1   3
HETATM    3  N2  UNL     1      44.661 130.616  21.386  1.00  0.00    -0.300 N 
HETATM    4  C1  UNL     1      43.482 131.362  21.637  1.00  0.00     0.176 C 
HETATM    5  S1  UNL     1      42.650 132.066  20.429  1.00  0.00    -0.041 SA
HETATM    6  N1  UNL     1      43.034 131.459  23.005  1.00  0.00    -0.367 N 
HETATM    7  C2  UNL     1      43.742 130.559  23.923  1.00  0.00     0.123 C 
ATOM      8  H1  UNL     1      42.295 132.093  23.306  1.00  0.00     0.161 HD
HETATM    9  C3  UNL     1      43.934 129.212  23.261  1.00  0.00     0.040 C 
HETATM   10  C4  UNL     1      44.799 129.303  22.030  1.00  0.00     0.135 C 
ENDBRANCH   1   3
BRANCH   1  11
HETATM   11  N3  UNL     1      46.171 130.557  19.374  1.00  0.00    -0.295 N 
ATOM     12  H3  UNL     1      47.128 130.206  19.333  1.00  0.00     0.183 HD
BRANCH  11  13
HETATM   13  N4  UNL     1      45.331 130.468  18.242  1.00  0.00    -0.225 NA
HETATM   14  C6  UNL     1      45.979 129.854  17.123  1.00  0.00     0.140 C 
HETATM   15  C7  UNL     1      46.129 130.749  15.931  1.00  0.00     0.183 C 
HETATM   16  O1  UNL     1      44.975 131.385  15.547  1.00  0.00    -0.389 OA
HETATM   17  C8  UNL     1      44.058 131.575  16.561  1.00  0.00     0.183 C 
HETATM   18  C9  UNL     1      44.853 131.778  17.848  1.00  0.00     0.140 C 
ENDBRANCH  11  13
ENDBRANCH   1  11
TORSDOF 3
ENDMDL
MODEL 4
REMARK VINA RESULT: -4.886309770      4.031      5.680
REMARK  3 active torsions:
REMARK  status: ('A' for Active; 'I' for Inactive)
REMARK    1  A    between atoms: N2_8  and  C5_9 
REMARK    2  A    between atoms: C5_9  and  N3_11 
REMARK    3  A    between atoms: N3_11  and  N4_13 
ROOT
HETATM    1  C5  UNL     1      44.350 129.227  24.110  1.00  0.00     0.191 C 
HETATM    2  S2  UNL     1      44.679 129.250  25.741  1.00  0.00    -0.039 SA
ENDROOT
BRANCH   1   3
HETATM    3  N2  UNL     1      43.997 127.971  23.571  1.00  0.00    -0.300 N 
HETATM    4  C1  UNL     1      42.760 127.363  23.904  1.00  0.00     0.176 C 
HETATM    5  S1  UNL     1      41.362 128.194  23.844  1.00  0.00    -0.041 SA
HETATM    6  N1  UNL     1      42.784 125.970  24.278  1.00  0.00    -0.367 N 
HETATM    7  C2  UNL     1      44.071 125.313  24.027  1.00  0.00     0.123 C 
ATOM      8  H1  UNL     1      41.979 125.487  24.679  1.00  0.00     0.161 HD
HETATM    9  C3  UNL     1      44.618 125.769  22.692  1.00  0.00     0.040 C 
HETATM   10  C4  UNL     1      44.904 127.248  22.671  1.00  0.00     0.135 C 
ENDBRANCH   1   3
BRANCH   1  11
HETATM   11  N3  UNL     1      44.458 130.440  23.409  1.00  0.00    -0.295 N 
ATOM     12  H3  UNL     1      44.840 131.266  23.868  1.00  0.00     0.183 HD
BRANCH  11  13
HETATM   13  N4  UNL     1      44.033 130.506  22.063  1.00  0.00    -0.225 NA
HETATM   14  C6  UNL     1      45.127 130.615  21.145  1.00  0.00     0.140 C 
HETATM   15  C7  UNL     1      45.142 131.886  20.353  1.00  0.00     0.183 C 
HETATM   16  O1  UNL     1      43.952 132.191  19.742  1.00  0.00    -0.389 OA
HETATM   17  C8  UNL     1      42.835 131.666  20.363  1.00  0.00     0.183 C 
HETATM   18  C9  UNL     1      43.135 131.625  21.858  1.00  0.00     0.140 C 
ENDBRANCH  11  13
ENDBRANCH   1  11
TORSDOF 3
ENDMDL
MODEL 5
REMARK VINA RESULT: -4.848287428      8.319      9.652
REMARK  3 active torsions:
REMARK  status: ('A' for Active; 'I' for Inactive)
REMARK    1  A    between atoms: N2_8  and  C5_9 
REMARK    2  A    between atoms: C5_9  and  N3_11 
REMARK    3  A    between atoms: N3_11  and  N4_13 
ROOT
HETATM    1  C5  UNL     1      39.870 125.694  24.269  1.00  0.00     0.191 C 
HETATM    2  S2  UNL     1      40.487 126.629  25.500  1.00  0.00    -0.039 SA
ENDROOT
BRANCH   1   3
HETATM    3  N2  UNL     1      38.595 125.136  24.501  1.00  0.00    -0.300 N 
HETATM    4  C1  UNL     1      37.437 125.953  24.507  1.00  0.00     0.176 C 
HETATM    5  S1  UNL     1      37.154 127.034  23.324  1.00  0.00    -0.041 SA
HETATM    6  N1  UNL     1      36.504 125.776  25.593  1.00  0.00    -0.367 N 
HETATM    7  C2  UNL     1      36.776 124.594  26.418  1.00  0.00     0.123 C 
ATOM      8  H1  UNL     1      35.728 126.414  25.771  1.00  0.00     0.161 HD
HETATM    9  C3  UNL     1      37.159 123.434  25.526  1.00  0.00     0.040 C 
HETATM   10  C4  UNL     1      38.431 123.700  24.763  1.00  0.00     0.135 C 
ENDBRANCH   1   3
BRANCH   1  11
HETATM   11  N3  UNL     1      40.661 125.531  23.119  1.00  0.00    -0.295 N 
ATOM     12  H3  UNL     1      40.685 126.259  22.405  1.00  0.00     0.183 HD
BRANCH  11  13
HETATM   13  N4  UNL     1      41.422 124.352  22.959  1.00  0.00    -0.225 NA
HETATM   14  C6  UNL     1      42.746 124.475  23.490  1.00  0.00     0.140 C 
HETATM   15  C7  UNL     1      43.834 124.346  22.468  1.00  0.00     0.183 C 
HETATM   16  O1  UNL     1      43.727 123.244  21.658  1.00  0.00    -0.389 OA
HETATM   17  C8  UNL     1      42.440 122.770  21.498  1.00  0.00     0.183 C 
HETATM   18  C9  UNL     1      41.509 123.978  21.561  1.00  0.00     0.140 C 
ENDBRANCH  11  13
ENDBRANCH   1  11
TORSDOF 3
ENDMDL
