MODEL 1
REMARK VINA RESULT: -6.312672869      0.000      0.000
REMARK  3 active torsions:
REMARK  status: ('A' for Active; 'I' for Inactive)
REMARK    1  A    between atoms: C3_3  and  N1_6 
REMARK    2  A    between atoms: C7_11  and  N3_12 
REMARK    3  A    between atoms: N7_23  and  C11_24 
ROOT
HETATM    1  C1  UNL     1      45.255 128.680  15.523  1.00  0.00     0.015 C 
HETATM    2  C2  UNL     1      45.041 129.864  15.478  1.00  0.00    -0.086 C 
HETATM    3  C3  UNL     1      44.771 131.343  15.450  1.00  0.00     0.087 C 
HETATM    4  C4  UNL     1      46.136 131.963  15.228  1.00  0.00     0.052 C 
HETATM    5  C5  UNL     1      44.043 131.527  14.100  1.00  0.00     0.052 C 
ENDROOT
BRANCH   3   6
HETATM    6  N1  UNL     1      44.039 131.672  16.532  1.00  0.00    -0.354 N 
HETATM    7  C6  UNL     1      43.795 131.717  17.723  1.00  0.00     0.150 A 
HETATM    8  N2  UNL     1      42.631 132.338  18.129  1.00  0.00    -0.174 N 
HETATM    9  C10 UNL     1      44.559 131.209  18.764  1.00  0.00     0.140 A 
HETATM   10  C7  UNL     1      42.284 132.434  19.417  1.00  0.00     0.681 A 
ATOM     11  H2  UNL     1      42.013 132.738  17.423  1.00  0.00     0.186 HD
HETATM   12  N4  UNL     1      43.038 131.936  20.410  1.00  0.00    -0.173 N 
HETATM   13  C9  UNL     1      44.187 131.315  20.099  1.00  0.00     0.171 A 
ATOM     14  H4  UNL     1      42.743 132.027  21.382  1.00  0.00     0.186 HD
HETATM   15  N7  UNL     1      45.139 130.724  20.850  1.00  0.00    -0.260 N 
HETATM   16  N6  UNL     1      46.064 130.270  20.025  1.00  0.00    -0.238 N 
HETATM   17  N5  UNL     1      45.723 130.555  18.790  1.00  0.00    -0.279 N 
ATOM     18  H6  UNL     1      46.910 129.775  20.304  1.00  0.00     0.208 HD
ATOM     19  H5  UNL     1      46.271 130.311  17.965  1.00  0.00     0.189 HD
ATOM     20  H1  UNL     1      43.238 132.153  16.122  1.00  0.00     0.163 HD
BRANCH  10  21
HETATM   21  N3  UNL     1      41.185 133.022  19.783  1.00  0.00    -0.230 N 
HETATM   22  C8  UNL     1      40.966 133.463  21.146  1.00  0.00     0.165 C 
ATOM     23  H3  UNL     1      40.454 133.178  19.090  1.00  0.00     0.177 HD
ENDBRANCH  10  21
BRANCH  15  24
HETATM   24  C11 UNL     1      45.195 130.585  22.285  1.00  0.00     0.148 C 
HETATM   25  C12 UNL     1      44.445 129.352  22.726  1.00  0.00     0.028 C 
ENDBRANCH  15  24
ENDBRANCH   3   6
TORSDOF 3
ENDMDL
MODEL 2
REMARK VINA RESULT: -5.905820328      8.097     10.609
REMARK  3 active torsions:
REMARK  status: ('A' for Active; 'I' for Inactive)
REMARK    1  A    between atoms: C3_3  and  N1_6 
REMARK    2  A    between atoms: C7_11  and  N3_12 
REMARK    3  A    between atoms: N7_23  and  C11_24 
ROOT
HETATM    1  C1  UNL     1      36.950 123.212  25.793  1.00  0.00     0.015 C 
HETATM    2  C2  UNL     1      37.257 124.377  25.789  1.00  0.00    -0.086 C 
HETATM    3  C3  UNL     1      37.663 125.825  25.771  1.00  0.00     0.087 C 
HETATM    4  C4  UNL     1      36.744 126.451  24.741  1.00  0.00     0.052 C 
HETATM    5  C5  UNL     1      37.129 126.342  27.125  1.00  0.00     0.052 C 
ENDROOT
BRANCH   3   6
HETATM    6  N1  UNL     1      39.000 125.899  25.629  1.00  0.00    -0.354 N 
HETATM    7  C6  UNL     1      40.058 125.712  25.059  1.00  0.00     0.150 A 
HETATM    8  N2  UNL     1      41.215 126.163  25.661  1.00  0.00    -0.174 N 
HETATM    9  C10 UNL     1      40.264 125.081  23.839  1.00  0.00     0.140 A 
HETATM   10  C7  UNL     1      42.421 126.000  25.105  1.00  0.00     0.681 A 
ATOM     11  H2  UNL     1      41.149 126.638  26.561  1.00  0.00     0.186 HD
HETATM   12  N4  UNL     1      42.598 125.388  23.924  1.00  0.00    -0.173 N 
HETATM   13  C9  UNL     1      41.521 124.918  23.273  1.00  0.00     0.171 A 
ATOM     14  H4  UNL     1      43.532 125.281  23.529  1.00  0.00     0.186 HD
HETATM   15  N7  UNL     1      41.375 124.273  22.097  1.00  0.00    -0.260 N 
HETATM   16  N6  UNL     1      40.086 124.043  21.935  1.00  0.00    -0.238 N 
HETATM   17  N5  UNL     1      39.425 124.520  22.964  1.00  0.00    -0.279 N 
ATOM     18  H6  UNL     1      39.667 123.569  21.135  1.00  0.00     0.208 HD
ATOM     19  H5  UNL     1      38.413 124.469  23.080  1.00  0.00     0.189 HD
ATOM     20  H1  UNL     1      39.288 126.387  26.477  1.00  0.00     0.163 HD
BRANCH  10  21
HETATM   21  N3  UNL     1      43.500 126.432  25.685  1.00  0.00    -0.230 N 
HETATM   22  C8  UNL     1      44.437 127.307  25.011  1.00  0.00     0.165 C 
ATOM     23  H3  UNL     1      43.694 126.145  26.645  1.00  0.00     0.177 HD
ENDBRANCH  10  21
BRANCH  15  24
HETATM   24  C11 UNL     1      42.393 123.881  21.152  1.00  0.00     0.148 C 
HETATM   25  C12 UNL     1      42.692 122.409  21.278  1.00  0.00     0.028 C 
ENDBRANCH  15  24
ENDBRANCH   3   6
TORSDOF 3
ENDMDL
MODEL 3
REMARK VINA RESULT: -5.579818791      1.445      3.460
REMARK  3 active torsions:
REMARK  status: ('A' for Active; 'I' for Inactive)
REMARK    1  A    between atoms: C3_3  and  N1_6 
REMARK    2  A    between atoms: C7_11  and  N3_12 
REMARK    3  A    between atoms: N7_23  and  C11_24 
ROOT
HETATM    1  C1  UNL     1      47.246 131.235  14.023  1.00  0.00     0.015 C 
HETATM    2  C2  UNL     1      46.266 130.930  14.654  1.00  0.00    -0.086 C 
HETATM    3  C3  UNL     1      45.050 130.567  15.461  1.00  0.00     0.087 C 
HETATM    4  C4  UNL     1      43.905 131.223  14.716  1.00  0.00     0.052 C 
HETATM    5  C5  UNL     1      44.887 129.060  15.164  1.00  0.00     0.052 C 
ENDROOT
BRANCH   3   6
HETATM    6  N1  UNL     1      45.284 130.862  16.754  1.00  0.00    -0.354 N 
HETATM    7  C6  UNL     1      44.983 131.260  17.863  1.00  0.00     0.150 A 
HETATM    8  N2  UNL     1      45.953 131.258  18.846  1.00  0.00    -0.174 N 
HETATM    9  C10 UNL     1      43.748 131.733  18.288  1.00  0.00     0.140 A 
HETATM   10  C7  UNL     1      45.709 131.678  20.092  1.00  0.00     0.681 A 
ATOM     11  H2  UNL     1      46.888 130.925  18.613  1.00  0.00     0.186 HD
HETATM   12  N4  UNL     1      44.507 132.132  20.482  1.00  0.00    -0.173 N 
HETATM   13  C9  UNL     1      43.508 132.167  19.586  1.00  0.00     0.171 A 
ATOM     14  H4  UNL     1      44.356 132.444  21.441  1.00  0.00     0.186 HD
HETATM   15  N7  UNL     1      42.220 132.559  19.669  1.00  0.00    -0.260 N 
HETATM   16  N6  UNL     1      41.679 132.379  18.479  1.00  0.00    -0.238 N 
HETATM   17  N5  UNL     1      42.581 131.891  17.659  1.00  0.00    -0.279 N 
ATOM     18  H6  UNL     1      40.711 132.587  18.233  1.00  0.00     0.208 HD
ATOM     19  H5  UNL     1      42.413 131.664  16.679  1.00  0.00     0.189 HD
ATOM     20  H1  UNL     1      46.266 130.611  16.867  1.00  0.00     0.163 HD
BRANCH  10  21
HETATM   21  N3  UNL     1      46.633 131.669  21.004  1.00  0.00    -0.230 N 
HETATM   22  C8  UNL     1      47.228 132.890  21.508  1.00  0.00     0.165 C 
ATOM     23  H3  UNL     1      46.949 130.774  21.378  1.00  0.00     0.177 HD
ENDBRANCH  10  21
BRANCH  15  24
HETATM   24  C11 UNL     1      41.510 133.082  20.811  1.00  0.00     0.148 C 
HETATM   25  C12 UNL     1      41.915 132.350  22.065  1.00  0.00     0.028 C 
ENDBRANCH  15  24
ENDBRANCH   3   6
TORSDOF 3
ENDMDL
MODEL 4
REMARK VINA RESULT: -5.408415730      6.935     10.024
REMARK  3 active torsions:
REMARK  status: ('A' for Active; 'I' for Inactive)
REMARK    1  A    between atoms: C3_3  and  N1_6 
REMARK    2  A    between atoms: C7_11  and  N3_12 
REMARK    3  A    between atoms: N7_23  and  C11_24 
ROOT
HETATM    1  C1  UNL     1      36.710 123.470  25.807  1.00  0.00     0.015 C 
HETATM    2  C2  UNL     1      37.417 124.346  25.379  1.00  0.00    -0.086 C 
HETATM    3  C3  UNL     1      38.307 125.423  24.824  1.00  0.00     0.087 C 
HETATM    4  C4  UNL     1      37.340 126.436  24.243  1.00  0.00     0.052 C 
HETATM    5  C5  UNL     1      38.852 126.102  26.100  1.00  0.00     0.052 C 
ENDROOT
BRANCH   3   6
HETATM    6  N1  UNL     1      39.247 124.852  24.047  1.00  0.00    -0.354 N 
HETATM    7  C6  UNL     1      40.338 124.778  23.514  1.00  0.00     0.150 A 
HETATM    8  N2  UNL     1      40.602 123.686  22.711  1.00  0.00    -0.174 N 
HETATM    9  C10 UNL     1      41.391 125.678  23.609  1.00  0.00     0.140 A 
HETATM   10  C7  UNL     1      41.774 123.525  22.087  1.00  0.00     0.681 A 
ATOM     11  H2  UNL     1      39.879 122.978  22.590  1.00  0.00     0.186 HD
HETATM   12  N4  UNL     1      42.780 124.407  22.193  1.00  0.00    -0.173 N 
HETATM   13  C9  UNL     1      42.603 125.499  22.955  1.00  0.00     0.171 A 
ATOM     14  H4  UNL     1      43.661 124.252  21.703  1.00  0.00     0.186 HD
HETATM   15  N7  UNL     1      43.403 126.543  23.254  1.00  0.00    -0.260 N 
HETATM   16  N6  UNL     1      42.723 127.339  24.058  1.00  0.00    -0.238 N 
HETATM   17  N5  UNL     1      41.532 126.831  24.269  1.00  0.00    -0.279 N 
ATOM     18  H6  UNL     1      43.069 128.213  24.453  1.00  0.00     0.208 HD
ATOM     19  H5  UNL     1      40.814 127.256  24.856  1.00  0.00     0.189 HD
ATOM     20  H1  UNL     1      38.783 124.003  23.723  1.00  0.00     0.163 HD
BRANCH  10  21
HETATM   21  N3  UNL     1      42.007 122.491  21.336  1.00  0.00    -0.230 N 
HETATM   22  C8  UNL     1      43.339 122.163  20.871  1.00  0.00     0.165 C 
ATOM     23  H3  UNL     1      41.227 121.892  21.065  1.00  0.00     0.177 HD
ENDBRANCH  10  21
BRANCH  15  24
HETATM   24  C11 UNL     1      44.753 126.798  22.814  1.00  0.00     0.148 C 
HETATM   25  C12 UNL     1      44.957 128.271  22.561  1.00  0.00     0.028 C 
ENDBRANCH  15  24
ENDBRANCH   3   6
TORSDOF 3
ENDMDL
MODEL 5
REMARK VINA RESULT: -5.397885435      6.985     10.009
REMARK  3 active torsions:
REMARK  status: ('A' for Active; 'I' for Inactive)
REMARK    1  A    between atoms: C3_3  and  N1_6 
REMARK    2  A    between atoms: C7_11  and  N3_12 
REMARK    3  A    between atoms: N7_23  and  C11_24 
ROOT
HETATM    1  C1  UNL     1      36.638 127.231  23.477  1.00  0.00     0.015 C 
HETATM    2  C2  UNL     1      37.200 126.401  24.145  1.00  0.00    -0.086 C 
HETATM    3  C3  UNL     1      37.923 125.367  24.964  1.00  0.00     0.087 C 
HETATM    4  C4  UNL     1      38.276 126.095  26.246  1.00  0.00     0.052 C 
HETATM    5  C5  UNL     1      36.786 124.404  25.371  1.00  0.00     0.052 C 
ENDROOT
BRANCH   3   6
HETATM    6  N1  UNL     1      38.887 124.810  24.206  1.00  0.00    -0.354 N 
HETATM    7  C6  UNL     1      39.987 124.755  23.689  1.00  0.00     0.150 A 
HETATM    8  N2  UNL     1      40.286 123.663  22.900  1.00  0.00    -0.174 N 
HETATM    9  C10 UNL     1      41.018 125.679  23.792  1.00  0.00     0.140 A 
HETATM   10  C7  UNL     1      41.470 123.522  22.295  1.00  0.00     0.681 A 
ATOM     11  H2  UNL     1      39.580 122.938  22.775  1.00  0.00     0.186 HD
HETATM   12  N4  UNL     1      42.455 124.427  22.407  1.00  0.00    -0.173 N 
HETATM   13  C9  UNL     1      42.243 125.521  23.158  1.00  0.00     0.171 A 
ATOM     14  H4  UNL     1      43.347 124.287  21.932  1.00  0.00     0.186 HD
HETATM   15  N7  UNL     1      43.016 126.585  23.459  1.00  0.00    -0.260 N 
HETATM   16  N6  UNL     1      42.307 127.373  24.246  1.00  0.00    -0.238 N 
HETATM   17  N5  UNL     1      41.124 126.840  24.444  1.00  0.00    -0.279 N 
ATOM     18  H6  UNL     1      42.628 128.258  24.638  1.00  0.00     0.208 HD
ATOM     19  H5  UNL     1      40.389 127.254  25.017  1.00  0.00     0.189 HD
ATOM     20  H1  UNL     1      38.446 123.948  23.883  1.00  0.00     0.163 HD
BRANCH  10  21
HETATM   21  N3  UNL     1      41.736 122.487  21.556  1.00  0.00    -0.230 N 
HETATM   22  C8  UNL     1      43.031 122.299  20.934  1.00  0.00     0.165 C 
ATOM     23  H3  UNL     1      41.011 121.785  21.409  1.00  0.00     0.177 HD
ENDBRANCH  10  21
BRANCH  15  24
HETATM   24  C11 UNL     1      44.366 126.866  23.036  1.00  0.00     0.148 C 
HETATM   25  C12 UNL     1      44.636 128.349  23.080  1.00  0.00     0.028 C 
ENDBRANCH  15  24
ENDBRANCH   3   6
TORSDOF 3
ENDMDL
