MODEL 1
REMARK VINA RESULT: -7.145745502      0.000      0.000
REMARK  5 active torsions:
REMARK  status: ('A' for Active; 'I' for Inactive)
REMARK    1  A    between atoms: C3_3  and  C5_5 
REMARK       I    between atoms: C5_5  and  N1_7 
REMARK    2  A    between atoms: N1_7  and  C6_9 
REMARK    3  A    between atoms: C6_9  and  N2_11 
REMARK    4  A    between atoms: N2_11  and  C7_13 
REMARK    5  A    between atoms: N4_17  and  O3_18 
ROOT
HETATM    1  N2  UNL     1      45.123 131.894  18.791  1.00  0.00    -0.316 N 
ATOM      2  H2  UNL     1      45.628 132.771  18.919  1.00  0.00     0.170 HD
ENDROOT
BRANCH   1   3
HETATM    3  C6  UNL     1      44.545 131.769  17.545  1.00  0.00     0.180 C 
HETATM    4  S1  UNL     1      42.893 131.756  17.431  1.00  0.00    -0.040 SA
BRANCH   3   5
HETATM    5  N1  UNL     1      45.325 131.639  16.365  1.00  0.00    -0.300 N 
HETATM    6  C5  UNL     1      46.044 130.460  16.043  1.00  0.00     0.253 C 
HETATM    7  O1  UNL     1      46.000 129.457  16.837  1.00  0.00    -0.268 OA
ATOM      8  H1  UNL     1      45.370 132.428  15.720  1.00  0.00     0.171 HD
BRANCH   6   9
HETATM    9  C3  UNL     1      46.834 130.343  14.837  1.00  0.00     0.002 C 
HETATM   10  C2  UNL     1      46.934 131.348  14.002  1.00  0.00    -0.019 C 
HETATM   11  C1  UNL     1      47.741 131.254  12.752  1.00  0.00     0.036 C 
HETATM   12  C4  UNL     1      47.539 129.083  14.534  1.00  0.00     0.054 C 
ENDBRANCH   6   9
ENDBRANCH   3   5
ENDBRANCH   1   3
BRANCH   1  13
HETATM   13  C7  UNL     1      45.155 131.142  19.803  1.00  0.00     0.157 A 
HETATM   14  N3  UNL     1      46.098 130.153  20.005  1.00  0.00    -0.221 N 
HETATM   15  O2  UNL     1      45.820 129.598  21.128  1.00  0.00    -0.127 OA
ATOM     16  H3  UNL     1      46.867 129.910  19.382  1.00  0.00     0.198 HD
HETATM   17  N4  UNL     1      44.786 130.115  21.701  1.00  0.00    -0.103 N 
HETATM   18  C8  UNL     1      44.324 131.113  20.886  1.00  0.00     0.110 A 
HETATM   19  C9  UNL     1      43.133 131.952  21.202  1.00  0.00     0.077 C 
BRANCH  17  20
HETATM   20  O3  UNL     1      44.203 129.784  22.896  1.00  0.00    -0.261 OA
ATOM     21  H3  UNL     1      44.436 130.061  23.775  1.00  0.00     0.247 HD
ENDBRANCH  17  20
ENDBRANCH   1  13
TORSDOF 5
ENDMDL
MODEL 2
REMARK VINA RESULT: -6.999133068      2.606      6.369
REMARK  5 active torsions:
REMARK  status: ('A' for Active; 'I' for Inactive)
REMARK    1  A    between atoms: C3_3  and  C5_5 
REMARK       I    between atoms: C5_5  and  N1_7 
REMARK    2  A    between atoms: N1_7  and  C6_9 
REMARK    3  A    between atoms: C6_9  and  N2_11 
REMARK    4  A    between atoms: N2_11  and  C7_13 
REMARK    5  A    between atoms: N4_17  and  O3_18 
ROOT
HETATM    1  N2  UNL     1      45.672 131.654  15.495  1.00  0.00    -0.316 N 
ATOM      2  H2  UNL     1      46.077 132.556  15.747  1.00  0.00     0.170 HD
ENDROOT
BRANCH   1   3
HETATM    3  C6  UNL     1      44.293 131.644  15.517  1.00  0.00     0.180 C 
HETATM    4  S1  UNL     1      43.475 131.393  14.100  1.00  0.00    -0.040 SA
BRANCH   3   5
HETATM    5  N1  UNL     1      43.560 131.857  16.716  1.00  0.00    -0.300 N 
HETATM    6  C5  UNL     1      44.088 131.576  18.001  1.00  0.00     0.253 C 
HETATM    7  O1  UNL     1      45.274 131.111  18.109  1.00  0.00    -0.268 OA
ATOM      8  H1  UNL     1      42.613 132.229  16.648  1.00  0.00     0.171 HD
BRANCH   6   9
HETATM    9  C3  UNL     1      43.329 131.799  19.212  1.00  0.00     0.002 C 
HETATM   10  C2  UNL     1      43.842 131.520  20.385  1.00  0.00    -0.019 C 
HETATM   11  C1  UNL     1      43.082 131.740  21.649  1.00  0.00     0.036 C 
HETATM   12  C4  UNL     1      41.960 132.346  19.138  1.00  0.00     0.054 C 
ENDBRANCH   6   9
ENDBRANCH   3   5
ENDBRANCH   1   3
BRANCH   1  13
HETATM   13  C7  UNL     1      46.534 130.773  15.227  1.00  0.00     0.157 A 
HETATM   14  N3  UNL     1      46.970 129.816  16.121  1.00  0.00    -0.221 N 
HETATM   15  O2  UNL     1      47.840 129.100  15.507  1.00  0.00    -0.127 OA
ATOM     16  H3  UNL     1      46.660 129.699  17.086  1.00  0.00     0.198 HD
HETATM   17  N4  UNL     1      48.031 129.480  14.289  1.00  0.00    -0.103 N 
HETATM   18  C8  UNL     1      47.213 130.553  14.063  1.00  0.00     0.110 A 
HETATM   19  C9  UNL     1      47.147 131.281  12.763  1.00  0.00     0.077 C 
BRANCH  17  20
HETATM   20  O3  UNL     1      48.875 128.959  13.343  1.00  0.00    -0.261 OA
ATOM     21  H3  UNL     1      48.810 128.996  12.395  1.00  0.00     0.247 HD
ENDBRANCH  17  20
ENDBRANCH   1  13
TORSDOF 5
ENDMDL
MODEL 3
REMARK VINA RESULT: -6.935925196      1.054      1.270
REMARK  5 active torsions:
REMARK  status: ('A' for Active; 'I' for Inactive)
REMARK    1  A    between atoms: C3_3  and  C5_5 
REMARK       I    between atoms: C5_5  and  N1_7 
REMARK    2  A    between atoms: N1_7  and  C6_9 
REMARK    3  A    between atoms: C6_9  and  N2_11 
REMARK    4  A    between atoms: N2_11  and  C7_13 
REMARK    5  A    between atoms: N4_17  and  O3_18 
ROOT
HETATM    1  N2  UNL     1      44.632 131.854  19.333  1.00  0.00    -0.316 N 
ATOM      2  H2  UNL     1      45.230 132.680  19.358  1.00  0.00     0.170 HD
ENDROOT
BRANCH   1   3
HETATM    3  C6  UNL     1      43.715 131.870  18.303  1.00  0.00     0.180 C 
HETATM    4  S1  UNL     1      42.101 131.877  18.671  1.00  0.00    -0.040 SA
BRANCH   3   5
HETATM    5  N1  UNL     1      44.118 131.865  16.940  1.00  0.00    -0.300 N 
HETATM    6  C5  UNL     1      45.166 131.046  16.450  1.00  0.00     0.253 C 
HETATM    7  O1  UNL     1      45.789 130.268  17.253  1.00  0.00    -0.268 OA
ATOM      8  H1  UNL     1      43.632 132.478  16.286  1.00  0.00     0.171 HD
BRANCH   6   9
HETATM    9  C3  UNL     1      45.564 131.053  15.059  1.00  0.00     0.002 C 
HETATM   10  C2  UNL     1      46.830 130.993  14.725  1.00  0.00    -0.019 C 
HETATM   11  C1  UNL     1      47.268 130.999  13.299  1.00  0.00     0.036 C 
HETATM   12  C4  UNL     1      44.543 131.127  13.997  1.00  0.00     0.054 C 
ENDBRANCH   6   9
ENDBRANCH   3   5
ENDBRANCH   1   3
BRANCH   1  13
HETATM   13  C7  UNL     1      44.880 131.025  20.251  1.00  0.00     0.157 A 
HETATM   14  N3  UNL     1      45.833 130.030  20.160  1.00  0.00    -0.221 N 
HETATM   15  O2  UNL     1      45.806 129.386  21.270  1.00  0.00    -0.127 OA
ATOM     16  H3  UNL     1      46.443 129.843  19.364  1.00  0.00     0.198 HD
HETATM   17  N4  UNL     1      44.931 129.849  22.097  1.00  0.00    -0.103 N 
HETATM   18  C8  UNL     1      44.310 130.904  21.486  1.00  0.00     0.110 A 
HETATM   19  C9  UNL     1      43.227 131.707  22.124  1.00  0.00     0.077 C 
BRANCH  17  20
HETATM   20  O3  UNL     1      44.624 129.420  23.362  1.00  0.00    -0.261 OA
ATOM     21  H3  UNL     1      45.205 129.243  24.093  1.00  0.00     0.247 HD
ENDBRANCH  17  20
ENDBRANCH   1  13
TORSDOF 5
ENDMDL
MODEL 4
REMARK VINA RESULT: -6.909672324      2.767      3.055
REMARK  5 active torsions:
REMARK  status: ('A' for Active; 'I' for Inactive)
REMARK    1  A    between atoms: C3_3  and  C5_5 
REMARK       I    between atoms: C5_5  and  N1_7 
REMARK    2  A    between atoms: N1_7  and  C6_9 
REMARK    3  A    between atoms: C6_9  and  N2_11 
REMARK    4  A    between atoms: N2_11  and  C7_13 
REMARK    5  A    between atoms: N4_17  and  O3_18 
ROOT
HETATM    1  N2  UNL     1      44.130 130.744  19.479  1.00  0.00    -0.316 N 
ATOM      2  H2  UNL     1      43.847 129.786  19.688  1.00  0.00     0.170 HD
ENDROOT
BRANCH   1   3
HETATM    3  C6  UNL     1      45.472 130.868  19.184  1.00  0.00     0.180 C 
HETATM    4  S1  UNL     1      46.482 131.520  20.323  1.00  0.00    -0.040 SA
BRANCH   3   5
HETATM    5  N1  UNL     1      46.004 130.468  17.929  1.00  0.00    -0.300 N 
HETATM    6  C5  UNL     1      45.643 131.088  16.706  1.00  0.00     0.253 C 
HETATM    7  O1  UNL     1      44.803 132.053  16.711  1.00  0.00    -0.268 OA
ATOM      8  H1  UNL     1      46.676 129.701  17.907  1.00  0.00     0.171 HD
BRANCH   6   9
HETATM    9  C3  UNL     1      46.194 130.669  15.437  1.00  0.00     0.002 C 
HETATM   10  C2  UNL     1      46.758 131.537  14.632  1.00  0.00    -0.019 C 
HETATM   11  C1  UNL     1      47.333 131.132  13.317  1.00  0.00     0.036 C 
HETATM   12  C4  UNL     1      46.127 129.252  15.032  1.00  0.00     0.054 C 
ENDBRANCH   6   9
ENDBRANCH   3   5
ENDBRANCH   1   3
BRANCH   1  13
HETATM   13  C7  UNL     1      43.183 131.574  19.542  1.00  0.00     0.157 A 
HETATM   14  N3  UNL     1      42.545 132.109  18.440  1.00  0.00    -0.221 N 
HETATM   15  O2  UNL     1      41.644 132.908  18.882  1.00  0.00    -0.127 OA
ATOM     16  H3  UNL     1      42.751 131.908  17.462  1.00  0.00     0.198 HD
HETATM   17  N4  UNL     1      41.612 132.963  20.170  1.00  0.00    -0.103 N 
HETATM   18  C8  UNL     1      42.583 132.121  20.640  1.00  0.00     0.110 A 
HETATM   19  C9  UNL     1      42.862 131.909  22.090  1.00  0.00     0.077 C 
BRANCH  17  20
HETATM   20  O3  UNL     1      40.790 133.698  20.984  1.00  0.00    -0.261 OA
ATOM     21  H3  UNL     1      39.971 133.447  21.396  1.00  0.00     0.247 HD
ENDBRANCH  17  20
ENDBRANCH   1  13
TORSDOF 5
ENDMDL
MODEL 5
REMARK VINA RESULT: -6.896665809      2.375      2.845
REMARK  5 active torsions:
REMARK  status: ('A' for Active; 'I' for Inactive)
REMARK    1  A    between atoms: C3_3  and  C5_5 
REMARK       I    between atoms: C5_5  and  N1_7 
REMARK    2  A    between atoms: N1_7  and  C6_9 
REMARK    3  A    between atoms: C6_9  and  N2_11 
REMARK    4  A    between atoms: N2_11  and  C7_13 
REMARK    5  A    between atoms: N4_17  and  O3_18 
ROOT
HETATM    1  N2  UNL     1      43.841 131.156  19.765  1.00  0.00    -0.316 N 
ATOM      2  H2  UNL     1      43.293 130.730  19.018  1.00  0.00     0.170 HD
ENDROOT
BRANCH   1   3
HETATM    3  C6  UNL     1      45.193 131.208  19.495  1.00  0.00     0.180 C 
HETATM    4  S1  UNL     1      46.214 131.817  20.647  1.00  0.00    -0.040 SA
BRANCH   3   5
HETATM    5  N1  UNL     1      45.727 130.768  18.254  1.00  0.00    -0.300 N 
HETATM    6  C5  UNL     1      45.185 131.154  17.002  1.00  0.00     0.253 C 
HETATM    7  O1  UNL     1      44.171 131.934  16.966  1.00  0.00    -0.268 OA
ATOM      8  H1  UNL     1      46.536 130.148  18.264  1.00  0.00     0.171 HD
BRANCH   6   9
HETATM    9  C3  UNL     1      45.741 130.698  15.747  1.00  0.00     0.002 C 
HETATM   10  C2  UNL     1      46.410 131.518  14.974  1.00  0.00    -0.019 C 
HETATM   11  C1  UNL     1      46.993 131.074  13.675  1.00  0.00     0.036 C 
HETATM   12  C4  UNL     1      45.559 129.297  15.323  1.00  0.00     0.054 C 
ENDBRANCH   6   9
ENDBRANCH   3   5
ENDBRANCH   1   3
BRANCH   1  13
HETATM   13  C7  UNL     1      43.146 131.529  20.749  1.00  0.00     0.157 A 
HETATM   14  N3  UNL     1      42.251 132.581  20.712  1.00  0.00    -0.221 N 
HETATM   15  O2  UNL     1      41.733 132.670  21.883  1.00  0.00    -0.127 OA
ATOM     16  H3  UNL     1      42.042 133.173  19.909  1.00  0.00     0.198 HD
HETATM   17  N4  UNL     1      42.189 131.784  22.702  1.00  0.00    -0.103 N 
HETATM   18  C8  UNL     1      43.101 131.027  22.018  1.00  0.00     0.110 A 
HETATM   19  C9  UNL     1      43.854 129.892  22.626  1.00  0.00     0.077 C 
BRANCH  17  20
HETATM   20  O3  UNL     1      41.870 131.577  24.019  1.00  0.00    -0.261 OA
ATOM     21  H3  UNL     1      41.059 131.766  24.476  1.00  0.00     0.247 HD
ENDBRANCH  17  20
ENDBRANCH   1  13
TORSDOF 5
ENDMDL
