MODEL 1
REMARK VINA RESULT: -6.439715278      0.000      0.000
REMARK  15 active torsions:
REMARK  status: ('A' for Active; 'I' for Inactive)
REMARK    1  A    between atoms: N1_2  and  N2_3 
REMARK    2  A    between atoms: N1_2  and  C2_6 
REMARK    3  A    between atoms: N5_13  and  N6_15 
REMARK    4  A    between atoms: N6_15  and  C6_17 
REMARK    5  A    between atoms: C6_17  and  C7_18 
REMARK    6  A    between atoms: C7_18  and  O2_20 
REMARK    7  A    between atoms: O2_20  and  C8_21 
REMARK    8  A    between atoms: C8_21  and  C9_22 
REMARK    9  A    between atoms: C9_22  and  C10_23 
REMARK   10  A    between atoms: C10_23  and  O3_24 
REMARK   11  A    between atoms: C11_27  and  O5_28 
REMARK   12  A    between atoms: C12_30  and  O6_31 
REMARK   13  A    between atoms: C13_33  and  C14_34 
REMARK       I    between atoms: C14_34  and  N7_36 
REMARK   14  A    between atoms: N7_36  and  C15_38 
REMARK   15  A    between atoms: N8_39  and  N9_41 
ROOT
HETATM    1  C9  UNL     1     -13.349  70.410  26.136  1.00  0.00     0.211 C 
HETATM    2  O4  UNL     1     -12.763  71.625  25.930  1.00  0.00    -0.318 OA
HETATM    3  C11 UNL     1     -12.552  72.418  27.006  1.00  0.00     0.292 C 
HETATM    4  C12 UNL     1     -13.683  72.398  27.974  1.00  0.00     0.211 C 
HETATM    5  C13 UNL     1     -14.466  71.126  28.035  1.00  0.00     0.251 C 
HETATM    6  O8  UNL     1     -14.524  70.440  26.849  1.00  0.00    -0.334 OA
ENDROOT
BRANCH   1   7
HETATM    7  C8  UNL     1     -12.431  69.440  26.843  1.00  0.00     0.249 C 
BRANCH   7   8
HETATM    8  O2  UNL     1     -11.312  69.069  26.037  1.00  0.00    -0.315 OA
BRANCH   8   9
HETATM    9  C7  UNL     1     -10.075  69.654  26.207  1.00  0.00     0.278 C 
HETATM   10  O1  UNL     1      -9.512  69.704  27.318  1.00  0.00    -0.263 OA
BRANCH   9  11
HETATM   11  C6  UNL     1      -9.408  70.239  25.010  1.00  0.00     0.251 C 
BRANCH  11  12
HETATM   12  N6  UNL     1     -10.029  71.455  24.582  1.00  0.00    -0.313 N 
ATOM     13  H6  UNL     1     -10.985  71.369  24.237  1.00  0.00     0.181 HD
BRANCH  12  14
HETATM   14  N5  UNL     1      -9.527  72.665  24.575  1.00  0.00    -0.136 N 
HETATM   15  C5  UNL     1      -9.944  73.836  24.561  1.00  0.00     0.699 A 
HETATM   16  N4  UNL     1     -11.193  74.270  24.548  1.00  0.00    -0.177 N 
HETATM   17  N10 UNL     1      -8.989  74.840  24.561  1.00  0.00    -0.174 N 
HETATM   18  C4  UNL     1     -11.560  75.589  24.534  1.00  0.00     0.135 A 
ATOM     19  H4  UNL     1     -11.937  73.572  24.548  1.00  0.00     0.185 HD
HETATM   20  C3  UNL     1     -10.569  76.530  24.536  1.00  0.00     0.096 A 
HETATM   21  N3  UNL     1     -12.936  75.927  24.523  1.00  0.00    -0.082 NA
HETATM   22  C2  UNL     1      -9.240  76.133  24.550  1.00  0.00     0.140 A 
ATOM     23  H10 UNL     1      -8.011  74.554  24.570  1.00  0.00     0.186 HD
ATOM     24  H5  UNL     1      -8.507  72.639  24.585  1.00  0.00     0.205 HD
BRANCH  22  25
HETATM   25  N1  UNL     1      -8.184  77.081  24.551  1.00  0.00    -0.287 N 
HETATM   26  C1  UNL     1      -7.978  77.876  23.359  1.00  0.00     0.179 C 
BRANCH  25  27
HETATM   27  N2  UNL     1      -7.397  77.211  25.681  1.00  0.00    -0.342 N 
ATOM     28  H22 UNL     1      -7.597  77.961  26.343  1.00  0.00     0.177 HD
ATOM     29  H21 UNL     1      -6.618  76.583  25.885  1.00  0.00     0.177 HD
ENDBRANCH  25  27
ENDBRANCH  22  25
ENDBRANCH  12  14
ENDBRANCH  11  12
ENDBRANCH   9  11
ENDBRANCH   8   9
ENDBRANCH   7   8
ENDBRANCH   1   7
BRANCH   1  30
HETATM   30  C10 UNL     1     -13.672  69.824  24.784  1.00  0.00     0.235 C 
BRANCH  30  31
HETATM   31  O3  UNL     1     -12.798  70.226  23.789  1.00  0.00    -0.395 OA
ATOM     32  H3  UNL     1     -13.046  69.919  22.924  1.00  0.00     0.209 HD
ENDBRANCH  30  31
ENDBRANCH   1  30
BRANCH   3  33
HETATM   33  O5  UNL     1     -11.299  72.252  27.603  1.00  0.00    -0.368 OA
ATOM     34  H5  UNL     1     -10.622  71.948  27.010  1.00  0.00     0.212 HD
ENDBRANCH   3  33
BRANCH   5  35
HETATM   35  C14 UNL     1     -15.857  71.398  28.482  1.00  0.00     0.254 C 
HETATM   36  O7  UNL     1     -16.778  70.518  28.313  1.00  0.00    -0.270 OA
HETATM   37  N7  UNL     1     -16.150  72.628  29.093  1.00  0.00    -0.320 N 
ATOM     38  H7  UNL     1     -15.399  73.307  29.213  1.00  0.00     0.169 HD
BRANCH  37  39
HETATM   39  C15 UNL     1     -17.450  72.959  29.548  1.00  0.00     0.199 C 
HETATM   40  N8  UNL     1     -17.939  72.479  30.633  1.00  0.00    -0.303 N 
ATOM     41  H8  UNL     1     -18.880  72.735  30.935  1.00  0.00     0.187 HD
BRANCH  40  42
HETATM   42  N9  UNL     1     -17.168  71.605  31.393  1.00  0.00    -0.344 N 
ATOM     43  H92 UNL     1     -17.438  71.404  32.355  1.00  0.00     0.176 HD
ATOM     44  H91 UNL     1     -16.343  71.180  30.970  1.00  0.00     0.176 HD
ENDBRANCH  40  42
ENDBRANCH  37  39
ENDBRANCH   5  35
BRANCH   4  45
HETATM   45  O6  UNL     1     -13.138  72.721  29.227  1.00  0.00    -0.388 OA
ATOM     46  H6  UNL     1     -12.705  73.560  29.123  1.00  0.00     0.210 HD
ENDBRANCH   4  45
TORSDOF 15
ENDMDL
MODEL 2
REMARK VINA RESULT: -6.259666363      2.469      3.972
REMARK  15 active torsions:
REMARK  status: ('A' for Active; 'I' for Inactive)
REMARK    1  A    between atoms: N1_2  and  N2_3 
REMARK    2  A    between atoms: N1_2  and  C2_6 
REMARK    3  A    between atoms: N5_13  and  N6_15 
REMARK    4  A    between atoms: N6_15  and  C6_17 
REMARK    5  A    between atoms: C6_17  and  C7_18 
REMARK    6  A    between atoms: C7_18  and  O2_20 
REMARK    7  A    between atoms: O2_20  and  C8_21 
REMARK    8  A    between atoms: C8_21  and  C9_22 
REMARK    9  A    between atoms: C9_22  and  C10_23 
REMARK   10  A    between atoms: C10_23  and  O3_24 
REMARK   11  A    between atoms: C11_27  and  O5_28 
REMARK   12  A    between atoms: C12_30  and  O6_31 
REMARK   13  A    between atoms: C13_33  and  C14_34 
REMARK       I    between atoms: C14_34  and  N7_36 
REMARK   14  A    between atoms: N7_36  and  C15_38 
REMARK   15  A    between atoms: N8_39  and  N9_41 
ROOT
HETATM    1  C9  UNL     1     -16.949  71.469  28.874  1.00  0.00     0.211 C 
HETATM    2  O4  UNL     1     -17.129  72.709  28.333  1.00  0.00    -0.318 OA
HETATM    3  C11 UNL     1     -16.957  73.783  29.138  1.00  0.00     0.292 C 
HETATM    4  C12 UNL     1     -17.518  73.583  30.502  1.00  0.00     0.211 C 
HETATM    5  C13 UNL     1     -17.522  72.175  31.006  1.00  0.00     0.251 C 
HETATM    6  O8  UNL     1     -17.660  71.225  30.026  1.00  0.00    -0.334 OA
ENDROOT
BRANCH   1   7
HETATM    7  C8  UNL     1     -15.499  71.179  29.183  1.00  0.00     0.249 C 
BRANCH   7   8
HETATM    8  O2  UNL     1     -14.658  71.352  28.043  1.00  0.00    -0.315 OA
BRANCH   8   9
HETATM    9  C7  UNL     1     -13.448  72.006  28.131  1.00  0.00     0.278 C 
HETATM   10  O1  UNL     1     -13.123  72.670  29.135  1.00  0.00    -0.263 OA
BRANCH   9  11
HETATM   11  C6  UNL     1     -12.511  71.903  26.977  1.00  0.00     0.251 C 
BRANCH  11  12
HETATM   12  N6  UNL     1     -12.533  73.072  26.153  1.00  0.00    -0.313 N 
ATOM     13  H6  UNL     1     -13.431  73.300  25.728  1.00  0.00     0.181 HD
BRANCH  12  14
HETATM   14  N5  UNL     1     -11.546  73.887  25.874  1.00  0.00    -0.136 N 
HETATM   15  C5  UNL     1     -11.280  74.756  25.026  1.00  0.00     0.699 A 
HETATM   16  N4  UNL     1     -12.018  75.177  24.012  1.00  0.00    -0.177 N 
HETATM   17  N10 UNL     1     -10.051  75.385  25.139  1.00  0.00    -0.174 N 
HETATM   18  C4  UNL     1     -11.640  76.148  23.124  1.00  0.00     0.135 A 
ATOM     19  H4  UNL     1     -12.933  74.747  23.882  1.00  0.00     0.185 HD
HETATM   20  C3  UNL     1     -10.415  76.730  23.291  1.00  0.00     0.096 A 
HETATM   21  N3  UNL     1     -12.524  76.513  22.077  1.00  0.00    -0.082 NA
HETATM   22  C2  UNL     1      -9.598  76.328  24.338  1.00  0.00     0.140 A 
ATOM     23  H10 UNL     1      -9.446  75.093  25.906  1.00  0.00     0.186 HD
ATOM     24  H5  UNL     1     -10.781  73.779  26.539  1.00  0.00     0.205 HD
BRANCH  22  25
HETATM   25  N1  UNL     1      -8.320  76.908  24.544  1.00  0.00    -0.287 N 
HETATM   26  C1  UNL     1      -7.909  77.984  23.666  1.00  0.00     0.179 C 
BRANCH  25  27
HETATM   27  N2  UNL     1      -7.519  76.430  25.565  1.00  0.00    -0.342 N 
ATOM     28  H22 UNL     1      -7.349  77.019  26.381  1.00  0.00     0.177 HD
ATOM     29  H21 UNL     1      -7.086  75.506  25.539  1.00  0.00     0.177 HD
ENDBRANCH  25  27
ENDBRANCH  22  25
ENDBRANCH  12  14
ENDBRANCH  11  12
ENDBRANCH   9  11
ENDBRANCH   8   9
ENDBRANCH   7   8
ENDBRANCH   1   7
BRANCH   1  30
HETATM   30  C10 UNL     1     -17.407  70.456  27.855  1.00  0.00     0.235 C 
BRANCH  30  31
HETATM   31  O3  UNL     1     -16.767  69.234  27.971  1.00  0.00    -0.395 OA
ATOM     32  H3  UNL     1     -17.123  68.567  27.396  1.00  0.00     0.209 HD
ENDBRANCH  30  31
ENDBRANCH   1  30
BRANCH   3  33
HETATM   33  O5  UNL     1     -15.659  74.300  29.136  1.00  0.00    -0.368 OA
ATOM     34  H5  UNL     1     -14.977  73.640  29.089  1.00  0.00     0.212 HD
ENDBRANCH   3  33
BRANCH   5  35
HETATM   35  C14 UNL     1     -18.615  71.984  31.994  1.00  0.00     0.254 C 
HETATM   36  O7  UNL     1     -18.863  72.888  32.873  1.00  0.00    -0.270 OA
HETATM   37  N7  UNL     1     -19.374  70.803  31.953  1.00  0.00    -0.320 N 
ATOM     38  H7  UNL     1     -19.154  70.103  31.245  1.00  0.00     0.169 HD
BRANCH  37  39
HETATM   39  C15 UNL     1     -20.433  70.550  32.859  1.00  0.00     0.199 C 
HETATM   40  N8  UNL     1     -20.728  69.365  33.255  1.00  0.00    -0.303 N 
ATOM     41  H8  UNL     1     -21.497  69.213  33.907  1.00  0.00     0.187 HD
BRANCH  40  42
HETATM   42  N9  UNL     1     -19.981  68.290  32.783  1.00  0.00    -0.344 N 
ATOM     43  H92 UNL     1     -19.467  67.707  33.443  1.00  0.00     0.176 HD
ATOM     44  H91 UNL     1     -19.961  68.105  31.780  1.00  0.00     0.176 HD
ENDBRANCH  40  42
ENDBRANCH  37  39
ENDBRANCH   5  35
BRANCH   4  45
HETATM   45  O6  UNL     1     -16.793  74.427  31.357  1.00  0.00    -0.388 OA
ATOM     46  H6  UNL     1     -16.829  74.031  32.220  1.00  0.00     0.210 HD
ENDBRANCH   4  45
TORSDOF 15
ENDMDL
MODEL 3
REMARK VINA RESULT: -6.248469492      1.460      1.756
REMARK  15 active torsions:
REMARK  status: ('A' for Active; 'I' for Inactive)
REMARK    1  A    between atoms: N1_2  and  N2_3 
REMARK    2  A    between atoms: N1_2  and  C2_6 
REMARK    3  A    between atoms: N5_13  and  N6_15 
REMARK    4  A    between atoms: N6_15  and  C6_17 
REMARK    5  A    between atoms: C6_17  and  C7_18 
REMARK    6  A    between atoms: C7_18  and  O2_20 
REMARK    7  A    between atoms: O2_20  and  C8_21 
REMARK    8  A    between atoms: C8_21  and  C9_22 
REMARK    9  A    between atoms: C9_22  and  C10_23 
REMARK   10  A    between atoms: C10_23  and  O3_24 
REMARK   11  A    between atoms: C11_27  and  O5_28 
REMARK   12  A    between atoms: C12_30  and  O6_31 
REMARK   13  A    between atoms: C13_33  and  C14_34 
REMARK       I    between atoms: C14_34  and  N7_36 
REMARK   14  A    between atoms: N7_36  and  C15_38 
REMARK   15  A    between atoms: N8_39  and  N9_41 
ROOT
HETATM    1  C9  UNL     1     -14.284  71.248  26.832  1.00  0.00     0.211 C 
HETATM    2  O4  UNL     1     -15.011  72.173  26.140  1.00  0.00    -0.318 OA
HETATM    3  C11 UNL     1     -15.291  73.346  26.753  1.00  0.00     0.292 C 
HETATM    4  C12 UNL     1     -15.648  73.182  28.189  1.00  0.00     0.211 C 
HETATM    5  C13 UNL     1     -15.013  72.024  28.890  1.00  0.00     0.251 C 
HETATM    6  O8  UNL     1     -14.765  70.942  28.083  1.00  0.00    -0.334 OA
ENDROOT
BRANCH   1   7
HETATM    7  C8  UNL     1     -12.840  71.662  27.004  1.00  0.00     0.249 C 
BRANCH   7   8
HETATM    8  O2  UNL     1     -11.979  70.543  27.210  1.00  0.00    -0.315 OA
BRANCH   8   9
HETATM    9  C7  UNL     1     -10.842  70.358  26.452  1.00  0.00     0.278 C 
HETATM   10  O1  UNL     1      -9.806  69.849  26.923  1.00  0.00    -0.263 OA
BRANCH   9  11
HETATM   11  C6  UNL     1     -10.875  70.787  25.026  1.00  0.00     0.251 C 
BRANCH  11  12
HETATM   12  N6  UNL     1      -9.615  71.303  24.584  1.00  0.00    -0.313 N 
ATOM     13  H6  UNL     1      -8.962  70.617  24.204  1.00  0.00     0.181 HD
BRANCH  12  14
HETATM   14  N5  UNL     1      -9.192  72.543  24.605  1.00  0.00    -0.136 N 
HETATM   15  C5  UNL     1      -9.684  73.684  24.600  1.00  0.00     0.699 A 
HETATM   16  N4  UNL     1     -10.958  74.037  24.569  1.00  0.00    -0.177 N 
HETATM   17  N10 UNL     1      -8.796  74.748  24.634  1.00  0.00    -0.174 N 
HETATM   18  C4  UNL     1     -11.409  75.329  24.568  1.00  0.00     0.135 A 
ATOM     19  H4  UNL     1     -11.655  73.292  24.543  1.00  0.00     0.185 HD
HETATM   20  C3  UNL     1     -10.482  76.333  24.603  1.00  0.00     0.096 A 
HETATM   21  N3  UNL     1     -12.804  75.578  24.534  1.00  0.00    -0.082 NA
HETATM   22  C2  UNL     1      -9.130  76.022  24.637  1.00  0.00     0.140 A 
ATOM     23  H10 UNL     1      -7.802  74.525  24.658  1.00  0.00     0.186 HD
ATOM     24  H5  UNL     1      -8.173  72.583  24.635  1.00  0.00     0.205 HD
BRANCH  22  25
HETATM   25  N1  UNL     1      -8.139  77.036  24.674  1.00  0.00    -0.287 N 
HETATM   26  C1  UNL     1      -8.023  77.920  23.533  1.00  0.00     0.179 C 
BRANCH  25  27
HETATM   27  N2  UNL     1      -7.325  77.142  25.788  1.00  0.00    -0.342 N 
ATOM     28  H22 UNL     1      -6.448  77.660  25.714  1.00  0.00     0.177 HD
ATOM     29  H21 UNL     1      -7.564  76.724  26.687  1.00  0.00     0.177 HD
ENDBRANCH  25  27
ENDBRANCH  22  25
ENDBRANCH  12  14
ENDBRANCH  11  12
ENDBRANCH   9  11
ENDBRANCH   8   9
ENDBRANCH   7   8
ENDBRANCH   1   7
BRANCH   1  30
HETATM   30  C10 UNL     1     -14.296  69.968  26.034  1.00  0.00     0.235 C 
BRANCH  30  31
HETATM   31  O3  UNL     1     -14.185  68.833  26.817  1.00  0.00    -0.395 OA
ATOM     32  H3  UNL     1     -13.893  68.069  26.333  1.00  0.00     0.209 HD
ENDBRANCH  30  31
ENDBRANCH   1  30
BRANCH   3  33
HETATM   33  O5  UNL     1     -14.352  74.354  26.520  1.00  0.00    -0.368 OA
ATOM     34  H5  UNL     1     -14.396  74.735  25.650  1.00  0.00     0.212 HD
ENDBRANCH   3  33
BRANCH   5  35
HETATM   35  C14 UNL     1     -15.868  71.573  30.019  1.00  0.00     0.254 C 
HETATM   36  O7  UNL     1     -15.425  70.715  30.867  1.00  0.00    -0.270 OA
HETATM   37  N7  UNL     1     -17.163  72.100  30.148  1.00  0.00    -0.320 N 
ATOM     38  H7  UNL     1     -17.487  72.779  29.459  1.00  0.00     0.169 HD
BRANCH  37  39
HETATM   39  C15 UNL     1     -18.035  71.722  31.198  1.00  0.00     0.199 C 
HETATM   40  N8  UNL     1     -18.341  72.520  32.156  1.00  0.00    -0.303 N 
ATOM     41  H8  UNL     1     -18.971  72.219  32.899  1.00  0.00     0.187 HD
BRANCH  40  42
HETATM   42  N9  UNL     1     -17.801  73.802  32.164  1.00  0.00    -0.344 N 
ATOM     43  H92 UNL     1     -17.647  74.288  31.281  1.00  0.00     0.176 HD
ATOM     44  H91 UNL     1     -17.568  74.234  33.058  1.00  0.00     0.176 HD
ENDBRANCH  40  42
ENDBRANCH  37  39
ENDBRANCH   5  35
BRANCH   4  45
HETATM   45  O6  UNL     1     -15.328  74.395  28.818  1.00  0.00    -0.388 OA
ATOM     46  H6  UNL     1     -15.800  74.403  29.642  1.00  0.00     0.210 HD
ENDBRANCH   4  45
TORSDOF 15
ENDMDL
MODEL 4
REMARK VINA RESULT: -6.227055520      4.210     10.095
REMARK  15 active torsions:
REMARK  status: ('A' for Active; 'I' for Inactive)
REMARK    1  A    between atoms: N1_2  and  N2_3 
REMARK    2  A    between atoms: N1_2  and  C2_6 
REMARK    3  A    between atoms: N5_13  and  N6_15 
REMARK    4  A    between atoms: N6_15  and  C6_17 
REMARK    5  A    between atoms: C6_17  and  C7_18 
REMARK    6  A    between atoms: C7_18  and  O2_20 
REMARK    7  A    between atoms: O2_20  and  C8_21 
REMARK    8  A    between atoms: C8_21  and  C9_22 
REMARK    9  A    between atoms: C9_22  and  C10_23 
REMARK   10  A    between atoms: C10_23  and  O3_24 
REMARK   11  A    between atoms: C11_27  and  O5_28 
REMARK   12  A    between atoms: C12_30  and  O6_31 
REMARK   13  A    between atoms: C13_33  and  C14_34 
REMARK       I    between atoms: C14_34  and  N7_36 
REMARK   14  A    between atoms: N7_36  and  C15_38 
REMARK   15  A    between atoms: N8_39  and  N9_41 
ROOT
HETATM    1  C9  UNL     1     -17.212  73.814  29.859  1.00  0.00     0.211 C 
HETATM    2  O4  UNL     1     -16.923  75.037  29.327  1.00  0.00    -0.318 OA
HETATM    3  C11 UNL     1     -16.575  75.094  28.021  1.00  0.00     0.292 C 
HETATM    4  C12 UNL     1     -15.679  73.979  27.608  1.00  0.00     0.211 C 
HETATM    5  C13 UNL     1     -15.852  72.694  28.354  1.00  0.00     0.251 C 
HETATM    6  O8  UNL     1     -16.256  72.846  29.656  1.00  0.00    -0.334 OA
ENDROOT
BRANCH   1   7
HETATM    7  C8  UNL     1     -18.519  73.256  29.344  1.00  0.00     0.249 C 
BRANCH   7   8
HETATM    8  O2  UNL     1     -19.610  73.540  30.218  1.00  0.00    -0.315 OA
BRANCH   8   9
HETATM    9  C7  UNL     1     -20.677  72.676  30.347  1.00  0.00     0.278 C 
HETATM   10  O1  UNL     1     -21.283  72.219  29.358  1.00  0.00    -0.263 OA
BRANCH   9  11
HETATM   11  C6  UNL     1     -21.102  72.290  31.721  1.00  0.00     0.251 C 
BRANCH  11  12
HETATM   12  N6  UNL     1     -20.006  71.840  32.523  1.00  0.00    -0.313 N 
ATOM     13  H6  UNL     1     -19.549  72.553  33.092  1.00  0.00     0.181 HD
BRANCH  12  14
HETATM   14  N5  UNL     1     -19.514  70.630  32.621  1.00  0.00    -0.136 N 
HETATM   15  C5  UNL     1     -18.858  69.842  31.918  1.00  0.00     0.699 A 
HETATM   16  N4  UNL     1     -18.395  70.015  30.692  1.00  0.00    -0.177 N 
HETATM   17  N10 UNL     1     -18.557  68.609  32.475  1.00  0.00    -0.174 N 
HETATM   18  C4  UNL     1     -17.676  69.084  29.992  1.00  0.00     0.135 A 
ATOM     19  H4  UNL     1     -18.589  70.906  30.234  1.00  0.00     0.185 HD
HETATM   20  C3  UNL     1     -17.412  67.889  30.599  1.00  0.00     0.096 A 
HETATM   21  N3  UNL     1     -17.233  69.391  28.681  1.00  0.00    -0.082 NA
HETATM   22  C2  UNL     1     -17.872  67.651  31.886  1.00  0.00     0.140 A 
ATOM     23  H10 UNL     1     -18.894  68.429  33.421  1.00  0.00     0.186 HD
ATOM     24  H5  UNL     1     -19.729  70.219  33.530  1.00  0.00     0.205 HD
BRANCH  22  25
HETATM   25  N1  UNL     1     -17.618  66.423  32.548  1.00  0.00    -0.287 N 
HETATM   26  C1  UNL     1     -17.368  65.249  31.738  1.00  0.00     0.179 C 
BRANCH  25  27
HETATM   27  N2  UNL     1     -17.617  66.390  33.931  1.00  0.00    -0.342 N 
ATOM     28  H22 UNL     1     -16.741  66.214  34.424  1.00  0.00     0.177 HD
ATOM     29  H21 UNL     1     -18.461  66.536  34.485  1.00  0.00     0.177 HD
ENDBRANCH  25  27
ENDBRANCH  22  25
ENDBRANCH  12  14
ENDBRANCH  11  12
ENDBRANCH   9  11
ENDBRANCH   8   9
ENDBRANCH   7   8
ENDBRANCH   1   7
BRANCH   1  30
HETATM   30  C10 UNL     1     -17.350  73.986  31.351  1.00  0.00     0.235 C 
BRANCH  30  31
HETATM   31  O3  UNL     1     -17.283  72.793  32.049  1.00  0.00    -0.395 OA
ATOM     32  H3  UNL     1     -17.199  72.910  32.988  1.00  0.00     0.209 HD
ENDBRANCH  30  31
ENDBRANCH   1  30
BRANCH   3  33
HETATM   33  O5  UNL     1     -17.647  75.304  27.150  1.00  0.00    -0.368 OA
ATOM     34  H5  UNL     1     -17.491  75.971  26.492  1.00  0.00     0.212 HD
ENDBRANCH   3  33
BRANCH   5  35
HETATM   35  C14 UNL     1     -14.583  71.921  28.350  1.00  0.00     0.254 C 
HETATM   36  O7  UNL     1     -13.918  71.756  29.437  1.00  0.00    -0.270 OA
HETATM   37  N7  UNL     1     -14.122  71.372  27.142  1.00  0.00    -0.320 N 
ATOM     38  H7  UNL     1     -14.670  71.519  26.295  1.00  0.00     0.169 HD
BRANCH  37  39
HETATM   39  C15 UNL     1     -12.924  70.620  27.059  1.00  0.00     0.199 C 
HETATM   40  N8  UNL     1     -11.766  71.162  27.173  1.00  0.00    -0.303 N 
ATOM     41  H8  UNL     1     -10.921  70.595  27.107  1.00  0.00     0.187 HD
BRANCH  40  42
HETATM   42  N9  UNL     1     -11.681  72.534  27.387  1.00  0.00    -0.344 N 
ATOM     43  H92 UNL     1     -11.267  73.130  26.670  1.00  0.00     0.176 HD
ATOM     44  H91 UNL     1     -12.035  72.920  28.262  1.00  0.00     0.176 HD
ENDBRANCH  40  42
ENDBRANCH  37  39
ENDBRANCH   5  35
BRANCH   4  45
HETATM   45  O6  UNL     1     -15.880  73.798  26.231  1.00  0.00    -0.388 OA
ATOM     46  H6  UNL     1     -16.228  72.922  26.122  1.00  0.00     0.210 HD
ENDBRANCH   4  45
TORSDOF 15
ENDMDL
MODEL 5
REMARK VINA RESULT: -6.164628659      1.759      2.650
REMARK  15 active torsions:
REMARK  status: ('A' for Active; 'I' for Inactive)
REMARK    1  A    between atoms: N1_2  and  N2_3 
REMARK    2  A    between atoms: N1_2  and  C2_6 
REMARK    3  A    between atoms: N5_13  and  N6_15 
REMARK    4  A    between atoms: N6_15  and  C6_17 
REMARK    5  A    between atoms: C6_17  and  C7_18 
REMARK    6  A    between atoms: C7_18  and  O2_20 
REMARK    7  A    between atoms: O2_20  and  C8_21 
REMARK    8  A    between atoms: C8_21  and  C9_22 
REMARK    9  A    between atoms: C9_22  and  C10_23 
REMARK   10  A    between atoms: C10_23  and  O3_24 
REMARK   11  A    between atoms: C11_27  and  O5_28 
REMARK   12  A    between atoms: C12_30  and  O6_31 
REMARK   13  A    between atoms: C13_33  and  C14_34 
REMARK       I    between atoms: C14_34  and  N7_36 
REMARK   14  A    between atoms: N7_36  and  C15_38 
REMARK   15  A    between atoms: N8_39  and  N9_41 
ROOT
HETATM    1  C9  UNL     1     -15.703  71.406  27.992  1.00  0.00     0.211 C 
HETATM    2  O4  UNL     1     -15.884  72.132  26.850  1.00  0.00    -0.318 OA
HETATM    3  C11 UNL     1     -15.713  73.473  26.918  1.00  0.00     0.292 C 
HETATM    4  C12 UNL     1     -16.274  74.069  28.162  1.00  0.00     0.211 C 
HETATM    5  C13 UNL     1     -16.276  73.181  29.366  1.00  0.00     0.251 C 
HETATM    6  O8  UNL     1     -16.413  71.846  29.084  1.00  0.00    -0.334 OA
ENDROOT
BRANCH   1   7
HETATM    7  C8  UNL     1     -14.252  71.339  28.408  1.00  0.00     0.249 C 
BRANCH   7   8
HETATM    8  O2  UNL     1     -13.406  70.891  27.350  1.00  0.00    -0.315 OA
BRANCH   8   9
HETATM    9  C7  UNL     1     -12.169  71.456  27.125  1.00  0.00     0.278 C 
HETATM   10  O1  UNL     1     -11.867  72.585  27.560  1.00  0.00    -0.263 OA
BRANCH   9  11
HETATM   11  C6  UNL     1     -11.176  70.676  26.335  1.00  0.00     0.251 C 
BRANCH  11  12
HETATM   12  N6  UNL     1     -10.812  71.334  25.118  1.00  0.00    -0.313 N 
ATOM     13  H6  UNL     1     -11.059  70.846  24.257  1.00  0.00     0.181 HD
BRANCH  12  14
HETATM   14  N5  UNL     1     -10.202  72.483  24.967  1.00  0.00    -0.136 N 
HETATM   15  C5  UNL     1     -10.510  73.678  24.815  1.00  0.00     0.699 A 
HETATM   16  N4  UNL     1     -11.714  74.221  24.754  1.00  0.00    -0.177 N 
HETATM   17  N10 UNL     1      -9.467  74.583  24.693  1.00  0.00    -0.174 N 
HETATM   18  C4  UNL     1     -11.959  75.557  24.585  1.00  0.00     0.135 A 
ATOM     19  H4  UNL     1     -12.518  73.599  24.838  1.00  0.00     0.185 HD
HETATM   20  C3  UNL     1     -10.887  76.397  24.472  1.00  0.00     0.096 A 
HETATM   21  N3  UNL     1     -13.299  76.017  24.537  1.00  0.00    -0.082 NA
HETATM   22  C2  UNL     1      -9.599  75.883  24.529  1.00  0.00     0.140 A 
ATOM     23  H10 UNL     1      -8.519  74.210  24.734  1.00  0.00     0.186 HD
ATOM     24  H5  UNL     1      -9.188  72.365  24.977  1.00  0.00     0.205 HD
BRANCH  22  25
HETATM   25  N1  UNL     1      -8.462  76.723  24.416  1.00  0.00    -0.287 N 
HETATM   26  C1  UNL     1      -8.340  77.553  23.236  1.00  0.00     0.179 C 
BRANCH  25  27
HETATM   27  N2  UNL     1      -7.517  76.719  25.427  1.00  0.00    -0.342 N 
ATOM     28  H22 UNL     1      -6.578  77.066  25.231  1.00  0.00     0.177 HD
ATOM     29  H21 UNL     1      -7.720  76.382  26.369  1.00  0.00     0.177 HD
ENDBRANCH  25  27
ENDBRANCH  22  25
ENDBRANCH  12  14
ENDBRANCH  11  12
ENDBRANCH   9  11
ENDBRANCH   8   9
ENDBRANCH   7   8
ENDBRANCH   1   7
BRANCH   1  30
HETATM   30  C10 UNL     1     -16.160  69.996  27.712  1.00  0.00     0.235 C 
BRANCH  30  31
HETATM   31  O3  UNL     1     -15.770  69.529  26.469  1.00  0.00    -0.395 OA
ATOM     32  H3  UNL     1     -16.471  69.539  25.827  1.00  0.00     0.209 HD
ENDBRANCH  30  31
ENDBRANCH   1  30
BRANCH   3  33
HETATM   33  O5  UNL     1     -14.416  73.901  26.627  1.00  0.00    -0.368 OA
ATOM     34  H5  UNL     1     -14.369  74.764  26.232  1.00  0.00     0.212 HD
ENDBRANCH   3  33
BRANCH   5  35
HETATM   35  C14 UNL     1     -17.368  73.574  30.294  1.00  0.00     0.254 C 
HETATM   36  O7  UNL     1     -17.330  74.705  30.902  1.00  0.00    -0.270 OA
HETATM   37  N7  UNL     1     -18.442  72.692  30.496  1.00  0.00    -0.320 N 
ATOM     38  H7  UNL     1     -18.445  71.800  30.000  1.00  0.00     0.169 HD
BRANCH  37  39
HETATM   39  C15 UNL     1     -19.521  72.996  31.362  1.00  0.00     0.199 C 
HETATM   40  N8  UNL     1     -19.968  72.155  32.223  1.00  0.00    -0.303 N 
ATOM     41  H8  UNL     1     -20.747  72.402  32.832  1.00  0.00     0.187 HD
BRANCH  40  42
HETATM   42  N9  UNL     1     -19.372  70.901  32.312  1.00  0.00    -0.344 N 
ATOM     43  H92 UNL     1     -18.358  70.821  32.238  1.00  0.00     0.176 HD
ATOM     44  H91 UNL     1     -19.963  70.082  32.452  1.00  0.00     0.176 HD
ENDBRANCH  40  42
ENDBRANCH  37  39
ENDBRANCH   5  35
BRANCH   4  45
HETATM   45  O6  UNL     1     -15.549  75.246  28.400  1.00  0.00    -0.388 OA
ATOM     46  H6  UNL     1     -15.902  75.623  29.197  1.00  0.00     0.210 HD
ENDBRANCH   4  45
TORSDOF 15
ENDMDL
