MODEL 1
REMARK VINA RESULT: -6.491822403      0.000      0.000
REMARK  11 active torsions:
REMARK  status: ('A' for Active; 'I' for Inactive)
REMARK    1  A    between atoms: N1_1  and  N2_4 
REMARK    2  A    between atoms: C1_7  and  N4_8 
REMARK    3  A    between atoms: C6_18  and  C7_19 
REMARK    4  A    between atoms: C7_19  and  N6_20 
REMARK    5  A    between atoms: N6_20  and  C8_22 
REMARK    6  A    between atoms: C8_22  and  C9_23 
REMARK    7  A    between atoms: C9_23  and  N7_24 
REMARK    8  A    between atoms: N7_24  and  C10_26 
REMARK    9  A    between atoms: C11_32  and  C12_33 
REMARK   10  A    between atoms: C12_33  and  O4_34 
REMARK   11  A    between atoms: C14_40  and  C15_41 
ROOT
HETATM    1  C8  UNL     1     -11.895  68.619  27.329  1.00  0.00     0.133 C 
ENDROOT
BRANCH   1   2
HETATM    2  N6  UNL     1     -13.194  68.508  27.867  1.00  0.00    -0.415 N 
ATOM      3  H6  UNL     1     -13.378  68.616  28.865  1.00  0.00     0.153 HD
BRANCH   2   4
HETATM    4  C7  UNL     1     -14.226  68.238  26.939  1.00  0.00     0.171 C 
BRANCH   4   5
HETATM    5  C6  UNL     1     -15.575  68.523  27.466  1.00  0.00     0.288 C 
HETATM    6  N2  UNL     1     -16.061  67.602  28.469  1.00  0.00    -0.205 N 
HETATM    7  N3  UNL     1     -16.948  68.395  29.245  1.00  0.00    -0.245 N 
HETATM    8  C1  UNL     1     -16.682  69.636  29.133  1.00  0.00     0.252 C 
ATOM      9  H3  UNL     1     -17.702  68.018  29.819  1.00  0.00     0.192 HD
HETATM   10  O3  UNL     1     -15.574  69.718  28.265  1.00  0.00    -0.289 OA
BRANCH   6  11
HETATM   11  N1  UNL     1     -15.711  66.279  28.600  1.00  0.00    -0.326 N 
ATOM     12  H12 UNL     1     -16.343  65.480  28.567  1.00  0.00     0.178 HD
ATOM     13  H11 UNL     1     -14.796  65.853  28.746  1.00  0.00     0.178 HD
ENDBRANCH   6  11
BRANCH   8  14
HETATM   14  N4  UNL     1     -17.322  70.762  29.733  1.00  0.00    -0.238 N 
HETATM   15  C2  UNL     1     -18.482  71.215  29.167  1.00  0.00     0.111 A 
HETATM   16  C3  UNL     1     -19.168  72.281  29.705  1.00  0.00     0.092 A 
HETATM   17  C4  UNL     1     -18.714  72.929  30.831  1.00  0.00     0.250 A 
HETATM   18  O1  UNL     1     -19.331  73.910  31.344  1.00  0.00    -0.268 OA
HETATM   19  N5  UNL     1     -17.557  72.446  31.363  1.00  0.00    -0.275 N 
HETATM   20  C5  UNL     1     -16.899  71.405  30.824  1.00  0.00     0.336 A 
ATOM     21  H5  UNL     1     -17.176  72.890  32.200  1.00  0.00     0.173 HD
HETATM   22  O2  UNL     1     -15.830  70.999  31.363  1.00  0.00    -0.246 OA
ENDBRANCH   8  14
ENDBRANCH   4   5
ENDBRANCH   2   4
ENDBRANCH   1   2
BRANCH   1  23
HETATM   23  C9  UNL     1     -11.793  69.737  26.300  1.00  0.00     0.140 C 
BRANCH  23  24
HETATM   24  N7  UNL     1     -11.811  70.968  27.039  1.00  0.00    -0.375 N 
ATOM     25  H7  UNL     1     -10.989  71.201  27.596  1.00  0.00     0.160 HD
BRANCH  24  26
HETATM   26  C10 UNL     1     -12.895  71.883  27.046  1.00  0.00     0.126 C 
HETATM   27  N8  UNL     1     -13.412  71.828  28.256  1.00  0.00    -0.275 N 
HETATM   28  N9  UNL     1     -14.469  72.485  28.840  1.00  0.00    -0.244 N 
ATOM     29  H8  UNL     1     -12.938  71.174  28.879  1.00  0.00     0.189 HD
HETATM   30  N10 UNL     1     -15.025  73.789  28.849  1.00  0.00    -0.109 NA
ATOM     31  H9  UNL     1     -15.005  71.856  29.437  1.00  0.00     0.203 HD
HETATM   32  C11 UNL     1     -15.944  73.771  27.716  1.00  0.00     0.216 C 
HETATM   33  C13 UNL     1     -15.238  74.065  26.456  1.00  0.00     0.242 C 
HETATM   34  O5  UNL     1     -15.685  75.127  25.937  1.00  0.00    -0.272 OA
HETATM   35  N11 UNL     1     -14.222  73.446  25.736  1.00  0.00    -0.339 N 
HETATM   36  C14 UNL     1     -13.086  72.561  25.779  1.00  0.00     0.255 C 
ATOM     37  H11 UNL     1     -14.324  73.746  24.766  1.00  0.00     0.163 HD
BRANCH  32  38
HETATM   38  C12 UNL     1     -17.006  74.831  28.019  1.00  0.00     0.197 C 
BRANCH  38  39
HETATM   39  O4  UNL     1     -16.305  75.989  28.417  1.00  0.00    -0.399 OA
ATOM     40  H4  UNL     1     -16.785  76.726  28.058  1.00  0.00     0.209 HD
ENDBRANCH  38  39
ENDBRANCH  32  38
BRANCH  36  41
HETATM   41  C15 UNL     1     -11.896  73.410  25.521  1.00  0.00     0.204 C 
HETATM   42  O6  UNL     1     -11.863  74.640  25.878  1.00  0.00    -0.646 OA
HETATM   43  O7  UNL     1     -10.782  72.911  24.887  1.00  0.00    -0.646 OA
ENDBRANCH  36  41
ENDBRANCH  24  26
ENDBRANCH  23  24
ENDBRANCH   1  23
TORSDOF 11
ENDMDL
MODEL 2
REMARK VINA RESULT: -6.447769751      2.581      6.867
REMARK  11 active torsions:
REMARK  status: ('A' for Active; 'I' for Inactive)
REMARK    1  A    between atoms: N1_1  and  N2_4 
REMARK    2  A    between atoms: C1_7  and  N4_8 
REMARK    3  A    between atoms: C6_18  and  C7_19 
REMARK    4  A    between atoms: C7_19  and  N6_20 
REMARK    5  A    between atoms: N6_20  and  C8_22 
REMARK    6  A    between atoms: C8_22  and  C9_23 
REMARK    7  A    between atoms: C9_23  and  N7_24 
REMARK    8  A    between atoms: N7_24  and  C10_26 
REMARK    9  A    between atoms: C11_32  and  C12_33 
REMARK   10  A    between atoms: C12_33  and  O4_34 
REMARK   11  A    between atoms: C14_40  and  C15_41 
ROOT
HETATM    1  C8  UNL     1     -12.807  68.538  27.690  1.00  0.00     0.133 C 
ENDROOT
BRANCH   1   2
HETATM    2  N6  UNL     1     -12.138  69.749  27.419  1.00  0.00    -0.415 N 
ATOM      3  H6  UNL     1     -12.255  70.576  28.005  1.00  0.00     0.153 HD
BRANCH   2   4
HETATM    4  C7  UNL     1     -11.293  69.748  26.285  1.00  0.00     0.171 C 
BRANCH   4   5
HETATM    5  C6  UNL     1     -10.633  71.047  26.046  1.00  0.00     0.288 C 
HETATM    6  N2  UNL     1      -9.339  70.979  25.403  1.00  0.00    -0.205 N 
HETATM    7  N3  UNL     1      -9.249  72.216  24.711  1.00  0.00    -0.245 N 
HETATM    8  C1  UNL     1     -10.402  72.713  24.492  1.00  0.00     0.252 C 
ATOM      9  H3  UNL     1      -8.372  72.651  24.425  1.00  0.00     0.192 HD
HETATM   10  O3  UNL     1     -11.327  71.798  25.035  1.00  0.00    -0.289 OA
BRANCH   6  11
HETATM   11  N1  UNL     1      -8.446  69.938  25.474  1.00  0.00    -0.326 N 
ATOM     12  H12 UNL     1      -7.925  69.532  24.697  1.00  0.00     0.178 HD
ATOM     13  H11 UNL     1      -8.138  69.390  26.278  1.00  0.00     0.178 HD
ENDBRANCH   6  11
BRANCH   8  14
HETATM   14  N4  UNL     1     -10.760  73.930  23.837  1.00  0.00    -0.238 N 
HETATM   15  C2  UNL     1     -11.436  74.871  24.564  1.00  0.00     0.111 A 
HETATM   16  C3  UNL     1     -11.793  76.079  24.007  1.00  0.00     0.092 A 
HETATM   17  C4  UNL     1     -11.482  76.385  22.701  1.00  0.00     0.250 A 
HETATM   18  O1  UNL     1     -11.800  77.490  22.169  1.00  0.00    -0.268 OA
HETATM   19  N5  UNL     1     -10.809  75.421  22.014  1.00  0.00    -0.275 N 
HETATM   20  C5  UNL     1     -10.470  74.246  22.573  1.00  0.00     0.336 A 
ATOM     21  H5  UNL     1     -10.554  75.595  21.042  1.00  0.00     0.173 HD
HETATM   22  O2  UNL     1      -9.843  73.389  21.887  1.00  0.00    -0.246 OA
ENDBRANCH   8  14
ENDBRANCH   4   5
ENDBRANCH   2   4
ENDBRANCH   1   2
BRANCH   1  23
HETATM   23  C9  UNL     1     -14.078  68.754  28.501  1.00  0.00     0.140 C 
BRANCH  23  24
HETATM   24  N7  UNL     1     -14.769  69.851  27.885  1.00  0.00    -0.375 N 
ATOM     25  H7  UNL     1     -14.736  69.923  26.869  1.00  0.00     0.160 HD
BRANCH  24  26
HETATM   26  C10 UNL     1     -15.493  70.842  28.595  1.00  0.00     0.126 C 
HETATM   27  N8  UNL     1     -15.977  70.244  29.665  1.00  0.00    -0.275 N 
HETATM   28  N9  UNL     1     -16.750  70.699  30.707  1.00  0.00    -0.244 N 
ATOM     29  H8  UNL     1     -15.732  69.257  29.734  1.00  0.00     0.189 HD
HETATM   30  N10 UNL     1     -16.849  71.856  31.520  1.00  0.00    -0.109 NA
ATOM     31  H9  UNL     1     -17.451  70.007  30.970  1.00  0.00     0.203 HD
HETATM   32  C11 UNL     1     -17.744  72.724  30.763  1.00  0.00     0.216 C 
HETATM   33  C13 UNL     1     -17.005  73.487  29.742  1.00  0.00     0.242 C 
HETATM   34  O5  UNL     1     -17.091  74.727  29.970  1.00  0.00    -0.272 OA
HETATM   35  N11 UNL     1     -16.261  73.151  28.617  1.00  0.00    -0.339 N 
HETATM   36  C14 UNL     1     -15.477  72.141  27.953  1.00  0.00     0.255 C 
ATOM     37  H11 UNL     1     -16.277  73.963  28.000  1.00  0.00     0.163 HD
BRANCH  32  38
HETATM   38  C12 UNL     1     -18.396  73.654  31.790  1.00  0.00     0.197 C 
BRANCH  38  39
HETATM   39  O4  UNL     1     -19.693  73.926  31.308  1.00  0.00    -0.399 OA
ATOM     40  H4  UNL     1     -20.187  73.122  31.406  1.00  0.00     0.209 HD
ENDBRANCH  38  39
ENDBRANCH  32  38
BRANCH  36  41
HETATM   41  C15 UNL     1     -14.079  72.643  27.954  1.00  0.00     0.204 C 
HETATM   42  O6  UNL     1     -13.616  73.332  26.978  1.00  0.00    -0.646 OA
HETATM   43  O7  UNL     1     -13.226  72.388  29.003  1.00  0.00    -0.646 OA
ENDBRANCH  36  41
ENDBRANCH  24  26
ENDBRANCH  23  24
ENDBRANCH   1  23
TORSDOF 11
ENDMDL
MODEL 3
REMARK VINA RESULT: -6.143559473      2.424      7.969
REMARK  11 active torsions:
REMARK  status: ('A' for Active; 'I' for Inactive)
REMARK    1  A    between atoms: N1_1  and  N2_4 
REMARK    2  A    between atoms: C1_7  and  N4_8 
REMARK    3  A    between atoms: C6_18  and  C7_19 
REMARK    4  A    between atoms: C7_19  and  N6_20 
REMARK    5  A    between atoms: N6_20  and  C8_22 
REMARK    6  A    between atoms: C8_22  and  C9_23 
REMARK    7  A    between atoms: C9_23  and  N7_24 
REMARK    8  A    between atoms: N7_24  and  C10_26 
REMARK    9  A    between atoms: C11_32  and  C12_33 
REMARK   10  A    between atoms: C12_33  and  O4_34 
REMARK   11  A    between atoms: C14_40  and  C15_41 
ROOT
HETATM    1  C8  UNL     1     -18.269  74.710  26.947  1.00  0.00     0.133 C 
ENDROOT
BRANCH   1   2
HETATM    2  N6  UNL     1     -17.747  75.091  25.693  1.00  0.00    -0.415 N 
ATOM      3  H6  UNL     1     -18.059  74.659  24.823  1.00  0.00     0.153 HD
BRANCH   2   4
HETATM    4  C7  UNL     1     -16.764  76.106  25.715  1.00  0.00     0.171 C 
BRANCH   4   5
HETATM    5  C6  UNL     1     -15.680  75.894  24.736  1.00  0.00     0.288 C 
HETATM    6  N2  UNL     1     -14.997  77.090  24.293  1.00  0.00    -0.205 N 
HETATM    7  N3  UNL     1     -13.696  76.624  23.964  1.00  0.00    -0.245 N 
HETATM    8  C1  UNL     1     -13.425  75.533  24.566  1.00  0.00     0.252 C 
ATOM      9  H3  UNL     1     -13.059  77.102  23.328  1.00  0.00     0.192 HD
HETATM   10  O3  UNL     1     -14.560  75.229  25.344  1.00  0.00    -0.289 OA
BRANCH   6  11
HETATM   11  N1  UNL     1     -15.526  78.356  24.228  1.00  0.00    -0.326 N 
ATOM     12  H12 UNL     1     -15.476  79.071  24.954  1.00  0.00     0.178 HD
ATOM     13  H11 UNL     1     -16.046  78.813  23.480  1.00  0.00     0.178 HD
ENDBRANCH   6  11
BRANCH   8  14
HETATM   14  N4  UNL     1     -12.243  74.734  24.515  1.00  0.00    -0.238 N 
HETATM   15  C2  UNL     1     -12.370  73.429  24.128  1.00  0.00     0.111 A 
HETATM   16  C3  UNL     1     -11.271  72.605  24.032  1.00  0.00     0.092 A 
HETATM   17  C4  UNL     1     -10.006  73.063  24.321  1.00  0.00     0.250 A 
HETATM   18  O1  UNL     1      -8.981  72.322  24.238  1.00  0.00    -0.268 OA
HETATM   19  N5  UNL     1      -9.924  74.368  24.703  1.00  0.00    -0.275 N 
HETATM   20  C5  UNL     1     -11.008  75.158  24.792  1.00  0.00     0.336 A 
ATOM     21  H5  UNL     1      -9.009  74.759  24.928  1.00  0.00     0.173 HD
HETATM   22  O2  UNL     1     -10.871  76.363  25.149  1.00  0.00    -0.246 OA
ENDBRANCH   8  14
ENDBRANCH   4   5
ENDBRANCH   2   4
ENDBRANCH   1   2
BRANCH   1  23
HETATM   23  C9  UNL     1     -17.219  74.775  28.049  1.00  0.00     0.140 C 
BRANCH  23  24
HETATM   24  N7  UNL     1     -17.107  73.445  28.578  1.00  0.00    -0.375 N 
ATOM     25  H7  UNL     1     -17.861  73.103  29.172  1.00  0.00     0.160 HD
BRANCH  24  26
HETATM   26  C10 UNL     1     -16.016  72.573  28.329  1.00  0.00     0.126 C 
HETATM   27  N8  UNL     1     -15.112  73.291  27.694  1.00  0.00    -0.275 N 
HETATM   28  N9  UNL     1     -13.865  72.983  27.205  1.00  0.00    -0.244 N 
ATOM     29  H8  UNL     1     -15.389  74.260  27.536  1.00  0.00     0.189 HD
HETATM   30  N10 UNL     1     -12.734  72.225  27.600  1.00  0.00    -0.109 NA
ATOM     31  H9  UNL     1     -13.708  73.427  26.300  1.00  0.00     0.203 HD
HETATM   32  C11 UNL     1     -13.026  70.891  27.086  1.00  0.00     0.216 C 
HETATM   33  C13 UNL     1     -13.878  70.137  28.023  1.00  0.00     0.242 C 
HETATM   34  O5  UNL     1     -13.273  69.109  28.440  1.00  0.00    -0.272 OA
HETATM   35  N11 UNL     1     -15.163  70.303  28.529  1.00  0.00    -0.339 N 
HETATM   36  C14 UNL     1     -16.226  71.229  28.827  1.00  0.00     0.255 C 
ATOM     37  H11 UNL     1     -15.491  69.378  28.807  1.00  0.00     0.163 HD
BRANCH  32  38
HETATM   38  C12 UNL     1     -11.670  70.208  26.894  1.00  0.00     0.197 C 
BRANCH  38  39
HETATM   39  O4  UNL     1     -10.694  71.168  27.232  1.00  0.00    -0.399 OA
ATOM     40  H4  UNL     1     -10.008  70.699  27.691  1.00  0.00     0.209 HD
ENDBRANCH  38  39
ENDBRANCH  32  38
BRANCH  36  41
HETATM   41  C15 UNL     1     -16.312  71.289  30.308  1.00  0.00     0.204 C 
HETATM   42  O6  UNL     1     -15.437  70.719  31.051  1.00  0.00    -0.646 OA
HETATM   43  O7  UNL     1     -17.333  71.957  30.941  1.00  0.00    -0.646 OA
ENDBRANCH  36  41
ENDBRANCH  24  26
ENDBRANCH  23  24
ENDBRANCH   1  23
TORSDOF 11
ENDMDL
MODEL 4
REMARK VINA RESULT: -6.132417814      2.282      6.106
REMARK  11 active torsions:
REMARK  status: ('A' for Active; 'I' for Inactive)
REMARK    1  A    between atoms: N1_1  and  N2_4 
REMARK    2  A    between atoms: C1_7  and  N4_8 
REMARK    3  A    between atoms: C6_18  and  C7_19 
REMARK    4  A    between atoms: C7_19  and  N6_20 
REMARK    5  A    between atoms: N6_20  and  C8_22 
REMARK    6  A    between atoms: C8_22  and  C9_23 
REMARK    7  A    between atoms: C9_23  and  N7_24 
REMARK    8  A    between atoms: N7_24  and  C10_26 
REMARK    9  A    between atoms: C11_32  and  C12_33 
REMARK   10  A    between atoms: C12_33  and  O4_34 
REMARK   11  A    between atoms: C14_40  and  C15_41 
ROOT
HETATM    1  C8  UNL     1     -13.209  68.536  27.356  1.00  0.00     0.133 C 
ENDROOT
BRANCH   1   2
HETATM    2  N6  UNL     1     -12.265  69.551  27.615  1.00  0.00    -0.415 N 
ATOM      3  H6  UNL     1     -12.340  70.166  28.426  1.00  0.00     0.153 HD
BRANCH   2   4
HETATM    4  C7  UNL     1     -11.209  69.665  26.683  1.00  0.00     0.171 C 
BRANCH   4   5
HETATM    5  C6  UNL     1     -10.867  71.064  26.353  1.00  0.00     0.288 C 
HETATM    6  N2  UNL     1      -9.796  71.235  25.396  1.00  0.00    -0.205 N 
HETATM    7  N3  UNL     1     -10.104  72.473  24.774  1.00  0.00    -0.245 N 
HETATM    8  C1  UNL     1     -11.342  72.757  24.887  1.00  0.00     0.252 C 
ATOM      9  H3  UNL     1      -9.422  73.061  24.296  1.00  0.00     0.192 HD
HETATM   10  O3  UNL     1     -11.920  71.686  25.599  1.00  0.00    -0.289 OA
BRANCH   6  11
HETATM   11  N1  UNL     1      -8.751  70.370  25.178  1.00  0.00    -0.326 N 
ATOM     12  H12 UNL     1      -7.776  70.520  25.438  1.00  0.00     0.178 HD
ATOM     13  H11 UNL     1      -8.740  69.450  24.738  1.00  0.00     0.178 HD
ENDBRANCH   6  11
BRANCH   8  14
HETATM   14  N4  UNL     1     -12.062  73.895  24.415  1.00  0.00    -0.238 N 
HETATM   15  C2  UNL     1     -13.179  73.675  23.656  1.00  0.00     0.111 A 
HETATM   16  C3  UNL     1     -13.938  74.723  23.187  1.00  0.00     0.092 A 
HETATM   17  C4  UNL     1     -13.603  76.030  23.462  1.00  0.00     0.250 A 
HETATM   18  O1  UNL     1     -14.289  77.009  23.041  1.00  0.00    -0.268 OA
HETATM   19  N5  UNL     1     -12.485  76.205  24.220  1.00  0.00    -0.275 N 
HETATM   20  C5  UNL     1     -11.755  75.169  24.670  1.00  0.00     0.336 A 
ATOM     21  H5  UNL     1     -12.192  77.153  24.455  1.00  0.00     0.173 HD
HETATM   22  O2  UNL     1     -10.727  75.392  25.371  1.00  0.00    -0.246 OA
ENDBRANCH   8  14
ENDBRANCH   4   5
ENDBRANCH   2   4
ENDBRANCH   1   2
BRANCH   1  23
HETATM   23  C9  UNL     1     -14.443  68.660  28.240  1.00  0.00     0.140 C 
BRANCH  23  24
HETATM   24  N7  UNL     1     -14.237  69.820  29.060  1.00  0.00    -0.375 N 
ATOM     25  H7  UNL     1     -13.307  69.965  29.454  1.00  0.00     0.160 HD
BRANCH  24  26
HETATM   26  C10 UNL     1     -15.238  70.779  29.359  1.00  0.00     0.126 C 
HETATM   27  N8  UNL     1     -15.700  70.465  30.553  1.00  0.00    -0.275 N 
HETATM   28  N9  UNL     1     -16.669  71.032  31.346  1.00  0.00    -0.244 N 
ATOM     29  H8  UNL     1     -15.254  69.647  30.967  1.00  0.00     0.189 HD
HETATM   30  N10 UNL     1     -17.112  72.329  31.706  1.00  0.00    -0.109 NA
ATOM     31  H9  UNL     1     -17.227  70.314  31.808  1.00  0.00     0.203 HD
HETATM   32  C11 UNL     1     -18.082  72.654  30.665  1.00  0.00     0.216 C 
HETATM   33  C13 UNL     1     -17.414  73.198  29.469  1.00  0.00     0.242 C 
HETATM   34  O5  UNL     1     -17.795  74.383  29.252  1.00  0.00    -0.272 OA
HETATM   35  N11 UNL     1     -16.489  72.705  28.556  1.00  0.00    -0.339 N 
HETATM   36  C14 UNL     1     -15.432  71.758  28.309  1.00  0.00     0.255 C 
ATOM     37  H11 UNL     1     -16.611  73.240  27.696  1.00  0.00     0.163 HD
BRANCH  32  38
HETATM   38  C12 UNL     1     -19.035  73.679  31.285  1.00  0.00     0.197 C 
BRANCH  38  39
HETATM   39  O4  UNL     1     -20.195  73.674  30.482  1.00  0.00    -0.399 OA
ATOM     40  H4  UNL     1     -20.658  72.872  30.690  1.00  0.00     0.209 HD
ENDBRANCH  38  39
ENDBRANCH  32  38
BRANCH  36  41
HETATM   41  C15 UNL     1     -14.188  72.560  28.184  1.00  0.00     0.204 C 
HETATM   42  O6  UNL     1     -14.043  73.428  27.253  1.00  0.00    -0.646 OA
HETATM   43  O7  UNL     1     -13.141  72.401  29.062  1.00  0.00    -0.646 OA
ENDBRANCH  36  41
ENDBRANCH  24  26
ENDBRANCH  23  24
ENDBRANCH   1  23
TORSDOF 11
ENDMDL
MODEL 5
REMARK VINA RESULT: -6.104587550      4.106      8.232
REMARK  11 active torsions:
REMARK  status: ('A' for Active; 'I' for Inactive)
REMARK    1  A    between atoms: N1_1  and  N2_4 
REMARK    2  A    between atoms: C1_7  and  N4_8 
REMARK    3  A    between atoms: C6_18  and  C7_19 
REMARK    4  A    between atoms: C7_19  and  N6_20 
REMARK    5  A    between atoms: N6_20  and  C8_22 
REMARK    6  A    between atoms: C8_22  and  C9_23 
REMARK    7  A    between atoms: C9_23  and  N7_24 
REMARK    8  A    between atoms: N7_24  and  C10_26 
REMARK    9  A    between atoms: C11_32  and  C12_33 
REMARK   10  A    between atoms: C12_33  and  O4_34 
REMARK   11  A    between atoms: C14_40  and  C15_41 
ROOT
HETATM    1  C8  UNL     1     -12.065  68.868  26.852  1.00  0.00     0.133 C 
ENDROOT
BRANCH   1   2
HETATM    2  N6  UNL     1     -10.845  69.497  27.176  1.00  0.00    -0.415 N 
ATOM      3  H6  UNL     1     -10.216  69.125  27.887  1.00  0.00     0.153 HD
BRANCH   2   4
HETATM    4  C7  UNL     1     -10.547  70.676  26.454  1.00  0.00     0.171 C 
BRANCH   4   5
HETATM    5  C6  UNL     1      -9.474  70.496  25.456  1.00  0.00     0.288 C 
HETATM    6  N2  UNL     1      -8.310  69.772  25.916  1.00  0.00    -0.205 N 
HETATM    7  N3  UNL     1      -7.805  69.172  24.732  1.00  0.00    -0.245 N 
HETATM    8  C1  UNL     1      -8.711  69.062  23.842  1.00  0.00     0.252 C 
ATOM      9  H3  UNL     1      -6.840  68.866  24.610  1.00  0.00     0.192 HD
HETATM   10  O3  UNL     1      -9.884  69.590  24.418  1.00  0.00    -0.289 OA
BRANCH   6  11
HETATM   11  N1  UNL     1      -7.845  69.709  27.208  1.00  0.00    -0.326 N 
ATOM     12  H12 UNL     1      -6.954  70.070  27.549  1.00  0.00     0.178 HD
ATOM     13  H11 UNL     1      -8.277  69.313  28.043  1.00  0.00     0.178 HD
ENDBRANCH   6  11
BRANCH   8  14
HETATM   14  N4  UNL     1      -8.630  68.525  22.522  1.00  0.00    -0.238 N 
HETATM   15  C2  UNL     1      -9.256  69.207  21.515  1.00  0.00     0.111 A 
HETATM   16  C3  UNL     1      -9.200  68.763  20.213  1.00  0.00     0.092 A 
HETATM   17  C4  UNL     1      -8.515  67.618  19.876  1.00  0.00     0.250 A 
HETATM   18  O1  UNL     1      -8.450  67.193  18.684  1.00  0.00    -0.268 OA
HETATM   19  N5  UNL     1      -7.907  66.969  20.907  1.00  0.00    -0.275 N 
HETATM   20  C5  UNL     1      -7.972  67.417  22.174  1.00  0.00     0.336 A 
ATOM     21  H5  UNL     1      -7.384  66.115  20.713  1.00  0.00     0.173 HD
HETATM   22  O2  UNL     1      -7.386  66.774  23.091  1.00  0.00    -0.246 OA
ENDBRANCH   8  14
ENDBRANCH   4   5
ENDBRANCH   2   4
ENDBRANCH   1   2
BRANCH   1  23
HETATM   23  C9  UNL     1     -13.119  69.067  27.933  1.00  0.00     0.140 C 
BRANCH  23  24
HETATM   24  N7  UNL     1     -14.137  69.900  27.357  1.00  0.00    -0.375 N 
ATOM     25  H7  UNL     1     -14.306  69.819  26.355  1.00  0.00     0.160 HD
BRANCH  24  26
HETATM   26  C10 UNL     1     -14.923  70.826  28.088  1.00  0.00     0.126 C 
HETATM   27  N8  UNL     1     -15.350  70.182  29.155  1.00  0.00    -0.275 N 
HETATM   28  N9  UNL     1     -16.141  70.567  30.211  1.00  0.00    -0.244 N 
ATOM     29  H8  UNL     1     -15.032  69.214  29.208  1.00  0.00     0.189 HD
HETATM   30  N10 UNL     1     -16.315  71.703  31.040  1.00  0.00    -0.109 NA
ATOM     31  H9  UNL     1     -16.787  69.822  30.472  1.00  0.00     0.203 HD
HETATM   32  C11 UNL     1     -17.279  72.513  30.304  1.00  0.00     0.216 C 
HETATM   33  C13 UNL     1     -16.609  73.341  29.285  1.00  0.00     0.242 C 
HETATM   34  O5  UNL     1     -16.781  74.568  29.531  1.00  0.00    -0.272 OA
HETATM   35  N11 UNL     1     -15.856  73.073  28.148  1.00  0.00    -0.339 N 
HETATM   36  C14 UNL     1     -15.008  72.131  27.463  1.00  0.00     0.255 C 
ATOM     37  H11 UNL     1     -15.938  73.889  27.542  1.00  0.00     0.163 HD
BRANCH  32  38
HETATM   38  C12 UNL     1     -17.984  73.381  31.350  1.00  0.00     0.197 C 
BRANCH  38  39
HETATM   39  O4  UNL     1     -16.967  73.924  32.162  1.00  0.00    -0.399 OA
ATOM     40  H4  UNL     1     -17.273  74.781  32.433  1.00  0.00     0.209 HD
ENDBRANCH  38  39
ENDBRANCH  32  38
BRANCH  36  41
HETATM   41  C15 UNL     1     -13.651  72.733  27.456  1.00  0.00     0.204 C 
HETATM   42  O6  UNL     1     -12.840  72.565  28.434  1.00  0.00    -0.646 OA
HETATM   43  O7  UNL     1     -13.210  73.496  26.400  1.00  0.00    -0.646 OA
ENDBRANCH  36  41
ENDBRANCH  24  26
ENDBRANCH  23  24
ENDBRANCH   1  23
TORSDOF 11
ENDMDL
