MODEL 1
REMARK VINA RESULT: -7.146951367      0.000      0.000
REMARK  2 active torsions:
REMARK  status: ('A' for Active; 'I' for Inactive)
REMARK    1  A    between atoms: N1_1  and  C1_5 
REMARK    2  A    between atoms: C5_9  and  C6_10 
ROOT
HETATM    1  C1  UNL     1     -12.453  -8.482   1.022  1.00  0.00     0.183 C 
HETATM    2  C2  UNL     1     -12.496  -7.256   0.145  1.00  0.00     0.033 C 
HETATM    3  C3  UNL     1     -13.743  -6.441   0.322  1.00  0.00     0.003 C 
HETATM    4  C4  UNL     1     -13.987  -5.977   1.711  1.00  0.00     0.013 C 
HETATM    5  C5  UNL     1     -12.780  -5.936   2.587  1.00  0.00     0.093 C 
HETATM    6  C7  UNL     1     -12.413  -7.241   3.207  1.00  0.00     0.015 C 
HETATM    7  C8  UNL     1     -11.721  -8.200   2.293  1.00  0.00     0.033 C 
ENDROOT
BRANCH   1   8
HETATM    8  N1  UNL     1     -11.680  -9.490   0.292  1.00  0.00    -0.075 N 
ATOM      9  H13 UNL     1     -10.793  -9.720   0.740  1.00  0.00     0.274 HD
ATOM     10  H12 UNL     1     -12.090 -10.423   0.337  1.00  0.00     0.274 HD
ATOM     11  H11 UNL     1     -11.574  -9.142  -0.661  1.00  0.00     0.274 HD
ENDBRANCH   1   8
BRANCH   5  12
HETATM   12  C6  UNL     1     -13.124  -4.988   3.747  1.00  0.00     0.391 C 
HETATM   13  F1  UNL     1     -13.743  -5.650   4.764  1.00  0.00    -0.171 F 
HETATM   14  F2  UNL     1     -13.901  -3.944   3.330  1.00  0.00    -0.171 F 
HETATM   15  F3  UNL     1     -11.952  -4.442   4.270  1.00  0.00    -0.171 F 
ENDBRANCH   5  12
TORSDOF 2
ENDMDL
MODEL 2
REMARK VINA RESULT: -7.127455848      0.070      1.111
REMARK  2 active torsions:
REMARK  status: ('A' for Active; 'I' for Inactive)
REMARK    1  A    between atoms: N1_1  and  C1_5 
REMARK    2  A    between atoms: C5_9  and  C6_10 
ROOT
HETATM    1  C1  UNL     1     -12.532  -8.456   1.018  1.00  0.00     0.183 C 
HETATM    2  C2  UNL     1     -12.568  -7.233   0.139  1.00  0.00     0.033 C 
HETATM    3  C3  UNL     1     -13.795  -6.393   0.338  1.00  0.00     0.003 C 
HETATM    4  C4  UNL     1     -14.003  -5.921   1.731  1.00  0.00     0.013 C 
HETATM    5  C5  UNL     1     -12.778  -5.901   2.582  1.00  0.00     0.093 C 
HETATM    6  C7  UNL     1     -12.425  -7.212   3.199  1.00  0.00     0.015 C 
HETATM    7  C8  UNL     1     -11.770  -8.186   2.274  1.00  0.00     0.033 C 
ENDROOT
BRANCH   1   8
HETATM    8  N1  UNL     1     -11.793  -9.481   0.277  1.00  0.00    -0.075 N 
ATOM      9  H13 UNL     1     -10.798  -9.276   0.187  1.00  0.00     0.274 HD
ATOM     10  H12 UNL     1     -11.696 -10.359   0.789  1.00  0.00     0.274 HD
ATOM     11  H11 UNL     1     -12.266  -9.589  -0.621  1.00  0.00     0.274 HD
ENDBRANCH   1   8
BRANCH   5  12
HETATM   12  C6  UNL     1     -13.082  -4.944   3.747  1.00  0.00     0.391 C 
HETATM   13  F1  UNL     1     -11.942  -4.387   4.243  1.00  0.00    -0.171 F 
HETATM   14  F2  UNL     1     -13.768  -5.572   4.748  1.00  0.00    -0.171 F 
HETATM   15  F3  UNL     1     -13.885  -3.897   3.296  1.00  0.00    -0.171 F 
ENDBRANCH   5  12
TORSDOF 2
ENDMDL
MODEL 3
REMARK VINA RESULT: -6.866175197      0.166      1.166
REMARK  2 active torsions:
REMARK  status: ('A' for Active; 'I' for Inactive)
REMARK    1  A    between atoms: N1_1  and  C1_5 
REMARK    2  A    between atoms: C5_9  and  C6_10 
ROOT
HETATM    1  C1  UNL     1     -12.392  -8.389   1.067  1.00  0.00     0.183 C 
HETATM    2  C2  UNL     1     -12.380  -7.169   0.181  1.00  0.00     0.033 C 
HETATM    3  C3  UNL     1     -13.623  -6.338   0.297  1.00  0.00     0.003 C 
HETATM    4  C4  UNL     1     -13.924  -5.862   1.671  1.00  0.00     0.013 C 
HETATM    5  C5  UNL     1     -12.757  -5.829   2.599  1.00  0.00     0.093 C 
HETATM    6  C7  UNL     1     -12.434  -7.134   3.244  1.00  0.00     0.015 C 
HETATM    7  C8  UNL     1     -11.714  -8.107   2.368  1.00  0.00     0.033 C 
ENDROOT
BRANCH   1   8
HETATM    8  N1  UNL     1     -11.599  -9.411   0.379  1.00  0.00    -0.075 N 
ATOM      9  H13 UNL     1     -11.890  -9.567  -0.586  1.00  0.00     0.274 HD
ATOM     10  H12 UNL     1     -10.644  -9.114   0.178  1.00  0.00     0.274 HD
ATOM     11  H11 UNL     1     -11.646 -10.252   0.955  1.00  0.00     0.274 HD
ENDBRANCH   1   8
BRANCH   5  12
HETATM   12  C6  UNL     1     -13.141  -4.869   3.737  1.00  0.00     0.391 C 
HETATM   13  F1  UNL     1     -13.816  -3.784   3.266  1.00  0.00    -0.171 F 
HETATM   14  F2  UNL     1     -12.045  -4.465   4.447  1.00  0.00    -0.171 F 
HETATM   15  F3  UNL     1     -13.990  -5.520   4.633  1.00  0.00    -0.171 F 
ENDBRANCH   5  12
TORSDOF 2
ENDMDL
MODEL 4
REMARK VINA RESULT: -6.668864505      3.214      4.076
REMARK  2 active torsions:
REMARK  status: ('A' for Active; 'I' for Inactive)
REMARK    1  A    between atoms: N1_1  and  C1_5 
REMARK    2  A    between atoms: C5_9  and  C6_10 
ROOT
HETATM    1  C1  UNL     1     -12.340  -6.295   4.539  1.00  0.00     0.183 C 
HETATM    2  C2  UNL     1     -13.535  -5.404   4.310  1.00  0.00     0.033 C 
HETATM    3  C3  UNL     1     -13.389  -4.509   3.116  1.00  0.00     0.003 C 
HETATM    4  C4  UNL     1     -13.138  -5.219   1.836  1.00  0.00     0.013 C 
HETATM    5  C5  UNL     1     -13.558  -6.651   1.814  1.00  0.00     0.093 C 
HETATM    6  C7  UNL     1     -12.571  -7.600   2.404  1.00  0.00     0.015 C 
HETATM    7  C8  UNL     1     -12.542  -7.629   3.897  1.00  0.00     0.033 C 
ENDROOT
BRANCH   1   8
HETATM    8  N1  UNL     1     -12.257  -6.518   5.984  1.00  0.00    -0.075 N 
ATOM      9  H13 UNL     1     -11.350  -6.874   6.287  1.00  0.00     0.274 HD
ATOM     10  H12 UNL     1     -12.242  -5.654   6.526  1.00  0.00     0.274 HD
ATOM     11  H11 UNL     1     -13.034  -7.134   6.228  1.00  0.00     0.274 HD
ENDBRANCH   1   8
BRANCH   5  12
HETATM   12  C6  UNL     1     -13.692  -7.034   0.331  1.00  0.00     0.391 C 
HETATM   13  F1  UNL     1     -13.621  -8.384   0.157  1.00  0.00    -0.171 F 
HETATM   14  F2  UNL     1     -12.746  -6.416  -0.437  1.00  0.00    -0.171 F 
HETATM   15  F3  UNL     1     -14.937  -6.627  -0.148  1.00  0.00    -0.171 F 
ENDBRANCH   5  12
TORSDOF 2
ENDMDL
MODEL 5
REMARK VINA RESULT: -6.642113760      3.288      4.128
REMARK  2 active torsions:
REMARK  status: ('A' for Active; 'I' for Inactive)
REMARK    1  A    between atoms: N1_1  and  C1_5 
REMARK    2  A    between atoms: C5_9  and  C6_10 
ROOT
HETATM    1  C1  UNL     1     -12.423  -6.043   4.529  1.00  0.00     0.183 C 
HETATM    2  C2  UNL     1     -13.610  -5.187   4.166  1.00  0.00     0.033 C 
HETATM    3  C3  UNL     1     -13.415  -4.404   2.902  1.00  0.00     0.003 C 
HETATM    4  C4  UNL     1     -13.104  -5.227   1.706  1.00  0.00     0.013 C 
HETATM    5  C5  UNL     1     -13.516  -6.658   1.797  1.00  0.00     0.093 C 
HETATM    6  C7  UNL     1     -12.553  -7.541   2.515  1.00  0.00     0.015 C 
HETATM    7  C8  UNL     1     -12.590  -7.432   4.005  1.00  0.00     0.033 C 
ENDROOT
BRANCH   1   8
HETATM    8  N1  UNL     1     -12.404  -6.133   5.991  1.00  0.00    -0.075 N 
ATOM      9  H13 UNL     1     -12.839  -5.332   6.450  1.00  0.00     0.274 HD
ATOM     10  H12 UNL     1     -13.031  -6.848   6.360  1.00  0.00     0.274 HD
ATOM     11  H11 UNL     1     -11.430  -6.272   6.261  1.00  0.00     0.274 HD
ENDBRANCH   1   8
BRANCH   5  12
HETATM   12  C6  UNL     1     -13.583  -7.177   0.352  1.00  0.00     0.391 C 
HETATM   13  F1  UNL     1     -14.757  -6.833  -0.248  1.00  0.00    -0.171 F 
HETATM   14  F2  UNL     1     -13.411  -8.532   0.295  1.00  0.00    -0.171 F 
HETATM   15  F3  UNL     1     -12.558  -6.605  -0.401  1.00  0.00    -0.171 F 
ENDBRANCH   5  12
TORSDOF 2
ENDMDL
