MODEL 1
REMARK VINA RESULT: -7.184425693      0.000      0.000
REMARK  1 active torsions:
REMARK  status: ('A' for Active; 'I' for Inactive)
REMARK    1  A    between atoms: C4_4  and  O1_5 
ROOT
HETATM    1  C1  UNL     1     -11.732  -9.101   0.529  1.00  0.00     0.010 C 
HETATM    2  C2  UNL     1     -12.887  -8.142   0.853  1.00  0.00    -0.011 C 
HETATM    3  C3  UNL     1     -13.284  -8.208   2.263  1.00  0.00     0.036 C 
HETATM    4  C4  UNL     1     -13.058  -7.039   3.126  1.00  0.00     0.128 C 
HETATM    5  C5  UNL     1     -12.822  -5.735   2.462  1.00  0.00     0.082 C 
HETATM    6  C6  UNL     1     -13.533  -4.572   3.130  1.00  0.00     0.019 C 
HETATM    7  C7  UNL     1     -13.250  -5.711   1.002  1.00  0.00     0.249 C 
HETATM    8  F1  UNL     1     -14.585  -5.967   0.953  1.00  0.00    -0.206 F 
HETATM    9  F2  UNL     1     -12.890  -4.489   0.493  1.00  0.00    -0.206 F 
HETATM   10  C8  UNL     1     -12.456  -6.807   0.336  1.00  0.00     0.084 C 
ENDROOT
BRANCH   4  11
HETATM   11  O1  UNL     1     -11.951  -7.266   3.982  1.00  0.00    -0.395 OA
ATOM     12  H1  UNL     1     -11.471  -6.459   4.121  1.00  0.00     0.210 HD
ENDBRANCH   4  11
TORSDOF 1
ENDMDL
MODEL 2
REMARK VINA RESULT: -6.891466444      2.254      3.856
REMARK  1 active torsions:
REMARK  status: ('A' for Active; 'I' for Inactive)
REMARK    1  A    between atoms: C4_4  and  O1_5 
ROOT
HETATM    1  C1  UNL     1     -13.348  -4.185   2.869  1.00  0.00     0.010 C 
HETATM    2  C2  UNL     1     -13.656  -5.646   2.508  1.00  0.00    -0.011 C 
HETATM    3  C3  UNL     1     -13.849  -5.832   1.066  1.00  0.00     0.036 C 
HETATM    4  C4  UNL     1     -12.874  -6.630   0.309  1.00  0.00     0.128 C 
HETATM    5  C5  UNL     1     -11.984  -7.531   1.081  1.00  0.00     0.082 C 
HETATM    6  C6  UNL     1     -11.778  -8.888   0.433  1.00  0.00     0.019 C 
HETATM    7  C7  UNL     1     -12.475  -7.806   2.494  1.00  0.00     0.249 C 
HETATM    8  F1  UNL     1     -13.694  -8.405   2.404  1.00  0.00    -0.206 F 
HETATM    9  F2  UNL     1     -11.518  -8.566   3.116  1.00  0.00    -0.206 F 
HETATM   10  C8  UNL     1     -12.575  -6.453   3.153  1.00  0.00     0.084 C 
ENDROOT
BRANCH   4  11
HETATM   11  O1  UNL     1     -12.033  -5.784  -0.456  1.00  0.00    -0.395 OA
ATOM     12  H1  UNL     1     -11.145  -6.120  -0.462  1.00  0.00     0.210 HD
ENDBRANCH   4  11
TORSDOF 1
ENDMDL
MODEL 3
REMARK VINA RESULT: -6.502278410      2.230      2.845
REMARK  1 active torsions:
REMARK  status: ('A' for Active; 'I' for Inactive)
REMARK    1  A    between atoms: C4_4  and  O1_5 
ROOT
HETATM    1  C1  UNL     1     -12.938  -9.050   0.349  1.00  0.00     0.010 C 
HETATM    2  C2  UNL     1     -12.270  -7.943   1.179  1.00  0.00    -0.011 C 
HETATM    3  C3  UNL     1     -12.420  -6.621   0.562  1.00  0.00     0.036 C 
HETATM    4  C4  UNL     1     -13.239  -5.604   1.237  1.00  0.00     0.128 C 
HETATM    5  C5  UNL     1     -13.537  -5.812   2.675  1.00  0.00     0.082 C 
HETATM    6  C6  UNL     1     -13.446  -4.545   3.507  1.00  0.00     0.019 C 
HETATM    7  C7  UNL     1     -12.621  -6.826   3.344  1.00  0.00     0.249 C 
HETATM    8  F1  UNL     1     -11.345  -6.365   3.247  1.00  0.00    -0.206 F 
HETATM    9  F2  UNL     1     -13.066  -6.987   4.632  1.00  0.00    -0.206 F 
HETATM   10  C8  UNL     1     -12.805  -8.104   2.565  1.00  0.00     0.084 C 
ENDROOT
BRANCH   4  11
HETATM   11  O1  UNL     1     -14.487  -5.460   0.580  1.00  0.00    -0.395 OA
ATOM     12  H1  UNL     1     -14.874  -6.312   0.417  1.00  0.00     0.210 HD
ENDBRANCH   4  11
TORSDOF 1
ENDMDL
MODEL 4
REMARK VINA RESULT: -5.340477625      2.240      3.634
REMARK  1 active torsions:
REMARK  status: ('A' for Active; 'I' for Inactive)
REMARK    1  A    between atoms: C4_4  and  O1_5 
ROOT
HETATM    1  C1  UNL     1     -12.022  -5.160   4.464  1.00  0.00     0.010 C 
HETATM    2  C2  UNL     1     -12.971  -6.086   3.689  1.00  0.00    -0.011 C 
HETATM    3  C3  UNL     1     -13.751  -5.362   2.680  1.00  0.00     0.036 C 
HETATM    4  C4  UNL     1     -13.516  -5.642   1.256  1.00  0.00     0.128 C 
HETATM    5  C5  UNL     1     -12.813  -6.902   0.915  1.00  0.00     0.082 C 
HETATM    6  C6  UNL     1     -13.398  -7.622  -0.286  1.00  0.00     0.019 C 
HETATM    7  C7  UNL     1     -12.797  -7.915   2.050  1.00  0.00     0.249 C 
HETATM    8  F1  UNL     1     -14.087  -8.227   2.350  1.00  0.00    -0.206 F 
HETATM    9  F2  UNL     1     -12.041  -8.980   1.633  1.00  0.00    -0.206 F 
HETATM   10  C8  UNL     1     -12.120  -7.214   3.201  1.00  0.00     0.084 C 
ENDROOT
BRANCH   4  11
HETATM   11  O1  UNL     1     -12.776  -4.589   0.663  1.00  0.00    -0.395 OA
ATOM     12  H1  UNL     1     -13.126  -3.748   0.932  1.00  0.00     0.210 HD
ENDBRANCH   4  11
TORSDOF 1
ENDMDL
MODEL 5
REMARK VINA RESULT: -5.041549060      1.620      1.944
REMARK  1 active torsions:
REMARK  status: ('A' for Active; 'I' for Inactive)
REMARK    1  A    between atoms: C4_4  and  O1_5 
ROOT
HETATM    1  C1  UNL     1     -13.381  -7.064  -0.314  1.00  0.00     0.010 C 
HETATM    2  C2  UNL     1     -13.878  -6.581   1.056  1.00  0.00    -0.011 C 
HETATM    3  C3  UNL     1     -13.736  -7.609   2.092  1.00  0.00     0.036 C 
HETATM    4  C4  UNL     1     -12.785  -7.392   3.192  1.00  0.00     0.128 C 
HETATM    5  C5  UNL     1     -12.321  -6.003   3.428  1.00  0.00     0.082 C 
HETATM    6  C6  UNL     1     -12.239  -5.629   4.897  1.00  0.00     0.019 C 
HETATM    7  C7  UNL     1     -13.199  -4.949   2.770  1.00  0.00     0.249 C 
HETATM    8  F1  UNL     1     -14.450  -5.063   3.291  1.00  0.00    -0.206 F 
HETATM    9  F2  UNL     1     -12.605  -3.732   2.988  1.00  0.00    -0.206 F 
HETATM   10  C8  UNL     1     -13.183  -5.280   1.298  1.00  0.00     0.084 C 
ENDROOT
BRANCH   4  11
HETATM   11  O1  UNL     1     -11.624  -8.183   3.003  1.00  0.00    -0.395 OA
ATOM     12  H1  UNL     1     -11.577  -8.862   3.664  1.00  0.00     0.210 HD
ENDBRANCH   4  11
TORSDOF 1
ENDMDL
