MODEL 1
REMARK VINA RESULT: -5.406022175      0.000      0.000
REMARK  8 active torsions:
REMARK  status: ('A' for Active; 'I' for Inactive)
REMARK    1  A    between atoms: C1_2  and  C2_4 
REMARK    2  A    between atoms: C2_4  and  N1_5 
REMARK    3  A    between atoms: N1_5  and  C3_8 
REMARK    4  A    between atoms: C3_8  and  C4_9 
REMARK    5  A    between atoms: C4_9  and  N2_10 
REMARK    6  A    between atoms: N2_10  and  C5_12 
REMARK    7  A    between atoms: C6_13  and  N3_14 
REMARK    8  A    between atoms: N3_14  and  C7_16 
ROOT
HETATM    1  C5  UNL     1      -7.850   3.859  -2.565  1.00  0.00     0.114 A 
HETATM    2  C6  UNL     1      -7.626   2.620  -1.906  1.00  0.00     0.118 A 
HETATM    3  C13 UNL     1      -7.442   2.012  -3.122  1.00  0.00     0.253 A 
HETATM    4  O3  UNL     1      -7.186   0.872  -3.528  1.00  0.00    -0.281 OA
HETATM    5  C14 UNL     1      -7.662   3.218  -3.747  1.00  0.00     0.252 A 
HETATM    6  O4  UNL     1      -7.678   3.580  -4.957  1.00  0.00    -0.281 OA
ENDROOT
BRANCH   1   7
HETATM    7  N2  UNL     1      -8.144   5.158  -2.087  1.00  0.00    -0.383 N 
ATOM      8  H2  UNL     1      -8.971   5.312  -1.509  1.00  0.00     0.159 HD
BRANCH   7   9
HETATM    9  C4  UNL     1      -7.279   6.266  -2.413  1.00  0.00     0.147 C 
BRANCH   9  10
HETATM   10  C3  UNL     1      -5.888   5.950  -1.848  1.00  0.00     0.252 C 
BRANCH  10  11
HETATM   11  N1  UNL     1      -5.966   6.261  -0.447  1.00  0.00    -0.064 N 
ATOM     12  H12 UNL     1      -6.897   6.598  -0.203  1.00  0.00     0.277 HD
ATOM     13  H11 UNL     1      -5.422   7.097  -0.232  1.00  0.00     0.277 HD
BRANCH  11  14
HETATM   14  C2  UNL     1      -5.583   5.180   0.397  1.00  0.00     0.344 C 
BRANCH  14  15
HETATM   15  C1  UNL     1      -6.611   4.913   1.415  1.00  0.00     0.199 C 
HETATM   16  O1  UNL     1      -6.322   4.573   2.579  1.00  0.00    -0.647 OA
HETATM   17  O2  UNL     1      -7.975   5.046   1.066  1.00  0.00    -0.647 OA
ENDBRANCH  14  15
ENDBRANCH  11  14
ENDBRANCH  10  11
ENDBRANCH   9  10
ENDBRANCH   7   9
ENDBRANCH   1   7
BRANCH   2  18
HETATM   18  N3  UNL     1      -7.591   2.316  -0.527  1.00  0.00    -0.351 N 
ATOM     19  H3  UNL     1      -6.912   2.806   0.056  1.00  0.00     0.166 HD
BRANCH  18  20
HETATM   20  C7  UNL     1      -8.431   1.383   0.090  1.00  0.00     0.032 A 
HETATM   21  C8  UNL     1      -8.120   0.051   0.092  1.00  0.00     0.029 A 
HETATM   22  C9  UNL     1      -8.957  -0.854   0.735  1.00  0.00     0.002 A 
HETATM   23  C10 UNL     1     -10.094  -0.409   1.368  1.00  0.00     0.000 A 
HETATM   24  C11 UNL     1     -10.389   0.926   1.352  1.00  0.00     0.002 A 
HETATM   25  C12 UNL     1      -9.579   1.843   0.725  1.00  0.00     0.029 A 
ENDBRANCH  18  20
ENDBRANCH   2  18
TORSDOF 8
ENDMDL
MODEL 2
REMARK VINA RESULT: -5.399123256      2.211      3.091
REMARK  8 active torsions:
REMARK  status: ('A' for Active; 'I' for Inactive)
REMARK    1  A    between atoms: C1_2  and  C2_4 
REMARK    2  A    between atoms: C2_4  and  N1_5 
REMARK    3  A    between atoms: N1_5  and  C3_8 
REMARK    4  A    between atoms: C3_8  and  C4_9 
REMARK    5  A    between atoms: C4_9  and  N2_10 
REMARK    6  A    between atoms: N2_10  and  C5_12 
REMARK    7  A    between atoms: C6_13  and  N3_14 
REMARK    8  A    between atoms: N3_14  and  C7_16 
ROOT
HETATM    1  C5  UNL     1      -9.164   3.050  -0.331  1.00  0.00     0.114 A 
HETATM    2  C6  UNL     1     -10.057   1.998   0.007  1.00  0.00     0.118 A 
HETATM    3  C13 UNL     1     -10.279   1.764  -1.327  1.00  0.00     0.253 A 
HETATM    4  O3  UNL     1     -10.958   0.981  -2.002  1.00  0.00    -0.281 OA
HETATM    5  C14 UNL     1      -9.412   2.786  -1.640  1.00  0.00     0.252 A 
HETATM    6  O4  UNL     1      -9.008   3.280  -2.729  1.00  0.00    -0.281 OA
ENDROOT
BRANCH   1   7
HETATM    7  N2  UNL     1      -8.394   3.941   0.454  1.00  0.00    -0.383 N 
ATOM      8  H2  UNL     1      -8.778   4.849   0.715  1.00  0.00     0.159 HD
BRANCH   7   9
HETATM    9  C4  UNL     1      -7.069   3.569   0.886  1.00  0.00     0.147 C 
BRANCH   9  10
HETATM   10  C3  UNL     1      -6.554   4.680   1.811  1.00  0.00     0.252 C 
BRANCH  10  11
HETATM   11  N1  UNL     1      -6.258   5.789   0.947  1.00  0.00    -0.064 N 
ATOM     12  H12 UNL     1      -5.879   6.571   1.481  1.00  0.00     0.277 HD
ATOM     13  H11 UNL     1      -7.117   6.219   0.603  1.00  0.00     0.277 HD
BRANCH  11  14
HETATM   14  C2  UNL     1      -5.395   5.451  -0.134  1.00  0.00     0.344 C 
BRANCH  14  15
HETATM   15  C1  UNL     1      -5.866   6.047  -1.394  1.00  0.00     0.199 C 
HETATM   16  O1  UNL     1      -5.085   6.556  -2.222  1.00  0.00    -0.647 OA
HETATM   17  O2  UNL     1      -7.250   6.045  -1.680  1.00  0.00    -0.647 OA
ENDBRANCH  14  15
ENDBRANCH  11  14
ENDBRANCH  10  11
ENDBRANCH   9  10
ENDBRANCH   7   9
ENDBRANCH   1   7
BRANCH   2  18
HETATM   18  N3  UNL     1     -10.425   1.486   1.272  1.00  0.00    -0.351 N 
ATOM     19  H3  UNL     1     -10.906   2.110   1.920  1.00  0.00     0.166 HD
BRANCH  18  20
HETATM   20  C7  UNL     1     -10.169   0.176   1.690  1.00  0.00     0.032 A 
HETATM   21  C8  UNL     1      -9.305  -0.627   0.996  1.00  0.00     0.029 A 
HETATM   22  C9  UNL     1      -9.046  -1.916   1.447  1.00  0.00     0.002 A 
HETATM   23  C10 UNL     1      -9.656  -2.381   2.588  1.00  0.00     0.000 A 
HETATM   24  C11 UNL     1     -10.518  -1.564   3.266  1.00  0.00     0.002 A 
HETATM   25  C12 UNL     1     -10.792  -0.285   2.843  1.00  0.00     0.029 A 
ENDBRANCH  18  20
ENDBRANCH   2  18
TORSDOF 8
ENDMDL
MODEL 3
REMARK VINA RESULT: -5.378309829      2.147      3.766
REMARK  8 active torsions:
REMARK  status: ('A' for Active; 'I' for Inactive)
REMARK    1  A    between atoms: C1_2  and  C2_4 
REMARK    2  A    between atoms: C2_4  and  N1_5 
REMARK    3  A    between atoms: N1_5  and  C3_8 
REMARK    4  A    between atoms: C3_8  and  C4_9 
REMARK    5  A    between atoms: C4_9  and  N2_10 
REMARK    6  A    between atoms: N2_10  and  C5_12 
REMARK    7  A    between atoms: C6_13  and  N3_14 
REMARK    8  A    between atoms: N3_14  and  C7_16 
ROOT
HETATM    1  C5  UNL     1      -6.681   3.348  -0.494  1.00  0.00     0.114 A 
HETATM    2  C6  UNL     1      -7.902   3.470   0.222  1.00  0.00     0.118 A 
HETATM    3  C13 UNL     1      -7.382   4.532   0.919  1.00  0.00     0.253 A 
HETATM    4  O3  UNL     1      -7.770   5.304   1.803  1.00  0.00    -0.281 OA
HETATM    5  C14 UNL     1      -6.205   4.402   0.217  1.00  0.00     0.252 A 
HETATM    6  O4  UNL     1      -5.109   5.028   0.235  1.00  0.00    -0.281 OA
ENDROOT
BRANCH   1   7
HETATM    7  N2  UNL     1      -6.250   2.456  -1.505  1.00  0.00    -0.383 N 
ATOM      8  H2  UNL     1      -6.065   1.480  -1.276  1.00  0.00     0.159 HD
BRANCH   7   9
HETATM    9  C4  UNL     1      -6.071   2.924  -2.858  1.00  0.00     0.147 C 
BRANCH   9  10
HETATM   10  C3  UNL     1      -7.457   3.275  -3.414  1.00  0.00     0.252 C 
BRANCH  10  11
HETATM   11  N1  UNL     1      -7.368   4.651  -3.821  1.00  0.00    -0.064 N 
ATOM     12  H12 UNL     1      -7.817   4.790  -4.725  1.00  0.00     0.277 HD
ATOM     13  H11 UNL     1      -6.408   4.892  -4.069  1.00  0.00     0.277 HD
BRANCH  11  14
HETATM   14  C2  UNL     1      -7.883   5.561  -2.856  1.00  0.00     0.344 C 
BRANCH  14  15
HETATM   15  C1  UNL     1      -7.199   6.862  -2.936  1.00  0.00     0.199 C 
HETATM   16  O1  UNL     1      -6.026   7.022  -2.543  1.00  0.00    -0.647 OA
HETATM   17  O2  UNL     1      -7.890   7.970  -3.477  1.00  0.00    -0.647 OA
ENDBRANCH  14  15
ENDBRANCH  11  14
ENDBRANCH  10  11
ENDBRANCH   9  10
ENDBRANCH   7   9
ENDBRANCH   1   7
BRANCH   2  18
HETATM   18  N3  UNL     1      -9.104   2.735   0.106  1.00  0.00    -0.351 N 
ATOM     19  H3  UNL     1      -9.900   3.187  -0.344  1.00  0.00     0.166 HD
BRANCH  18  20
HETATM   20  C7  UNL     1      -9.268   1.426   0.571  1.00  0.00     0.032 A 
HETATM   21  C8  UNL     1      -8.446   0.420   0.143  1.00  0.00     0.029 A 
HETATM   22  C9  UNL     1      -8.612  -0.867   0.641  1.00  0.00     0.002 A 
HETATM   23  C10 UNL     1      -9.600  -1.127   1.561  1.00  0.00     0.000 A 
HETATM   24  C11 UNL     1     -10.413  -0.108   1.975  1.00  0.00     0.002 A 
HETATM   25  C12 UNL     1     -10.271   1.174   1.500  1.00  0.00     0.029 A 
ENDBRANCH  18  20
ENDBRANCH   2  18
TORSDOF 8
ENDMDL
MODEL 4
REMARK VINA RESULT: -5.331131981      1.890      2.635
REMARK  8 active torsions:
REMARK  status: ('A' for Active; 'I' for Inactive)
REMARK    1  A    between atoms: C1_2  and  C2_4 
REMARK    2  A    between atoms: C2_4  and  N1_5 
REMARK    3  A    between atoms: N1_5  and  C3_8 
REMARK    4  A    between atoms: C3_8  and  C4_9 
REMARK    5  A    between atoms: C4_9  and  N2_10 
REMARK    6  A    between atoms: N2_10  and  C5_12 
REMARK    7  A    between atoms: C6_13  and  N3_14 
REMARK    8  A    between atoms: N3_14  and  C7_16 
ROOT
HETATM    1  C5  UNL     1      -7.177   2.430  -0.678  1.00  0.00     0.114 A 
HETATM    2  C6  UNL     1      -8.225   1.767  -1.372  1.00  0.00     0.118 A 
HETATM    3  C13 UNL     1      -7.468   1.778  -2.516  1.00  0.00     0.253 A 
HETATM    4  O3  UNL     1      -7.595   1.388  -3.683  1.00  0.00    -0.281 OA
HETATM    5  C14 UNL     1      -6.461   2.421  -1.832  1.00  0.00     0.252 A 
HETATM    6  O4  UNL     1      -5.315   2.836  -2.160  1.00  0.00    -0.281 OA
ENDROOT
BRANCH   1   7
HETATM    7  N2  UNL     1      -7.045   2.874   0.660  1.00  0.00    -0.383 N 
ATOM      8  H2  UNL     1      -6.622   2.263   1.358  1.00  0.00     0.159 HD
BRANCH   7   9
HETATM    9  C4  UNL     1      -7.508   4.186   1.038  1.00  0.00     0.147 C 
BRANCH   9  10
HETATM   10  C3  UNL     1      -6.273   5.036   1.369  1.00  0.00     0.252 C 
BRANCH  10  11
HETATM   11  N1  UNL     1      -6.332   6.159   0.474  1.00  0.00    -0.064 N 
ATOM     12  H12 UNL     1      -5.983   7.002   0.930  1.00  0.00     0.277 HD
ATOM     13  H11 UNL     1      -7.299   6.442   0.313  1.00  0.00     0.277 HD
BRANCH  11  14
HETATM   14  C2  UNL     1      -5.659   5.936  -0.760  1.00  0.00     0.344 C 
BRANCH  14  15
HETATM   15  C1  UNL     1      -6.513   6.301  -1.902  1.00  0.00     0.199 C 
HETATM   16  O1  UNL     1      -6.118   7.055  -2.813  1.00  0.00    -0.647 OA
HETATM   17  O2  UNL     1      -7.825   5.780  -1.973  1.00  0.00    -0.647 OA
ENDBRANCH  14  15
ENDBRANCH  11  14
ENDBRANCH  10  11
ENDBRANCH   9  10
ENDBRANCH   7   9
ENDBRANCH   1   7
BRANCH   2  18
HETATM   18  N3  UNL     1      -9.475   1.303  -0.905  1.00  0.00    -0.351 N 
ATOM     19  H3  UNL     1     -10.317   1.639  -1.373  1.00  0.00     0.166 HD
BRANCH  18  20
HETATM   20  C7  UNL     1      -9.629   0.411   0.161  1.00  0.00     0.032 A 
HETATM   21  C8  UNL     1      -9.002  -0.805   0.157  1.00  0.00     0.029 A 
HETATM   22  C9  UNL     1      -9.148  -1.663   1.240  1.00  0.00     0.002 A 
HETATM   23  C10 UNL     1      -9.923  -1.290   2.313  1.00  0.00     0.000 A 
HETATM   24  C11 UNL     1     -10.544  -0.071   2.298  1.00  0.00     0.002 A 
HETATM   25  C12 UNL     1     -10.415   0.797   1.240  1.00  0.00     0.029 A 
ENDBRANCH  18  20
ENDBRANCH   2  18
TORSDOF 8
ENDMDL
MODEL 5
REMARK VINA RESULT: -5.146962058      1.453      1.822
REMARK  8 active torsions:
REMARK  status: ('A' for Active; 'I' for Inactive)
REMARK    1  A    between atoms: C1_2  and  C2_4 
REMARK    2  A    between atoms: C2_4  and  N1_5 
REMARK    3  A    between atoms: N1_5  and  C3_8 
REMARK    4  A    between atoms: C3_8  and  C4_9 
REMARK    5  A    between atoms: C4_9  and  N2_10 
REMARK    6  A    between atoms: N2_10  and  C5_12 
REMARK    7  A    between atoms: C6_13  and  N3_14 
REMARK    8  A    between atoms: N3_14  and  C7_16 
ROOT
HETATM    1  C5  UNL     1      -7.210   3.404  -2.472  1.00  0.00     0.114 A 
HETATM    2  C6  UNL     1      -7.918   2.714  -1.452  1.00  0.00     0.118 A 
HETATM    3  C13 UNL     1      -7.033   1.670  -1.550  1.00  0.00     0.253 A 
HETATM    4  O3  UNL     1      -6.873   0.573  -1.003  1.00  0.00    -0.281 OA
HETATM    5  C14 UNL     1      -6.357   2.350  -2.537  1.00  0.00     0.252 A 
HETATM    6  O4  UNL     1      -5.336   2.086  -3.231  1.00  0.00    -0.281 OA
ENDROOT
BRANCH   1   7
HETATM    7  N2  UNL     1      -7.405   4.662  -3.091  1.00  0.00    -0.383 N 
ATOM      8  H2  UNL     1      -7.635   4.710  -4.083  1.00  0.00     0.159 HD
BRANCH   7   9
HETATM    9  C4  UNL     1      -7.282   5.876  -2.321  1.00  0.00     0.147 C 
BRANCH   9  10
HETATM   10  C3  UNL     1      -5.827   5.976  -1.843  1.00  0.00     0.252 C 
BRANCH  10  11
HETATM   11  N1  UNL     1      -5.907   6.267  -0.437  1.00  0.00    -0.064 N 
ATOM     12  H12 UNL     1      -6.800   6.704  -0.210  1.00  0.00     0.277 HD
ATOM     13  H11 UNL     1      -5.277   7.030  -0.190  1.00  0.00     0.277 HD
BRANCH  11  14
HETATM   14  C2  UNL     1      -5.676   5.132   0.391  1.00  0.00     0.344 C 
BRANCH  14  15
HETATM   15  C1  UNL     1      -6.787   4.929   1.333  1.00  0.00     0.199 C 
HETATM   16  O1  UNL     1      -7.118   3.796   1.737  1.00  0.00    -0.647 OA
HETATM   17  O2  UNL     1      -7.508   6.052   1.800  1.00  0.00    -0.647 OA
ENDBRANCH  14  15
ENDBRANCH  11  14
ENDBRANCH  10  11
ENDBRANCH   9  10
ENDBRANCH   7   9
ENDBRANCH   1   7
BRANCH   2  18
HETATM   18  N3  UNL     1      -9.045   3.112  -0.698  1.00  0.00    -0.351 N 
ATOM     19  H3  UNL     1      -9.170   4.106  -0.510  1.00  0.00     0.166 HD
BRANCH  18  20
HETATM   20  C7  UNL     1     -10.001   2.224  -0.193  1.00  0.00     0.032 A 
HETATM   21  C8  UNL     1     -11.171   1.995  -0.862  1.00  0.00     0.029 A 
HETATM   22  C9  UNL     1     -12.093   1.087  -0.354  1.00  0.00     0.002 A 
HETATM   23  C10 UNL     1     -11.827   0.421   0.819  1.00  0.00     0.000 A 
HETATM   24  C11 UNL     1     -10.652   0.665   1.474  1.00  0.00     0.002 A 
HETATM   25  C12 UNL     1      -9.723   1.556   0.995  1.00  0.00     0.029 A 
ENDBRANCH  18  20
ENDBRANCH   2  18
TORSDOF 8
ENDMDL
