MODEL 1
REMARK VINA RESULT: -5.404916260      0.000      0.000
REMARK  8 active torsions:
REMARK  status: ('A' for Active; 'I' for Inactive)
REMARK    1  A    between atoms: C2_2  and  C3_3 
REMARK    2  A    between atoms: C3_3  and  C4_4 
REMARK    3  A    between atoms: C4_4  and  C5_5 
REMARK    4  A    between atoms: C5_5  and  N1_6 
REMARK       I    between atoms: N1_6  and  C6_8 
REMARK    5  A    between atoms: C6_8  and  C7_10 
REMARK    6  A    between atoms: C7_10  and  C8_11 
REMARK    7  A    between atoms: C7_10  and  C9_20 
REMARK    8  A    between atoms: C12_27  and  N8_28 
ROOT
HETATM    1  C7  UNL     1      -8.288   3.040  -3.114  1.00  0.00     0.201 C 
ENDROOT
BRANCH   1   2
HETATM    2  C6  UNL     1      -8.012   4.334  -2.440  1.00  0.00     0.235 C 
HETATM    3  N1  UNL     1      -6.815   5.060  -2.682  1.00  0.00    -0.360 N 
ATOM      4  H1  UNL     1      -6.131   4.676  -3.334  1.00  0.00     0.162 HD
HETATM    5  O1  UNL     1      -8.867   4.783  -1.638  1.00  0.00    -0.272 OA
BRANCH   3   6
HETATM    6  C5  UNL     1      -6.527   6.334  -2.031  1.00  0.00     0.123 C 
BRANCH   6   7
HETATM    7  C4  UNL     1      -5.354   6.143  -1.134  1.00  0.00     0.023 C 
BRANCH   7   8
HETATM    8  C3  UNL     1      -5.533   4.955  -0.213  1.00  0.00     0.028 C 
BRANCH   8   9
HETATM    9  C2  UNL     1      -6.368   5.379   0.923  1.00  0.00    -0.037 C 
HETATM   10  C1  UNL     1      -7.212   4.526   1.464  1.00  0.00     0.007 C 
ENDBRANCH   8   9
ENDBRANCH   7   8
ENDBRANCH   6   7
ENDBRANCH   3   6
ENDBRANCH   1   2
BRANCH   1  11
HETATM   11  C8  UNL     1      -7.310   2.908  -4.225  1.00  0.00     0.132 A 
HETATM   12  N2  UNL     1      -7.461   3.467  -5.429  1.00  0.00    -0.271 N 
HETATM   13  N3  UNL     1      -6.403   3.128  -6.138  1.00  0.00    -0.227 N 
ATOM     14  H2  UNL     1      -8.242   4.044  -5.740  1.00  0.00     0.190 HD
HETATM   15  N4  UNL     1      -5.603   2.377  -5.407  1.00  0.00    -0.227 N 
ATOM     16  H3  UNL     1      -6.229   3.404  -7.104  1.00  0.00     0.210 HD
HETATM   17  N5  UNL     1      -6.159   2.237  -4.222  1.00  0.00    -0.271 N 
ATOM     18  H4  UNL     1      -4.714   1.977  -5.706  1.00  0.00     0.210 HD
ATOM     19  H5  UNL     1      -5.776   1.708  -3.438  1.00  0.00     0.190 HD
ENDBRANCH   1  11
BRANCH   1  20
HETATM   20  C9  UNL     1      -8.274   1.886  -2.210  1.00  0.00     0.074 A 
HETATM   21  N6  UNL     1      -7.480   1.957  -1.100  1.00  0.00    -0.364 N 
HETATM   22  C10 UNL     1      -7.426   0.926  -0.241  1.00  0.00     0.105 A 
ATOM     23  H6  UNL     1      -6.926   2.796  -0.924  1.00  0.00     0.165 HD
HETATM   24  C11 UNL     1      -8.187  -0.212  -0.495  1.00  0.00     0.106 A 
HETATM   25  N7  UNL     1      -8.957  -0.279  -1.574  1.00  0.00    -0.350 N 
HETATM   26  C12 UNL     1      -9.012   0.762  -2.441  1.00  0.00     0.123 A 
ATOM     27  H7  UNL     1      -9.512  -1.117  -1.751  1.00  0.00     0.166 HD
BRANCH  26  28
HETATM   28  N8  UNL     1      -9.765   0.695  -3.490  1.00  0.00    -0.384 N 
ATOM     29  H82 UNL     1      -9.628   1.348  -4.262  1.00  0.00     0.157 HD
ATOM     30  H81 UNL     1     -10.496  -0.015  -3.543  1.00  0.00     0.157 HD
ENDBRANCH  26  28
ENDBRANCH   1  20
TORSDOF 8
ENDMDL
MODEL 2
REMARK VINA RESULT: -5.297406853      2.356      4.696
REMARK  8 active torsions:
REMARK  status: ('A' for Active; 'I' for Inactive)
REMARK    1  A    between atoms: C2_2  and  C3_3 
REMARK    2  A    between atoms: C3_3  and  C4_4 
REMARK    3  A    between atoms: C4_4  and  C5_5 
REMARK    4  A    between atoms: C5_5  and  N1_6 
REMARK       I    between atoms: N1_6  and  C6_8 
REMARK    5  A    between atoms: C6_8  and  C7_10 
REMARK    6  A    between atoms: C7_10  and  C8_11 
REMARK    7  A    between atoms: C7_10  and  C9_20 
REMARK    8  A    between atoms: C12_27  and  N8_28 
ROOT
HETATM    1  C7  UNL     1      -7.459   3.854  -1.772  1.00  0.00     0.201 C 
ENDROOT
BRANCH   1   2
HETATM    2  C6  UNL     1      -8.802   3.656  -1.171  1.00  0.00     0.235 C 
HETATM    3  N1  UNL     1      -9.423   2.379  -1.136  1.00  0.00    -0.360 N 
ATOM      4  H1  UNL     1      -8.929   1.582  -1.537  1.00  0.00     0.162 HD
HETATM    5  O1  UNL     1      -9.392   4.654  -0.687  1.00  0.00    -0.272 OA
BRANCH   3   6
HETATM    6  C5  UNL     1     -10.741   2.165  -0.548  1.00  0.00     0.123 C 
BRANCH   6   7
HETATM    7  C4  UNL     1     -10.561   1.460   0.752  1.00  0.00     0.023 C 
BRANCH   7   8
HETATM    8  C3  UNL     1      -9.363   0.534   0.731  1.00  0.00     0.028 C 
BRANCH   8   9
HETATM    9  C2  UNL     1      -9.706  -0.676   1.495  1.00  0.00    -0.037 C 
HETATM   10  C1  UNL     1     -10.461  -0.575   2.568  1.00  0.00     0.007 C 
ENDBRANCH   8   9
ENDBRANCH   7   8
ENDBRANCH   6   7
ENDBRANCH   3   6
ENDBRANCH   1   2
BRANCH   1  11
HETATM   11  C8  UNL     1      -6.634   4.578  -0.770  1.00  0.00     0.132 A 
HETATM   12  N2  UNL     1      -5.580   5.341  -1.075  1.00  0.00    -0.271 N 
HETATM   13  N3  UNL     1      -5.110   5.809   0.064  1.00  0.00    -0.227 N 
ATOM     14  H2  UNL     1      -5.210   5.524  -2.008  1.00  0.00     0.190 HD
HETATM   15  N4  UNL     1      -5.844   5.359   1.062  1.00  0.00    -0.227 N 
ATOM     16  H3  UNL     1      -4.304   6.426   0.158  1.00  0.00     0.210 HD
HETATM   17  N5  UNL     1      -6.789   4.597   0.553  1.00  0.00    -0.271 N 
ATOM     18  H4  UNL     1      -5.705   5.565   2.051  1.00  0.00     0.210 HD
ATOM     19  H5  UNL     1      -7.513   4.107   1.079  1.00  0.00     0.190 HD
ENDBRANCH   1  11
BRANCH   1  20
HETATM   20  C9  UNL     1      -6.827   2.613  -2.232  1.00  0.00     0.074 A 
HETATM   21  N6  UNL     1      -6.367   1.744  -1.283  1.00  0.00    -0.364 N 
HETATM   22  C10 UNL     1      -5.776   0.595  -1.651  1.00  0.00     0.105 A 
ATOM     23  H6  UNL     1      -6.473   1.968  -0.294  1.00  0.00     0.165 HD
HETATM   24  C11 UNL     1      -5.638   0.303  -3.005  1.00  0.00     0.106 A 
HETATM   25  N7  UNL     1      -6.085   1.149  -3.924  1.00  0.00    -0.350 N 
HETATM   26  C12 UNL     1      -6.682   2.308  -3.555  1.00  0.00     0.123 A 
ATOM     27  H7  UNL     1      -5.980   0.926  -4.914  1.00  0.00     0.166 HD
BRANCH  26  28
HETATM   28  N8  UNL     1      -7.119   3.131  -4.452  1.00  0.00    -0.384 N 
ATOM     29  H82 UNL     1      -6.852   4.115  -4.419  1.00  0.00     0.157 HD
ATOM     30  H81 UNL     1      -7.730   2.790  -5.194  1.00  0.00     0.157 HD
ENDBRANCH  26  28
ENDBRANCH   1  20
TORSDOF 8
ENDMDL
MODEL 3
REMARK VINA RESULT: -5.210473780      2.600      5.634
REMARK  8 active torsions:
REMARK  status: ('A' for Active; 'I' for Inactive)
REMARK    1  A    between atoms: C2_2  and  C3_3 
REMARK    2  A    between atoms: C3_3  and  C4_4 
REMARK    3  A    between atoms: C4_4  and  C5_5 
REMARK    4  A    between atoms: C5_5  and  N1_6 
REMARK       I    between atoms: N1_6  and  C6_8 
REMARK    5  A    between atoms: C6_8  and  C7_10 
REMARK    6  A    between atoms: C7_10  and  C8_11 
REMARK    7  A    between atoms: C7_10  and  C9_20 
REMARK    8  A    between atoms: C12_27  and  N8_28 
ROOT
HETATM    1  C7  UNL     1      -7.500   2.613  -0.013  1.00  0.00     0.201 C 
ENDROOT
BRANCH   1   2
HETATM    2  C6  UNL     1      -8.981   2.547   0.072  1.00  0.00     0.235 C 
HETATM    3  N1  UNL     1      -9.638   1.616   0.919  1.00  0.00    -0.360 N 
ATOM      4  H1  UNL     1      -9.073   0.978   1.479  1.00  0.00     0.162 HD
HETATM    5  O1  UNL     1      -9.655   3.341  -0.631  1.00  0.00    -0.272 OA
BRANCH   3   6
HETATM    6  C5  UNL     1     -11.092   1.539   1.018  1.00  0.00     0.123 C 
BRANCH   6   7
HETATM    7  C4  UNL     1     -11.452   0.190   1.538  1.00  0.00     0.023 C 
BRANCH   7   8
HETATM    8  C3  UNL     1     -10.615  -0.193   2.740  1.00  0.00     0.028 C 
BRANCH   8   9
HETATM    9  C2  UNL     1     -10.226  -1.605   2.596  1.00  0.00    -0.037 C 
HETATM   10  C1  UNL     1      -9.254  -1.932   1.772  1.00  0.00     0.007 C 
ENDBRANCH   8   9
ENDBRANCH   7   8
ENDBRANCH   6   7
ENDBRANCH   3   6
ENDBRANCH   1   2
BRANCH   1  11
HETATM   11  C8  UNL     1      -7.077   1.632  -1.046  1.00  0.00     0.132 A 
HETATM   12  N2  UNL     1      -7.884   1.139  -1.990  1.00  0.00    -0.271 N 
HETATM   13  N3  UNL     1      -7.158   0.308  -2.711  1.00  0.00    -0.227 N 
ATOM     14  H2  UNL     1      -8.869   1.363  -2.127  1.00  0.00     0.190 HD
HETATM   15  N4  UNL     1      -5.928   0.273  -2.240  1.00  0.00    -0.227 N 
ATOM     16  H3  UNL     1      -7.497  -0.227  -3.510  1.00  0.00     0.210 HD
HETATM   17  N5  UNL     1      -5.871   1.091  -1.210  1.00  0.00    -0.271 N 
ATOM     18  H4  UNL     1      -5.158  -0.286  -2.608  1.00  0.00     0.210 HD
ATOM     19  H5  UNL     1      -5.047   1.278  -0.637  1.00  0.00     0.190 HD
ENDBRANCH   1  11
BRANCH   1  20
HETATM   20  C9  UNL     1      -6.980   3.960  -0.267  1.00  0.00     0.074 A 
HETATM   21  N6  UNL     1      -6.928   4.387  -1.564  1.00  0.00    -0.364 N 
HETATM   22  C10 UNL     1      -6.455   5.611  -1.853  1.00  0.00     0.105 A 
ATOM     23  H6  UNL     1      -7.248   3.775  -2.315  1.00  0.00     0.165 HD
HETATM   24  C11 UNL     1      -6.021   6.435  -0.818  1.00  0.00     0.106 A 
HETATM   25  N7  UNL     1      -6.073   6.018   0.441  1.00  0.00    -0.350 N 
HETATM   26  C12 UNL     1      -6.550   4.783   0.733  1.00  0.00     0.123 A 
ATOM     27  H7  UNL     1      -5.754   6.629   1.192  1.00  0.00     0.166 HD
BRANCH  26  28
HETATM   28  N8  UNL     1      -6.601   4.379   1.960  1.00  0.00    -0.384 N 
ATOM     29  H82 UNL     1      -6.911   3.431   2.176  1.00  0.00     0.157 HD
ATOM     30  H81 UNL     1      -6.330   5.013   2.712  1.00  0.00     0.157 HD
ENDBRANCH  26  28
ENDBRANCH   1  20
TORSDOF 8
ENDMDL
MODEL 4
REMARK VINA RESULT: -5.174229337      2.852      5.435
REMARK  8 active torsions:
REMARK  status: ('A' for Active; 'I' for Inactive)
REMARK    1  A    between atoms: C2_2  and  C3_3 
REMARK    2  A    between atoms: C3_3  and  C4_4 
REMARK    3  A    between atoms: C4_4  and  C5_5 
REMARK    4  A    between atoms: C5_5  and  N1_6 
REMARK       I    between atoms: N1_6  and  C6_8 
REMARK    5  A    between atoms: C6_8  and  C7_10 
REMARK    6  A    between atoms: C7_10  and  C8_11 
REMARK    7  A    between atoms: C7_10  and  C9_20 
REMARK    8  A    between atoms: C12_27  and  N8_28 
ROOT
HETATM    1  C7  UNL     1      -8.064   3.626  -0.754  1.00  0.00     0.201 C 
ENDROOT
BRANCH   1   2
HETATM    2  C6  UNL     1      -8.888   2.732   0.098  1.00  0.00     0.235 C 
HETATM    3  N1  UNL     1     -10.267   2.516  -0.164  1.00  0.00    -0.360 N 
ATOM      4  H1  UNL     1     -10.697   2.991  -0.958  1.00  0.00     0.162 HD
HETATM    5  O1  UNL     1      -8.338   2.161   1.072  1.00  0.00    -0.272 OA
BRANCH   3   6
HETATM    6  C5  UNL     1     -11.093   1.639   0.660  1.00  0.00     0.123 C 
BRANCH   6   7
HETATM    7  C4  UNL     1     -11.038   0.268   0.081  1.00  0.00     0.023 C 
BRANCH   7   8
HETATM    8  C3  UNL     1     -10.348  -0.710   1.009  1.00  0.00     0.028 C 
BRANCH   8   9
HETATM    9  C2  UNL     1     -10.473  -0.202   2.384  1.00  0.00    -0.037 C 
HETATM   10  C1  UNL     1     -10.847  -1.016   3.348  1.00  0.00     0.007 C 
ENDBRANCH   8   9
ENDBRANCH   7   8
ENDBRANCH   6   7
ENDBRANCH   3   6
ENDBRANCH   1   2
BRANCH   1  11
HETATM   11  C8  UNL     1      -7.164   4.386   0.152  1.00  0.00     0.132 A 
HETATM   12  N2  UNL     1      -5.933   4.790  -0.177  1.00  0.00    -0.271 N 
HETATM   13  N3  UNL     1      -5.451   5.424   0.873  1.00  0.00    -0.227 N 
ATOM     14  H2  UNL     1      -5.459   4.637  -1.067  1.00  0.00     0.190 HD
HETATM   15  N4  UNL     1      -6.347   5.424   1.840  1.00  0.00    -0.227 N 
ATOM     16  H3  UNL     1      -4.526   5.849   0.929  1.00  0.00     0.210 HD
HETATM   17  N5  UNL     1      -7.410   4.783   1.400  1.00  0.00    -0.271 N 
ATOM     18  H4  UNL     1      -6.237   5.844   2.762  1.00  0.00     0.210 HD
ATOM     19  H5  UNL     1      -8.271   4.620   1.922  1.00  0.00     0.190 HD
ENDBRANCH   1  11
BRANCH   1  20
HETATM   20  C9  UNL     1      -7.336   2.926  -1.817  1.00  0.00     0.074 A 
HETATM   21  N6  UNL     1      -6.886   1.663  -1.554  1.00  0.00    -0.364 N 
HETATM   22  C10 UNL     1      -6.209   0.979  -2.491  1.00  0.00     0.105 A 
ATOM     23  H6  UNL     1      -7.064   1.238  -0.643  1.00  0.00     0.165 HD
HETATM   24  C11 UNL     1      -5.972   1.571  -3.729  1.00  0.00     0.106 A 
HETATM   25  N7  UNL     1      -6.410   2.798  -3.981  1.00  0.00    -0.350 N 
HETATM   26  C12 UNL     1      -7.094   3.489  -3.036  1.00  0.00     0.123 A 
ATOM     27  H7  UNL     1      -6.233   3.224  -4.891  1.00  0.00     0.166 HD
BRANCH  26  28
HETATM   28  N8  UNL     1      -7.521   4.684  -3.285  1.00  0.00    -0.384 N 
ATOM     29  H82 UNL     1      -7.300   5.451  -2.650  1.00  0.00     0.157 HD
ATOM     30  H81 UNL     1      -8.079   4.856  -4.122  1.00  0.00     0.157 HD
ENDBRANCH  26  28
ENDBRANCH   1  20
TORSDOF 8
ENDMDL
MODEL 5
REMARK VINA RESULT: -5.152875600      2.497      5.083
REMARK  8 active torsions:
REMARK  status: ('A' for Active; 'I' for Inactive)
REMARK    1  A    between atoms: C2_2  and  C3_3 
REMARK    2  A    between atoms: C3_3  and  C4_4 
REMARK    3  A    between atoms: C4_4  and  C5_5 
REMARK    4  A    between atoms: C5_5  and  N1_6 
REMARK       I    between atoms: N1_6  and  C6_8 
REMARK    5  A    between atoms: C6_8  and  C7_10 
REMARK    6  A    between atoms: C7_10  and  C8_11 
REMARK    7  A    between atoms: C7_10  and  C9_20 
REMARK    8  A    between atoms: C12_27  and  N8_28 
ROOT
HETATM    1  C7  UNL     1      -7.124   3.061  -0.797  1.00  0.00     0.201 C 
ENDROOT
BRANCH   1   2
HETATM    2  C6  UNL     1      -7.637   3.645  -2.061  1.00  0.00     0.235 C 
HETATM    3  N1  UNL     1      -7.066   3.316  -3.320  1.00  0.00    -0.360 N 
ATOM      4  H1  UNL     1      -6.282   2.664  -3.348  1.00  0.00     0.162 HD
HETATM    5  O1  UNL     1      -8.600   4.450  -2.000  1.00  0.00    -0.272 OA
BRANCH   3   6
HETATM    6  C5  UNL     1      -7.558   3.878  -4.573  1.00  0.00     0.123 C 
BRANCH   6   7
HETATM    7  C4  UNL     1      -8.308   2.814  -5.297  1.00  0.00     0.023 C 
BRANCH   7   8
HETATM    8  C3  UNL     1      -8.305   3.040  -6.794  1.00  0.00     0.028 C 
BRANCH   8   9
HETATM    9  C2  UNL     1      -7.177   3.927  -7.121  1.00  0.00    -0.037 C 
HETATM   10  C1  UNL     1      -6.581   3.818  -8.289  1.00  0.00     0.007 C 
ENDBRANCH   8   9
ENDBRANCH   7   8
ENDBRANCH   6   7
ENDBRANCH   3   6
ENDBRANCH   1   2
BRANCH   1  11
HETATM   11  C8  UNL     1      -6.783   4.194   0.102  1.00  0.00     0.132 A 
HETATM   12  N2  UNL     1      -6.385   5.397  -0.322  1.00  0.00    -0.271 N 
HETATM   13  N3  UNL     1      -6.176   6.128   0.755  1.00  0.00    -0.227 N 
ATOM     14  H2  UNL     1      -6.266   5.693  -1.291  1.00  0.00     0.190 HD
HETATM   15  N4  UNL     1      -6.434   5.412   1.831  1.00  0.00    -0.227 N 
ATOM     16  H3  UNL     1      -5.863   7.098   0.755  1.00  0.00     0.210 HD
HETATM   17  N5  UNL     1      -6.810   4.214   1.434  1.00  0.00    -0.271 N 
ATOM     18  H4  UNL     1      -6.356   5.729   2.797  1.00  0.00     0.210 HD
ATOM     19  H5  UNL     1      -7.076   3.438   2.040  1.00  0.00     0.190 HD
ENDBRANCH   1  11
BRANCH   1  20
HETATM   20  C9  UNL     1      -8.040   2.101  -0.172  1.00  0.00     0.074 A 
HETATM   21  N6  UNL     1      -9.244   2.570   0.274  1.00  0.00    -0.364 N 
HETATM   22  C10 UNL     1     -10.119   1.735   0.858  1.00  0.00     0.105 A 
ATOM     23  H6  UNL     1      -9.479   3.557   0.162  1.00  0.00     0.165 HD
HETATM   24  C11 UNL     1      -9.784   0.391   1.003  1.00  0.00     0.106 A 
HETATM   25  N7  UNL     1      -8.614  -0.061   0.570  1.00  0.00    -0.350 N 
HETATM   26  C12 UNL     1      -7.731   0.781  -0.020  1.00  0.00     0.123 A 
ATOM     27  H7  UNL     1      -8.378  -1.048   0.680  1.00  0.00     0.166 HD
BRANCH  26  28
HETATM   28  N8  UNL     1      -6.592   0.338  -0.443  1.00  0.00    -0.384 N 
ATOM     29  H82 UNL     1      -6.558  -0.391  -1.156  1.00  0.00     0.157 HD
ATOM     30  H81 UNL     1      -5.728   0.721  -0.061  1.00  0.00     0.157 HD
ENDBRANCH  26  28
ENDBRANCH   1  20
TORSDOF 8
ENDMDL
