MODEL 1
REMARK VINA RESULT: -5.253111382      0.000      0.000
REMARK  8 active torsions:
REMARK  status: ('A' for Active; 'I' for Inactive)
REMARK       I    between atoms: C1_2  and  N1_3 
REMARK    1  A    between atoms: C1_2  and  C11_21 
REMARK    2  A    between atoms: N1_3  and  C2_5 
REMARK    3  A    between atoms: C2_5  and  C3_6 
REMARK    4  A    between atoms: C3_6  and  N2_7 
REMARK    5  A    between atoms: N2_7  and  C4_10 
REMARK    6  A    between atoms: C4_10  and  C5_11 
REMARK    7  A    between atoms: C5_11  and  N3_12 
REMARK    8  A    between atoms: N3_12  and  C6_14 
ROOT
HETATM    1  N2  UNL     1      -5.640   0.504  -2.538  1.00  0.00    -0.072 N 
ATOM      2  H21 UNL     1      -5.204   1.284  -2.046  1.00  0.00     0.277 HD
ATOM      3  H22 UNL     1      -4.811   0.109  -2.980  1.00  0.00     0.277 HD
ENDROOT
BRANCH   1   4
HETATM    4  C3  UNL     1      -6.593   0.972  -3.527  1.00  0.00     0.252 C 
BRANCH   4   5
HETATM    5  C2  UNL     1      -6.378   2.459  -3.687  1.00  0.00     0.150 C 
BRANCH   5   6
HETATM    6  N1  UNL     1      -6.702   3.123  -2.458  1.00  0.00    -0.354 N 
HETATM    7  C1  UNL     1      -5.738   3.639  -1.565  1.00  0.00     0.269 C 
HETATM    8  O1  UNL     1      -4.508   3.554  -1.777  1.00  0.00    -0.266 OA
ATOM      9  H1  UNL     1      -7.687   3.227  -2.214  1.00  0.00     0.162 HD
BRANCH   7  10
HETATM   10  C11 UNL     1      -6.175   4.306  -0.332  1.00  0.00     0.117 A 
HETATM   11  C12 UNL     1      -7.148   3.905   0.533  1.00  0.00     0.055 A 
HETATM   12  C13 UNL     1      -7.221   4.826   1.546  1.00  0.00     0.109 A 
HETATM   13  N5  UNL     1      -6.296   5.765   1.280  1.00  0.00    -0.311 N 
HETATM   14  N6  UNL     1      -5.672   5.456   0.161  1.00  0.00    -0.296 N 
ATOM     15  H5  UNL     1      -6.107   6.586   1.854  1.00  0.00     0.186 HD
ATOM     16  H6  UNL     1      -4.924   6.002  -0.265  1.00  0.00     0.187 HD
ENDBRANCH   7  10
ENDBRANCH   5   6
ENDBRANCH   4   5
ENDBRANCH   1   4
BRANCH   1  17
HETATM   17  C4  UNL     1      -6.240  -0.433  -1.611  1.00  0.00     0.251 C 
BRANCH  17  18
HETATM   18  C5  UNL     1      -6.798   0.222  -0.394  1.00  0.00     0.147 C 
BRANCH  18  19
HETATM   19  N3  UNL     1      -8.218   0.436  -0.430  1.00  0.00    -0.387 N 
ATOM     20  H3  UNL     1      -8.611   0.793  -1.301  1.00  0.00     0.159 HD
BRANCH  19  21
HETATM   21  C6  UNL     1      -9.122   0.197   0.629  1.00  0.00     0.043 A 
HETATM   22  C7  UNL     1      -9.185  -1.058   1.241  1.00  0.00     0.032 A 
HETATM   23  C8  UNL     1     -10.064  -1.329   2.268  1.00  0.00     0.019 A 
HETATM   24  C9  UNL     1     -10.917  -0.347   2.722  1.00  0.00     0.088 A 
HETATM   25  N4  UNL     1     -10.857   0.858   2.134  1.00  0.00    -0.373 N 
HETATM   26  C10 UNL     1      -9.993   1.140   1.117  1.00  0.00     0.116 A 
ATOM     27  H4  UNL     1     -11.483   1.594   2.460  1.00  0.00     0.164 HD
ENDBRANCH  19  21
ENDBRANCH  18  19
ENDBRANCH  17  18
ENDBRANCH   1  17
TORSDOF 8
ENDMDL
MODEL 2
REMARK VINA RESULT: -5.150799299      1.100      1.347
REMARK  8 active torsions:
REMARK  status: ('A' for Active; 'I' for Inactive)
REMARK       I    between atoms: C1_2  and  N1_3 
REMARK    1  A    between atoms: C1_2  and  C11_21 
REMARK    2  A    between atoms: N1_3  and  C2_5 
REMARK    3  A    between atoms: C2_5  and  C3_6 
REMARK    4  A    between atoms: C3_6  and  N2_7 
REMARK    5  A    between atoms: N2_7  and  C4_10 
REMARK    6  A    between atoms: C4_10  and  C5_11 
REMARK    7  A    between atoms: C5_11  and  N3_12 
REMARK    8  A    between atoms: N3_12  and  C6_14 
ROOT
HETATM    1  N2  UNL     1      -8.741   2.085  -3.275  1.00  0.00    -0.072 N 
ATOM      2  H21 UNL     1      -9.302   2.807  -3.728  1.00  0.00     0.277 HD
ATOM      3  H22 UNL     1      -8.414   2.618  -2.470  1.00  0.00     0.277 HD
ENDROOT
BRANCH   1   4
HETATM    4  C3  UNL     1      -7.636   1.671  -4.118  1.00  0.00     0.252 C 
BRANCH   4   5
HETATM    5  C2  UNL     1      -6.387   2.318  -3.571  1.00  0.00     0.150 C 
BRANCH   5   6
HETATM    6  N1  UNL     1      -6.700   2.999  -2.348  1.00  0.00    -0.354 N 
HETATM    7  C1  UNL     1      -5.737   3.626  -1.527  1.00  0.00     0.269 C 
HETATM    8  O1  UNL     1      -4.516   3.633  -1.804  1.00  0.00    -0.266 OA
ATOM      9  H1  UNL     1      -7.676   3.033  -2.054  1.00  0.00     0.162 HD
BRANCH   7  10
HETATM   10  C11 UNL     1      -6.162   4.301  -0.295  1.00  0.00     0.117 A 
HETATM   11  C12 UNL     1      -7.150   3.924   0.564  1.00  0.00     0.055 A 
HETATM   12  C13 UNL     1      -7.205   4.844   1.579  1.00  0.00     0.109 A 
HETATM   13  N5  UNL     1      -6.254   5.758   1.320  1.00  0.00    -0.311 N 
HETATM   14  N6  UNL     1      -5.633   5.436   0.204  1.00  0.00    -0.296 N 
ATOM     15  H5  UNL     1      -6.046   6.573   1.897  1.00  0.00     0.186 HD
ATOM     16  H6  UNL     1      -4.868   5.964  -0.217  1.00  0.00     0.187 HD
ENDBRANCH   7  10
ENDBRANCH   5   6
ENDBRANCH   4   5
ENDBRANCH   1   4
BRANCH   1  17
HETATM   17  C4  UNL     1      -9.560   0.963  -2.866  1.00  0.00     0.251 C 
BRANCH  17  18
HETATM   18  C5  UNL     1      -8.837   0.000  -1.988  1.00  0.00     0.147 C 
BRANCH  18  19
HETATM   19  N3  UNL     1      -8.550   0.494  -0.670  1.00  0.00    -0.387 N 
ATOM     20  H3  UNL     1      -7.735   1.099  -0.570  1.00  0.00     0.159 HD
BRANCH  19  21
HETATM   21  C6  UNL     1      -9.292   0.221   0.501  1.00  0.00     0.043 A 
HETATM   22  C7  UNL     1      -9.212  -1.030   1.118  1.00  0.00     0.032 A 
HETATM   23  C8  UNL     1      -9.932  -1.335   2.253  1.00  0.00     0.019 A 
HETATM   24  C9  UNL     1     -10.764  -0.391   2.816  1.00  0.00     0.088 A 
HETATM   25  N4  UNL     1     -10.841   0.811   2.222  1.00  0.00    -0.373 N 
HETATM   26  C10 UNL     1     -10.135   1.125   1.099  1.00  0.00     0.116 A 
ATOM     27  H4  UNL     1     -11.453   1.518   2.628  1.00  0.00     0.164 HD
ENDBRANCH  19  21
ENDBRANCH  18  19
ENDBRANCH  17  18
ENDBRANCH   1  17
TORSDOF 8
ENDMDL
MODEL 3
REMARK VINA RESULT: -5.109613241      3.176      5.277
REMARK  8 active torsions:
REMARK  status: ('A' for Active; 'I' for Inactive)
REMARK       I    between atoms: C1_2  and  N1_3 
REMARK    1  A    between atoms: C1_2  and  C11_21 
REMARK    2  A    between atoms: N1_3  and  C2_5 
REMARK    3  A    between atoms: C2_5  and  C3_6 
REMARK    4  A    between atoms: C3_6  and  N2_7 
REMARK    5  A    between atoms: N2_7  and  C4_10 
REMARK    6  A    between atoms: C4_10  and  C5_11 
REMARK    7  A    between atoms: C5_11  and  N3_12 
REMARK    8  A    between atoms: N3_12  and  C6_14 
ROOT
HETATM    1  N2  UNL     1      -5.597   0.156  -2.611  1.00  0.00    -0.072 N 
ATOM      2  H21 UNL     1      -4.851   0.828  -2.435  1.00  0.00     0.277 HD
ATOM      3  H22 UNL     1      -5.090  -0.491  -3.214  1.00  0.00     0.277 HD
ENDROOT
BRANCH   1   4
HETATM    4  C3  UNL     1      -6.707   0.772  -3.312  1.00  0.00     0.252 C 
BRANCH   4   5
HETATM    5  C2  UNL     1      -6.371   2.234  -3.487  1.00  0.00     0.150 C 
BRANCH   5   6
HETATM    6  N1  UNL     1      -6.684   2.943  -2.280  1.00  0.00    -0.354 N 
HETATM    7  C1  UNL     1      -5.726   3.616  -1.491  1.00  0.00     0.269 C 
HETATM    8  O1  UNL     1      -4.510   3.645  -1.786  1.00  0.00    -0.266 OA
ATOM      9  H1  UNL     1      -7.656   2.961  -1.973  1.00  0.00     0.162 HD
BRANCH   7  10
HETATM   10  C11 UNL     1      -6.151   4.316  -0.273  1.00  0.00     0.117 A 
HETATM   11  C12 UNL     1      -7.158   3.972   0.578  1.00  0.00     0.055 A 
HETATM   12  C13 UNL     1      -7.204   4.906   1.581  1.00  0.00     0.109 A 
HETATM   13  N5  UNL     1      -6.229   5.795   1.323  1.00  0.00    -0.311 N 
HETATM   14  N6  UNL     1      -5.602   5.445   0.219  1.00  0.00    -0.296 N 
ATOM     15  H5  UNL     1      -6.010   6.613   1.892  1.00  0.00     0.186 HD
ATOM     16  H6  UNL     1      -4.820   5.950  -0.199  1.00  0.00     0.187 HD
ENDBRANCH   7  10
ENDBRANCH   5   6
ENDBRANCH   4   5
ENDBRANCH   1   4
BRANCH   1  17
HETATM   17  C4  UNL     1      -6.022  -0.490  -1.387  1.00  0.00     0.251 C 
BRANCH  17  18
HETATM   18  C5  UNL     1      -4.886  -0.971  -0.552  1.00  0.00     0.147 C 
BRANCH  18  19
HETATM   19  N3  UNL     1      -3.587  -0.726  -1.115  1.00  0.00    -0.387 N 
ATOM     20  H3  UNL     1      -3.555  -0.236  -2.009  1.00  0.00     0.159 HD
BRANCH  19  21
HETATM   21  C6  UNL     1      -2.349  -1.100  -0.546  1.00  0.00     0.043 A 
HETATM   22  C7  UNL     1      -2.229  -1.292   0.832  1.00  0.00     0.032 A 
HETATM   23  C8  UNL     1      -1.035  -1.645   1.423  1.00  0.00     0.019 A 
HETATM   24  C9  UNL     1       0.091  -1.820   0.647  1.00  0.00     0.088 A 
HETATM   25  N4  UNL     1      -0.024  -1.635  -0.677  1.00  0.00    -0.373 N 
HETATM   26  C10 UNL     1      -1.199  -1.285  -1.274  1.00  0.00     0.116 A 
ATOM     27  H4  UNL     1       0.802  -1.760  -1.262  1.00  0.00     0.164 HD
ENDBRANCH  19  21
ENDBRANCH  18  19
ENDBRANCH  17  18
ENDBRANCH   1  17
TORSDOF 8
ENDMDL
MODEL 4
REMARK VINA RESULT: -5.103361681      2.509      4.611
REMARK  8 active torsions:
REMARK  status: ('A' for Active; 'I' for Inactive)
REMARK       I    between atoms: C1_2  and  N1_3 
REMARK    1  A    between atoms: C1_2  and  C11_21 
REMARK    2  A    between atoms: N1_3  and  C2_5 
REMARK    3  A    between atoms: C2_5  and  C3_6 
REMARK    4  A    between atoms: C3_6  and  N2_7 
REMARK    5  A    between atoms: N2_7  and  C4_10 
REMARK    6  A    between atoms: C4_10  and  C5_11 
REMARK    7  A    between atoms: C5_11  and  N3_12 
REMARK    8  A    between atoms: N3_12  and  C6_14 
ROOT
HETATM    1  N2  UNL     1      -6.276   5.896   0.857  1.00  0.00    -0.072 N 
ATOM      2  H21 UNL     1      -7.021   6.477   0.474  1.00  0.00     0.277 HD
ATOM      3  H22 UNL     1      -5.798   6.599   1.420  1.00  0.00     0.277 HD
ENDROOT
BRANCH   1   4
HETATM    4  C3  UNL     1      -5.414   5.385  -0.193  1.00  0.00     0.252 C 
BRANCH   4   5
HETATM    5  C2  UNL     1      -5.826   6.060  -1.479  1.00  0.00     0.150 C 
BRANCH   5   6
HETATM    6  N1  UNL     1      -6.254   5.068  -2.422  1.00  0.00    -0.354 N 
HETATM    7  C1  UNL     1      -7.597   4.664  -2.586  1.00  0.00     0.269 C 
HETATM    8  O1  UNL     1      -8.533   5.145  -1.908  1.00  0.00    -0.266 OA
ATOM      9  H1  UNL     1      -5.546   4.628  -3.009  1.00  0.00     0.162 HD
BRANCH   7  10
HETATM   10  C11 UNL     1      -7.931   3.642  -3.584  1.00  0.00     0.117 A 
HETATM   11  C12 UNL     1      -9.013   2.814  -3.600  1.00  0.00     0.055 A 
HETATM   12  C13 UNL     1      -8.925   2.020  -4.714  1.00  0.00     0.109 A 
HETATM   13  N5  UNL     1      -7.797   2.378  -5.353  1.00  0.00    -0.311 N 
HETATM   14  N6  UNL     1      -7.205   3.344  -4.680  1.00  0.00    -0.296 N 
ATOM     15  H5  UNL     1      -7.454   1.967  -6.221  1.00  0.00     0.186 HD
ATOM     16  H6  UNL     1      -6.331   3.798  -4.948  1.00  0.00     0.187 HD
ENDBRANCH   7  10
ENDBRANCH   5   6
ENDBRANCH   4   5
ENDBRANCH   1   4
BRANCH   1  17
HETATM   17  C4  UNL     1      -6.809   4.833   1.683  1.00  0.00     0.251 C 
BRANCH  17  18
HETATM   18  C5  UNL     1      -7.127   3.596   0.914  1.00  0.00     0.147 C 
BRANCH  18  19
HETATM   19  N3  UNL     1      -8.527   3.389   0.669  1.00  0.00    -0.387 N 
ATOM     20  H3  UNL     1      -9.164   4.124   0.977  1.00  0.00     0.159 HD
BRANCH  19  21
HETATM   21  C6  UNL     1      -9.104   2.264   0.040  1.00  0.00     0.043 A 
HETATM   22  C7  UNL     1     -10.471   2.232  -0.248  1.00  0.00     0.032 A 
HETATM   23  C8  UNL     1     -11.069   1.145  -0.849  1.00  0.00     0.019 A 
HETATM   24  C9  UNL     1     -10.314   0.042  -1.185  1.00  0.00     0.088 A 
HETATM   25  N4  UNL     1      -9.000   0.072  -0.907  1.00  0.00    -0.373 N 
HETATM   26  C10 UNL     1      -8.397   1.140  -0.313  1.00  0.00     0.116 A 
ATOM     27  H4  UNL     1      -8.431  -0.738  -1.150  1.00  0.00     0.164 HD
ENDBRANCH  19  21
ENDBRANCH  18  19
ENDBRANCH  17  18
ENDBRANCH   1  17
TORSDOF 8
ENDMDL
MODEL 5
REMARK VINA RESULT: -5.097266238      2.128      4.346
REMARK  8 active torsions:
REMARK  status: ('A' for Active; 'I' for Inactive)
REMARK       I    between atoms: C1_2  and  N1_3 
REMARK    1  A    between atoms: C1_2  and  C11_21 
REMARK    2  A    between atoms: N1_3  and  C2_5 
REMARK    3  A    between atoms: C2_5  and  C3_6 
REMARK    4  A    between atoms: C3_6  and  N2_7 
REMARK    5  A    between atoms: N2_7  and  C4_10 
REMARK    6  A    between atoms: C4_10  and  C5_11 
REMARK    7  A    between atoms: C5_11  and  N3_12 
REMARK    8  A    between atoms: N3_12  and  C6_14 
ROOT
HETATM    1  N2  UNL     1      -6.069   5.773   0.962  1.00  0.00    -0.072 N 
ATOM      2  H21 UNL     1      -6.792   6.415   0.639  1.00  0.00     0.277 HD
ATOM      3  H22 UNL     1      -5.566   6.400   1.589  1.00  0.00     0.277 HD
ENDROOT
BRANCH   1   4
HETATM    4  C3  UNL     1      -5.226   5.334  -0.134  1.00  0.00     0.252 C 
BRANCH   4   5
HETATM    5  C2  UNL     1      -5.722   6.021  -1.384  1.00  0.00     0.150 C 
BRANCH   5   6
HETATM    6  N1  UNL     1      -6.157   5.035  -2.330  1.00  0.00    -0.354 N 
HETATM    7  C1  UNL     1      -7.512   4.740  -2.594  1.00  0.00     0.269 C 
HETATM    8  O1  UNL     1      -8.455   5.322  -2.011  1.00  0.00    -0.266 OA
ATOM      9  H1  UNL     1      -5.445   4.515  -2.842  1.00  0.00     0.162 HD
BRANCH   7  10
HETATM   10  C11 UNL     1      -7.852   3.713  -3.586  1.00  0.00     0.117 A 
HETATM   11  C12 UNL     1      -8.674   2.638  -3.425  1.00  0.00     0.055 A 
HETATM   12  C13 UNL     1      -8.704   1.945  -4.608  1.00  0.00     0.109 A 
HETATM   13  N5  UNL     1      -7.905   2.609  -5.462  1.00  0.00    -0.311 N 
HETATM   14  N6  UNL     1      -7.397   3.662  -4.854  1.00  0.00    -0.296 N 
ATOM     15  H5  UNL     1      -7.720   2.340  -6.428  1.00  0.00     0.186 HD
ATOM     16  H6  UNL     1      -6.759   4.335  -5.277  1.00  0.00     0.187 HD
ENDBRANCH   7  10
ENDBRANCH   5   6
ENDBRANCH   4   5
ENDBRANCH   1   4
BRANCH   1  17
HETATM   17  C4  UNL     1      -6.642   4.656   1.684  1.00  0.00     0.251 C 
BRANCH  17  18
HETATM   18  C5  UNL     1      -7.909   4.156   1.080  1.00  0.00     0.147 C 
BRANCH  18  19
HETATM   19  N3  UNL     1      -7.757   2.991   0.253  1.00  0.00    -0.387 N 
ATOM     20  H3  UNL     1      -7.034   3.025  -0.466  1.00  0.00     0.159 HD
BRANCH  19  21
HETATM   21  C6  UNL     1      -8.514   1.802   0.343  1.00  0.00     0.043 A 
HETATM   22  C7  UNL     1      -7.948   0.570   0.006  1.00  0.00     0.032 A 
HETATM   23  C8  UNL     1      -8.662  -0.607   0.070  1.00  0.00     0.019 A 
HETATM   24  C9  UNL     1      -9.979  -0.593   0.477  1.00  0.00     0.088 A 
HETATM   25  N4  UNL     1     -10.523   0.591   0.801  1.00  0.00    -0.373 N 
HETATM   26  C10 UNL     1      -9.828   1.763   0.742  1.00  0.00     0.116 A 
ATOM     27  H4  UNL     1     -11.496   0.615   1.103  1.00  0.00     0.164 HD
ENDBRANCH  19  21
ENDBRANCH  18  19
ENDBRANCH  17  18
ENDBRANCH   1  17
TORSDOF 8
ENDMDL
