MODEL 1
REMARK VINA RESULT: -4.885175894      0.000      0.000
REMARK  6 active torsions:
REMARK  status: ('A' for Active; 'I' for Inactive)
REMARK    1  A    between atoms: N1_1  and  C1_5 
REMARK    2  A    between atoms: C1_5  and  C2_6 
REMARK    3  A    between atoms: C2_6  and  C3_7 
REMARK    4  A    between atoms: C3_7  and  C4_8 
REMARK    5  A    between atoms: C4_8  and  C5_9 
REMARK    6  A    between atoms: C9_17  and  C10_18 
ROOT
HETATM    1  C5  UNL     1     -25.555 -13.251  23.770  1.00  0.00     0.081 C 
HETATM    2  N2  UNL     1     -24.638 -12.844  22.879  1.00  0.00    -0.352 N 
ATOM      3  H2  UNL     1     -23.738 -13.322  22.913  1.00  0.00     0.166 HD
HETATM    4  C6  UNL     1     -24.763 -11.871  21.936  1.00  0.00     0.146 C 
HETATM    5  C7  UNL     1     -25.952 -11.387  21.401  1.00  0.00     0.213 C 
HETATM    6  O1  UNL     1     -25.872 -10.788  20.295  1.00  0.00    -0.285 OA
HETATM    7  C8  UNL     1     -27.223 -11.504  21.971  1.00  0.00     0.129 C 
HETATM    8  N3  UNL     1     -28.270 -10.995  21.163  1.00  0.00    -0.096 NA
HETATM    9  C9  UNL     1     -27.582 -12.038  23.195  1.00  0.00     0.127 C 
HETATM   10  N5  UNL     1     -26.773 -12.733  24.040  1.00  0.00    -0.340 N 
ATOM     11  H5  UNL     1     -27.127 -12.878  24.986  1.00  0.00     0.167 HD
ENDROOT
BRANCH   1  12
HETATM   12  C4  UNL     1     -25.165 -14.442  24.567  1.00  0.00     0.076 C 
BRANCH  12  13
HETATM   13  C3  UNL     1     -26.389 -14.900  25.317  1.00  0.00     0.009 C 
BRANCH  13  14
HETATM   14  C2  UNL     1     -26.177 -14.987  26.802  1.00  0.00     0.027 C 
BRANCH  14  15
HETATM   15  C1  UNL     1     -24.901 -14.232  27.122  1.00  0.00     0.229 C 
BRANCH  15  16
HETATM   16  N1  UNL     1     -24.996 -13.458  28.320  1.00  0.00    -0.079 N 
ATOM     17  H13 UNL     1     -25.939 -13.090  28.441  1.00  0.00     0.274 HD
ATOM     18  H12 UNL     1     -24.943 -14.056  29.145  1.00  0.00     0.274 HD
ATOM     19  H11 UNL     1     -24.304 -12.710  28.367  1.00  0.00     0.274 HD
ENDBRANCH  15  16
ENDBRANCH  14  15
ENDBRANCH  13  14
ENDBRANCH  12  13
ENDBRANCH   1  12
BRANCH   9  20
HETATM   20  C10 UNL     1     -28.944 -11.846  23.623  1.00  0.00     0.283 C 
HETATM   21  N4  UNL     1     -29.917 -12.847  23.452  1.00  0.00    -0.056 NA
HETATM   22  O2  UNL     1     -29.286 -10.772  24.161  1.00  0.00    -0.269 OA
ENDBRANCH   9  20
TORSDOF 6
ENDMDL
MODEL 2
REMARK VINA RESULT: -4.680743287      3.093      6.155
REMARK  6 active torsions:
REMARK  status: ('A' for Active; 'I' for Inactive)
REMARK    1  A    between atoms: N1_1  and  C1_5 
REMARK    2  A    between atoms: C1_5  and  C2_6 
REMARK    3  A    between atoms: C2_6  and  C3_7 
REMARK    4  A    between atoms: C3_7  and  C4_8 
REMARK    5  A    between atoms: C4_8  and  C5_9 
REMARK    6  A    between atoms: C9_17  and  C10_18 
ROOT
HETATM    1  C5  UNL     1     -25.029 -13.201  23.184  1.00  0.00     0.081 C 
HETATM    2  N2  UNL     1     -25.874 -13.387  24.210  1.00  0.00    -0.352 N 
ATOM      3  H2  UNL     1     -26.326 -12.549  24.575  1.00  0.00     0.166 HD
HETATM    4  C6  UNL     1     -26.201 -14.558  24.822  1.00  0.00     0.146 C 
HETATM    5  C7  UNL     1     -26.083 -15.834  24.280  1.00  0.00     0.213 C 
HETATM    6  O1  UNL     1     -26.774 -16.741  24.815  1.00  0.00    -0.285 OA
HETATM    7  C8  UNL     1     -25.274 -16.202  23.200  1.00  0.00     0.129 C 
HETATM    8  N3  UNL     1     -25.418 -17.555  22.804  1.00  0.00    -0.096 NA
HETATM    9  C9  UNL     1     -24.371 -15.434  22.488  1.00  0.00     0.127 C 
HETATM   10  N5  UNL     1     -24.207 -14.088  22.581  1.00  0.00    -0.340 N 
ATOM     11  H5  UNL     1     -23.367 -13.704  22.147  1.00  0.00     0.167 HD
ENDROOT
BRANCH   1  12
HETATM   12  C4  UNL     1     -25.002 -11.818  22.641  1.00  0.00     0.076 C 
BRANCH  12  13
HETATM   13  C3  UNL     1     -26.371 -11.227  22.853  1.00  0.00     0.009 C 
BRANCH  13  14
HETATM   14  C2  UNL     1     -27.148 -11.056  21.578  1.00  0.00     0.027 C 
BRANCH  14  15
HETATM   15  C1  UNL     1     -26.145 -10.805  20.468  1.00  0.00     0.229 C 
BRANCH  15  16
HETATM   16  N1  UNL     1     -26.450  -9.644  19.692  1.00  0.00    -0.079 N 
ATOM     17  H13 UNL     1     -26.304  -9.820  18.699  1.00  0.00     0.274 HD
ATOM     18  H12 UNL     1     -27.454  -9.465  19.684  1.00  0.00     0.274 HD
ATOM     19  H11 UNL     1     -25.936  -8.816  19.996  1.00  0.00     0.274 HD
ENDBRANCH  15  16
ENDBRANCH  14  15
ENDBRANCH  13  14
ENDBRANCH  12  13
ENDBRANCH   1  12
BRANCH   9  20
HETATM   20  C10 UNL     1     -23.518 -16.122  21.553  1.00  0.00     0.283 C 
HETATM   21  N4  UNL     1     -22.300 -16.700  21.956  1.00  0.00    -0.056 NA
HETATM   22  O2  UNL     1     -23.852 -16.218  20.353  1.00  0.00    -0.269 OA
ENDBRANCH   9  20
TORSDOF 6
ENDMDL
MODEL 3
REMARK VINA RESULT: -4.661024275      3.107      6.131
REMARK  6 active torsions:
REMARK  status: ('A' for Active; 'I' for Inactive)
REMARK    1  A    between atoms: N1_1  and  C1_5 
REMARK    2  A    between atoms: C1_5  and  C2_6 
REMARK    3  A    between atoms: C2_6  and  C3_7 
REMARK    4  A    between atoms: C3_7  and  C4_8 
REMARK    5  A    between atoms: C4_8  and  C5_9 
REMARK    6  A    between atoms: C9_17  and  C10_18 
ROOT
HETATM    1  C5  UNL     1     -25.289 -13.080  23.400  1.00  0.00     0.081 C 
HETATM    2  N2  UNL     1     -26.090 -13.288  24.456  1.00  0.00    -0.352 N 
ATOM      3  H2  UNL     1     -26.569 -12.466  24.824  1.00  0.00     0.166 HD
HETATM    4  C6  UNL     1     -26.342 -14.463  25.096  1.00  0.00     0.146 C 
HETATM    5  C7  UNL     1     -26.182 -15.740  24.570  1.00  0.00     0.213 C 
HETATM    6  O1  UNL     1     -26.813 -16.670  25.142  1.00  0.00    -0.285 OA
HETATM    7  C8  UNL     1     -25.392 -16.089  23.470  1.00  0.00     0.129 C 
HETATM    8  N3  UNL     1     -25.486 -17.453  23.099  1.00  0.00    -0.096 NA
HETATM    9  C9  UNL     1     -24.550 -15.293  22.717  1.00  0.00     0.127 C 
HETATM   10  N5  UNL     1     -24.446 -13.939  22.785  1.00  0.00    -0.340 N 
ATOM     11  H5  UNL     1     -23.640 -13.523  22.317  1.00  0.00     0.167 HD
ENDROOT
BRANCH   1  12
HETATM   12  C4  UNL     1     -25.344 -11.707  22.836  1.00  0.00     0.076 C 
BRANCH  12  13
HETATM   13  C3  UNL     1     -24.845 -11.785  21.418  1.00  0.00     0.009 C 
BRANCH  13  14
HETATM   14  C2  UNL     1     -25.945 -11.722  20.397  1.00  0.00     0.027 C 
BRANCH  14  15
HETATM   15  C1  UNL     1     -25.827 -12.960  19.527  1.00  0.00     0.229 C 
BRANCH  15  16
HETATM   16  N1  UNL     1     -24.471 -13.342  19.283  1.00  0.00    -0.079 N 
ATOM     17  H13 UNL     1     -24.113 -12.894  18.439  1.00  0.00     0.274 HD
ATOM     18  H12 UNL     1     -23.845 -12.923  19.971  1.00  0.00     0.274 HD
ATOM     19  H11 UNL     1     -24.344 -14.353  19.242  1.00  0.00     0.274 HD
ENDBRANCH  15  16
ENDBRANCH  14  15
ENDBRANCH  13  14
ENDBRANCH  12  13
ENDBRANCH   1  12
BRANCH   9  20
HETATM   20  C10 UNL     1     -23.696 -15.956  21.764  1.00  0.00     0.283 C 
HETATM   21  N4  UNL     1     -22.457 -16.502  22.144  1.00  0.00    -0.056 NA
HETATM   22  O2  UNL     1     -24.050 -16.058  20.571  1.00  0.00    -0.269 OA
ENDBRANCH   9  20
TORSDOF 6
ENDMDL
MODEL 4
REMARK VINA RESULT: -4.628832922      1.325      1.480
REMARK  6 active torsions:
REMARK  status: ('A' for Active; 'I' for Inactive)
REMARK    1  A    between atoms: N1_1  and  C1_5 
REMARK    2  A    between atoms: C1_5  and  C2_6 
REMARK    3  A    between atoms: C2_6  and  C3_7 
REMARK    4  A    between atoms: C3_7  and  C4_8 
REMARK    5  A    between atoms: C4_8  and  C5_9 
REMARK    6  A    between atoms: C9_17  and  C10_18 
ROOT
HETATM    1  C5  UNL     1     -26.008 -13.421  24.200  1.00  0.00     0.081 C 
HETATM    2  N2  UNL     1     -24.975 -13.036  23.436  1.00  0.00    -0.352 N 
ATOM      3  H2  UNL     1     -24.101 -13.542  23.575  1.00  0.00     0.166 HD
HETATM    4  C6  UNL     1     -24.952 -12.051  22.496  1.00  0.00     0.146 C 
HETATM    5  C7  UNL     1     -26.050 -11.526  21.824  1.00  0.00     0.213 C 
HETATM    6  O1  UNL     1     -25.816 -10.920  20.744  1.00  0.00    -0.285 OA
HETATM    7  C8  UNL     1     -27.386 -11.607  22.231  1.00  0.00     0.129 C 
HETATM    8  N3  UNL     1     -28.308 -11.059  21.305  1.00  0.00    -0.096 NA
HETATM    9  C9  UNL     1     -27.910 -12.141  23.394  1.00  0.00     0.127 C 
HETATM   10  N5  UNL     1     -27.234 -12.867  24.324  1.00  0.00    -0.340 N 
ATOM     11  H5  UNL     1     -27.707 -13.009  25.217  1.00  0.00     0.167 HD
ENDROOT
BRANCH   1  12
HETATM   12  C4  UNL     1     -25.756 -14.631  25.025  1.00  0.00     0.076 C 
BRANCH  12  13
HETATM   13  C3  UNL     1     -25.097 -14.175  26.300  1.00  0.00     0.009 C 
BRANCH  13  14
HETATM   14  C2  UNL     1     -25.682 -14.806  27.530  1.00  0.00     0.027 C 
BRANCH  14  15
HETATM   15  C1  UNL     1     -26.919 -15.572  27.101  1.00  0.00     0.229 C 
BRANCH  15  16
HETATM   16  N1  UNL     1     -27.772 -15.914  28.197  1.00  0.00    -0.079 N 
ATOM     17  H13 UNL     1     -28.009 -16.906  28.177  1.00  0.00     0.274 HD
ATOM     18  H12 UNL     1     -27.261 -15.883  29.079  1.00  0.00     0.274 HD
ATOM     19  H11 UNL     1     -28.612 -15.338  28.242  1.00  0.00     0.274 HD
ENDBRANCH  15  16
ENDBRANCH  14  15
ENDBRANCH  13  14
ENDBRANCH  12  13
ENDBRANCH   1  12
BRANCH   9  20
HETATM   20  C10 UNL     1     -29.308 -11.909  23.652  1.00  0.00     0.283 C 
HETATM   21  N4  UNL     1     -29.755 -10.729  24.274  1.00  0.00    -0.056 NA
HETATM   22  O2  UNL     1     -30.157 -12.763  23.320  1.00  0.00    -0.269 OA
ENDBRANCH   9  20
TORSDOF 6
ENDMDL
MODEL 5
REMARK VINA RESULT: -4.606912994      2.564      3.552
REMARK  6 active torsions:
REMARK  status: ('A' for Active; 'I' for Inactive)
REMARK    1  A    between atoms: N1_1  and  C1_5 
REMARK    2  A    between atoms: C1_5  and  C2_6 
REMARK    3  A    between atoms: C2_6  and  C3_7 
REMARK    4  A    between atoms: C3_7  and  C4_8 
REMARK    5  A    between atoms: C4_8  and  C5_9 
REMARK    6  A    between atoms: C9_17  and  C10_18 
ROOT
HETATM    1  C5  UNL     1     -25.995 -15.652  24.011  1.00  0.00     0.081 C 
HETATM    2  N2  UNL     1     -25.513 -16.753  23.415  1.00  0.00    -0.352 N 
ATOM      3  H2  UNL     1     -25.791 -17.643  23.827  1.00  0.00     0.166 HD
HETATM    4  C6  UNL     1     -24.698 -16.826  22.327  1.00  0.00     0.146 C 
HETATM    5  C7  UNL     1     -24.529 -15.847  21.354  1.00  0.00     0.213 C 
HETATM    6  O1  UNL     1     -24.055 -16.223  20.249  1.00  0.00    -0.285 OA
HETATM    7  C8  UNL     1     -24.837 -14.489  21.486  1.00  0.00     0.129 C 
HETATM    8  N3  UNL     1     -24.646 -13.735  20.302  1.00  0.00    -0.096 NA
HETATM    9  C9  UNL     1     -25.292 -13.804  22.597  1.00  0.00     0.127 C 
HETATM   10  N5  UNL     1     -25.708 -14.354  23.769  1.00  0.00    -0.340 N 
ATOM     11  H5  UNL     1     -25.814 -13.713  24.556  1.00  0.00     0.167 HD
ENDROOT
BRANCH   1  12
HETATM   12  C4  UNL     1     -26.985 -15.908  25.089  1.00  0.00     0.076 C 
BRANCH  12  13
HETATM   13  C3  UNL     1     -26.906 -14.754  26.053  1.00  0.00     0.009 C 
BRANCH  13  14
HETATM   14  C2  UNL     1     -26.156 -15.081  27.312  1.00  0.00     0.027 C 
BRANCH  14  15
HETATM   15  C1  UNL     1     -24.920 -14.202  27.344  1.00  0.00     0.229 C 
BRANCH  15  16
HETATM   16  N1  UNL     1     -24.958 -13.225  28.387  1.00  0.00    -0.079 N 
ATOM     17  H13 UNL     1     -25.007 -12.282  28.001  1.00  0.00     0.274 HD
ATOM     18  H12 UNL     1     -25.852 -13.251  28.878  1.00  0.00     0.274 HD
ATOM     19  H11 UNL     1     -24.180 -13.312  29.042  1.00  0.00     0.274 HD
ENDBRANCH  15  16
ENDBRANCH  14  15
ENDBRANCH  13  14
ENDBRANCH  12  13
ENDBRANCH   1  12
BRANCH   9  20
HETATM   20  C10 UNL     1     -25.333 -12.366  22.512  1.00  0.00     0.283 C 
HETATM   21  N4  UNL     1     -26.542 -11.677  22.309  1.00  0.00    -0.056 NA
HETATM   22  O2  UNL     1     -24.281 -11.701  22.619  1.00  0.00    -0.269 OA
ENDBRANCH   9  20
TORSDOF 6
ENDMDL
