MODEL 1
REMARK VINA RESULT: -5.038028835      0.000      0.000
REMARK  5 active torsions:
REMARK  status: ('A' for Active; 'I' for Inactive)
REMARK       I    between atoms: C1_2  and  N2_4 
REMARK    1  A    between atoms: N2_4  and  N3_6 
REMARK    2  A    between atoms: C2_8  and  C3_9 
REMARK    3  A    between atoms: C5_11  and  N4_12 
REMARK    4  A    between atoms: C7_18  and  N6_19 
REMARK    5  A    between atoms: N6_19  and  C8_21 
ROOT
HETATM    1  C3  UNL     1     -25.122 -13.904  23.331  1.00  0.00     0.027 A 
HETATM    2  C4  UNL     1     -25.559 -13.033  22.318  1.00  0.00     0.054 A 
HETATM    3  C5  UNL     1     -26.472 -12.065  22.572  1.00  0.00     0.119 A 
HETATM    4  C6  UNL     1     -26.989 -11.921  23.840  1.00  0.00     0.125 A 
HETATM    5  N5  UNL     1     -26.562 -12.753  24.780  1.00  0.00    -0.349 N 
ATOM      6  H5  UNL     1     -26.946 -12.642  25.719  1.00  0.00     0.167 HD
HETATM    7  C7  UNL     1     -25.643 -13.748  24.583  1.00  0.00     0.119 A 
ENDROOT
BRANCH   1   8
HETATM    8  C2  UNL     1     -24.150 -14.919  23.018  1.00  0.00     0.122 C 
HETATM    9  N3  UNL     1     -23.573 -15.224  21.936  1.00  0.00    -0.307 N 
ATOM     10  H3  UNL     1     -23.811 -14.675  21.109  1.00  0.00     0.186 HD
BRANCH   9  11
HETATM   11  N2  UNL     1     -22.640 -16.242  21.776  1.00  0.00    -0.254 N 
HETATM   12  C1  UNL     1     -21.840 -16.407  20.629  1.00  0.00     0.347 C 
HETATM   13  N1  UNL     1     -20.922 -17.475  20.564  1.00  0.00    -0.038 NA
HETATM   14  O1  UNL     1     -21.962 -15.598  19.685  1.00  0.00    -0.249 OA
ATOM     15  H2  UNL     1     -22.529 -16.912  22.537  1.00  0.00     0.191 HD
ENDBRANCH   9  11
ENDBRANCH   1   8
BRANCH   7  16
HETATM   16  N6  UNL     1     -25.288 -14.563  25.708  1.00  0.00    -0.320 N 
ATOM     17  H6  UNL     1     -24.608 -15.318  25.622  1.00  0.00     0.169 HD
BRANCH  16  18
HETATM   18  C8  UNL     1     -25.929 -14.274  26.963  1.00  0.00     0.354 C 
HETATM   19  O4  UNL     1     -25.505 -13.435  27.774  1.00  0.00    -0.283 OA
ENDBRANCH  16  18
ENDBRANCH   7  16
BRANCH   3  20
HETATM   20  N4  UNL     1     -26.898 -11.199  21.533  1.00  0.00    -0.114 N 
HETATM   21  O2  UNL     1     -28.123 -10.970  21.337  1.00  0.00    -0.532 OA
HETATM   22  O3  UNL     1     -25.983 -10.584  20.713  1.00  0.00    -0.532 OA
ENDBRANCH   3  20
TORSDOF 5
ENDMDL
MODEL 2
REMARK VINA RESULT: -4.955175868      2.115      6.393
REMARK  5 active torsions:
REMARK  status: ('A' for Active; 'I' for Inactive)
REMARK       I    between atoms: C1_2  and  N2_4 
REMARK    1  A    between atoms: N2_4  and  N3_6 
REMARK    2  A    between atoms: C2_8  and  C3_9 
REMARK    3  A    between atoms: C5_11  and  N4_12 
REMARK    4  A    between atoms: C7_18  and  N6_19 
REMARK    5  A    between atoms: N6_19  and  C8_21 
ROOT
HETATM    1  C3  UNL     1     -24.338 -15.304  21.918  1.00  0.00     0.027 A 
HETATM    2  C4  UNL     1     -23.449 -16.388  21.806  1.00  0.00     0.054 A 
HETATM    3  C5  UNL     1     -22.578 -16.475  20.773  1.00  0.00     0.119 A 
HETATM    4  C6  UNL     1     -22.551 -15.493  19.809  1.00  0.00     0.125 A 
HETATM    5  N5  UNL     1     -23.398 -14.480  19.934  1.00  0.00    -0.349 N 
ATOM      6  H5  UNL     1     -23.375 -13.753  19.218  1.00  0.00     0.167 HD
HETATM    7  C7  UNL     1     -24.300 -14.338  20.954  1.00  0.00     0.119 A 
ENDROOT
BRANCH   1   8
HETATM    8  C2  UNL     1     -25.248 -15.251  23.032  1.00  0.00     0.122 C 
HETATM    9  N3  UNL     1     -25.203 -14.614  24.123  1.00  0.00    -0.307 N 
ATOM     10  H3  UNL     1     -24.390 -14.018  24.282  1.00  0.00     0.186 HD
BRANCH   9  11
HETATM   11  N2  UNL     1     -26.167 -14.657  25.124  1.00  0.00    -0.254 N 
HETATM   12  C1  UNL     1     -25.890 -14.485  26.494  1.00  0.00     0.347 C 
HETATM   13  N1  UNL     1     -26.939 -14.546  27.433  1.00  0.00    -0.038 NA
HETATM   14  O1  UNL     1     -24.710 -14.281  26.852  1.00  0.00    -0.249 OA
ATOM     15  H2  UNL     1     -27.135 -14.823  24.849  1.00  0.00     0.191 HD
ENDBRANCH   9  11
ENDBRANCH   1   8
BRANCH   7  16
HETATM   16  N6  UNL     1     -25.146 -13.182  20.943  1.00  0.00    -0.320 N 
ATOM     17  H6  UNL     1     -26.085 -13.215  20.546  1.00  0.00     0.169 HD
BRANCH  16  18
HETATM   18  C8  UNL     1     -24.619 -11.971  21.514  1.00  0.00     0.354 C 
HETATM   19  O4  UNL     1     -24.454 -11.799  22.731  1.00  0.00    -0.283 OA
ENDBRANCH  16  18
ENDBRANCH   7  16
BRANCH   3  20
HETATM   20  N4  UNL     1     -21.691 -17.578  20.681  1.00  0.00    -0.114 N 
HETATM   21  O2  UNL     1     -22.105 -18.761  20.828  1.00  0.00    -0.532 OA
HETATM   22  O3  UNL     1     -20.354 -17.385  20.428  1.00  0.00    -0.532 OA
ENDBRANCH   3  20
TORSDOF 5
ENDMDL
MODEL 3
REMARK VINA RESULT: -4.947902346      1.590      4.018
REMARK  5 active torsions:
REMARK  status: ('A' for Active; 'I' for Inactive)
REMARK       I    between atoms: C1_2  and  N2_4 
REMARK    1  A    between atoms: N2_4  and  N3_6 
REMARK    2  A    between atoms: C2_8  and  C3_9 
REMARK    3  A    between atoms: C5_11  and  N4_12 
REMARK    4  A    between atoms: C7_18  and  N6_19 
REMARK    5  A    between atoms: N6_19  and  C8_21 
ROOT
HETATM    1  C3  UNL     1     -25.122 -14.659  23.393  1.00  0.00     0.027 A 
HETATM    2  C4  UNL     1     -25.236 -14.893  24.775  1.00  0.00     0.054 A 
HETATM    3  C5  UNL     1     -25.992 -14.090  25.561  1.00  0.00     0.119 A 
HETATM    4  C6  UNL     1     -26.666 -13.024  25.011  1.00  0.00     0.125 A 
HETATM    5  N5  UNL     1     -26.546 -12.822  23.706  1.00  0.00    -0.349 N 
ATOM      6  H5  UNL     1     -27.047 -12.031  23.302  1.00  0.00     0.167 HD
HETATM    7  C7  UNL     1     -25.797 -13.597  22.863  1.00  0.00     0.119 A 
ENDROOT
BRANCH   1   8
HETATM    8  C2  UNL     1     -24.308 -15.537  22.594  1.00  0.00     0.122 C 
HETATM    9  N3  UNL     1     -23.083 -15.498  22.286  1.00  0.00    -0.307 N 
ATOM     10  H3  UNL     1     -22.535 -14.718  22.649  1.00  0.00     0.186 HD
BRANCH   9  11
HETATM   11  N2  UNL     1     -22.419 -16.428  21.494  1.00  0.00    -0.254 N 
HETATM   12  C1  UNL     1     -22.080 -16.217  20.144  1.00  0.00     0.347 C 
HETATM   13  N1  UNL     1     -21.405 -17.225  19.426  1.00  0.00    -0.038 NA
HETATM   14  O1  UNL     1     -22.388 -15.132  19.606  1.00  0.00    -0.249 OA
ATOM     15  H2  UNL     1     -22.161 -17.319  21.918  1.00  0.00     0.191 HD
ENDBRANCH   9  11
ENDBRANCH   1   8
BRANCH   7  16
HETATM   16  N6  UNL     1     -25.772 -13.244  21.474  1.00  0.00    -0.320 N 
ATOM     17  H6  UNL     1     -26.301 -13.773  20.782  1.00  0.00     0.169 HD
BRANCH  16  18
HETATM   18  C8  UNL     1     -24.970 -12.111  21.094  1.00  0.00     0.354 C 
HETATM   19  O4  UNL     1     -24.140 -11.574  21.844  1.00  0.00    -0.283 OA
ENDBRANCH  16  18
ENDBRANCH   7  16
BRANCH   3  20
HETATM   20  N4  UNL     1     -26.091 -14.346  26.953  1.00  0.00    -0.114 N 
HETATM   21  O2  UNL     1     -27.198 -14.630  27.487  1.00  0.00    -0.532 OA
HETATM   22  O3  UNL     1     -24.977 -14.292  27.756  1.00  0.00    -0.532 OA
ENDBRANCH   3  20
TORSDOF 5
ENDMDL
MODEL 4
REMARK VINA RESULT: -4.910523881      2.247      5.903
REMARK  5 active torsions:
REMARK  status: ('A' for Active; 'I' for Inactive)
REMARK       I    between atoms: C1_2  and  N2_4 
REMARK    1  A    between atoms: N2_4  and  N3_6 
REMARK    2  A    between atoms: C2_8  and  C3_9 
REMARK    3  A    between atoms: C5_11  and  N4_12 
REMARK    4  A    between atoms: C7_18  and  N6_19 
REMARK    5  A    between atoms: N6_19  and  C8_21 
ROOT
HETATM    1  C3  UNL     1     -25.842 -14.130  24.202  1.00  0.00     0.027 A 
HETATM    2  C4  UNL     1     -25.082 -15.102  23.527  1.00  0.00     0.054 A 
HETATM    3  C5  UNL     1     -24.436 -14.809  22.374  1.00  0.00     0.119 A 
HETATM    4  C6  UNL     1     -24.515 -13.542  21.841  1.00  0.00     0.125 A 
HETATM    5  N5  UNL     1     -25.236 -12.641  22.495  1.00  0.00    -0.349 N 
ATOM      6  H5  UNL     1     -25.292 -11.702  22.098  1.00  0.00     0.167 HD
HETATM    7  C7  UNL     1     -25.910 -12.878  23.662  1.00  0.00     0.119 A 
ENDROOT
BRANCH   1   8
HETATM    8  C2  UNL     1     -26.513 -14.483  25.426  1.00  0.00     0.122 C 
HETATM    9  N3  UNL     1     -26.093 -15.026  26.487  1.00  0.00    -0.307 N 
ATOM     10  H3  UNL     1     -25.105 -15.277  26.523  1.00  0.00     0.186 HD
BRANCH   9  11
HETATM   11  N2  UNL     1     -26.864 -15.313  27.608  1.00  0.00    -0.254 N 
HETATM   12  C1  UNL     1     -27.431 -16.574  27.875  1.00  0.00     0.347 C 
HETATM   13  N1  UNL     1     -28.198 -16.763  29.042  1.00  0.00    -0.038 NA
HETATM   14  O1  UNL     1     -27.241 -17.506  27.066  1.00  0.00    -0.249 OA
ATOM     15  H2  UNL     1     -27.029 -14.562  28.278  1.00  0.00     0.191 HD
ENDBRANCH   9  11
ENDBRANCH   1   8
BRANCH   7  16
HETATM   16  N6  UNL     1     -26.645 -11.793  24.242  1.00  0.00    -0.320 N 
ATOM     17  H6  UNL     1     -26.371 -11.384  25.135  1.00  0.00     0.169 HD
BRANCH  16  18
HETATM   18  C8  UNL     1     -27.785 -11.302  23.515  1.00  0.00     0.354 C 
HETATM   19  O4  UNL     1     -27.825 -11.211  22.278  1.00  0.00    -0.283 OA
ENDBRANCH  16  18
ENDBRANCH   7  16
BRANCH   3  20
HETATM   20  N4  UNL     1     -23.677 -15.807  21.711  1.00  0.00    -0.114 N 
HETATM   21  O2  UNL     1     -24.030 -16.254  20.585  1.00  0.00    -0.532 OA
HETATM   22  O3  UNL     1     -22.533 -16.313  22.281  1.00  0.00    -0.532 OA
ENDBRANCH   3  20
TORSDOF 5
ENDMDL
MODEL 5
REMARK VINA RESULT: -4.900586371      1.639      4.223
REMARK  5 active torsions:
REMARK  status: ('A' for Active; 'I' for Inactive)
REMARK       I    between atoms: C1_2  and  N2_4 
REMARK    1  A    between atoms: N2_4  and  N3_6 
REMARK    2  A    between atoms: C2_8  and  C3_9 
REMARK    3  A    between atoms: C5_11  and  N4_12 
REMARK    4  A    between atoms: C7_18  and  N6_19 
REMARK    5  A    between atoms: N6_19  and  C8_21 
ROOT
HETATM    1  C3  UNL     1     -25.376 -14.329  23.280  1.00  0.00     0.027 A 
HETATM    2  C4  UNL     1     -25.247 -14.830  24.588  1.00  0.00     0.054 A 
HETATM    3  C5  UNL     1     -25.824 -14.202  25.639  1.00  0.00     0.119 A 
HETATM    4  C6  UNL     1     -26.552 -13.051  25.440  1.00  0.00     0.125 A 
HETATM    5  N5  UNL     1     -26.662 -12.596  24.199  1.00  0.00    -0.349 N 
ATOM      6  H5  UNL     1     -27.203 -11.743  24.054  1.00  0.00     0.167 HD
HETATM    7  C7  UNL     1     -26.102 -13.187  23.099  1.00  0.00     0.119 A 
ENDROOT
BRANCH   1   8
HETATM    8  C2  UNL     1     -24.747 -15.028  22.191  1.00  0.00     0.122 C 
HETATM    9  N3  UNL     1     -23.687 -14.796  21.544  1.00  0.00    -0.307 N 
ATOM     10  H3  UNL     1     -23.149 -13.971  21.811  1.00  0.00     0.186 HD
BRANCH   9  11
HETATM   11  N2  UNL     1     -23.191 -15.569  20.500  1.00  0.00    -0.254 N 
HETATM   12  C1  UNL     1     -22.319 -16.662  20.671  1.00  0.00     0.347 C 
HETATM   13  N1  UNL     1     -21.873 -17.383  19.546  1.00  0.00    -0.038 NA
HETATM   14  O1  UNL     1     -21.957 -16.971  21.826  1.00  0.00    -0.249 OA
ATOM     15  H2  UNL     1     -23.478 -15.330  19.551  1.00  0.00     0.191 HD
ENDBRANCH   9  11
ENDBRANCH   1   8
BRANCH   7  16
HETATM   16  N6  UNL     1     -26.316 -12.566  21.825  1.00  0.00    -0.320 N 
ATOM     17  H6  UNL     1     -27.105 -12.827  21.234  1.00  0.00     0.169 HD
BRANCH  16  18
HETATM   18  C8  UNL     1     -25.374 -11.560  21.412  1.00  0.00     0.354 C 
HETATM   19  O4  UNL     1     -24.170 -11.583  21.708  1.00  0.00    -0.283 OA
ENDBRANCH  16  18
ENDBRANCH   7  16
BRANCH   3  20
HETATM   20  N4  UNL     1     -25.678 -14.727  26.949  1.00  0.00    -0.114 N 
HETATM   21  O2  UNL     1     -24.813 -14.266  27.743  1.00  0.00    -0.532 OA
HETATM   22  O3  UNL     1     -26.479 -15.754  27.386  1.00  0.00    -0.532 OA
ENDBRANCH   3  20
TORSDOF 5
ENDMDL
