MODEL 1
REMARK VINA RESULT: -6.132483875      0.000      0.000
REMARK  4 active torsions:
REMARK  status: ('A' for Active; 'I' for Inactive)
REMARK    1  A    between atoms: C1_2  and  C2_4 
REMARK    2  A    between atoms: C4_6  and  C5_7 
REMARK    3  A    between atoms: C8_16  and  N4_17 
REMARK    4  A    between atoms: N4_17  and  C9_19 
ROOT
HETATM    1  C2  UNL     1     -26.138 -12.695  23.384  1.00  0.00     0.100 A 
HETATM    2  C3  UNL     1     -26.487 -13.317  24.571  1.00  0.00     0.049 A 
HETATM    3  C4  UNL     1     -25.923 -14.529  24.885  1.00  0.00     0.004 A 
HETATM    4  C7  UNL     1     -25.016 -15.054  23.957  1.00  0.00     0.062 A 
HETATM    5  C8  UNL     1     -24.680 -14.432  22.791  1.00  0.00     0.108 A 
HETATM    6  N5  UNL     1     -25.265 -13.228  22.521  1.00  0.00    -0.338 N 
ATOM      7  H5  UNL     1     -25.036 -12.735  21.658  1.00  0.00     0.167 HD
ENDROOT
BRANCH   3   8
HETATM    8  C5  UNL     1     -26.237 -15.250  26.113  1.00  0.00     0.136 A 
HETATM    9  N2  UNL     1     -26.823 -16.465  26.182  1.00  0.00    -0.235 N 
HETATM   10  O2  UNL     1     -26.952 -16.804  27.446  1.00  0.00    -0.153 OA
ATOM     11  H2  UNL     1     -27.118 -17.028  25.385  1.00  0.00     0.197 HD
HETATM   12  N3  UNL     1     -26.487 -15.889  28.218  1.00  0.00    -0.204 N 
HETATM   13  C6  UNL     1     -26.024 -14.885  27.427  1.00  0.00     0.296 A 
ATOM     14  H3  UNL     1     -26.470 -15.911  29.238  1.00  0.00     0.200 HD
HETATM   15  O3  UNL     1     -25.489 -13.802  27.779  1.00  0.00    -0.264 OA
ENDBRANCH   3   8
BRANCH   1  16
HETATM   16  C1  UNL     1     -26.759 -11.395  23.074  1.00  0.00     0.281 C 
HETATM   17  N1  UNL     1     -26.541 -10.810  21.797  1.00  0.00    -0.056 NA
HETATM   18  O1  UNL     1     -27.475 -10.804  23.923  1.00  0.00    -0.269 OA
ENDBRANCH   1  16
BRANCH   5  19
HETATM   19  N4  UNL     1     -23.755 -14.961  21.841  1.00  0.00    -0.320 N 
ATOM     20  H4  UNL     1     -23.369 -14.345  21.126  1.00  0.00     0.169 HD
BRANCH  19  21
HETATM   21  C9  UNL     1     -23.364 -16.313  21.867  1.00  0.00     0.354 C 
HETATM   22  O4  UNL     1     -22.189 -16.665  22.173  1.00  0.00    -0.283 OA
ENDBRANCH  19  21
ENDBRANCH   5  19
TORSDOF 4
ENDMDL
MODEL 2
REMARK VINA RESULT: -5.936980504      1.377      1.377
REMARK  4 active torsions:
REMARK  status: ('A' for Active; 'I' for Inactive)
REMARK    1  A    between atoms: C1_2  and  C2_4 
REMARK    2  A    between atoms: C4_6  and  C5_7 
REMARK    3  A    between atoms: C8_16  and  N4_17 
REMARK    4  A    between atoms: N4_17  and  C9_19 
ROOT
HETATM    1  C2  UNL     1     -26.335 -12.688  23.349  1.00  0.00     0.100 A 
HETATM    2  C3  UNL     1     -26.633 -13.307  24.552  1.00  0.00     0.049 A 
HETATM    3  C4  UNL     1     -26.003 -14.484  24.875  1.00  0.00     0.004 A 
HETATM    4  C7  UNL     1     -25.085 -14.977  23.941  1.00  0.00     0.062 A 
HETATM    5  C8  UNL     1     -24.800 -14.359  22.759  1.00  0.00     0.108 A 
HETATM    6  N5  UNL     1     -25.450 -13.191  22.480  1.00  0.00    -0.338 N 
ATOM      7  H5  UNL     1     -25.261 -12.701  21.606  1.00  0.00     0.167 HD
ENDROOT
BRANCH   3   8
HETATM    8  C5  UNL     1     -26.260 -15.199  26.120  1.00  0.00     0.136 A 
HETATM    9  N2  UNL     1     -26.820 -16.424  26.220  1.00  0.00    -0.235 N 
HETATM   10  O2  UNL     1     -26.898 -16.753  27.490  1.00  0.00    -0.153 OA
ATOM     11  H2  UNL     1     -27.131 -17.000  25.438  1.00  0.00     0.197 HD
HETATM   12  N3  UNL     1     -26.425 -15.822  28.238  1.00  0.00    -0.204 N 
HETATM   13  C6  UNL     1     -26.009 -14.818  27.422  1.00  0.00     0.296 A 
ATOM     14  H3  UNL     1     -26.372 -15.835  29.256  1.00  0.00     0.200 HD
HETATM   15  O3  UNL     1     -25.484 -13.721  27.745  1.00  0.00    -0.264 OA
ENDBRANCH   3   8
BRANCH   1  16
HETATM   16  C1  UNL     1     -27.027 -11.426  23.028  1.00  0.00     0.281 C 
HETATM   17  N1  UNL     1     -28.129 -11.019  23.827  1.00  0.00    -0.056 NA
HETATM   18  O1  UNL     1     -26.651 -10.714  22.063  1.00  0.00    -0.269 OA
ENDBRANCH   1  16
BRANCH   5  19
HETATM   19  N4  UNL     1     -23.865 -14.857  21.803  1.00  0.00    -0.320 N 
ATOM     20  H4  UNL     1     -22.981 -15.249  22.128  1.00  0.00     0.169 HD
BRANCH  19  21
HETATM   21  C9  UNL     1     -24.132 -14.820  20.421  1.00  0.00     0.354 C 
HETATM   22  O4  UNL     1     -24.128 -13.739  19.766  1.00  0.00    -0.283 OA
ENDBRANCH  19  21
ENDBRANCH   5  19
TORSDOF 4
ENDMDL
MODEL 3
REMARK VINA RESULT: -5.867793689      2.195      5.875
REMARK  4 active torsions:
REMARK  status: ('A' for Active; 'I' for Inactive)
REMARK    1  A    between atoms: C1_2  and  C2_4 
REMARK    2  A    between atoms: C4_6  and  C5_7 
REMARK    3  A    between atoms: C8_16  and  N4_17 
REMARK    4  A    between atoms: N4_17  and  C9_19 
ROOT
HETATM    1  C2  UNL     1     -26.854 -16.281  24.489  1.00  0.00     0.100 A 
HETATM    2  C3  UNL     1     -26.346 -15.467  23.489  1.00  0.00     0.049 A 
HETATM    3  C4  UNL     1     -25.594 -14.370  23.834  1.00  0.00     0.004 A 
HETATM    4  C7  UNL     1     -25.396 -14.156  25.202  1.00  0.00     0.062 A 
HETATM    5  C8  UNL     1     -25.901 -14.963  26.177  1.00  0.00     0.108 A 
HETATM    6  N5  UNL     1     -26.642 -16.042  25.789  1.00  0.00    -0.338 N 
ATOM      7  H5  UNL     1     -27.035 -16.668  26.491  1.00  0.00     0.167 HD
ENDROOT
BRANCH   3   8
HETATM    8  C5  UNL     1     -25.024 -13.464  22.844  1.00  0.00     0.136 A 
HETATM    9  N2  UNL     1     -24.891 -12.127  22.988  1.00  0.00    -0.235 N 
HETATM   10  O2  UNL     1     -24.339 -11.635  21.901  1.00  0.00    -0.153 OA
ATOM     11  H2  UNL     1     -25.173 -11.588  23.807  1.00  0.00     0.197 HD
HETATM   12  N3  UNL     1     -24.099 -12.562  21.046  1.00  0.00    -0.204 N 
HETATM   13  C6  UNL     1     -24.512 -13.737  21.592  1.00  0.00     0.296 A 
ATOM     14  H3  UNL     1     -23.676 -12.440  20.126  1.00  0.00     0.200 HD
HETATM   15  O3  UNL     1     -24.460 -14.888  21.089  1.00  0.00    -0.264 OA
ENDBRANCH   3   8
BRANCH   1  16
HETATM   16  C1  UNL     1     -27.657 -17.451  24.089  1.00  0.00     0.281 C 
HETATM   17  N1  UNL     1     -27.132 -18.754  24.299  1.00  0.00    -0.056 NA
HETATM   18  O1  UNL     1     -28.792 -17.305  23.569  1.00  0.00    -0.269 OA
ENDBRANCH   1  16
BRANCH   5  19
HETATM   19  N4  UNL     1     -25.702 -14.749  27.574  1.00  0.00    -0.320 N 
ATOM     20  H4  UNL     1     -26.288 -15.251  28.243  1.00  0.00     0.169 HD
BRANCH  19  21
HETATM   21  C9  UNL     1     -24.719 -13.864  28.053  1.00  0.00     0.354 C 
HETATM   22  O4  UNL     1     -25.004 -12.699  28.455  1.00  0.00    -0.283 OA
ENDBRANCH  19  21
ENDBRANCH   5  19
TORSDOF 4
ENDMDL
MODEL 4
REMARK VINA RESULT: -5.747927264      1.293      1.319
REMARK  4 active torsions:
REMARK  status: ('A' for Active; 'I' for Inactive)
REMARK    1  A    between atoms: C1_2  and  C2_4 
REMARK    2  A    between atoms: C4_6  and  C5_7 
REMARK    3  A    between atoms: C8_16  and  N4_17 
REMARK    4  A    between atoms: N4_17  and  C9_19 
ROOT
HETATM    1  C2  UNL     1     -25.288 -13.431  23.162  1.00  0.00     0.100 A 
HETATM    2  C3  UNL     1     -25.771 -13.770  24.415  1.00  0.00     0.049 A 
HETATM    3  C4  UNL     1     -25.878 -15.097  24.757  1.00  0.00     0.004 A 
HETATM    4  C7  UNL     1     -25.479 -16.024  23.787  1.00  0.00     0.062 A 
HETATM    5  C8  UNL     1     -25.005 -15.678  22.557  1.00  0.00     0.108 A 
HETATM    6  N5  UNL     1     -24.916 -14.348  22.261  1.00  0.00    -0.338 N 
ATOM      7  H5  UNL     1     -24.564 -14.052  21.351  1.00  0.00     0.167 HD
ENDROOT
BRANCH   3   8
HETATM    8  C5  UNL     1     -26.377 -15.539  26.053  1.00  0.00     0.136 A 
HETATM    9  N2  UNL     1     -27.068 -16.677  26.283  1.00  0.00    -0.235 N 
HETATM   10  O2  UNL     1     -27.355 -16.749  27.563  1.00  0.00    -0.153 OA
ATOM     11  H2  UNL     1     -27.325 -17.367  25.577  1.00  0.00     0.197 HD
HETATM   12  N3  UNL     1     -26.898 -15.731  28.197  1.00  0.00    -0.204 N 
HETATM   13  C6  UNL     1     -26.271 -14.935  27.290  1.00  0.00     0.296 A 
ATOM     14  H3  UNL     1     -26.988 -15.551  29.197  1.00  0.00     0.200 HD
HETATM   15  O3  UNL     1     -25.687 -13.839  27.490  1.00  0.00    -0.264 OA
ENDBRANCH   3   8
BRANCH   1  16
HETATM   16  C1  UNL     1     -25.185 -12.000  22.823  1.00  0.00     0.281 C 
HETATM   17  N1  UNL     1     -26.218 -11.116  23.234  1.00  0.00    -0.056 NA
HETATM   18  O1  UNL     1     -24.198 -11.560  22.180  1.00  0.00    -0.269 OA
ENDBRANCH   1  16
BRANCH   5  19
HETATM   19  N4  UNL     1     -24.596 -16.619  21.565  1.00  0.00    -0.320 N 
ATOM     20  H4  UNL     1     -25.302 -17.047  20.964  1.00  0.00     0.169 HD
BRANCH  19  21
HETATM   21  C9  UNL     1     -23.245 -16.971  21.393  1.00  0.00     0.354 C 
HETATM   22  O4  UNL     1     -22.331 -16.503  22.131  1.00  0.00    -0.283 OA
ENDBRANCH  19  21
ENDBRANCH   5  19
TORSDOF 4
ENDMDL
MODEL 5
REMARK VINA RESULT: -5.596448744      1.192      1.574
REMARK  4 active torsions:
REMARK  status: ('A' for Active; 'I' for Inactive)
REMARK    1  A    between atoms: C1_2  and  C2_4 
REMARK    2  A    between atoms: C4_6  and  C5_7 
REMARK    3  A    between atoms: C8_16  and  N4_17 
REMARK    4  A    between atoms: N4_17  and  C9_19 
ROOT
HETATM    1  C2  UNL     1     -26.202 -12.577  22.984  1.00  0.00     0.100 A 
HETATM    2  C3  UNL     1     -26.330 -12.958  24.310  1.00  0.00     0.049 A 
HETATM    3  C4  UNL     1     -25.603 -14.028  24.773  1.00  0.00     0.004 A 
HETATM    4  C7  UNL     1     -24.769 -14.664  23.846  1.00  0.00     0.062 A 
HETATM    5  C8  UNL     1     -24.652 -14.279  22.544  1.00  0.00     0.108 A 
HETATM    6  N5  UNL     1     -25.393 -13.210  22.127  1.00  0.00    -0.338 N 
ATOM      7  H5  UNL     1     -25.329 -12.894  21.160  1.00  0.00     0.167 HD
ENDROOT
BRANCH   3   8
HETATM    8  C5  UNL     1     -25.680 -14.494  26.152  1.00  0.00     0.136 A 
HETATM    9  N2  UNL     1     -24.840 -14.142  27.149  1.00  0.00    -0.235 N 
HETATM   10  O2  UNL     1     -25.209 -14.752  28.253  1.00  0.00    -0.153 OA
ATOM     11  H2  UNL     1     -24.047 -13.505  27.060  1.00  0.00     0.197 HD
HETATM   12  N3  UNL     1     -26.241 -15.487  28.050  1.00  0.00    -0.204 N 
HETATM   13  C6  UNL     1     -26.580 -15.361  26.740  1.00  0.00     0.296 A 
ATOM     14  H3  UNL     1     -26.720 -16.061  28.745  1.00  0.00     0.200 HD
HETATM   15  O3  UNL     1     -27.529 -15.912  26.125  1.00  0.00    -0.264 OA
ENDBRANCH   3   8
BRANCH   1  16
HETATM   16  C1  UNL     1     -26.993 -11.425  22.515  1.00  0.00     0.281 C 
HETATM   17  N1  UNL     1     -28.203 -11.098  23.185  1.00  0.00    -0.056 NA
HETATM   18  O1  UNL     1     -26.610 -10.736  21.536  1.00  0.00    -0.269 OA
ENDBRANCH   1  16
BRANCH   5  19
HETATM   19  N4  UNL     1     -23.803 -14.923  21.594  1.00  0.00    -0.320 N 
ATOM     20  H4  UNL     1     -23.465 -14.394  20.789  1.00  0.00     0.169 HD
BRANCH  19  21
HETATM   21  C9  UNL     1     -23.421 -16.270  21.739  1.00  0.00     0.354 C 
HETATM   22  O4  UNL     1     -22.236 -16.603  22.028  1.00  0.00    -0.283 OA
ENDBRANCH  19  21
ENDBRANCH   5  19
TORSDOF 4
ENDMDL
