MODEL 1
REMARK VINA RESULT: -7.612425697      0.000      0.000
REMARK  5 active torsions:
REMARK  status: ('A' for Active; 'I' for Inactive)
REMARK    1  A    between atoms: C2_2  and  C3_3 
REMARK    2  A    between atoms: C4_4  and  C5_5 
REMARK    3  A    between atoms: C5_5  and  C7_7 
REMARK    4  A    between atoms: C7_7  and  C8_8 
REMARK    5  A    between atoms: N2_11  and  N3_12 
ROOT
HETATM    1  C8  UNL     1      12.924  20.579   4.431  1.00  0.00     0.315 C 
HETATM    2  O1  UNL     1      12.754  19.230   4.771  1.00  0.00    -0.233 OA
HETATM    3  N1  UNL     1      11.430  19.035   4.461  1.00  0.00     0.045 NA
HETATM    4  N2  UNL     1      11.298  19.712   3.234  1.00  0.00     0.015 NA
HETATM    5  O2  UNL     1      12.140  20.745   3.272  1.00  0.00    -0.232 OA
ENDROOT
BRANCH   1   6
HETATM    6  C7  UNL     1      14.347  20.850   4.038  1.00  0.00     0.102 C 
BRANCH   6   7
HETATM    7  C5  UNL     1      14.755  22.183   4.520  1.00  0.00    -0.063 C 
HETATM    8  C6  UNL     1      14.560  22.651   5.731  1.00  0.00     0.019 C 
BRANCH   7   9
HETATM    9  C4  UNL     1      15.426  23.048   3.553  1.00  0.00     0.006 C 
HETATM   10  C3  UNL     1      16.443  22.611   2.855  1.00  0.00    -0.000 C 
BRANCH  10  11
HETATM   11  C2  UNL     1      17.096  23.481   1.901  1.00  0.00    -0.010 C 
HETATM   12  C1  UNL     1      18.413  23.427   1.667  1.00  0.00     0.011 C 
ENDBRANCH  10  11
ENDBRANCH   7   9
ENDBRANCH   6   7
ENDBRANCH   1   6
BRANCH   4  13
HETATM   13  N3  UNL     1      11.690  18.775   2.243  1.00  0.00    -0.323 NA
ATOM     14  H32 UNL     1      11.697  19.206   1.318  1.00  0.00     0.174 HD
ATOM     15  H31 UNL     1      12.657  18.537   2.463  1.00  0.00     0.174 HD
ENDBRANCH   4  13
TORSDOF 5
ENDMDL
MODEL 2
REMARK VINA RESULT: -7.611892834      2.209      2.628
REMARK  5 active torsions:
REMARK  status: ('A' for Active; 'I' for Inactive)
REMARK    1  A    between atoms: C2_2  and  C3_3 
REMARK    2  A    between atoms: C4_4  and  C5_5 
REMARK    3  A    between atoms: C5_5  and  C7_7 
REMARK    4  A    between atoms: C7_7  and  C8_8 
REMARK    5  A    between atoms: N2_11  and  N3_12 
ROOT
HETATM    1  C8  UNL     1      14.028  21.627   5.495  1.00  0.00     0.315 C 
HETATM    2  O1  UNL     1      13.459  21.463   4.225  1.00  0.00    -0.233 OA
HETATM    3  N1  UNL     1      12.133  21.286   4.541  1.00  0.00     0.045 NA
HETATM    4  N2  UNL     1      11.922  22.255   5.539  1.00  0.00     0.015 NA
HETATM    5  O2  UNL     1      13.069  22.371   6.210  1.00  0.00    -0.232 OA
ENDROOT
BRANCH   1   6
HETATM    6  C7  UNL     1      15.265  22.473   5.414  1.00  0.00     0.102 C 
BRANCH   6   7
HETATM    7  C5  UNL     1      16.404  21.653   4.961  1.00  0.00    -0.063 C 
HETATM    8  C6  UNL     1      16.863  20.582   5.565  1.00  0.00     0.019 C 
BRANCH   7   9
HETATM    9  C4  UNL     1      17.074  22.087   3.737  1.00  0.00     0.006 C 
HETATM   10  C3  UNL     1      16.472  22.885   2.891  1.00  0.00    -0.000 C 
BRANCH  10  11
HETATM   11  C2  UNL     1      17.150  23.307   1.684  1.00  0.00    -0.010 C 
HETATM   12  C1  UNL     1      18.475  23.489   1.634  1.00  0.00     0.011 C 
ENDBRANCH  10  11
ENDBRANCH   7   9
ENDBRANCH   6   7
ENDBRANCH   1   6
BRANCH   4  13
HETATM   13  N3  UNL     1      11.618  23.453   4.843  1.00  0.00    -0.323 NA
ATOM     14  H32 UNL     1      11.298  23.253   3.896  1.00  0.00     0.174 HD
ATOM     15  H31 UNL     1      10.827  23.862   5.341  1.00  0.00     0.174 HD
ENDBRANCH   4  13
TORSDOF 5
ENDMDL
MODEL 3
REMARK VINA RESULT: -7.571201527      2.014      2.561
REMARK  5 active torsions:
REMARK  status: ('A' for Active; 'I' for Inactive)
REMARK    1  A    between atoms: C2_2  and  C3_3 
REMARK    2  A    between atoms: C4_4  and  C5_5 
REMARK    3  A    between atoms: C5_5  and  C7_7 
REMARK    4  A    between atoms: C7_7  and  C8_8 
REMARK    5  A    between atoms: N2_11  and  N3_12 
ROOT
HETATM    1  C8  UNL     1      13.219  22.643   4.686  1.00  0.00     0.315 C 
HETATM    2  O1  UNL     1      12.306  23.605   5.139  1.00  0.00    -0.233 OA
HETATM    3  N1  UNL     1      11.157  23.215   4.493  1.00  0.00     0.045 NA
HETATM    4  N2  UNL     1      11.184  21.815   4.633  1.00  0.00     0.015 NA
HETATM    5  O2  UNL     1      12.468  21.453   4.626  1.00  0.00    -0.232 OA
ENDROOT
BRANCH   1   6
HETATM    6  C7  UNL     1      14.303  22.424   5.701  1.00  0.00     0.102 C 
BRANCH   6   7
HETATM    7  C5  UNL     1      15.557  22.047   5.021  1.00  0.00    -0.063 C 
HETATM    8  C6  UNL     1      16.447  21.196   5.475  1.00  0.00     0.019 C 
BRANCH   7   9
HETATM    9  C4  UNL     1      15.821  22.692   3.737  1.00  0.00     0.006 C 
HETATM   10  C3  UNL     1      16.980  22.557   3.145  1.00  0.00    -0.000 C 
BRANCH  10  11
HETATM   11  C2  UNL     1      17.225  23.201   1.873  1.00  0.00    -0.010 C 
HETATM   12  C1  UNL     1      18.446  23.603   1.498  1.00  0.00     0.011 C 
ENDBRANCH  10  11
ENDBRANCH   7   9
ENDBRANCH   6   7
ENDBRANCH   1   6
BRANCH   4  13
HETATM   13  N3  UNL     1      10.590  21.550   5.894  1.00  0.00    -0.323 NA
ATOM     14  H32 UNL     1      10.406  22.418   6.399  1.00  0.00     0.174 HD
ATOM     15  H31 UNL     1       9.683  21.134   5.685  1.00  0.00     0.174 HD
ENDBRANCH   4  13
TORSDOF 5
ENDMDL
MODEL 4
REMARK VINA RESULT: -7.465189512      1.742      1.978
REMARK  5 active torsions:
REMARK  status: ('A' for Active; 'I' for Inactive)
REMARK    1  A    between atoms: C2_2  and  C3_3 
REMARK    2  A    between atoms: C4_4  and  C5_5 
REMARK    3  A    between atoms: C5_5  and  C7_7 
REMARK    4  A    between atoms: C7_7  and  C8_8 
REMARK    5  A    between atoms: N2_11  and  N3_12 
ROOT
HETATM    1  C8  UNL     1      12.181  22.500   4.319  1.00  0.00     0.315 C 
HETATM    2  O1  UNL     1      11.497  22.231   5.513  1.00  0.00    -0.233 OA
HETATM    3  N1  UNL     1      10.200  22.505   5.151  1.00  0.00     0.045 NA
HETATM    4  N2  UNL     1      10.107  21.925   3.872  1.00  0.00     0.015 NA
HETATM    5  O2  UNL     1      11.312  22.038   3.311  1.00  0.00    -0.232 OA
ENDROOT
BRANCH   1   6
HETATM    6  C7  UNL     1      13.431  21.674   4.230  1.00  0.00     0.102 C 
BRANCH   6   7
HETATM    7  C5  UNL     1      14.599  22.492   4.606  1.00  0.00    -0.063 C 
HETATM    8  C6  UNL     1      15.072  22.637   5.821  1.00  0.00     0.019 C 
BRANCH   7   9
HETATM    9  C4  UNL     1      15.273  23.204   3.522  1.00  0.00     0.006 C 
HETATM   10  C3  UNL     1      16.374  22.734   2.994  1.00  0.00    -0.000 C 
BRANCH  10  11
HETATM   11  C2  UNL     1      17.028  23.450   1.921  1.00  0.00    -0.010 C 
HETATM   12  C1  UNL     1      18.351  23.389   1.721  1.00  0.00     0.011 C 
ENDBRANCH  10  11
ENDBRANCH   7   9
ENDBRANCH   6   7
ENDBRANCH   1   6
BRANCH   4  13
HETATM   13  N3  UNL     1       9.780  20.563   4.099  1.00  0.00    -0.323 NA
ATOM     14  H32 UNL     1       9.008  20.479   4.761  1.00  0.00     0.174 HD
ATOM     15  H31 UNL     1       9.437  20.215   3.204  1.00  0.00     0.174 HD
ENDBRANCH   4  13
TORSDOF 5
ENDMDL
MODEL 5
REMARK VINA RESULT: -7.451206801      1.368      1.502
REMARK  5 active torsions:
REMARK  status: ('A' for Active; 'I' for Inactive)
REMARK    1  A    between atoms: C2_2  and  C3_3 
REMARK    2  A    between atoms: C4_4  and  C5_5 
REMARK    3  A    between atoms: C5_5  and  C7_7 
REMARK    4  A    between atoms: C7_7  and  C8_8 
REMARK    5  A    between atoms: N2_11  and  N3_12 
ROOT
HETATM    1  C8  UNL     1      13.734  21.035   4.232  1.00  0.00     0.315 C 
HETATM    2  O1  UNL     1      12.541  21.102   4.966  1.00  0.00    -0.233 OA
HETATM    3  N1  UNL     1      11.602  21.051   3.964  1.00  0.00     0.045 NA
HETATM    4  N2  UNL     1      12.116  20.058   3.109  1.00  0.00     0.015 NA
HETATM    5  O2  UNL     1      13.446  20.137   3.185  1.00  0.00    -0.232 OA
ENDROOT
BRANCH   1   6
HETATM    6  C7  UNL     1      14.824  20.411   5.054  1.00  0.00     0.102 C 
BRANCH   6   7
HETATM    7  C5  UNL     1      16.071  21.185   4.901  1.00  0.00    -0.063 C 
HETATM    8  C6  UNL     1      17.127  21.094   5.674  1.00  0.00     0.019 C 
BRANCH   7   9
HETATM    9  C4  UNL     1      16.115  22.137   3.793  1.00  0.00     0.006 C 
HETATM   10  C3  UNL     1      17.239  22.391   3.173  1.00  0.00    -0.000 C 
BRANCH  10  11
HETATM   11  C2  UNL     1      17.265  23.336   2.077  1.00  0.00    -0.010 C 
HETATM   12  C1  UNL     1      18.397  23.661   1.439  1.00  0.00     0.011 C 
ENDBRANCH  10  11
ENDBRANCH   7   9
ENDBRANCH   6   7
ENDBRANCH   1   6
BRANCH   4  13
HETATM   13  N3  UNL     1      11.651  18.826   3.638  1.00  0.00    -0.323 NA
ATOM     14  H32 UNL     1      10.744  18.580   3.243  1.00  0.00     0.174 HD
ATOM     15  H31 UNL     1      12.315  18.124   3.312  1.00  0.00     0.174 HD
ENDBRANCH   4  13
TORSDOF 5
ENDMDL
