MODEL 1
REMARK VINA RESULT: -7.388620434      0.000      0.000
REMARK  4 active torsions:
REMARK  status: ('A' for Active; 'I' for Inactive)
REMARK       I    between atoms: C1_2  and  N2_4 
REMARK    1  A    between atoms: N3_6  and  N4_7 
REMARK    2  A    between atoms: N3_6  and  C2_13 
REMARK    3  A    between atoms: N4_7  and  N5_9 
REMARK    4  A    between atoms: N5_9  and  O2_11 
ROOT
HETATM    1  N1  UNL     1      18.368  23.265   1.893  1.00  0.00    -0.038 NA
HETATM    2  C1  UNL     1      17.348  22.849   2.785  1.00  0.00     0.348 C 
HETATM    3  O1  UNL     1      16.164  23.226   2.645  1.00  0.00    -0.249 OA
HETATM    4  N2  UNL     1      17.694  22.002   3.831  1.00  0.00    -0.229 N 
ATOM      5  H2  UNL     1      18.682  21.747   3.838  1.00  0.00     0.193 HD
HETATM    6  N3  UNL     1      17.053  21.500   4.747  1.00  0.00    -0.153 N 
ENDROOT
BRANCH   6   7
HETATM    7  N4  UNL     1      17.756  20.665   5.653  1.00  0.00    -0.199 N 
ATOM      8  H4  UNL     1      18.746  20.803   5.855  1.00  0.00     0.212 HD
BRANCH   7   9
HETATM    9  N5  UNL     1      17.014  19.640   6.257  1.00  0.00    -0.194 N 
ATOM     10  H5  UNL     1      16.496  19.831   7.114  1.00  0.00     0.217 HD
BRANCH   9  11
HETATM   11  O2  UNL     1      16.980  18.504   5.763  1.00  0.00    -0.273 OA
ATOM     12  H2  UNL     1      16.287  17.894   5.990  1.00  0.00     0.246 HD
ENDBRANCH   9  11
ENDBRANCH   7   9
ENDBRANCH   6   7
BRANCH   6  13
HETATM   13  C2  UNL     1      15.681  21.671   5.001  1.00  0.00     0.187 A 
HETATM   14  C3  UNL     1      15.100  22.661   5.784  1.00  0.00     0.062 A 
HETATM   15  C4  UNL     1      13.739  22.454   5.759  1.00  0.00     0.029 A 
HETATM   16  C5  UNL     1      13.551  21.340   4.957  1.00  0.00     0.144 A 
HETATM   17  O3  UNL     1      14.714  20.921   4.539  1.00  0.00    -0.303 OA
ENDBRANCH   6  13
TORSDOF 4
ENDMDL
MODEL 2
REMARK VINA RESULT: -6.510302657      2.928      4.487
REMARK  4 active torsions:
REMARK  status: ('A' for Active; 'I' for Inactive)
REMARK       I    between atoms: C1_2  and  N2_4 
REMARK    1  A    between atoms: N3_6  and  N4_7 
REMARK    2  A    between atoms: N3_6  and  C2_13 
REMARK    3  A    between atoms: N4_7  and  N5_9 
REMARK    4  A    between atoms: N5_9  and  O2_11 
ROOT
HETATM    1  N1  UNL     1      16.142  17.689   6.773  1.00  0.00    -0.038 NA
HETATM    2  C1  UNL     1      15.799  18.857   6.047  1.00  0.00     0.348 C 
HETATM    3  O1  UNL     1      16.561  19.847   6.006  1.00  0.00    -0.249 OA
HETATM    4  N2  UNL     1      14.585  18.879   5.373  1.00  0.00    -0.229 N 
ATOM      5  H2  UNL     1      14.054  18.013   5.463  1.00  0.00     0.193 HD
HETATM    6  N3  UNL     1      14.022  19.729   4.692  1.00  0.00    -0.153 N 
ENDROOT
BRANCH   6   7
HETATM    7  N4  UNL     1      12.756  19.394   4.147  1.00  0.00    -0.199 N 
ATOM      8  H4  UNL     1      12.025  18.963   4.711  1.00  0.00     0.212 HD
BRANCH   7   9
HETATM    9  N5  UNL     1      12.566  19.690   2.790  1.00  0.00    -0.194 N 
ATOM     10  H5  UNL     1      12.835  20.606   2.432  1.00  0.00     0.217 HD
BRANCH   9  11
HETATM   11  O2  UNL     1      12.076  18.853   2.019  1.00  0.00    -0.273 OA
ATOM     12  H2  UNL     1      12.572  18.089   1.748  1.00  0.00     0.246 HD
ENDBRANCH   9  11
ENDBRANCH   7   9
ENDBRANCH   6   7
BRANCH   6  13
HETATM   13  C2  UNL     1      14.501  21.017   4.397  1.00  0.00     0.187 A 
HETATM   14  C3  UNL     1      14.226  22.185   5.099  1.00  0.00     0.062 A 
HETATM   15  C4  UNL     1      14.897  23.208   4.467  1.00  0.00     0.029 A 
HETATM   16  C5  UNL     1      15.555  22.614   3.403  1.00  0.00     0.144 A 
HETATM   17  O3  UNL     1      15.292  21.336   3.405  1.00  0.00    -0.303 OA
ENDBRANCH   6  13
TORSDOF 4
ENDMDL
MODEL 3
REMARK VINA RESULT: -6.443623746      1.322      1.421
REMARK  4 active torsions:
REMARK  status: ('A' for Active; 'I' for Inactive)
REMARK       I    between atoms: C1_2  and  N2_4 
REMARK    1  A    between atoms: N3_6  and  N4_7 
REMARK    2  A    between atoms: N3_6  and  C2_13 
REMARK    3  A    between atoms: N4_7  and  N5_9 
REMARK    4  A    between atoms: N5_9  and  O2_11 
ROOT
HETATM    1  N1  UNL     1      17.888  23.089   2.336  1.00  0.00    -0.038 NA
HETATM    2  C1  UNL     1      16.662  22.854   3.008  1.00  0.00     0.348 C 
HETATM    3  O1  UNL     1      15.677  23.607   2.852  1.00  0.00    -0.249 OA
HETATM    4  N2  UNL     1      16.576  21.755   3.853  1.00  0.00    -0.229 N 
ATOM      5  H2  UNL     1      17.433  21.203   3.891  1.00  0.00     0.193 HD
HETATM    6  N3  UNL     1      15.679  21.314   4.563  1.00  0.00    -0.153 N 
ENDROOT
BRANCH   6   7
HETATM    7  N4  UNL     1      15.956  20.139   5.309  1.00  0.00    -0.199 N 
ATOM      8  H4  UNL     1      15.252  19.414   5.451  1.00  0.00     0.212 HD
BRANCH   7   9
HETATM    9  N5  UNL     1      17.249  20.030   5.839  1.00  0.00    -0.194 N 
ATOM     10  H5  UNL     1      17.703  19.117   5.873  1.00  0.00     0.217 HD
BRANCH   9  11
HETATM   11  O2  UNL     1      17.847  21.026   6.269  1.00  0.00    -0.273 OA
ATOM     12  H2  UNL     1      18.702  20.944   6.674  1.00  0.00     0.246 HD
ENDBRANCH   9  11
ENDBRANCH   7   9
ENDBRANCH   6   7
BRANCH   6  13
HETATM   13  C2  UNL     1      14.394  21.859   4.723  1.00  0.00     0.187 A 
HETATM   14  C3  UNL     1      13.967  22.689   5.753  1.00  0.00     0.062 A 
HETATM   15  C4  UNL     1      12.643  22.985   5.518  1.00  0.00     0.029 A 
HETATM   16  C5  UNL     1      12.320  22.317   4.347  1.00  0.00     0.144 A 
HETATM   17  O3  UNL     1      13.375  21.675   3.923  1.00  0.00    -0.303 OA
ENDBRANCH   6  13
TORSDOF 4
ENDMDL
MODEL 4
REMARK VINA RESULT: -6.198007013      5.059      6.116
REMARK  4 active torsions:
REMARK  status: ('A' for Active; 'I' for Inactive)
REMARK       I    between atoms: C1_2  and  N2_4 
REMARK    1  A    between atoms: N3_6  and  N4_7 
REMARK    2  A    between atoms: N3_6  and  C2_13 
REMARK    3  A    between atoms: N4_7  and  N5_9 
REMARK    4  A    between atoms: N5_9  and  O2_11 
ROOT
HETATM    1  N1  UNL     1      14.723  19.815   4.879  1.00  0.00    -0.038 NA
HETATM    2  C1  UNL     1      13.431  20.127   4.386  1.00  0.00     0.348 C 
HETATM    3  O1  UNL     1      13.233  21.120   3.653  1.00  0.00    -0.249 OA
HETATM    4  N2  UNL     1      12.375  19.295   4.737  1.00  0.00    -0.229 N 
ATOM      5  H2  UNL     1      12.654  18.508   5.323  1.00  0.00     0.193 HD
HETATM    6  N3  UNL     1      11.175  19.315   4.485  1.00  0.00    -0.153 N 
ENDROOT
BRANCH   6   7
HETATM    7  N4  UNL     1      10.378  18.275   5.028  1.00  0.00    -0.199 N 
ATOM      8  H4  UNL     1      10.730  17.648   5.752  1.00  0.00     0.212 HD
BRANCH   7   9
HETATM    9  N5  UNL     1       9.078  18.157   4.517  1.00  0.00    -0.194 N 
ATOM     10  H5  UNL     1       8.313  18.658   4.967  1.00  0.00     0.217 HD
BRANCH   9  11
HETATM   11  O2  UNL     1       8.846  17.452   3.525  1.00  0.00    -0.273 OA
ATOM     12  H2  UNL     1       7.987  17.069   3.388  1.00  0.00     0.246 HD
ENDBRANCH   9  11
ENDBRANCH   7   9
ENDBRANCH   6   7
BRANCH   6  13
HETATM   13  C2  UNL     1      10.498  20.274   3.712  1.00  0.00     0.187 A 
HETATM   14  C3  UNL     1      10.104  21.542   4.122  1.00  0.00     0.062 A 
HETATM   15  C4  UNL     1       9.476  22.140   3.053  1.00  0.00     0.029 A 
HETATM   16  C5  UNL     1       9.516  21.203   2.032  1.00  0.00     0.144 A 
HETATM   17  O3  UNL     1      10.122  20.132   2.467  1.00  0.00    -0.303 OA
ENDBRANCH   6  13
TORSDOF 4
ENDMDL
MODEL 5
REMARK VINA RESULT: -6.182105085      2.600      3.123
REMARK  4 active torsions:
REMARK  status: ('A' for Active; 'I' for Inactive)
REMARK       I    between atoms: C1_2  and  N2_4 
REMARK    1  A    between atoms: N3_6  and  N4_7 
REMARK    2  A    between atoms: N3_6  and  C2_13 
REMARK    3  A    between atoms: N4_7  and  N5_9 
REMARK    4  A    between atoms: N5_9  and  O2_11 
ROOT
HETATM    1  N1  UNL     1      17.198  22.437   3.112  1.00  0.00    -0.038 NA
HETATM    2  C1  UNL     1      15.854  22.461   3.562  1.00  0.00     0.348 C 
HETATM    3  O1  UNL     1      15.200  23.525   3.609  1.00  0.00    -0.249 OA
HETATM    4  N2  UNL     1      15.270  21.263   3.953  1.00  0.00    -0.229 N 
ATOM      5  H2  UNL     1      15.890  20.458   3.858  1.00  0.00     0.193 HD
HETATM    6  N3  UNL     1      14.161  20.976   4.390  1.00  0.00    -0.153 N 
ENDROOT
BRANCH   6   7
HETATM    7  N4  UNL     1      13.911  19.613   4.690  1.00  0.00    -0.199 N 
ATOM      8  H4  UNL     1      14.647  18.991   5.026  1.00  0.00     0.212 HD
BRANCH   7   9
HETATM    9  N5  UNL     1      12.595  19.166   4.500  1.00  0.00    -0.194 N 
ATOM     10  H5  UNL     1      12.033  18.899   5.308  1.00  0.00     0.217 HD
BRANCH   9  11
HETATM   11  O2  UNL     1      12.107  19.090   3.365  1.00  0.00    -0.273 OA
ATOM     12  H2  UNL     1      11.855  18.251   2.996  1.00  0.00     0.246 HD
ENDBRANCH   9  11
ENDBRANCH   7   9
ENDBRANCH   6   7
BRANCH   6  13
HETATM   13  C2  UNL     1      13.102  21.868   4.635  1.00  0.00     0.187 A 
HETATM   14  C3  UNL     1      12.874  22.583   5.805  1.00  0.00     0.062 A 
HETATM   15  C4  UNL     1      11.732  23.328   5.611  1.00  0.00     0.029 A 
HETATM   16  C5  UNL     1      11.314  23.032   4.324  1.00  0.00     0.144 A 
HETATM   17  O3  UNL     1      12.146  22.175   3.797  1.00  0.00    -0.303 OA
ENDBRANCH   6  13
TORSDOF 4
ENDMDL
