MODEL 1
REMARK VINA RESULT: -6.512836840      0.000      0.000
REMARK  5 active torsions:
REMARK  status: ('A' for Active; 'I' for Inactive)
REMARK    1  A    between atoms: C2_2  and  C3_3 
REMARK    2  A    between atoms: C3_3  and  N1_4 
REMARK    3  A    between atoms: N1_4  and  C4_6 
REMARK    4  A    between atoms: C4_6  and  C6_8 
REMARK    5  A    between atoms: N2_13  and  O3_15 
ROOT
HETATM    1  N1  UNL     1      14.992  21.430   3.720  1.00  0.00    -0.390 N 
ATOM      2  H1  UNL     1      15.222  20.693   3.054  1.00  0.00     0.159 HD
ENDROOT
BRANCH   1   3
HETATM    3  C3  UNL     1      15.583  22.690   3.572  1.00  0.00     0.110 C 
BRANCH   3   4
HETATM    4  C2  UNL     1      16.950  22.705   3.032  1.00  0.00     0.043 C 
HETATM    5  C1  UNL     1      17.341  23.408   1.790  1.00  0.00     0.071 C 
HETATM    6  N2  UNL     1      17.923  22.075   3.639  1.00  0.00    -0.273 N 
ATOM      7  H2  UNL     1      18.862  22.101   3.243  1.00  0.00     0.194 HD
BRANCH   6   8
HETATM    8  O3  UNL     1      17.700  21.381   4.802  1.00  0.00    -0.290 OA
ATOM      9  H3  UNL     1      17.362  21.817   5.575  1.00  0.00     0.244 HD
ENDBRANCH   6   8
ENDBRANCH   3   4
ENDBRANCH   1   3
BRANCH   1  10
HETATM   10  C4  UNL     1      14.092  21.155   4.760  1.00  0.00     0.109 C 
HETATM   11  C5  UNL     1      13.207  19.941   4.514  1.00  0.00     0.035 C 
BRANCH  10  12
HETATM   12  C6  UNL     1      13.119  22.313   4.839  1.00  0.00     0.184 C 
HETATM   13  C7  UNL     1      11.848  22.071   4.096  1.00  0.00     0.066 C 
HETATM   14  C8  UNL     1      10.904  22.958   4.922  1.00  0.00     0.212 C 
HETATM   15  O1  UNL     1      11.736  23.465   5.922  1.00  0.00    -0.240 OA
HETATM   16  O2  UNL     1      12.668  22.546   6.121  1.00  0.00    -0.234 OA
ENDBRANCH  10  12
ENDBRANCH   1  10
TORSDOF 5
ENDMDL
MODEL 2
REMARK VINA RESULT: -6.476785367      1.175      1.223
REMARK  5 active torsions:
REMARK  status: ('A' for Active; 'I' for Inactive)
REMARK    1  A    between atoms: C2_2  and  C3_3 
REMARK    2  A    between atoms: C3_3  and  N1_4 
REMARK    3  A    between atoms: N1_4  and  C4_6 
REMARK    4  A    between atoms: C4_6  and  C6_8 
REMARK    5  A    between atoms: N2_13  and  O3_15 
ROOT
HETATM    1  N1  UNL     1      14.889  21.662   3.740  1.00  0.00    -0.390 N 
ATOM      2  H1  UNL     1      14.684  21.144   2.885  1.00  0.00     0.159 HD
ENDROOT
BRANCH   1   3
HETATM    3  C3  UNL     1      15.634  22.844   3.657  1.00  0.00     0.110 C 
BRANCH   3   4
HETATM    4  C2  UNL     1      16.960  22.731   3.034  1.00  0.00     0.043 C 
HETATM    5  C1  UNL     1      17.324  23.357   1.744  1.00  0.00     0.071 C 
HETATM    6  N2  UNL     1      17.919  22.047   3.605  1.00  0.00    -0.273 N 
ATOM      7  H2  UNL     1      18.830  21.985   3.151  1.00  0.00     0.194 HD
BRANCH   6   8
HETATM    8  O3  UNL     1      17.718  21.414   4.806  1.00  0.00    -0.290 OA
ATOM      9  H3  UNL     1      17.872  20.481   4.899  1.00  0.00     0.244 HD
ENDBRANCH   6   8
ENDBRANCH   3   4
ENDBRANCH   1   3
BRANCH   1  10
HETATM   10  C4  UNL     1      14.419  21.171   4.966  1.00  0.00     0.109 C 
HETATM   11  C5  UNL     1      14.553  19.662   5.128  1.00  0.00     0.035 C 
BRANCH  10  12
HETATM   12  C6  UNL     1      12.925  21.417   5.013  1.00  0.00     0.184 C 
HETATM   13  C7  UNL     1      12.551  22.646   5.772  1.00  0.00     0.066 C 
HETATM   14  C8  UNL     1      11.239  22.994   5.052  1.00  0.00     0.212 C 
HETATM   15  O1  UNL     1      11.140  22.003   4.073  1.00  0.00    -0.240 OA
HETATM   16  O2  UNL     1      12.385  21.666   3.769  1.00  0.00    -0.234 OA
ENDBRANCH  10  12
ENDBRANCH   1  10
TORSDOF 5
ENDMDL
MODEL 3
REMARK VINA RESULT: -6.271834097      1.268      1.702
REMARK  5 active torsions:
REMARK  status: ('A' for Active; 'I' for Inactive)
REMARK    1  A    between atoms: C2_2  and  C3_3 
REMARK    2  A    between atoms: C3_3  and  N1_4 
REMARK    3  A    between atoms: N1_4  and  C4_6 
REMARK    4  A    between atoms: C4_6  and  C6_8 
REMARK    5  A    between atoms: N2_13  and  O3_15 
ROOT
HETATM    1  N1  UNL     1      14.189  22.043   3.740  1.00  0.00    -0.390 N 
ATOM      2  H1  UNL     1      13.957  21.896   2.758  1.00  0.00     0.159 HD
ENDROOT
BRANCH   1   3
HETATM    3  C3  UNL     1      15.332  21.433   4.269  1.00  0.00     0.110 C 
BRANCH   3   4
HETATM    4  C2  UNL     1      16.621  21.962   3.803  1.00  0.00     0.043 C 
HETATM    5  C1  UNL     1      16.771  22.880   2.652  1.00  0.00     0.071 C 
HETATM    6  N2  UNL     1      17.741  21.637   4.399  1.00  0.00    -0.273 N 
ATOM      7  H2  UNL     1      18.621  22.018   4.054  1.00  0.00     0.194 HD
BRANCH   6   8
HETATM    8  O3  UNL     1      17.747  20.792   5.480  1.00  0.00    -0.290 OA
ATOM      9  H3  UNL     1      17.146  20.059   5.532  1.00  0.00     0.244 HD
ENDBRANCH   6   8
ENDBRANCH   3   4
ENDBRANCH   1   3
BRANCH   1  10
HETATM   10  C4  UNL     1      13.352  22.850   4.525  1.00  0.00     0.109 C 
HETATM   11  C5  UNL     1      13.383  22.522   6.012  1.00  0.00     0.035 C 
BRANCH  10  12
HETATM   12  C6  UNL     1      11.924  22.563   4.112  1.00  0.00     0.184 C 
HETATM   13  C7  UNL     1      11.660  21.117   3.854  1.00  0.00     0.066 C 
HETATM   14  C8  UNL     1      10.163  21.072   4.195  1.00  0.00     0.212 C 
HETATM   15  O1  UNL     1       9.886  22.382   4.589  1.00  0.00    -0.240 OA
HETATM   16  O2  UNL     1      11.011  22.853   5.105  1.00  0.00    -0.234 OA
ENDBRANCH  10  12
ENDBRANCH   1  10
TORSDOF 5
ENDMDL
MODEL 4
REMARK VINA RESULT: -6.149900995      1.706      2.332
REMARK  5 active torsions:
REMARK  status: ('A' for Active; 'I' for Inactive)
REMARK    1  A    between atoms: C2_2  and  C3_3 
REMARK    2  A    between atoms: C3_3  and  N1_4 
REMARK    3  A    between atoms: N1_4  and  C4_6 
REMARK    4  A    between atoms: C4_6  and  C6_8 
REMARK    5  A    between atoms: N2_13  and  O3_15 
ROOT
HETATM    1  N1  UNL     1      14.260  21.462   4.592  1.00  0.00    -0.390 N 
ATOM      2  H1  UNL     1      14.333  20.505   4.245  1.00  0.00     0.159 HD
ENDROOT
BRANCH   1   3
HETATM    3  C3  UNL     1      15.407  22.101   5.074  1.00  0.00     0.110 C 
BRANCH   3   4
HETATM    4  C2  UNL     1      16.609  21.995   4.234  1.00  0.00     0.043 C 
HETATM    5  C1  UNL     1      16.705  22.531   2.858  1.00  0.00     0.071 C 
HETATM    6  N2  UNL     1      17.690  21.401   4.672  1.00  0.00    -0.273 N 
ATOM      7  H2  UNL     1      18.509  21.341   4.068  1.00  0.00     0.194 HD
BRANCH   6   8
HETATM    8  O3  UNL     1      17.738  20.857   5.931  1.00  0.00    -0.290 OA
ATOM      9  H3  UNL     1      17.908  19.932   6.059  1.00  0.00     0.244 HD
ENDBRANCH   6   8
ENDBRANCH   3   4
ENDBRANCH   1   3
BRANCH   1  10
HETATM   10  C4  UNL     1      13.012  22.101   4.572  1.00  0.00     0.109 C 
HETATM   11  C5  UNL     1      12.598  22.705   5.907  1.00  0.00     0.035 C 
BRANCH  10  12
HETATM   12  C6  UNL     1      11.962  21.043   4.303  1.00  0.00     0.184 C 
HETATM   13  C7  UNL     1      12.473  19.649   4.453  1.00  0.00     0.066 C 
HETATM   14  C8  UNL     1      11.165  18.945   4.847  1.00  0.00     0.212 C 
HETATM   15  O1  UNL     1      10.240  19.990   4.884  1.00  0.00    -0.240 OA
HETATM   16  O2  UNL     1      10.926  21.074   5.213  1.00  0.00    -0.234 OA
ENDBRANCH  10  12
ENDBRANCH   1  10
TORSDOF 5
ENDMDL
MODEL 5
REMARK VINA RESULT: -6.130717482      2.916      5.321
REMARK  5 active torsions:
REMARK  status: ('A' for Active; 'I' for Inactive)
REMARK    1  A    between atoms: C2_2  and  C3_3 
REMARK    2  A    between atoms: C3_3  and  N1_4 
REMARK    3  A    between atoms: N1_4  and  C4_6 
REMARK    4  A    between atoms: C4_6  and  C6_8 
REMARK    5  A    between atoms: N2_13  and  O3_15 
ROOT
HETATM    1  N1  UNL     1      12.229  20.737   4.228  1.00  0.00    -0.390 N 
ATOM      2  H1  UNL     1      11.899  21.157   3.359  1.00  0.00     0.159 HD
ENDROOT
BRANCH   1   3
HETATM    3  C3  UNL     1      11.908  19.404   4.505  1.00  0.00     0.110 C 
BRANCH   3   4
HETATM    4  C2  UNL     1      11.104  18.707   3.491  1.00  0.00     0.043 C 
HETATM    5  C1  UNL     1       9.790  18.083   3.762  1.00  0.00     0.071 C 
HETATM    6  N2  UNL     1      11.522  18.598   2.255  1.00  0.00    -0.273 N 
ATOM      7  H2  UNL     1      10.945  18.109   1.572  1.00  0.00     0.194 HD
BRANCH   6   8
HETATM    8  O3  UNL     1      12.725  19.131   1.865  1.00  0.00    -0.290 OA
ATOM      9  H3  UNL     1      12.819  20.062   1.704  1.00  0.00     0.244 HD
ENDBRANCH   6   8
ENDBRANCH   3   4
ENDBRANCH   1   3
BRANCH   1  10
HETATM   10  C4  UNL     1      12.993  21.512   5.113  1.00  0.00     0.109 C 
HETATM   11  C5  UNL     1      12.305  22.788   5.580  1.00  0.00     0.035 C 
BRANCH  10  12
HETATM   12  C6  UNL     1      14.210  22.002   4.357  1.00  0.00     0.184 C 
HETATM   13  C7  UNL     1      15.396  22.237   5.231  1.00  0.00     0.066 C 
HETATM   14  C8  UNL     1      16.514  21.985   4.207  1.00  0.00     0.212 C 
HETATM   15  O1  UNL     1      15.814  21.643   3.049  1.00  0.00    -0.240 OA
HETATM   16  O2  UNL     1      14.690  21.074   3.457  1.00  0.00    -0.234 OA
ENDBRANCH  10  12
ENDBRANCH   1  10
TORSDOF 5
ENDMDL
