MODEL 1
REMARK VINA RESULT: -5.699773778      0.000      0.000
REMARK  5 active torsions:
REMARK  status: ('A' for Active; 'I' for Inactive)
REMARK    1  A    between atoms: N2_3  and  C2_5 
REMARK    2  A    between atoms: C2_5  and  C3_6 
REMARK    3  A    between atoms: N3_7  and  N4_9 
REMARK    4  A    between atoms: C4_11  and  S1_12 
REMARK    5  A    between atoms: S1_12  and  C5_13 
ROOT
HETATM    1  N1  UNL     1      17.100  22.434   3.293  1.00  0.00    -0.172 NA
HETATM    2  C1  UNL     1      17.283  21.726   4.191  1.00  0.00     0.177 C 
HETATM    3  N2  UNL     1      17.513  20.894   5.287  1.00  0.00    -0.324 N 
ATOM      4  H2  UNL     1      18.377  21.015   5.816  1.00  0.00     0.172 HD
ENDROOT
BRANCH   3   5
HETATM    5  C2  UNL     1      16.590  19.872   5.706  1.00  0.00     0.177 C 
BRANCH   5   6
HETATM    6  C3  UNL     1      15.224  20.217   5.201  1.00  0.00     0.100 C 
HETATM    7  N3  UNL     1      14.410  19.224   5.080  1.00  0.00    -0.314 N 
ATOM      8  H3  UNL     1      14.718  18.282   5.323  1.00  0.00     0.185 HD
BRANCH   7   9
HETATM    9  N4  UNL     1      13.129  19.430   4.624  1.00  0.00    -0.306 N 
HETATM   10  C4  UNL     1      12.760  20.278   3.737  1.00  0.00     0.161 C 
ATOM     11  H4  UNL     1      12.398  18.850   5.035  1.00  0.00     0.186 HD
BRANCH  10  12
HETATM   12  S1  UNL     1      11.013  20.324   3.342  1.00  0.00    -0.026 SA
BRANCH  12  13
HETATM   13  C5  UNL     1      10.158  19.047   4.217  1.00  0.00     0.298 C 
HETATM   14  N5  UNL     1       9.393  18.065   3.540  1.00  0.00    -0.051 NA
HETATM   15  O1  UNL     1      10.210  18.981   5.471  1.00  0.00    -0.263 OA
ENDBRANCH  12  13
ENDBRANCH  10  12
ENDBRANCH   7   9
ENDBRANCH   5   6
ENDBRANCH   3   5
TORSDOF 5
ENDMDL
MODEL 2
REMARK VINA RESULT: -5.556943263      1.746      2.720
REMARK  5 active torsions:
REMARK  status: ('A' for Active; 'I' for Inactive)
REMARK    1  A    between atoms: N2_3  and  C2_5 
REMARK    2  A    between atoms: C2_5  and  C3_6 
REMARK    3  A    between atoms: N3_7  and  N4_9 
REMARK    4  A    between atoms: C4_11  and  S1_12 
REMARK    5  A    between atoms: S1_12  and  C5_13 
ROOT
HETATM    1  N1  UNL     1      16.254  17.469   8.599  1.00  0.00    -0.172 NA
HETATM    2  C1  UNL     1      16.430  17.868   7.526  1.00  0.00     0.177 C 
HETATM    3  N2  UNL     1      16.629  18.328   6.225  1.00  0.00    -0.324 N 
ATOM      4  H2  UNL     1      16.774  17.643   5.483  1.00  0.00     0.172 HD
ENDROOT
BRANCH   3   5
HETATM    5  C2  UNL     1      16.639  19.725   5.878  1.00  0.00     0.177 C 
BRANCH   5   6
HETATM    6  C3  UNL     1      15.282  20.111   5.380  1.00  0.00     0.100 C 
HETATM    7  N3  UNL     1      14.507  19.129   5.066  1.00  0.00    -0.314 N 
ATOM      8  H3  UNL     1      14.837  18.169   5.167  1.00  0.00     0.185 HD
BRANCH   7   9
HETATM    9  N4  UNL     1      13.236  19.372   4.597  1.00  0.00    -0.306 N 
HETATM   10  C4  UNL     1      12.854  20.387   3.915  1.00  0.00     0.161 C 
ATOM     11  H4  UNL     1      12.527  18.672   4.814  1.00  0.00     0.186 HD
BRANCH  10  12
HETATM   12  S1  UNL     1      11.128  20.435   3.439  1.00  0.00    -0.026 SA
BRANCH  12  13
HETATM   13  C5  UNL     1      10.230  19.165   4.278  1.00  0.00     0.298 C 
HETATM   14  N5  UNL     1       9.408  18.247   3.578  1.00  0.00    -0.051 NA
HETATM   15  O1  UNL     1      10.300  19.046   5.528  1.00  0.00    -0.263 OA
ENDBRANCH  12  13
ENDBRANCH  10  12
ENDBRANCH   7   9
ENDBRANCH   5   6
ENDBRANCH   3   5
TORSDOF 5
ENDMDL
MODEL 3
REMARK VINA RESULT: -5.525034616      1.039      1.039
REMARK  5 active torsions:
REMARK  status: ('A' for Active; 'I' for Inactive)
REMARK    1  A    between atoms: N2_3  and  C2_5 
REMARK    2  A    between atoms: C2_5  and  C3_6 
REMARK    3  A    between atoms: N3_7  and  N4_9 
REMARK    4  A    between atoms: C4_11  and  S1_12 
REMARK    5  A    between atoms: S1_12  and  C5_13 
ROOT
HETATM    1  N1  UNL     1      16.945  22.686   2.771  1.00  0.00    -0.172 NA
HETATM    2  C1  UNL     1      17.191  22.048   3.706  1.00  0.00     0.177 C 
HETATM    3  N2  UNL     1      17.505  21.297   4.838  1.00  0.00    -0.324 N 
ATOM      4  H2  UNL     1      18.479  21.255   5.138  1.00  0.00     0.172 HD
ENDROOT
BRANCH   3   5
HETATM    5  C2  UNL     1      16.520  20.579   5.604  1.00  0.00     0.177 C 
BRANCH   5   6
HETATM    6  C3  UNL     1      15.223  20.592   4.857  1.00  0.00     0.100 C 
HETATM    7  N3  UNL     1      14.500  19.532   4.983  1.00  0.00    -0.314 N 
ATOM      8  H3  UNL     1      14.828  18.759   5.563  1.00  0.00     0.185 HD
BRANCH   7   9
HETATM    9  N4  UNL     1      13.288  19.439   4.339  1.00  0.00    -0.306 N 
HETATM   10  C4  UNL     1      12.733  20.343   3.619  1.00  0.00     0.161 C 
ATOM     11  H4  UNL     1      12.779  18.562   4.445  1.00  0.00     0.186 HD
BRANCH  10  12
HETATM   12  S1  UNL     1      11.143  19.939   2.901  1.00  0.00    -0.026 SA
BRANCH  12  13
HETATM   13  C5  UNL     1      10.194  18.967   4.032  1.00  0.00     0.298 C 
HETATM   14  N5  UNL     1      10.354  19.089   5.435  1.00  0.00    -0.051 NA
HETATM   15  O1  UNL     1       9.346  18.138   3.613  1.00  0.00    -0.263 OA
ENDBRANCH  12  13
ENDBRANCH  10  12
ENDBRANCH   7   9
ENDBRANCH   5   6
ENDBRANCH   3   5
TORSDOF 5
ENDMDL
MODEL 4
REMARK VINA RESULT: -5.252180307      1.862      1.862
REMARK  5 active torsions:
REMARK  status: ('A' for Active; 'I' for Inactive)
REMARK    1  A    between atoms: N2_3  and  C2_5 
REMARK    2  A    between atoms: C2_5  and  C3_6 
REMARK    3  A    between atoms: N3_7  and  N4_9 
REMARK    4  A    between atoms: C4_11  and  S1_12 
REMARK    5  A    between atoms: S1_12  and  C5_13 
ROOT
HETATM    1  N1  UNL     1      16.768  22.699   2.847  1.00  0.00    -0.172 NA
HETATM    2  C1  UNL     1      17.139  22.078   3.752  1.00  0.00     0.177 C 
HETATM    3  N2  UNL     1      17.597  21.352   4.850  1.00  0.00    -0.324 N 
ATOM      4  H2  UNL     1      18.551  21.511   5.174  1.00  0.00     0.172 HD
ENDROOT
BRANCH   3   5
HETATM    5  C2  UNL     1      16.788  20.387   5.548  1.00  0.00     0.177 C 
BRANCH   5   6
HETATM    6  C3  UNL     1      15.361  20.561   5.134  1.00  0.00     0.100 C 
HETATM    7  N3  UNL     1      14.690  19.470   4.982  1.00  0.00    -0.314 N 
ATOM      8  H3  UNL     1      15.141  18.570   5.144  1.00  0.00     0.185 HD
BRANCH   7   9
HETATM    9  N4  UNL     1      13.369  19.517   4.603  1.00  0.00    -0.306 N 
HETATM   10  C4  UNL     1      12.696  20.565   4.303  1.00  0.00     0.161 C 
ATOM     11  H4  UNL     1      12.875  18.626   4.555  1.00  0.00     0.186 HD
BRANCH  10  12
HETATM   12  S1  UNL     1      10.982  20.319   3.843  1.00  0.00    -0.026 SA
BRANCH  12  13
HETATM   13  C5  UNL     1      10.085  21.834   4.003  1.00  0.00     0.298 C 
HETATM   14  N5  UNL     1       9.342  22.376   2.926  1.00  0.00    -0.051 NA
HETATM   15  O1  UNL     1      10.087  22.470   5.087  1.00  0.00    -0.263 OA
ENDBRANCH  12  13
ENDBRANCH  10  12
ENDBRANCH   7   9
ENDBRANCH   5   6
ENDBRANCH   3   5
TORSDOF 5
ENDMDL
MODEL 5
REMARK VINA RESULT: -5.247507113      2.362      3.280
REMARK  5 active torsions:
REMARK  status: ('A' for Active; 'I' for Inactive)
REMARK    1  A    between atoms: N2_3  and  C2_5 
REMARK    2  A    between atoms: C2_5  and  C3_6 
REMARK    3  A    between atoms: N3_7  and  N4_9 
REMARK    4  A    between atoms: C4_11  and  S1_12 
REMARK    5  A    between atoms: S1_12  and  C5_13 
ROOT
HETATM    1  N1  UNL     1      16.222  17.370   8.877  1.00  0.00    -0.172 NA
HETATM    2  C1  UNL     1      16.322  17.652   7.758  1.00  0.00     0.177 C 
HETATM    3  N2  UNL     1      16.424  17.975   6.405  1.00  0.00    -0.324 N 
ATOM      4  H2  UNL     1      16.304  17.231   5.718  1.00  0.00     0.172 HD
ENDROOT
BRANCH   3   5
HETATM    5  C2  UNL     1      16.691  19.308   5.933  1.00  0.00     0.177 C 
BRANCH   5   6
HETATM    6  C3  UNL     1      15.402  19.938   5.508  1.00  0.00     0.100 C 
HETATM    7  N3  UNL     1      14.506  19.123   5.063  1.00  0.00    -0.314 N 
ATOM      8  H3  UNL     1      14.705  18.124   5.021  1.00  0.00     0.185 HD
BRANCH   7   9
HETATM    9  N4  UNL     1      13.284  19.598   4.646  1.00  0.00    -0.306 N 
HETATM   10  C4  UNL     1      13.038  20.216   3.550  1.00  0.00     0.161 C 
ATOM     11  H4  UNL     1      12.495  19.442   5.272  1.00  0.00     0.186 HD
BRANCH  10  12
HETATM   12  S1  UNL     1      11.341  20.718   3.273  1.00  0.00    -0.026 SA
BRANCH  12  13
HETATM   13  C5  UNL     1      10.582  21.170   4.804  1.00  0.00     0.298 C 
HETATM   14  N5  UNL     1      10.114  22.486   5.043  1.00  0.00    -0.051 NA
HETATM   15  O1  UNL     1      10.439  20.325   5.725  1.00  0.00    -0.263 OA
ENDBRANCH  12  13
ENDBRANCH  10  12
ENDBRANCH   7   9
ENDBRANCH   5   6
ENDBRANCH   3   5
TORSDOF 5
ENDMDL
