MODEL 1
REMARK VINA RESULT: -5.973314493      0.000      0.000
REMARK  6 active torsions:
REMARK  status: ('A' for Active; 'I' for Inactive)
REMARK    1  A    between atoms: N1_1  and  C1_4 
REMARK    2  A    between atoms: C1_4  and  C2_5 
REMARK    3  A    between atoms: C2_5  and  O1_6 
REMARK    4  A    between atoms: O1_6  and  N2_7 
REMARK    5  A    between atoms: N3_10  and  O4_12 
REMARK    6  A    between atoms: O4_12  and  C3_13 
ROOT
HETATM    1  C1  UNL     1      14.396  20.397   4.459  1.00  0.00     0.121 C 
HETATM    2  N3  UNL     1      14.501  21.363   3.534  1.00  0.00    -0.252 N 
ATOM      3  H3  UNL     1      13.635  21.839   3.282  1.00  0.00     0.196 HD
ENDROOT
BRANCH   1   4
HETATM    4  N1  UNL     1      13.437  19.454   4.346  1.00  0.00    -0.386 N 
ATOM      5  H12 UNL     1      12.791  19.474   3.558  1.00  0.00     0.157 HD
ATOM      6  H11 UNL     1      13.538  18.732   5.059  1.00  0.00     0.157 HD
ENDBRANCH   1   4
BRANCH   1   7
HETATM    7  C2  UNL     1      15.349  20.095   5.628  1.00  0.00     0.285 C 
BRANCH   7   8
HETATM    8  O1  UNL     1      15.048  18.708   5.819  1.00  0.00    -0.214 OA
BRANCH   8   9
HETATM    9  N2  UNL     1      16.033  17.815   6.250  1.00  0.00     0.005 N 
HETATM   10  O2  UNL     1      16.088  17.529   7.485  1.00  0.00    -0.511 OA
HETATM   11  O3  UNL     1      16.732  17.184   5.306  1.00  0.00    -0.511 OA
ENDBRANCH   8   9
ENDBRANCH   7   8
ENDBRANCH   1   7
BRANCH   2  12
HETATM   12  O4  UNL     1      15.576  21.765   2.919  1.00  0.00    -0.274 OA
BRANCH  12  13
HETATM   13  C3  UNL     1      16.305  22.815   3.397  1.00  0.00     0.152 C 
HETATM   14  C4  UNL     1      17.814  22.663   2.874  1.00  0.00     0.034 C 
HETATM   15  C5  UNL     1      17.237  23.211   1.549  1.00  0.00     0.005 C 
HETATM   16  C6  UNL     1      16.180  23.972   2.437  1.00  0.00     0.034 C 
ENDBRANCH  12  13
ENDBRANCH   2  12
TORSDOF 6
ENDMDL
MODEL 2
REMARK VINA RESULT: -5.837506651      3.551      5.087
REMARK  6 active torsions:
REMARK  status: ('A' for Active; 'I' for Inactive)
REMARK    1  A    between atoms: N1_1  and  C1_4 
REMARK    2  A    between atoms: C1_4  and  C2_5 
REMARK    3  A    between atoms: C2_5  and  O1_6 
REMARK    4  A    between atoms: O1_6  and  N2_7 
REMARK    5  A    between atoms: N3_10  and  O4_12 
REMARK    6  A    between atoms: O4_12  and  C3_13 
ROOT
HETATM    1  C1  UNL     1      11.629  19.259   4.271  1.00  0.00     0.121 C 
HETATM    2  N3  UNL     1      12.935  19.515   4.439  1.00  0.00    -0.252 N 
ATOM      3  H3  UNL     1      13.507  18.737   4.765  1.00  0.00     0.196 HD
ENDROOT
BRANCH   1   4
HETATM    4  N1  UNL     1      10.933  18.629   5.241  1.00  0.00    -0.386 N 
ATOM      5  H12 UNL     1      10.026  18.990   5.536  1.00  0.00     0.157 HD
ATOM      6  H11 UNL     1      11.383  17.756   5.515  1.00  0.00     0.157 HD
ENDBRANCH   1   4
BRANCH   1   7
HETATM    7  C2  UNL     1      10.709  19.729   3.131  1.00  0.00     0.285 C 
BRANCH   7   8
HETATM    8  O1  UNL     1       9.876  20.634   3.864  1.00  0.00    -0.214 OA
BRANCH   8   9
HETATM    9  N2  UNL     1      10.272  21.958   4.077  1.00  0.00     0.005 N 
HETATM   10  O2  UNL     1      10.151  22.442   5.244  1.00  0.00    -0.511 OA
HETATM   11  O3  UNL     1      10.920  22.563   3.081  1.00  0.00    -0.511 OA
ENDBRANCH   8   9
ENDBRANCH   7   8
ENDBRANCH   1   7
BRANCH   2  12
HETATM   12  O4  UNL     1      13.560  20.639   4.236  1.00  0.00    -0.274 OA
BRANCH  12  13
HETATM   13  C3  UNL     1      14.357  21.182   5.202  1.00  0.00     0.152 C 
HETATM   14  C4  UNL     1      15.375  22.207   4.502  1.00  0.00     0.034 C 
HETATM   15  C5  UNL     1      14.152  23.152   4.482  1.00  0.00     0.005 C 
HETATM   16  C6  UNL     1      13.667  22.395   5.777  1.00  0.00     0.034 C 
ENDBRANCH  12  13
ENDBRANCH   2  12
TORSDOF 6
ENDMDL
MODEL 3
REMARK VINA RESULT: -5.816848634      3.838      5.197
REMARK  6 active torsions:
REMARK  status: ('A' for Active; 'I' for Inactive)
REMARK    1  A    between atoms: N1_1  and  C1_4 
REMARK    2  A    between atoms: C1_4  and  C2_5 
REMARK    3  A    between atoms: C2_5  and  O1_6 
REMARK    4  A    between atoms: O1_6  and  N2_7 
REMARK    5  A    between atoms: N3_10  and  O4_12 
REMARK    6  A    between atoms: O4_12  and  C3_13 
ROOT
HETATM    1  C1  UNL     1      11.697  19.631   2.702  1.00  0.00     0.121 C 
HETATM    2  N3  UNL     1      12.875  20.130   3.105  1.00  0.00    -0.252 N 
ATOM      3  H3  UNL     1      13.630  20.106   2.421  1.00  0.00     0.196 HD
ENDROOT
BRANCH   1   4
HETATM    4  N1  UNL     1      11.646  18.430   2.088  1.00  0.00    -0.386 N 
ATOM      5  H12 UNL     1      10.764  18.089   1.705  1.00  0.00     0.157 HD
ATOM      6  H11 UNL     1      12.575  18.021   1.990  1.00  0.00     0.157 HD
ENDBRANCH   1   4
BRANCH   1   7
HETATM    7  C2  UNL     1      10.288  20.185   2.974  1.00  0.00     0.285 C 
BRANCH   7   8
HETATM    8  O1  UNL     1       9.584  18.950   3.152  1.00  0.00    -0.214 OA
BRANCH   8   9
HETATM    9  N2  UNL     1       9.750  18.194   4.316  1.00  0.00     0.005 N 
HETATM   10  O2  UNL     1       9.825  16.933   4.209  1.00  0.00    -0.511 OA
HETATM   11  O3  UNL     1       9.999  18.864   5.442  1.00  0.00    -0.511 OA
ENDBRANCH   8   9
ENDBRANCH   7   8
ENDBRANCH   1   7
BRANCH   2  12
HETATM   12  O4  UNL     1      13.169  20.640   4.266  1.00  0.00    -0.274 OA
BRANCH  12  13
HETATM   13  C3  UNL     1      13.611  21.928   4.373  1.00  0.00     0.152 C 
HETATM   14  C4  UNL     1      12.335  22.898   4.431  1.00  0.00     0.034 C 
HETATM   15  C5  UNL     1      12.250  22.431   5.902  1.00  0.00     0.005 C 
HETATM   16  C6  UNL     1      13.815  22.251   5.833  1.00  0.00     0.034 C 
ENDBRANCH  12  13
ENDBRANCH   2  12
TORSDOF 6
ENDMDL
MODEL 4
REMARK VINA RESULT: -5.791801687      2.957      4.418
REMARK  6 active torsions:
REMARK  status: ('A' for Active; 'I' for Inactive)
REMARK    1  A    between atoms: N1_1  and  C1_4 
REMARK    2  A    between atoms: C1_4  and  C2_5 
REMARK    3  A    between atoms: C2_5  and  O1_6 
REMARK    4  A    between atoms: O1_6  and  N2_7 
REMARK    5  A    between atoms: N3_10  and  O4_12 
REMARK    6  A    between atoms: O4_12  and  C3_13 
ROOT
HETATM    1  C1  UNL     1      12.447  20.101   3.974  1.00  0.00     0.121 C 
HETATM    2  N3  UNL     1      13.767  20.012   3.752  1.00  0.00    -0.252 N 
ATOM      3  H3  UNL     1      14.187  19.096   3.903  1.00  0.00     0.196 HD
ENDROOT
BRANCH   1   4
HETATM    4  N1  UNL     1      11.916  19.598   5.109  1.00  0.00    -0.386 N 
ATOM      5  H12 UNL     1      12.395  18.849   5.608  1.00  0.00     0.157 HD
ATOM      6  H11 UNL     1      11.095  20.125   5.402  1.00  0.00     0.157 HD
ENDBRANCH   1   4
BRANCH   1   7
HETATM    7  C2  UNL     1      11.395  20.861   3.148  1.00  0.00     0.285 C 
BRANCH   7   8
HETATM    8  O1  UNL     1      11.733  22.202   3.520  1.00  0.00    -0.214 OA
BRANCH   8   9
HETATM    9  N2  UNL     1      11.204  22.778   4.678  1.00  0.00     0.005 N 
HETATM   10  O2  UNL     1      10.091  22.350   5.109  1.00  0.00    -0.511 OA
HETATM   11  O3  UNL     1      11.994  23.615   5.353  1.00  0.00    -0.511 OA
ENDBRANCH   8   9
ENDBRANCH   7   8
ENDBRANCH   1   7
BRANCH   2  12
HETATM   12  O4  UNL     1      14.576  20.957   3.368  1.00  0.00    -0.274 OA
BRANCH  12  13
HETATM   13  C3  UNL     1      15.109  21.833   4.269  1.00  0.00     0.152 C 
HETATM   14  C4  UNL     1      16.707  21.786   4.137  1.00  0.00     0.034 C 
HETATM   15  C5  UNL     1      16.466  22.667   2.890  1.00  0.00     0.005 C 
HETATM   16  C6  UNL     1      15.182  23.200   3.634  1.00  0.00     0.034 C 
ENDBRANCH  12  13
ENDBRANCH   2  12
TORSDOF 6
ENDMDL
MODEL 5
REMARK VINA RESULT: -5.778175311      3.476      4.733
REMARK  6 active torsions:
REMARK  status: ('A' for Active; 'I' for Inactive)
REMARK    1  A    between atoms: N1_1  and  C1_4 
REMARK    2  A    between atoms: C1_4  and  C2_5 
REMARK    3  A    between atoms: C2_5  and  O1_6 
REMARK    4  A    between atoms: O1_6  and  N2_7 
REMARK    5  A    between atoms: N3_10  and  O4_12 
REMARK    6  A    between atoms: O4_12  and  C3_13 
ROOT
HETATM    1  C1  UNL     1      12.398  20.404   3.925  1.00  0.00     0.121 C 
HETATM    2  N3  UNL     1      13.624  20.126   3.458  1.00  0.00    -0.252 N 
ATOM      3  H3  UNL     1      13.816  19.145   3.257  1.00  0.00     0.196 HD
ENDROOT
BRANCH   1   4
HETATM    4  N1  UNL     1      11.878  19.678   4.938  1.00  0.00    -0.386 N 
ATOM      5  H12 UNL     1      10.916  19.833   5.237  1.00  0.00     0.157 HD
ATOM      6  H11 UNL     1      12.522  18.947   5.241  1.00  0.00     0.157 HD
ENDBRANCH   1   4
BRANCH   1   7
HETATM    7  C2  UNL     1      11.489  21.590   3.559  1.00  0.00     0.285 C 
BRANCH   7   8
HETATM    8  O1  UNL     1      10.217  21.014   3.877  1.00  0.00    -0.214 OA
BRANCH   8   9
HETATM    9  N2  UNL     1       9.506  20.279   2.923  1.00  0.00     0.005 N 
HETATM   10  O2  UNL     1       9.388  20.763   1.756  1.00  0.00    -0.511 OA
HETATM   11  O3  UNL     1       9.156  19.035   3.255  1.00  0.00    -0.511 OA
ENDBRANCH   8   9
ENDBRANCH   7   8
ENDBRANCH   1   7
BRANCH   2  12
HETATM   12  O4  UNL     1      14.599  20.959   3.231  1.00  0.00    -0.274 OA
BRANCH  12  13
HETATM   13  C3  UNL     1      15.099  21.741   4.232  1.00  0.00     0.152 C 
HETATM   14  C4  UNL     1      16.691  21.832   4.056  1.00  0.00     0.034 C 
HETATM   15  C5  UNL     1      16.346  22.854   2.949  1.00  0.00     0.005 C 
HETATM   16  C6  UNL     1      15.054  23.183   3.790  1.00  0.00     0.034 C 
ENDBRANCH  12  13
ENDBRANCH   2  12
TORSDOF 6
ENDMDL
