MODEL 1
REMARK VINA RESULT: -6.735676627      0.000      0.000
REMARK  4 active torsions:
REMARK  status: ('A' for Active; 'I' for Inactive)
REMARK    1  A    between atoms: C2_2  and  C3_3 
REMARK    2  A    between atoms: C3_3  and  N1_4 
REMARK    3  A    between atoms: C3_3  and  C5_11 
REMARK    4  A    between atoms: N1_4  and  N2_6 
ROOT
HETATM    1  C3  UNL     1      16.612  22.340   4.097  1.00  0.00     0.124 C 
ENDROOT
BRANCH   1   2
HETATM    2  C2  UNL     1      16.689  22.435   2.611  1.00  0.00     0.024 C 
HETATM    3  C1  UNL     1      17.900  23.213   2.140  1.00  0.00     0.007 C 
ENDBRANCH   1   2
BRANCH   1   4
HETATM    4  N1  UNL     1      17.606  21.441   4.586  1.00  0.00    -0.316 N 
ATOM      5  H1  UNL     1      18.502  21.397   4.101  1.00  0.00     0.182 HD
BRANCH   4   6
HETATM    6  N2  UNL     1      17.411  20.620   5.694  1.00  0.00    -0.252 N 
HETATM    7  N3  UNL     1      16.804  19.507   5.638  1.00  0.00    -0.327 N 
HETATM    8  C4  UNL     1      16.623  18.686   6.805  1.00  0.00     0.169 C 
ATOM      9  H3  UNL     1      16.436  19.186   4.743  1.00  0.00     0.181 HD
ATOM     10  H2  UNL     1      17.774  20.929   6.596  1.00  0.00     0.207 HD
ENDBRANCH   4   6
ENDBRANCH   1   4
BRANCH   1  11
HETATM   11  C5  UNL     1      15.228  22.034   4.526  1.00  0.00     0.164 C 
HETATM   12  N4  UNL     1      14.636  20.905   3.840  1.00  0.00    -0.088 NA
HETATM   13  O1  UNL     1      13.346  20.975   4.269  1.00  0.00    -0.251 OA
HETATM   14  C6  UNL     1      12.950  22.305   4.081  1.00  0.00     0.315 A 
HETATM   15  O2  UNL     1      13.121  23.163   5.161  1.00  0.00    -0.345 OA
HETATM   16  C7  UNL     1      14.233  23.115   4.313  1.00  0.00     0.205 A 
ENDBRANCH   1  11
TORSDOF 4
ENDMDL
MODEL 2
REMARK VINA RESULT: -6.383223103      1.043      1.328
REMARK  4 active torsions:
REMARK  status: ('A' for Active; 'I' for Inactive)
REMARK    1  A    between atoms: C2_2  and  C3_3 
REMARK    2  A    between atoms: C3_3  and  N1_4 
REMARK    3  A    between atoms: C3_3  and  C5_11 
REMARK    4  A    between atoms: N1_4  and  N2_6 
ROOT
HETATM    1  C3  UNL     1      16.762  22.550   3.857  1.00  0.00     0.124 C 
ENDROOT
BRANCH   1   2
HETATM    2  C2  UNL     1      16.827  22.610   2.369  1.00  0.00     0.024 C 
HETATM    3  C1  UNL     1      18.002  23.424   1.870  1.00  0.00     0.007 C 
ENDBRANCH   1   2
BRANCH   1   4
HETATM    4  N1  UNL     1      17.590  21.497   4.345  1.00  0.00    -0.316 N 
ATOM      5  H1  UNL     1      18.387  21.204   3.779  1.00  0.00     0.182 HD
BRANCH   4   6
HETATM    6  N2  UNL     1      17.364  20.848   5.556  1.00  0.00    -0.252 N 
HETATM    7  N3  UNL     1      16.929  19.659   5.639  1.00  0.00    -0.327 N 
HETATM    8  C4  UNL     1      16.707  19.023   6.910  1.00  0.00     0.169 C 
ATOM      9  H3  UNL     1      16.731  19.141   4.783  1.00  0.00     0.181 HD
ATOM     10  H2  UNL     1      17.556  21.355   6.420  1.00  0.00     0.207 HD
ENDBRANCH   4   6
ENDBRANCH   1   4
BRANCH   1  11
HETATM   11  C5  UNL     1      15.354  22.500   4.313  1.00  0.00     0.164 C 
HETATM   12  N4  UNL     1      15.204  22.465   5.753  1.00  0.00    -0.088 NA
HETATM   13  O1  UNL     1      13.869  22.226   5.879  1.00  0.00    -0.251 OA
HETATM   14  C6  UNL     1      13.591  21.146   5.033  1.00  0.00     0.315 A 
HETATM   15  O2  UNL     1      13.187  21.456   3.740  1.00  0.00    -0.345 OA
HETATM   16  C7  UNL     1      14.573  21.319   3.867  1.00  0.00     0.205 A 
ENDBRANCH   1  11
TORSDOF 4
ENDMDL
MODEL 3
REMARK VINA RESULT: -6.340042501      1.230      3.390
REMARK  4 active torsions:
REMARK  status: ('A' for Active; 'I' for Inactive)
REMARK    1  A    between atoms: C2_2  and  C3_3 
REMARK    2  A    between atoms: C3_3  and  N1_4 
REMARK    3  A    between atoms: C3_3  and  C5_11 
REMARK    4  A    between atoms: N1_4  and  N2_6 
ROOT
HETATM    1  C3  UNL     1      16.421  20.411   5.052  1.00  0.00     0.124 C 
ENDROOT
BRANCH   1   2
HETATM    2  C2  UNL     1      16.656  19.581   6.269  1.00  0.00     0.024 C 
HETATM    3  C1  UNL     1      15.942  18.248   6.210  1.00  0.00     0.007 C 
ENDBRANCH   1   2
BRANCH   1   4
HETATM    4  N1  UNL     1      17.371  21.472   4.988  1.00  0.00    -0.316 N 
ATOM      5  H1  UNL     1      17.743  21.844   5.861  1.00  0.00     0.182 HD
BRANCH   4   6
HETATM    6  N2  UNL     1      17.816  22.025   3.789  1.00  0.00    -0.252 N 
HETATM    7  N3  UNL     1      17.091  22.755   3.048  1.00  0.00    -0.327 N 
HETATM    8  C4  UNL     1      17.586  23.309   1.816  1.00  0.00     0.169 C 
ATOM      9  H3  UNL     1      16.132  22.955   3.332  1.00  0.00     0.181 HD
ATOM     10  H2  UNL     1      18.773  21.832   3.492  1.00  0.00     0.207 HD
ENDBRANCH   4   6
ENDBRANCH   1   4
BRANCH   1  11
HETATM   11  C5  UNL     1      15.004  20.836   4.981  1.00  0.00     0.164 C 
HETATM   12  N4  UNL     1      14.508  21.001   3.631  1.00  0.00    -0.088 NA
HETATM   13  O1  UNL     1      13.291  21.568   3.858  1.00  0.00    -0.251 OA
HETATM   14  C6  UNL     1      13.521  22.626   4.746  1.00  0.00     0.315 A 
HETATM   15  O2  UNL     1      13.392  22.340   6.100  1.00  0.00    -0.345 OA
HETATM   16  C7  UNL     1      14.689  22.141   5.615  1.00  0.00     0.205 A 
ENDBRANCH   1  11
TORSDOF 4
ENDMDL
MODEL 4
REMARK VINA RESULT: -5.979816369      3.875      4.859
REMARK  4 active torsions:
REMARK  status: ('A' for Active; 'I' for Inactive)
REMARK    1  A    between atoms: C2_2  and  C3_3 
REMARK    2  A    between atoms: C3_3  and  N1_4 
REMARK    3  A    between atoms: C3_3  and  C5_11 
REMARK    4  A    between atoms: N1_4  and  N2_6 
ROOT
HETATM    1  C3  UNL     1      11.818  21.009   4.679  1.00  0.00     0.124 C 
ENDROOT
BRANCH   1   2
HETATM    2  C2  UNL     1      11.560  22.340   4.057  1.00  0.00     0.024 C 
HETATM    3  C1  UNL     1      11.926  23.490   4.971  1.00  0.00     0.007 C 
ENDBRANCH   1   2
BRANCH   1   4
HETATM    4  N1  UNL     1      12.972  20.408   4.096  1.00  0.00    -0.316 N 
ATOM      5  H1  UNL     1      13.285  20.741   3.184  1.00  0.00     0.182 HD
BRANCH   4   6
HETATM    6  N2  UNL     1      13.694  19.389   4.713  1.00  0.00    -0.252 N 
HETATM    7  N3  UNL     1      14.858  19.550   5.189  1.00  0.00    -0.327 N 
HETATM    8  C4  UNL     1      15.573  18.472   5.820  1.00  0.00     0.169 C 
ATOM      9  H3  UNL     1      15.300  20.467   5.124  1.00  0.00     0.181 HD
ATOM     10  H2  UNL     1      13.264  18.466   4.785  1.00  0.00     0.207 HD
ENDBRANCH   4   6
ENDBRANCH   1   4
BRANCH   1  11
HETATM   11  C5  UNL     1      10.595  20.175   4.644  1.00  0.00     0.164 C 
HETATM   12  N4  UNL     1      10.615  19.064   5.572  1.00  0.00    -0.088 NA
HETATM   13  O1  UNL     1       9.499  18.379   5.197  1.00  0.00    -0.251 OA
HETATM   14  C6  UNL     1       9.582  18.243   3.806  1.00  0.00     0.315 A 
HETATM   15  O2  UNL     1       8.961  19.229   3.047  1.00  0.00    -0.345 OA
HETATM   16  C7  UNL     1      10.296  19.521   3.345  1.00  0.00     0.205 A 
ENDBRANCH   1  11
TORSDOF 4
ENDMDL
MODEL 5
REMARK VINA RESULT: -5.902537137      2.677      4.536
REMARK  4 active torsions:
REMARK  status: ('A' for Active; 'I' for Inactive)
REMARK    1  A    between atoms: C2_2  and  C3_3 
REMARK    2  A    between atoms: C3_3  and  N1_4 
REMARK    3  A    between atoms: C3_3  and  C5_11 
REMARK    4  A    between atoms: N1_4  and  N2_6 
ROOT
HETATM    1  C3  UNL     1      13.684  21.533   4.058  1.00  0.00     0.124 C 
ENDROOT
BRANCH   1   2
HETATM    2  C2  UNL     1      12.826  21.747   5.259  1.00  0.00     0.024 C 
HETATM    3  C1  UNL     1      12.191  23.122   5.282  1.00  0.00     0.007 C 
ENDBRANCH   1   2
BRANCH   1   4
HETATM    4  N1  UNL     1      13.531  20.201   3.575  1.00  0.00    -0.316 N 
ATOM      5  H1  UNL     1      14.240  19.830   2.942  1.00  0.00     0.182 HD
BRANCH   4   6
HETATM    6  N2  UNL     1      12.461  19.381   3.926  1.00  0.00    -0.252 N 
HETATM    7  N3  UNL     1      11.660  18.881   3.078  1.00  0.00    -0.327 N 
HETATM    8  C4  UNL     1      10.566  18.038   3.479  1.00  0.00     0.169 C 
ATOM      9  H3  UNL     1      11.796  19.081   2.088  1.00  0.00     0.181 HD
ATOM     10  H2  UNL     1      12.314  19.173   4.913  1.00  0.00     0.207 HD
ENDBRANCH   4   6
ENDBRANCH   1   4
BRANCH   1  11
HETATM   11  C5  UNL     1      15.080  21.940   4.340  1.00  0.00     0.164 C 
HETATM   12  N4  UNL     1      15.958  21.859   3.192  1.00  0.00    -0.088 NA
HETATM   13  O1  UNL     1      17.172  22.087   3.764  1.00  0.00    -0.251 OA
HETATM   14  C6  UNL     1      17.242  21.230   4.869  1.00  0.00     0.315 A 
HETATM   15  O2  UNL     1      16.820  21.750   6.087  1.00  0.00    -0.345 OA
HETATM   16  C7  UNL     1      15.793  21.134   5.363  1.00  0.00     0.205 A 
ENDBRANCH   1  11
TORSDOF 4
ENDMDL
