MODEL 1
REMARK VINA RESULT: -5.697480440      0.000      0.000
REMARK  2 active torsions:
REMARK  status: ('A' for Active; 'I' for Inactive)
REMARK    1  A    between atoms: O1_1  and  C1_3 
REMARK    2  A    between atoms: C7_10  and  O3_11 
ROOT
HETATM    1  C1  UNL     1      16.263  21.323   5.396  1.00  0.00     0.147 C 
HETATM    2  C2  UNL     1      17.190  21.779   4.337  1.00  0.00     0.043 C 
HETATM    3  C3  UNL     1      16.572  22.038   3.009  1.00  0.00     0.041 A 
HETATM    4  C4  UNL     1      17.213  23.260   2.353  1.00  0.00     0.175 A 
HETATM    5  O2  UNL     1      15.958  23.880   2.453  1.00  0.00    -0.385 OA
HETATM    6  C5  UNL     1      15.290  22.782   3.037  1.00  0.00     0.130 A 
HETATM    7  C6  UNL     1      14.723  23.034   4.388  1.00  0.00     0.066 C 
HETATM    8  C7  UNL     1      14.894  21.893   5.351  1.00  0.00     0.149 C 
ENDROOT
BRANCH   1   9
HETATM    9  O1  UNL     1      16.234  19.915   5.382  1.00  0.00    -0.393 OA
ATOM     10  H1  UNL     1      15.652  19.622   6.073  1.00  0.00     0.210 HD
ENDBRANCH   1   9
BRANCH   8  11
HETATM   11  O3  UNL     1      13.950  20.920   5.012  1.00  0.00    -0.393 OA
ATOM     12  H3  UNL     1      13.596  21.070   4.144  1.00  0.00     0.210 HD
ENDBRANCH   8  11
TORSDOF 2
ENDMDL
MODEL 2
REMARK VINA RESULT: -5.313415848      3.275      4.739
REMARK  2 active torsions:
REMARK  status: ('A' for Active; 'I' for Inactive)
REMARK    1  A    between atoms: O1_1  and  C1_3 
REMARK    2  A    between atoms: C7_10  and  O3_11 
ROOT
HETATM    1  C1  UNL     1      13.402  21.655   3.215  1.00  0.00     0.147 C 
HETATM    2  C2  UNL     1      11.997  21.708   2.755  1.00  0.00     0.043 C 
HETATM    3  C3  UNL     1      10.994  21.120   3.681  1.00  0.00     0.041 A 
HETATM    4  C4  UNL     1       9.712  21.951   3.676  1.00  0.00     0.175 A 
HETATM    5  O2  UNL     1       9.984  22.242   5.022  1.00  0.00    -0.385 OA
HETATM    6  C5  UNL     1      11.163  21.471   5.112  1.00  0.00     0.130 A 
HETATM    7  C6  UNL     1      12.395  22.236   5.442  1.00  0.00     0.066 C 
HETATM    8  C7  UNL     1      13.613  21.806   4.677  1.00  0.00     0.149 C 
ENDROOT
BRANCH   1   9
HETATM    9  O1  UNL     1      13.982  20.465   2.733  1.00  0.00    -0.393 OA
ATOM     10  H1  UNL     1      14.032  20.521   1.786  1.00  0.00     0.210 HD
ENDBRANCH   1   9
BRANCH   8  11
HETATM   11  O3  UNL     1      14.063  20.614   5.250  1.00  0.00    -0.393 OA
ATOM     12  H3  UNL     1      15.012  20.586   5.287  1.00  0.00     0.210 HD
ENDBRANCH   8  11
TORSDOF 2
ENDMDL
MODEL 3
REMARK VINA RESULT: -5.239210594      2.480      4.055
REMARK  2 active torsions:
REMARK  status: ('A' for Active; 'I' for Inactive)
REMARK    1  A    between atoms: O1_1  and  C1_3 
REMARK    2  A    between atoms: C7_10  and  O3_11 
ROOT
HETATM    1  C1  UNL     1      13.829  21.389   2.880  1.00  0.00     0.147 C 
HETATM    2  C2  UNL     1      12.441  21.855   3.095  1.00  0.00     0.043 C 
HETATM    3  C3  UNL     1      11.916  21.700   4.478  1.00  0.00     0.041 A 
HETATM    4  C4  UNL     1      11.046  22.898   4.855  1.00  0.00     0.175 A 
HETATM    5  O2  UNL     1      12.008  23.194   5.833  1.00  0.00    -0.385 OA
HETATM    6  C5  UNL     1      12.849  22.093   5.561  1.00  0.00     0.130 A 
HETATM    7  C6  UNL     1      14.227  22.444   5.125  1.00  0.00     0.066 C 
HETATM    8  C7  UNL     1      14.762  21.581   4.018  1.00  0.00     0.149 C 
ENDROOT
BRANCH   1   9
HETATM    9  O1  UNL     1      13.785  20.040   2.475  1.00  0.00    -0.393 OA
ATOM     10  H1  UNL     1      14.675  19.744   2.326  1.00  0.00     0.210 HD
ENDBRANCH   1   9
BRANCH   8  11
HETATM   11  O3  UNL     1      15.130  20.358   4.585  1.00  0.00    -0.393 OA
ATOM     12  H3  UNL     1      15.536  19.789   3.942  1.00  0.00     0.210 HD
ENDBRANCH   8  11
TORSDOF 2
ENDMDL
MODEL 4
REMARK VINA RESULT: -5.190916849      2.847      4.391
REMARK  2 active torsions:
REMARK  status: ('A' for Active; 'I' for Inactive)
REMARK    1  A    between atoms: O1_1  and  C1_3 
REMARK    2  A    between atoms: C7_10  and  O3_11 
ROOT
HETATM    1  C1  UNL     1      11.047  22.813   4.566  1.00  0.00     0.147 C 
HETATM    2  C2  UNL     1      12.222  23.293   5.327  1.00  0.00     0.043 C 
HETATM    3  C3  UNL     1      13.208  22.249   5.714  1.00  0.00     0.041 A 
HETATM    4  C4  UNL     1      14.631  22.793   5.600  1.00  0.00     0.175 A 
HETATM    5  O2  UNL     1      14.835  21.840   4.590  1.00  0.00    -0.385 OA
HETATM    6  C5  UNL     1      13.546  21.267   4.656  1.00  0.00     0.130 A 
HETATM    7  C6  UNL     1      12.745  21.368   3.408  1.00  0.00     0.066 C 
HETATM    8  C7  UNL     1      11.294  21.689   3.630  1.00  0.00     0.149 C 
ENDROOT
BRANCH   1   9
HETATM    9  O1  UNL     1      10.024  22.501   5.484  1.00  0.00    -0.393 OA
ATOM     10  H1  UNL     1      10.396  22.504   6.357  1.00  0.00     0.210 HD
ENDBRANCH   1   9
BRANCH   8  11
HETATM   11  O3  UNL     1      10.672  20.517   4.068  1.00  0.00    -0.393 OA
ATOM     12  H3  UNL     1      10.174  20.668   4.863  1.00  0.00     0.210 HD
ENDBRANCH   8  11
TORSDOF 2
ENDMDL
MODEL 5
REMARK VINA RESULT: -5.165383428      2.341      3.604
REMARK  2 active torsions:
REMARK  status: ('A' for Active; 'I' for Inactive)
REMARK    1  A    between atoms: O1_1  and  C1_3 
REMARK    2  A    between atoms: C7_10  and  O3_11 
ROOT
HETATM    1  C1  UNL     1      12.160  21.285   3.425  1.00  0.00     0.147 C 
HETATM    2  C2  UNL     1      12.750  21.783   4.687  1.00  0.00     0.043 C 
HETATM    3  C3  UNL     1      14.151  21.363   4.952  1.00  0.00     0.041 A 
HETATM    4  C4  UNL     1      14.936  22.504   5.598  1.00  0.00     0.175 A 
HETATM    5  O2  UNL     1      15.730  22.514   4.442  1.00  0.00    -0.385 OA
HETATM    6  C5  UNL     1      15.072  21.446   3.793  1.00  0.00     0.130 A 
HETATM    7  C6  UNL     1      14.437  21.792   2.493  1.00  0.00     0.066 C 
HETATM    8  C7  UNL     1      13.092  21.161   2.277  1.00  0.00     0.149 C 
ENDROOT
BRANCH   1   9
HETATM    9  O1  UNL     1      11.509  20.064   3.692  1.00  0.00    -0.393 OA
ATOM     10  H1  UNL     1      11.613  19.499   2.936  1.00  0.00     0.210 HD
ENDBRANCH   1   9
BRANCH   8  11
HETATM   11  O3  UNL     1      13.310  19.822   1.943  1.00  0.00    -0.393 OA
ATOM     12  H3  UNL     1      14.133  19.508   2.297  1.00  0.00     0.210 HD
ENDBRANCH   8  11
TORSDOF 2
ENDMDL
