MODEL 1
REMARK VINA RESULT: -5.215309555      0.000      0.000
REMARK  2 active torsions:
REMARK  status: ('A' for Active; 'I' for Inactive)
REMARK    1  A    between atoms: O1_1  and  C1_3 
REMARK    2  A    between atoms: C7_10  and  O3_11 
ROOT
HETATM    1  C1  UNL     1      16.590  21.313   3.856  1.00  0.00     0.155 C 
HETATM    2  C2  UNL     1      15.542  22.096   3.105  1.00  0.00     0.041 C 
HETATM    3  C3  UNL     1      15.252  23.342   3.954  1.00  0.00     0.012 C 
HETATM    4  C4  UNL     1      14.465  22.834   5.151  1.00  0.00     0.035 C 
HETATM    5  C5  UNL     1      14.598  21.315   5.252  1.00  0.00     0.152 C 
HETATM    6  O2  UNL     1      14.012  20.676   4.165  1.00  0.00    -0.383 OA
HETATM    7  C6  UNL     1      14.235  21.361   2.983  1.00  0.00     0.175 C 
HETATM    8  C7  UNL     1      16.100  21.035   5.261  1.00  0.00     0.176 C 
ENDROOT
BRANCH   1   9
HETATM    9  O1  UNL     1      17.704  22.160   3.988  1.00  0.00    -0.392 OA
ATOM     10  H1  UNL     1      18.233  21.803   4.692  1.00  0.00     0.210 HD
ENDBRANCH   1   9
BRANCH   8  11
HETATM   11  O3  UNL     1      16.387  19.759   5.695  1.00  0.00    -0.390 OA
ATOM     12  H3  UNL     1      15.845  19.480   6.424  1.00  0.00     0.210 HD
ENDBRANCH   8  11
TORSDOF 2
ENDMDL
MODEL 2
REMARK VINA RESULT: -5.209040010      1.546      3.267
REMARK  2 active torsions:
REMARK  status: ('A' for Active; 'I' for Inactive)
REMARK    1  A    between atoms: O1_1  and  C1_3 
REMARK    2  A    between atoms: C7_10  and  O3_11 
ROOT
HETATM    1  C1  UNL     1      13.072  21.926   5.204  1.00  0.00     0.155 C 
HETATM    2  C2  UNL     1      14.548  22.177   5.386  1.00  0.00     0.041 C 
HETATM    3  C3  UNL     1      14.925  23.257   4.361  1.00  0.00     0.012 C 
HETATM    4  C4  UNL     1      14.891  22.556   3.014  1.00  0.00     0.035 C 
HETATM    5  C5  UNL     1      14.151  21.225   3.139  1.00  0.00     0.152 C 
HETATM    6  O2  UNL     1      14.831  20.338   3.966  1.00  0.00    -0.383 OA
HETATM    7  C6  UNL     1      15.393  20.977   5.057  1.00  0.00     0.175 C 
HETATM    8  C7  UNL     1      12.797  21.566   3.760  1.00  0.00     0.176 C 
ENDROOT
BRANCH   1   9
HETATM    9  O1  UNL     1      12.425  23.152   5.435  1.00  0.00    -0.392 OA
ATOM     10  H1  UNL     1      12.505  23.330   6.364  1.00  0.00     0.210 HD
ENDBRANCH   1   9
BRANCH   8  11
HETATM   11  O3  UNL     1      11.888  20.541   3.618  1.00  0.00    -0.390 OA
ATOM     12  H3  UNL     1      11.583  20.430   2.725  1.00  0.00     0.210 HD
ENDBRANCH   8  11
TORSDOF 2
ENDMDL
MODEL 3
REMARK VINA RESULT: -5.107572354      4.145      4.873
REMARK  2 active torsions:
REMARK  status: ('A' for Active; 'I' for Inactive)
REMARK    1  A    between atoms: O1_1  and  C1_3 
REMARK    2  A    between atoms: C7_10  and  O3_11 
ROOT
HETATM    1  C1  UNL     1      11.801  20.974   5.129  1.00  0.00     0.155 C 
HETATM    2  C2  UNL     1      11.905  21.685   3.802  1.00  0.00     0.041 C 
HETATM    3  C3  UNL     1      10.589  22.457   3.629  1.00  0.00     0.012 C 
HETATM    4  C4  UNL     1       9.542  21.397   3.333  1.00  0.00     0.035 C 
HETATM    5  C5  UNL     1      10.086  20.015   3.694  1.00  0.00     0.152 C 
HETATM    6  O2  UNL     1      11.163  19.662   2.888  1.00  0.00    -0.383 OA
HETATM    7  C6  UNL     1      11.993  20.741   2.635  1.00  0.00     0.175 C 
HETATM    8  C7  UNL     1      10.550  20.123   5.146  1.00  0.00     0.176 C 
ENDROOT
BRANCH   1   9
HETATM    9  O1  UNL     1      11.615  21.969   6.104  1.00  0.00    -0.392 OA
ATOM     10  H1  UNL     1      10.733  21.859   6.438  1.00  0.00     0.210 HD
ENDBRANCH   1   9
BRANCH   8  11
HETATM   11  O3  UNL     1      10.739  18.887   5.724  1.00  0.00    -0.390 OA
ATOM     12  H3  UNL     1       9.967  18.334   5.690  1.00  0.00     0.210 HD
ENDBRANCH   8  11
TORSDOF 2
ENDMDL
MODEL 4
REMARK VINA RESULT: -4.961621240      3.898      5.638
REMARK  2 active torsions:
REMARK  status: ('A' for Active; 'I' for Inactive)
REMARK    1  A    between atoms: O1_1  and  C1_3 
REMARK    2  A    between atoms: C7_10  and  O3_11 
ROOT
HETATM    1  C1  UNL     1      10.162  19.554   3.617  1.00  0.00     0.155 C 
HETATM    2  C2  UNL     1      10.359  20.750   4.515  1.00  0.00     0.041 C 
HETATM    3  C3  UNL     1       9.845  21.963   3.726  1.00  0.00     0.012 C 
HETATM    4  C4  UNL     1      10.888  22.207   2.648  1.00  0.00     0.035 C 
HETATM    5  C5  UNL     1      11.794  20.983   2.516  1.00  0.00     0.152 C 
HETATM    6  O2  UNL     1      12.541  20.772   3.669  1.00  0.00    -0.383 OA
HETATM    7  C6  UNL     1      11.807  21.028   4.814  1.00  0.00     0.175 C 
HETATM    8  C7  UNL     1      10.854  19.799   2.293  1.00  0.00     0.176 C 
ENDROOT
BRANCH   1   9
HETATM    9  O1  UNL     1       8.787  19.485   3.336  1.00  0.00    -0.392 OA
ATOM     10  H1  UNL     1       8.646  18.669   2.871  1.00  0.00     0.210 HD
ENDBRANCH   1   9
BRANCH   8  11
HETATM   11  O3  UNL     1      11.517  18.693   1.812  1.00  0.00    -0.390 OA
ATOM     12  H3  UNL     1      11.821  18.109   2.498  1.00  0.00     0.210 HD
ENDBRANCH   8  11
TORSDOF 2
ENDMDL
MODEL 5
REMARK VINA RESULT: -4.942726648      3.055      4.260
REMARK  2 active torsions:
REMARK  status: ('A' for Active; 'I' for Inactive)
REMARK    1  A    between atoms: O1_1  and  C1_3 
REMARK    2  A    between atoms: C7_10  and  O3_11 
ROOT
HETATM    1  C1  UNL     1      11.393  21.328   2.867  1.00  0.00     0.155 C 
HETATM    2  C2  UNL     1      10.558  21.559   4.101  1.00  0.00     0.041 C 
HETATM    3  C3  UNL     1      11.017  22.905   4.680  1.00  0.00     0.012 C 
HETATM    4  C4  UNL     1      12.388  22.635   5.276  1.00  0.00     0.035 C 
HETATM    5  C5  UNL     1      12.929  21.305   4.753  1.00  0.00     0.152 C 
HETATM    6  O2  UNL     1      12.154  20.233   5.184  1.00  0.00    -0.383 OA
HETATM    7  C6  UNL     1      10.804  20.536   5.177  1.00  0.00     0.175 C 
HETATM    8  C7  UNL     1      12.860  21.405   3.230  1.00  0.00     0.176 C 
ENDROOT
BRANCH   1   9
HETATM    9  O1  UNL     1      11.143  22.410   2.005  1.00  0.00    -0.392 OA
ATOM     10  H1  UNL     1      11.263  22.086   1.121  1.00  0.00     0.210 HD
ENDBRANCH   1   9
BRANCH   8  11
HETATM   11  O3  UNL     1      13.625  20.441   2.611  1.00  0.00    -0.390 OA
ATOM     12  H3  UNL     1      13.711  19.644   3.122  1.00  0.00     0.210 HD
ENDBRANCH   8  11
TORSDOF 2
ENDMDL
