MODEL 1
REMARK VINA RESULT: -9.683294310      0.000      0.000
REMARK  11 active torsions:
REMARK  status: ('A' for Active; 'I' for Inactive)
REMARK    1  A    between atoms: C3_4  and  O1_5 
REMARK    2  A    between atoms: C5_10  and  C6_11 
REMARK    3  A    between atoms: N4_15  and  N5_17 
REMARK    4  A    between atoms: N5_17  and  C8_19 
REMARK    5  A    between atoms: C13_30  and  O2_31 
REMARK    6  A    between atoms: O2_31  and  C14_32 
REMARK    7  A    between atoms: C14_32  and  C15_33 
REMARK    8  A    between atoms: C15_33  and  C16_34 
REMARK    9  A    between atoms: C16_34  and  O3_35 
REMARK   10  A    between atoms: O3_35  and  N9_36 
REMARK   11  A    between atoms: C17_41  and  N14_42 
ROOT
HETATM    1  N1  UNL     1      30.094   1.281  15.752  1.00  0.00    -0.191 NA
HETATM    2  C1  UNL     1      29.550   2.325  15.647  1.00  0.00     0.106 C 
HETATM    3  C2  UNL     1      28.794   3.542  15.450  1.00  0.00     0.120 A 
HETATM    4  C3  UNL     1      27.926   3.934  16.470  1.00  0.00     0.163 A 
HETATM    5  N2  UNL     1      27.215   5.018  16.223  1.00  0.00    -0.345 N 
ATOM      6  H2  UNL     1      26.599   5.361  16.959  1.00  0.00     0.167 HD
HETATM    7  C4  UNL     1      27.249   5.687  15.089  1.00  0.00     0.107 A 
HETATM    8  C5  UNL     1      28.086   5.346  14.002  1.00  0.00     0.050 A 
HETATM    9  C18 UNL     1      28.881   4.233  14.266  1.00  0.00     0.086 A 
HETATM   10  N16 UNL     1      29.823   3.893  13.298  1.00  0.00    -0.100 NA
ENDROOT
BRANCH   4  11
HETATM   11  O1  UNL     1      27.797   3.201  17.645  1.00  0.00    -0.345 OA
ATOM     12  H1  UNL     1      28.385   3.327  18.381  1.00  0.00     0.219 HD
ENDBRANCH   4  11
BRANCH   8  13
HETATM   13  C6  UNL     1      27.899   5.945  12.697  1.00  0.00     0.137 A 
HETATM   14  N3  UNL     1      28.769   6.699  11.993  1.00  0.00    -0.174 N 
HETATM   15  C7  UNL     1      28.324   7.231  10.805  1.00  0.00     0.701 A 
ATOM     16  H3  UNL     1      29.718   6.867  12.328  1.00  0.00     0.186 HD
HETATM   17  N4  UNL     1      29.052   8.110  10.169  1.00  0.00    -0.130 N 
HETATM   18  N8  UNL     1      27.125   6.997  10.342  1.00  0.00    -0.153 N 
ATOM     19  H4  UNL     1      28.747   8.499   9.277  1.00  0.00     0.205 HD
HETATM   20  C13 UNL     1      26.215   6.262  11.017  1.00  0.00     0.239 A 
ATOM     21  H8  UNL     1      26.866   7.386   9.435  1.00  0.00     0.188 HD
HETATM   22  N15 UNL     1      26.657   5.754  12.193  1.00  0.00    -0.306 N 
ATOM     23  H15 UNL     1      26.007   5.185  12.737  1.00  0.00     0.171 HD
BRANCH  17  24
HETATM   24  N5  UNL     1      30.267   8.505  10.752  1.00  0.00    -0.274 N 
ATOM     25  H5  UNL     1      30.217   9.151  11.539  1.00  0.00     0.189 HD
BRANCH  24  26
HETATM   26  C8  UNL     1      31.554   8.086  10.346  1.00  0.00     0.102 C 
HETATM   27  N6  UNL     1      32.159   8.511   9.332  1.00  0.00    -0.360 N 
HETATM   28  C9  UNL     1      33.533   8.126   8.945  1.00  0.00     0.199 C 
ATOM     29  H6  UNL     1      31.666   9.172   8.730  1.00  0.00     0.162 HD
HETATM   30  C10 UNL     1      33.600   6.797   8.377  1.00  0.00     0.085 C 
HETATM   31  C11 UNL     1      34.545   8.422  10.001  1.00  0.00     0.114 C 
HETATM   32  N7  UNL     1      33.722   5.725   7.949  1.00  0.00    -0.195 NA
HETATM   33  S1  UNL     1      33.927   7.813  11.613  1.00  0.00    -0.159 SA
HETATM   34  C12 UNL     1      32.270   7.185  11.303  1.00  0.00     0.151 C 
ENDBRANCH  24  26
ENDBRANCH  17  24
BRANCH  20  35
HETATM   35  O2  UNL     1      24.949   6.074  10.616  1.00  0.00    -0.321 OA
BRANCH  35  36
HETATM   36  C14 UNL     1      23.980   6.966  10.286  1.00  0.00     0.181 C 
BRANCH  36  37
HETATM   37  C15 UNL     1      22.701   6.338   9.811  1.00  0.00     0.056 C 
BRANCH  37  38
HETATM   38  C16 UNL     1      22.887   5.531   8.498  1.00  0.00     0.205 C 
BRANCH  38  39
HETATM   39  O3  UNL     1      23.666   6.286   7.682  1.00  0.00    -0.262 OA
BRANCH  39  40
HETATM   40  N9  UNL     1      24.499   5.759   6.875  1.00  0.00    -0.136 N 
HETATM   41  N10 UNL     1      25.821   5.711   7.361  1.00  0.00     0.016 NA
HETATM   42  N11 UNL     1      26.692   6.188   6.388  1.00  0.00     0.003 NA
HETATM   43  N12 UNL     1      26.545   5.541   5.183  1.00  0.00    -0.016 NA
HETATM   44  N13 UNL     1      25.278   5.781   4.657  1.00  0.00    -0.071 NA
HETATM   45  C17 UNL     1      24.295   5.205   5.637  1.00  0.00     0.436 C 
BRANCH  45  46
HETATM   46  N14 UNL     1      24.623   3.781   5.594  1.00  0.00    -0.039 N 
ATOM     47 3H14 UNL     1      25.044   3.476   6.473  1.00  0.00     0.278 HD
ATOM     48 2H14 UNL     1      23.778   3.210   5.609  1.00  0.00     0.278 HD
ATOM     49 1H14 UNL     1      25.216   3.537   4.801  1.00  0.00     0.278 HD
ENDBRANCH  45  46
ENDBRANCH  39  40
ENDBRANCH  38  39
ENDBRANCH  37  38
ENDBRANCH  36  37
ENDBRANCH  35  36
ENDBRANCH  20  35
ENDBRANCH   8  13
TORSDOF 11
ENDMDL
MODEL 2
REMARK VINA RESULT: -9.474742512      1.882      2.800
REMARK  11 active torsions:
REMARK  status: ('A' for Active; 'I' for Inactive)
REMARK    1  A    between atoms: C3_4  and  O1_5 
REMARK    2  A    between atoms: C5_10  and  C6_11 
REMARK    3  A    between atoms: N4_15  and  N5_17 
REMARK    4  A    between atoms: N5_17  and  C8_19 
REMARK    5  A    between atoms: C13_30  and  O2_31 
REMARK    6  A    between atoms: O2_31  and  C14_32 
REMARK    7  A    between atoms: C14_32  and  C15_33 
REMARK    8  A    between atoms: C15_33  and  C16_34 
REMARK    9  A    between atoms: C16_34  and  O3_35 
REMARK   10  A    between atoms: O3_35  and  N9_36 
REMARK   11  A    between atoms: C17_41  and  N14_42 
ROOT
HETATM    1  N1  UNL     1      30.204   1.396  15.671  1.00  0.00    -0.191 NA
HETATM    2  C1  UNL     1      29.601   2.408  15.580  1.00  0.00     0.106 C 
HETATM    3  C2  UNL     1      28.773   3.581  15.407  1.00  0.00     0.120 A 
HETATM    4  C3  UNL     1      27.944   3.947  16.467  1.00  0.00     0.163 A 
HETATM    5  N2  UNL     1      27.164   4.989  16.243  1.00  0.00    -0.345 N 
ATOM      6  H2  UNL     1      26.572   5.313  17.008  1.00  0.00     0.167 HD
HETATM    7  C4  UNL     1      27.101   5.637  15.099  1.00  0.00     0.107 A 
HETATM    8  C5  UNL     1      27.894   5.320  13.973  1.00  0.00     0.050 A 
HETATM    9  C18 UNL     1      28.759   4.255  14.209  1.00  0.00     0.086 A 
HETATM   10  N16 UNL     1      29.663   3.945  13.196  1.00  0.00    -0.100 NA
ENDROOT
BRANCH   4  11
HETATM   11  O1  UNL     1      27.917   3.230  17.659  1.00  0.00    -0.345 OA
ATOM     12  H1  UNL     1      28.497   3.439  18.382  1.00  0.00     0.219 HD
ENDBRANCH   4  11
BRANCH   8  13
HETATM   13  C6  UNL     1      27.604   5.885  12.671  1.00  0.00     0.137 A 
HETATM   14  N3  UNL     1      28.399   6.658  11.903  1.00  0.00    -0.174 N 
HETATM   15  C7  UNL     1      27.862   7.148  10.735  1.00  0.00     0.701 A 
ATOM     16  H3  UNL     1      29.358   6.871  12.177  1.00  0.00     0.186 HD
HETATM   17  N4  UNL     1      28.514   8.043  10.040  1.00  0.00    -0.130 N 
HETATM   18  N8  UNL     1      26.648   6.857  10.349  1.00  0.00    -0.153 N 
ATOM     19  H4  UNL     1      28.140   8.401   9.161  1.00  0.00     0.205 HD
HETATM   20  C13 UNL     1      25.811   6.099  11.090  1.00  0.00     0.239 A 
ATOM     21  H8  UNL     1      26.319   7.217   9.453  1.00  0.00     0.188 HD
HETATM   22  N15 UNL     1      26.344   5.633  12.246  1.00  0.00    -0.306 N 
ATOM     23  H15 UNL     1      25.752   5.050  12.839  1.00  0.00     0.171 HD
BRANCH  17  24
HETATM   24  N5  UNL     1      29.744   8.498  10.542  1.00  0.00    -0.274 N 
ATOM     25  H5  UNL     1      30.544   7.872  10.448  1.00  0.00     0.189 HD
BRANCH  24  26
HETATM   26  C8  UNL     1      29.974   9.745  11.164  1.00  0.00     0.102 C 
HETATM   27  N6  UNL     1      29.565  10.062  12.308  1.00  0.00    -0.360 N 
HETATM   28  C9  UNL     1      29.864  11.340  12.988  1.00  0.00     0.199 C 
ATOM     29  H6  UNL     1      28.983   9.387  12.805  1.00  0.00     0.162 HD
HETATM   30  C10 UNL     1      29.101  12.447  12.453  1.00  0.00     0.085 C 
HETATM   31  C11 UNL     1      31.326  11.590  13.150  1.00  0.00     0.114 C 
HETATM   32  N7  UNL     1      28.546  13.380  12.043  1.00  0.00    -0.195 NA
HETATM   33  S1  UNL     1      32.171  11.271  11.557  1.00  0.00    -0.159 SA
HETATM   34  C12 UNL     1      30.902  10.667  10.435  1.00  0.00     0.151 C 
ENDBRANCH  24  26
ENDBRANCH  17  24
BRANCH  20  35
HETATM   35  O2  UNL     1      24.533   5.853  10.771  1.00  0.00    -0.321 OA
BRANCH  35  36
HETATM   36  C14 UNL     1      23.566   6.670  10.280  1.00  0.00     0.181 C 
BRANCH  36  37
HETATM   37  C15 UNL     1      22.395   5.948   9.678  1.00  0.00     0.056 C 
BRANCH  37  38
HETATM   38  C16 UNL     1      22.698   5.405   8.256  1.00  0.00     0.205 C 
BRANCH  38  39
HETATM   39  O3  UNL     1      23.712   6.158   7.758  1.00  0.00    -0.262 OA
BRANCH  39  40
HETATM   40  N9  UNL     1      24.543   5.689   6.914  1.00  0.00    -0.136 N 
HETATM   41  N10 UNL     1      25.875   5.656   7.373  1.00  0.00     0.016 NA
HETATM   42  N11 UNL     1      26.714   6.198   6.406  1.00  0.00     0.003 NA
HETATM   43  N12 UNL     1      26.560   5.600   5.176  1.00  0.00    -0.016 NA
HETATM   44  N13 UNL     1      25.277   5.829   4.685  1.00  0.00    -0.071 NA
HETATM   45  C17 UNL     1      24.329   5.184   5.656  1.00  0.00     0.436 C 
BRANCH  45  46
HETATM   46  N14 UNL     1      24.694   3.773   5.546  1.00  0.00    -0.039 N 
ATOM     47 3H14 UNL     1      25.050   3.417   6.432  1.00  0.00     0.278 HD
ATOM     48 2H14 UNL     1      23.864   3.186   5.454  1.00  0.00     0.278 HD
ATOM     49 1H14 UNL     1      25.353   3.595   4.788  1.00  0.00     0.278 HD
ENDBRANCH  45  46
ENDBRANCH  39  40
ENDBRANCH  38  39
ENDBRANCH  37  38
ENDBRANCH  36  37
ENDBRANCH  35  36
ENDBRANCH  20  35
ENDBRANCH   8  13
TORSDOF 11
ENDMDL
MODEL 3
REMARK VINA RESULT: -9.299801980      1.439      1.845
REMARK  11 active torsions:
REMARK  status: ('A' for Active; 'I' for Inactive)
REMARK    1  A    between atoms: C3_4  and  O1_5 
REMARK    2  A    between atoms: C5_10  and  C6_11 
REMARK    3  A    between atoms: N4_15  and  N5_17 
REMARK    4  A    between atoms: N5_17  and  C8_19 
REMARK    5  A    between atoms: C13_30  and  O2_31 
REMARK    6  A    between atoms: O2_31  and  C14_32 
REMARK    7  A    between atoms: C14_32  and  C15_33 
REMARK    8  A    between atoms: C15_33  and  C16_34 
REMARK    9  A    between atoms: C16_34  and  O3_35 
REMARK   10  A    between atoms: O3_35  and  N9_36 
REMARK   11  A    between atoms: C17_41  and  N14_42 
ROOT
HETATM    1  N1  UNL     1      30.062   1.099  15.712  1.00  0.00    -0.191 NA
HETATM    2  C1  UNL     1      29.603   2.186  15.644  1.00  0.00     0.106 C 
HETATM    3  C2  UNL     1      28.953   3.467  15.484  1.00  0.00     0.120 A 
HETATM    4  C3  UNL     1      28.046   3.857  16.470  1.00  0.00     0.163 A 
HETATM    5  N2  UNL     1      27.434   5.007  16.253  1.00  0.00    -0.345 N 
ATOM      6  H2  UNL     1      26.793   5.348  16.969  1.00  0.00     0.167 HD
HETATM    7  C4  UNL     1      27.596   5.743  15.173  1.00  0.00     0.107 A 
HETATM    8  C5  UNL     1      28.482   5.411  14.123  1.00  0.00     0.050 A 
HETATM    9  C18 UNL     1      29.173   4.225  14.359  1.00  0.00     0.086 A 
HETATM   10  N16 UNL     1      30.154   3.878  13.435  1.00  0.00    -0.100 NA
ENDROOT
BRANCH   4  11
HETATM   11  O1  UNL     1      27.781   3.061  17.580  1.00  0.00    -0.345 OA
ATOM     12  H1  UNL     1      28.289   3.133  18.379  1.00  0.00     0.219 HD
ENDBRANCH   4  11
BRANCH   8  13
HETATM   13  C6  UNL     1      28.430   6.105  12.853  1.00  0.00     0.137 A 
HETATM   14  N3  UNL     1      29.444   6.691  12.182  1.00  0.00    -0.174 N 
HETATM   15  C7  UNL     1      29.127   7.369  11.029  1.00  0.00     0.701 A 
ATOM     16  H3  UNL     1      30.407   6.631  12.517  1.00  0.00     0.186 HD
HETATM   17  N4  UNL     1      30.030   8.104  10.433  1.00  0.00    -0.130 N 
HETATM   18  N8  UNL     1      27.907   7.426  10.565  1.00  0.00    -0.153 N 
ATOM     19  H4  UNL     1      29.818   8.597   9.566  1.00  0.00     0.205 HD
HETATM   20  C13 UNL     1      26.858   6.868  11.208  1.00  0.00     0.239 A 
ATOM     21  H8  UNL     1      27.740   7.909   9.683  1.00  0.00     0.188 HD
HETATM   22  N15 UNL     1      27.178   6.214  12.352  1.00  0.00    -0.306 N 
ATOM     23  H15 UNL     1      26.420   5.771  12.871  1.00  0.00     0.171 HD
BRANCH  17  24
HETATM   24  N5  UNL     1      31.300   8.195  11.025  1.00  0.00    -0.274 N 
ATOM     25  H5  UNL     1      31.401   8.833  11.814  1.00  0.00     0.189 HD
BRANCH  24  26
HETATM   26  C8  UNL     1      32.452   7.482  10.625  1.00  0.00     0.102 C 
HETATM   27  N6  UNL     1      32.709   6.296  10.946  1.00  0.00    -0.360 N 
HETATM   28  C9  UNL     1      33.878   5.526  10.470  1.00  0.00     0.199 C 
ATOM     29  H6  UNL     1      32.063   5.829  11.583  1.00  0.00     0.162 HD
HETATM   30  C10 UNL     1      35.108   5.925  11.118  1.00  0.00     0.085 C 
HETATM   31  C11 UNL     1      33.944   5.417   8.984  1.00  0.00     0.114 C 
HETATM   32  N7  UNL     1      36.132   6.227  11.575  1.00  0.00    -0.195 NA
HETATM   33  S1  UNL     1      33.675   7.072   8.248  1.00  0.00    -0.159 SA
HETATM   34  C12 UNL     1      33.323   8.176   9.624  1.00  0.00     0.151 C 
ENDBRANCH  24  26
ENDBRANCH  17  24
BRANCH  20  35
HETATM   35  O2  UNL     1      25.583   6.980  10.811  1.00  0.00    -0.321 OA
BRANCH  35  36
HETATM   36  C14 UNL     1      24.698   6.042  10.389  1.00  0.00     0.181 C 
BRANCH  36  37
HETATM   37  C15 UNL     1      23.521   6.597   9.640  1.00  0.00     0.056 C 
BRANCH  37  38
HETATM   38  C16 UNL     1      23.396   6.010   8.209  1.00  0.00     0.205 C 
BRANCH  38  39
HETATM   39  O3  UNL     1      24.659   5.884   7.726  1.00  0.00    -0.262 OA
BRANCH  39  40
HETATM   40  N9  UNL     1      24.888   5.710   6.485  1.00  0.00    -0.136 N 
HETATM   41  N10 UNL     1      23.768   5.282   5.747  1.00  0.00     0.016 NA
HETATM   42  N11 UNL     1      24.121   4.199   4.949  1.00  0.00     0.003 NA
HETATM   43  N12 UNL     1      25.213   4.461   4.155  1.00  0.00    -0.016 NA
HETATM   44  N13 UNL     1      26.339   4.690   4.942  1.00  0.00    -0.071 NA
HETATM   45  C17 UNL     1      26.040   5.909   5.767  1.00  0.00     0.436 C 
BRANCH  45  46
HETATM   46  N14 UNL     1      25.893   6.941   4.741  1.00  0.00    -0.039 N 
ATOM     47 3H14 UNL     1      25.123   7.572   4.965  1.00  0.00     0.278 HD
ATOM     48 2H14 UNL     1      26.667   7.605   4.777  1.00  0.00     0.278 HD
ATOM     49 1H14 UNL     1      25.787   6.552   3.804  1.00  0.00     0.278 HD
ENDBRANCH  45  46
ENDBRANCH  39  40
ENDBRANCH  38  39
ENDBRANCH  37  38
ENDBRANCH  36  37
ENDBRANCH  35  36
ENDBRANCH  20  35
ENDBRANCH   8  13
TORSDOF 11
ENDMDL
MODEL 4
REMARK VINA RESULT: -9.219832831      2.115      2.832
REMARK  11 active torsions:
REMARK  status: ('A' for Active; 'I' for Inactive)
REMARK    1  A    between atoms: C3_4  and  O1_5 
REMARK    2  A    between atoms: C5_10  and  C6_11 
REMARK    3  A    between atoms: N4_15  and  N5_17 
REMARK    4  A    between atoms: N5_17  and  C8_19 
REMARK    5  A    between atoms: C13_30  and  O2_31 
REMARK    6  A    between atoms: O2_31  and  C14_32 
REMARK    7  A    between atoms: C14_32  and  C15_33 
REMARK    8  A    between atoms: C15_33  and  C16_34 
REMARK    9  A    between atoms: C16_34  and  O3_35 
REMARK   10  A    between atoms: O3_35  and  N9_36 
REMARK   11  A    between atoms: C17_41  and  N14_42 
ROOT
HETATM    1  N1  UNL     1      30.416   1.300  15.486  1.00  0.00    -0.191 NA
HETATM    2  C1  UNL     1      29.786   2.299  15.451  1.00  0.00     0.106 C 
HETATM    3  C2  UNL     1      28.930   3.458  15.339  1.00  0.00     0.120 A 
HETATM    4  C3  UNL     1      28.055   3.719  16.394  1.00  0.00     0.163 A 
HETATM    5  N2  UNL     1      27.253   4.753  16.222  1.00  0.00    -0.345 N 
ATOM      6  H2  UNL     1      26.627   5.002  16.988  1.00  0.00     0.167 HD
HETATM    7  C4  UNL     1      27.206   5.485  15.129  1.00  0.00     0.107 A 
HETATM    8  C5  UNL     1      28.045   5.277  14.010  1.00  0.00     0.050 A 
HETATM    9  C18 UNL     1      28.934   4.221  14.195  1.00  0.00     0.086 A 
HETATM   10  N16 UNL     1      29.878   4.015  13.193  1.00  0.00    -0.100 NA
ENDROOT
BRANCH   4  11
HETATM   11  O1  UNL     1      28.012   2.913  17.527  1.00  0.00    -0.345 OA
ATOM     12  H1  UNL     1      27.861   3.274  18.393  1.00  0.00     0.219 HD
ENDBRANCH   4  11
BRANCH   8  13
HETATM   13  C6  UNL     1      27.780   5.930  12.745  1.00  0.00     0.137 A 
HETATM   14  N3  UNL     1      28.615   6.697  12.013  1.00  0.00    -0.174 N 
HETATM   15  C7  UNL     1      28.100   7.284  10.880  1.00  0.00     0.701 A 
ATOM     16  H3  UNL     1      29.587   6.836  12.288  1.00  0.00     0.186 HD
HETATM   17  N4  UNL     1      28.800   8.176  10.230  1.00  0.00    -0.130 N 
HETATM   18  N8  UNL     1      26.868   7.089  10.492  1.00  0.00    -0.153 N 
ATOM     19  H4  UNL     1      28.443   8.605   9.376  1.00  0.00     0.205 HD
HETATM   20  C13 UNL     1      25.992   6.342  11.198  1.00  0.00     0.239 A 
ATOM     21  H8  UNL     1      26.555   7.518   9.621  1.00  0.00     0.188 HD
HETATM   22  N15 UNL     1      26.504   5.780  12.321  1.00  0.00    -0.306 N 
ATOM     23  H15 UNL     1      25.882   5.201  12.886  1.00  0.00     0.171 HD
BRANCH  17  24
HETATM   24  N5  UNL     1      30.060   8.526  10.743  1.00  0.00    -0.274 N 
ATOM     25  H5  UNL     1      30.773   7.798  10.760  1.00  0.00     0.189 HD
BRANCH  24  26
HETATM   26  C8  UNL     1      30.427   9.798  11.236  1.00  0.00     0.102 C 
HETATM   27  N6  UNL     1      31.608  10.211  11.346  1.00  0.00    -0.360 N 
HETATM   28  C9  UNL     1      31.989  11.566  11.796  1.00  0.00     0.199 C 
ATOM     29  H6  UNL     1      32.359   9.563  11.106  1.00  0.00     0.162 HD
HETATM   30  C10 UNL     1      31.839  11.742  13.224  1.00  0.00     0.085 C 
HETATM   31  C11 UNL     1      31.407  12.651  10.953  1.00  0.00     0.114 C 
HETATM   32  N7  UNL     1      31.703  11.955  14.357  1.00  0.00    -0.195 NA
HETATM   33  S1  UNL     1      29.623  12.323  10.702  1.00  0.00    -0.159 SA
HETATM   34  C12 UNL     1      29.293  10.741  11.492  1.00  0.00     0.151 C 
ENDBRANCH  24  26
ENDBRANCH  17  24
BRANCH  20  35
HETATM   35  O2  UNL     1      24.699   6.192  10.879  1.00  0.00    -0.321 OA
BRANCH  35  36
HETATM   36  C14 UNL     1      23.930   6.833   9.962  1.00  0.00     0.181 C 
BRANCH  36  37
HETATM   37  C15 UNL     1      22.771   6.022   9.455  1.00  0.00     0.056 C 
BRANCH  37  38
HETATM   38  C16 UNL     1      22.992   5.512   8.006  1.00  0.00     0.205 C 
BRANCH  38  39
HETATM   39  O3  UNL     1      24.195   5.994   7.601  1.00  0.00    -0.262 OA
BRANCH  39  40
HETATM   40  N9  UNL     1      24.644   5.776   6.429  1.00  0.00    -0.136 N 
HETATM   41  N10 UNL     1      23.659   5.397   5.496  1.00  0.00     0.016 NA
HETATM   42  N11 UNL     1      24.089   4.276   4.794  1.00  0.00     0.003 NA
HETATM   43  N12 UNL     1      25.326   4.454   4.219  1.00  0.00    -0.016 NA
HETATM   44  N13 UNL     1      26.294   4.636   5.203  1.00  0.00    -0.071 NA
HETATM   45  C17 UNL     1      25.921   5.890   5.940  1.00  0.00     0.436 C 
BRANCH  45  46
HETATM   46  N14 UNL     1      26.035   6.904   4.893  1.00  0.00    -0.039 N 
ATOM     47 3H14 UNL     1      25.152   7.018   4.396  1.00  0.00     0.278 HD
ATOM     48 2H14 UNL     1      26.120   7.838   5.295  1.00  0.00     0.278 HD
ATOM     49 1H14 UNL     1      26.799   6.714   4.244  1.00  0.00     0.278 HD
ENDBRANCH  45  46
ENDBRANCH  39  40
ENDBRANCH  38  39
ENDBRANCH  37  38
ENDBRANCH  36  37
ENDBRANCH  35  36
ENDBRANCH  20  35
ENDBRANCH   8  13
TORSDOF 11
ENDMDL
MODEL 5
REMARK VINA RESULT: -8.944947856      1.325      1.683
REMARK  11 active torsions:
REMARK  status: ('A' for Active; 'I' for Inactive)
REMARK    1  A    between atoms: C3_4  and  O1_5 
REMARK    2  A    between atoms: C5_10  and  C6_11 
REMARK    3  A    between atoms: N4_15  and  N5_17 
REMARK    4  A    between atoms: N5_17  and  C8_19 
REMARK    5  A    between atoms: C13_30  and  O2_31 
REMARK    6  A    between atoms: O2_31  and  C14_32 
REMARK    7  A    between atoms: C14_32  and  C15_33 
REMARK    8  A    between atoms: C15_33  and  C16_34 
REMARK    9  A    between atoms: C16_34  and  O3_35 
REMARK   10  A    between atoms: O3_35  and  N9_36 
REMARK   11  A    between atoms: C17_41  and  N14_42 
ROOT
HETATM    1  N1  UNL     1      30.104   1.314  15.788  1.00  0.00    -0.191 NA
HETATM    2  C1  UNL     1      29.570   2.360  15.661  1.00  0.00     0.106 C 
HETATM    3  C2  UNL     1      28.830   3.581  15.432  1.00  0.00     0.120 A 
HETATM    4  C3  UNL     1      27.917   3.975  16.411  1.00  0.00     0.163 A 
HETATM    5  N2  UNL     1      27.223   5.063  16.134  1.00  0.00    -0.345 N 
ATOM      6  H2  UNL     1      26.574   5.407  16.842  1.00  0.00     0.167 HD
HETATM    7  C4  UNL     1      27.313   5.734  15.004  1.00  0.00     0.107 A 
HETATM    8  C5  UNL     1      28.199   5.393  13.957  1.00  0.00     0.050 A 
HETATM    9  C18 UNL     1      28.975   4.275  14.255  1.00  0.00     0.086 A 
HETATM   10  N16 UNL     1      29.960   3.934  13.332  1.00  0.00    -0.100 NA
ENDROOT
BRANCH   4  11
HETATM   11  O1  UNL     1      27.729   3.239  17.577  1.00  0.00    -0.345 OA
ATOM     12  H1  UNL     1      28.397   2.652  17.912  1.00  0.00     0.219 HD
ENDBRANCH   4  11
BRANCH   8  13
HETATM   13  C6  UNL     1      28.076   5.996  12.647  1.00  0.00     0.137 A 
HETATM   14  N3  UNL     1      28.919   6.860  12.044  1.00  0.00    -0.174 N 
HETATM   15  C7  UNL     1      28.537   7.364  10.823  1.00  0.00     0.701 A 
ATOM     16  H3  UNL     1      29.803   7.127  12.477  1.00  0.00     0.186 HD
HETATM   17  N4  UNL     1      29.219   8.336  10.275  1.00  0.00    -0.130 N 
HETATM   18  N8  UNL     1      27.426   7.006  10.236  1.00  0.00    -0.153 N 
ATOM     19  H4  UNL     1      28.963   8.707   9.360  1.00  0.00     0.205 HD
HETATM   20  C13 UNL     1      26.544   6.156  10.806  1.00  0.00     0.239 A 
ATOM     21  H8  UNL     1      27.216   7.383   9.312  1.00  0.00     0.188 HD
HETATM   22  N15 UNL     1      26.922   5.675  12.016  1.00  0.00    -0.306 N 
ATOM     23  H15 UNL     1      26.291   5.024  12.484  1.00  0.00     0.171 HD
BRANCH  17  24
HETATM   24  N5  UNL     1      30.316   8.853  10.984  1.00  0.00    -0.274 N 
ATOM     25  H5  UNL     1      30.276   8.803  12.001  1.00  0.00     0.189 HD
BRANCH  24  26
HETATM   26  C8  UNL     1      31.468   9.435  10.413  1.00  0.00     0.102 C 
HETATM   27  N6  UNL     1      32.102  10.402  10.904  1.00  0.00    -0.360 N 
HETATM   28  C9  UNL     1      33.348  10.967  10.345  1.00  0.00     0.199 C 
ATOM     29  H6  UNL     1      31.728  10.829  11.752  1.00  0.00     0.162 HD
HETATM   30  C10 UNL     1      33.115  11.772   9.166  1.00  0.00     0.085 C 
HETATM   31  C11 UNL     1      34.446   9.963  10.227  1.00  0.00     0.114 C 
HETATM   32  N7  UNL     1      32.995  12.398   8.195  1.00  0.00    -0.195 NA
HETATM   33  S1  UNL     1      33.790   8.444   9.444  1.00  0.00    -0.159 SA
HETATM   34  C12 UNL     1      32.027   8.723   9.221  1.00  0.00     0.151 C 
ENDBRANCH  24  26
ENDBRANCH  17  24
BRANCH  20  35
HETATM   35  O2  UNL     1      25.356   5.835  10.276  1.00  0.00    -0.321 OA
BRANCH  35  36
HETATM   36  C14 UNL     1      24.093   6.101  10.697  1.00  0.00     0.181 C 
BRANCH  36  37
HETATM   37  C15 UNL     1      23.188   6.644   9.629  1.00  0.00     0.056 C 
BRANCH  37  38
HETATM   38  C16 UNL     1      23.177   5.761   8.353  1.00  0.00     0.205 C 
BRANCH  38  39
HETATM   39  O3  UNL     1      23.926   6.407   7.423  1.00  0.00    -0.262 OA
BRANCH  39  40
HETATM   40  N9  UNL     1      24.627   5.774   6.568  1.00  0.00    -0.136 N 
HETATM   41  N10 UNL     1      26.012   5.805   6.822  1.00  0.00     0.016 NA
HETATM   42  N11 UNL     1      26.692   6.141   5.657  1.00  0.00     0.003 NA
HETATM   43  N12 UNL     1      26.363   5.325   4.599  1.00  0.00    -0.016 NA
HETATM   44  N13 UNL     1      25.019   5.480   4.269  1.00  0.00    -0.071 NA
HETATM   45  C17 UNL     1      24.233   5.046   5.474  1.00  0.00     0.436 C 
BRANCH  45  46
HETATM   46  N14 UNL     1      24.593   3.633   5.578  1.00  0.00    -0.039 N 
ATOM     47 3H14 UNL     1      24.320   3.252   6.485  1.00  0.00     0.278 HD
ATOM     48 2H14 UNL     1      24.003   3.059   4.974  1.00  0.00     0.278 HD
ATOM     49 1H14 UNL     1      25.581   3.463   5.392  1.00  0.00     0.278 HD
ENDBRANCH  45  46
ENDBRANCH  39  40
ENDBRANCH  38  39
ENDBRANCH  37  38
ENDBRANCH  36  37
ENDBRANCH  35  36
ENDBRANCH  20  35
ENDBRANCH   8  13
TORSDOF 11
ENDMDL
