MODEL 1
REMARK VINA RESULT: -9.016701398      0.000      0.000
REMARK  10 active torsions:
REMARK  status: ('A' for Active; 'I' for Inactive)
REMARK    1  A    between atoms: C2_2  and  N1_3 
REMARK    2  A    between atoms: N1_3  and  C3_4 
REMARK    3  A    between atoms: N1_3  and  S1_40 
REMARK    4  A    between atoms: C3_4  and  C4_5 
REMARK    5  A    between atoms: C3_4  and  C19_37 
REMARK    6  A    between atoms: C4_5  and  O1_6 
REMARK    7  A    between atoms: C4_5  and  N2_8 
REMARK       I    between atoms: N2_8  and  C5_10 
REMARK       I    between atoms: C5_10  and  N3_12 
REMARK    8  A    between atoms: N3_12  and  C6_14 
REMARK    9  A    between atoms: C9_19  and  N5_20 
REMARK   10  A    between atoms: N5_20  and  C10_22 
ROOT
HETATM    1  C6  UNL     1       9.301  19.223   8.638  1.00  0.00     0.117 A 
HETATM    2  N4  UNL     1       8.149  19.174   7.873  1.00  0.00    -0.351 N 
ATOM      3  H4  UNL     1       7.904  19.997   7.323  1.00  0.00     0.166 HD
HETATM    4  C7  UNL     1       7.349  18.128   7.811  1.00  0.00     0.107 A 
HETATM    5  C8  UNL     1       7.602  16.984   8.517  1.00  0.00     0.053 A 
HETATM    6  C9  UNL     1       6.967  15.767   8.654  1.00  0.00     0.134 A 
HETATM    7  N6  UNL     1       7.727  15.058   9.506  1.00  0.00    -0.284 N 
ATOM      8  H6  UNL     1       7.523  14.106   9.812  1.00  0.00     0.188 HD
HETATM    9  N7  UNL     1       8.773  15.765   9.890  1.00  0.00    -0.298 N 
ATOM     10  H7  UNL     1       9.493  15.439  10.536  1.00  0.00     0.187 HD
HETATM   11  C16 UNL     1       8.753  16.990   9.302  1.00  0.00     0.073 A 
HETATM   12  C17 UNL     1       9.581  18.090   9.356  1.00  0.00     0.011 A 
HETATM   13  C18 UNL     1      10.780  18.007  10.205  1.00  0.00     0.054 C 
ENDROOT
BRANCH   1  14
HETATM   14  N3  UNL     1       9.926  20.294   8.576  1.00  0.00    -0.294 N 
HETATM   15  C5  UNL     1      10.502  21.072   7.572  1.00  0.00     0.327 C 
HETATM   16  N2  UNL     1       9.780  21.993   6.790  1.00  0.00    -0.291 N 
HETATM   17  O2  UNL     1      11.762  20.854   7.442  1.00  0.00    -0.247 OA
ATOM     18  H2  UNL     1       8.795  22.058   7.042  1.00  0.00     0.172 HD
ATOM     19  H3  UNL     1      10.051  20.713   9.497  1.00  0.00     0.172 HD
BRANCH  16  20
HETATM   20  C4  UNL     1      10.142  22.828   5.747  1.00  0.00     0.143 C 
BRANCH  20  21
HETATM   21  C3  UNL     1      11.316  22.884   4.852  1.00  0.00     0.170 C 
BRANCH  21  22
HETATM   22  N1  UNL     1      11.013  22.297   3.583  1.00  0.00    -0.331 N 
BRANCH  22  23
HETATM   23  C2  UNL     1      12.142  21.502   3.095  1.00  0.00     0.128 C 
HETATM   24  C1  UNL     1      13.043  20.969   4.160  1.00  0.00     0.027 C 
ENDBRANCH  22  23
BRANCH  22  25
HETATM   25  S1  UNL     1      10.127  23.049   2.285  1.00  0.00     0.016 S 
HETATM   26  C22 UNL     1      11.349  22.762   0.919  1.00  0.00     0.136 C 
HETATM   27  C23 UNL     1       8.540  21.968   2.235  1.00  0.00     0.136 C 
HETATM   28  O3  UNL     1       9.354  24.361   1.483  1.00  0.00    -0.251 OA
ENDBRANCH  22  25
ENDBRANCH  21  22
BRANCH  21  29
HETATM   29  C19 UNL     1      11.764  24.283   4.955  1.00  0.00     0.009 C 
HETATM   30  C20 UNL     1      12.549  24.354   6.297  1.00  0.00     0.012 C 
HETATM   31  C21 UNL     1      12.660  24.932   4.011  1.00  0.00     0.012 C 
ENDBRANCH  21  29
ENDBRANCH  20  21
BRANCH  20  32
HETATM   32  O1  UNL     1       9.256  23.759   5.504  1.00  0.00    -0.348 OA
ATOM     33  H1  UNL     1       8.405  23.417   5.258  1.00  0.00     0.219 HD
ENDBRANCH  20  32
ENDBRANCH  16  20
ENDBRANCH   1  14
BRANCH   6  34
HETATM   34  N5  UNL     1       5.873  15.434   8.059  1.00  0.00    -0.338 N 
ATOM     35  H5  UNL     1       5.926  14.849   7.225  1.00  0.00     0.167 HD
BRANCH  34  36
HETATM   36  C10 UNL     1       4.603  15.850   8.519  1.00  0.00     0.077 A 
HETATM   37  C11 UNL     1       4.040  15.248   9.624  1.00  0.00     0.062 A 
HETATM   38 CL1  UNL     1       4.842  13.966  10.507  1.00  0.00    -0.082 Cl
HETATM   39  C12 UNL     1       2.800  15.663  10.056  1.00  0.00     0.026 A 
HETATM   40  C13 UNL     1       2.087  16.667   9.426  1.00  0.00     0.003 A 
HETATM   41  C14 UNL     1       2.664  17.257   8.326  1.00  0.00     0.026 A 
HETATM   42  C15 UNL     1       3.911  16.854   7.874  1.00  0.00     0.062 A 
HETATM   43 CL2  UNL     1       4.551  17.672   6.463  1.00  0.00    -0.082 Cl
ENDBRANCH  34  36
ENDBRANCH   6  34
TORSDOF 10
ENDMDL
MODEL 2
REMARK VINA RESULT: -8.940288015      1.385      1.897
REMARK  10 active torsions:
REMARK  status: ('A' for Active; 'I' for Inactive)
REMARK    1  A    between atoms: C2_2  and  N1_3 
REMARK    2  A    between atoms: N1_3  and  C3_4 
REMARK    3  A    between atoms: N1_3  and  S1_40 
REMARK    4  A    between atoms: C3_4  and  C4_5 
REMARK    5  A    between atoms: C3_4  and  C19_37 
REMARK    6  A    between atoms: C4_5  and  O1_6 
REMARK    7  A    between atoms: C4_5  and  N2_8 
REMARK       I    between atoms: N2_8  and  C5_10 
REMARK       I    between atoms: C5_10  and  N3_12 
REMARK    8  A    between atoms: N3_12  and  C6_14 
REMARK    9  A    between atoms: C9_19  and  N5_20 
REMARK   10  A    between atoms: N5_20  and  C10_22 
ROOT
HETATM    1  C6  UNL     1       9.301  19.225   8.605  1.00  0.00     0.117 A 
HETATM    2  N4  UNL     1       8.134  19.170   7.863  1.00  0.00    -0.351 N 
ATOM      3  H4  UNL     1       7.868  19.996   7.327  1.00  0.00     0.166 HD
HETATM    4  C7  UNL     1       7.345  18.116   7.807  1.00  0.00     0.107 A 
HETATM    5  C8  UNL     1       7.626  16.967   8.496  1.00  0.00     0.053 A 
HETATM    6  C9  UNL     1       7.009  15.742   8.634  1.00  0.00     0.134 A 
HETATM    7  N6  UNL     1       7.794  15.033   9.463  1.00  0.00    -0.284 N 
ATOM      8  H6  UNL     1       7.608  14.077   9.763  1.00  0.00     0.188 HD
HETATM    9  N7  UNL     1       8.840  15.749   9.832  1.00  0.00    -0.298 N 
ATOM     10  H7  UNL     1       9.576  15.426  10.460  1.00  0.00     0.187 HD
HETATM   11  C16 UNL     1       8.793  16.979   9.257  1.00  0.00     0.073 A 
HETATM   12  C17 UNL     1       9.609  18.088   9.305  1.00  0.00     0.011 A 
HETATM   13  C18 UNL     1      10.827  18.012  10.128  1.00  0.00     0.054 C 
ENDROOT
BRANCH   1  14
HETATM   14  N3  UNL     1       9.912  20.304   8.540  1.00  0.00    -0.294 N 
HETATM   15  C5  UNL     1      10.405  21.129   7.529  1.00  0.00     0.327 C 
HETATM   16  N2  UNL     1       9.620  22.074   6.843  1.00  0.00    -0.291 N 
HETATM   17  O2  UNL     1      11.652  20.930   7.295  1.00  0.00    -0.247 OA
ATOM     18  H2  UNL     1       8.655  22.119   7.171  1.00  0.00     0.172 HD
ATOM     19  H3  UNL     1      10.104  20.686   9.466  1.00  0.00     0.172 HD
BRANCH  16  20
HETATM   20  C4  UNL     1       9.895  22.955   5.812  1.00  0.00     0.143 C 
BRANCH  20  21
HETATM   21  C3  UNL     1       9.907  22.823   4.341  1.00  0.00     0.170 C 
BRANCH  21  22
HETATM   22  N1  UNL     1       8.690  23.322   3.778  1.00  0.00    -0.331 N 
BRANCH  22  23
HETATM   23  C2  UNL     1       8.376  22.633   2.524  1.00  0.00     0.128 C 
HETATM   24  C1  UNL     1       7.873  21.236   2.683  1.00  0.00     0.027 C 
ENDBRANCH  22  23
BRANCH  22  25
HETATM   25  S1  UNL     1       8.165  24.983   3.766  1.00  0.00     0.016 S 
HETATM   26  C22 UNL     1       8.208  25.269   1.934  1.00  0.00     0.136 C 
HETATM   27  C23 UNL     1       6.419  24.833   4.554  1.00  0.00     0.136 C 
HETATM   28  O3  UNL     1       8.282  26.656   4.155  1.00  0.00    -0.251 OA
ENDBRANCH  22  25
ENDBRANCH  21  22
BRANCH  21  29
HETATM   29  C19 UNL     1      11.210  23.387   3.952  1.00  0.00     0.009 C 
HETATM   30  C20 UNL     1      12.225  22.223   4.150  1.00  0.00     0.012 C 
HETATM   31  C21 UNL     1      11.530  23.884   2.623  1.00  0.00     0.012 C 
ENDBRANCH  21  29
ENDBRANCH  20  21
BRANCH  20  32
HETATM   32  O1  UNL     1      10.207  24.154   6.230  1.00  0.00    -0.348 OA
ATOM     33  H1  UNL     1       9.453  24.712   6.379  1.00  0.00     0.219 HD
ENDBRANCH  20  32
ENDBRANCH  16  20
ENDBRANCH   1  14
BRANCH   6  34
HETATM   34  N5  UNL     1       5.906  15.402   8.058  1.00  0.00    -0.338 N 
ATOM     35  H5  UNL     1       5.947  14.799   7.237  1.00  0.00     0.167 HD
BRANCH  34  36
HETATM   36  C10 UNL     1       4.644  15.835   8.523  1.00  0.00     0.077 A 
HETATM   37  C11 UNL     1       4.080  15.245   9.635  1.00  0.00     0.062 A 
HETATM   38 CL1  UNL     1       4.873  13.959  10.521  1.00  0.00    -0.082 Cl
HETATM   39  C12 UNL     1       2.847  15.676  10.072  1.00  0.00     0.026 A 
HETATM   40  C13 UNL     1       2.142  16.684   9.440  1.00  0.00     0.003 A 
HETATM   41  C14 UNL     1       2.719  17.261   8.334  1.00  0.00     0.026 A 
HETATM   42  C15 UNL     1       3.959  16.842   7.877  1.00  0.00     0.062 A 
HETATM   43 CL2  UNL     1       4.600  17.646   6.458  1.00  0.00    -0.082 Cl
ENDBRANCH  34  36
ENDBRANCH   6  34
TORSDOF 10
ENDMDL
MODEL 3
REMARK VINA RESULT: -8.937261218      1.352      2.431
REMARK  10 active torsions:
REMARK  status: ('A' for Active; 'I' for Inactive)
REMARK    1  A    between atoms: C2_2  and  N1_3 
REMARK    2  A    between atoms: N1_3  and  C3_4 
REMARK    3  A    between atoms: N1_3  and  S1_40 
REMARK    4  A    between atoms: C3_4  and  C4_5 
REMARK    5  A    between atoms: C3_4  and  C19_37 
REMARK    6  A    between atoms: C4_5  and  O1_6 
REMARK    7  A    between atoms: C4_5  and  N2_8 
REMARK       I    between atoms: N2_8  and  C5_10 
REMARK       I    between atoms: C5_10  and  N3_12 
REMARK    8  A    between atoms: N3_12  and  C6_14 
REMARK    9  A    between atoms: C9_19  and  N5_20 
REMARK   10  A    between atoms: N5_20  and  C10_22 
ROOT
HETATM    1  C6  UNL     1       9.285  19.233   8.617  1.00  0.00     0.117 A 
HETATM    2  N4  UNL     1       8.131  19.173   7.857  1.00  0.00    -0.351 N 
ATOM      3  H4  UNL     1       7.879  19.991   7.303  1.00  0.00     0.166 HD
HETATM    4  C7  UNL     1       7.337  18.122   7.805  1.00  0.00     0.107 A 
HETATM    5  C8  UNL     1       7.599  16.984   8.517  1.00  0.00     0.053 A 
HETATM    6  C9  UNL     1       6.972  15.764   8.665  1.00  0.00     0.134 A 
HETATM    7  N6  UNL     1       7.739  15.065   9.518  1.00  0.00    -0.284 N 
ATOM      8  H6  UNL     1       7.542  14.114   9.831  1.00  0.00     0.188 HD
HETATM    9  N7  UNL     1       8.783  15.781   9.894  1.00  0.00    -0.298 N 
ATOM     10  H7  UNL     1       9.507  15.463  10.538  1.00  0.00     0.187 HD
HETATM   11  C16 UNL     1       8.754  17.001   9.297  1.00  0.00     0.073 A 
HETATM   12  C17 UNL     1       9.575  18.106   9.341  1.00  0.00     0.011 A 
HETATM   13  C18 UNL     1      10.778  18.036  10.186  1.00  0.00     0.054 C 
ENDROOT
BRANCH   1  14
HETATM   14  N3  UNL     1       9.905  20.307   8.545  1.00  0.00    -0.294 N 
HETATM   15  C5  UNL     1      10.456  21.091   7.532  1.00  0.00     0.327 C 
HETATM   16  N2  UNL     1       9.714  22.011   6.768  1.00  0.00    -0.291 N 
HETATM   17  O2  UNL     1      11.714  20.880   7.375  1.00  0.00    -0.247 OA
ATOM     18  H2  UNL     1       8.734  22.071   7.041  1.00  0.00     0.172 HD
ATOM     19  H3  UNL     1      10.047  20.724   9.465  1.00  0.00     0.172 HD
BRANCH  16  20
HETATM   20  C4  UNL     1      10.051  22.851   5.720  1.00  0.00     0.143 C 
BRANCH  20  21
HETATM   21  C3  UNL     1       9.986  22.716   4.251  1.00  0.00     0.170 C 
BRANCH  21  22
HETATM   22  N1  UNL     1       8.779  23.292   3.742  1.00  0.00    -0.331 N 
BRANCH  22  23
HETATM   23  C2  UNL     1       8.374  22.635   2.497  1.00  0.00     0.128 C 
HETATM   24  C1  UNL     1       7.896  21.230   2.653  1.00  0.00     0.027 C 
ENDBRANCH  22  23
BRANCH  22  25
HETATM   25  S1  UNL     1       8.352  24.981   3.766  1.00  0.00     0.016 S 
HETATM   26  C22 UNL     1       8.438  25.308   1.942  1.00  0.00     0.136 C 
HETATM   27  C23 UNL     1       6.590  24.915   4.528  1.00  0.00     0.136 C 
HETATM   28  O3  UNL     1       8.563  26.633   4.197  1.00  0.00    -0.251 OA
ENDBRANCH  22  25
ENDBRANCH  21  22
BRANCH  21  29
HETATM   29  C19 UNL     1      11.303  23.194   3.800  1.00  0.00     0.009 C 
HETATM   30  C20 UNL     1      12.254  21.973   3.975  1.00  0.00     0.012 C 
HETATM   31  C21 UNL     1      11.597  23.652   2.451  1.00  0.00     0.012 C 
ENDBRANCH  21  29
ENDBRANCH  20  21
BRANCH  20  32
HETATM   32  O1  UNL     1      10.520  24.005   6.118  1.00  0.00    -0.348 OA
ATOM     33  H1  UNL     1       9.904  24.506   6.639  1.00  0.00     0.219 HD
ENDBRANCH  20  32
ENDBRANCH  16  20
ENDBRANCH   1  14
BRANCH   6  34
HETATM   34  N5  UNL     1       5.877  15.421   8.076  1.00  0.00    -0.338 N 
ATOM     35  H5  UNL     1       5.930  14.834   7.244  1.00  0.00     0.167 HD
BRANCH  34  36
HETATM   36  C10 UNL     1       4.607  15.829   8.542  1.00  0.00     0.077 A 
HETATM   37  C11 UNL     1       3.926  16.837   7.891  1.00  0.00     0.062 A 
HETATM   38 CL1  UNL     1       4.573  17.650   6.481  1.00  0.00    -0.082 Cl
HETATM   39  C12 UNL     1       2.690  17.225   8.360  1.00  0.00     0.026 A 
HETATM   40  C13 UNL     1       2.096  16.643   9.466  1.00  0.00     0.003 A 
HETATM   41  C14 UNL     1       2.789  15.641  10.102  1.00  0.00     0.026 A 
HETATM   42  C15 UNL     1       4.034  15.235   9.646  1.00  0.00     0.062 A 
HETATM   43 CL2  UNL     1       4.828  13.950  10.533  1.00  0.00    -0.082 Cl
ENDBRANCH  34  36
ENDBRANCH   6  34
TORSDOF 10
ENDMDL
MODEL 4
REMARK VINA RESULT: -8.708153151      1.605      2.774
REMARK  10 active torsions:
REMARK  status: ('A' for Active; 'I' for Inactive)
REMARK    1  A    between atoms: C2_2  and  N1_3 
REMARK    2  A    between atoms: N1_3  and  C3_4 
REMARK    3  A    between atoms: N1_3  and  S1_40 
REMARK    4  A    between atoms: C3_4  and  C4_5 
REMARK    5  A    between atoms: C3_4  and  C19_37 
REMARK    6  A    between atoms: C4_5  and  O1_6 
REMARK    7  A    between atoms: C4_5  and  N2_8 
REMARK       I    between atoms: N2_8  and  C5_10 
REMARK       I    between atoms: C5_10  and  N3_12 
REMARK    8  A    between atoms: N3_12  and  C6_14 
REMARK    9  A    between atoms: C9_19  and  N5_20 
REMARK   10  A    between atoms: N5_20  and  C10_22 
ROOT
HETATM    1  C6  UNL     1       9.259  19.233   8.617  1.00  0.00     0.117 A 
HETATM    2  N4  UNL     1       8.095  19.161   7.872  1.00  0.00    -0.351 N 
ATOM      3  H4  UNL     1       7.825  19.978   7.324  1.00  0.00     0.166 HD
HETATM    4  C7  UNL     1       7.313  18.101   7.828  1.00  0.00     0.107 A 
HETATM    5  C8  UNL     1       7.600  16.963   8.533  1.00  0.00     0.053 A 
HETATM    6  C9  UNL     1       6.990  15.736   8.685  1.00  0.00     0.134 A 
HETATM    7  N6  UNL     1       7.777  15.043   9.525  1.00  0.00    -0.284 N 
ATOM      8  H6  UNL     1       7.596  14.089   9.838  1.00  0.00     0.188 HD
HETATM    9  N7  UNL     1       8.817  15.771   9.889  1.00  0.00    -0.298 N 
ATOM     10  H7  UNL     1       9.553  15.460  10.523  1.00  0.00     0.187 HD
HETATM   11  C16 UNL     1       8.764  16.993   9.297  1.00  0.00     0.073 A 
HETATM   12  C17 UNL     1       9.572  18.108   9.333  1.00  0.00     0.011 A 
HETATM   13  C18 UNL     1      10.788  18.051  10.162  1.00  0.00     0.054 C 
ENDROOT
BRANCH   1  14
HETATM   14  N3  UNL     1       9.864  20.315   8.540  1.00  0.00    -0.294 N 
HETATM   15  C5  UNL     1      10.431  21.087   7.527  1.00  0.00     0.327 C 
HETATM   16  N2  UNL     1       9.696  21.981   6.725  1.00  0.00    -0.291 N 
HETATM   17  O2  UNL     1      11.695  20.893   7.409  1.00  0.00    -0.247 OA
ATOM     18  H2  UNL     1       8.708  22.031   6.969  1.00  0.00     0.172 HD
ATOM     19  H3  UNL     1       9.974  20.752   9.455  1.00  0.00     0.172 HD
BRANCH  16  20
HETATM   20  C4  UNL     1      10.048  22.805   5.670  1.00  0.00     0.143 C 
BRANCH  20  21
HETATM   21  C3  UNL     1       9.874  22.710   4.206  1.00  0.00     0.170 C 
BRANCH  21  22
HETATM   22  N1  UNL     1       8.528  23.022   3.835  1.00  0.00    -0.331 N 
BRANCH  22  23
HETATM   23  C2  UNL     1       8.097  24.280   4.450  1.00  0.00     0.128 C 
HETATM   24  C1  UNL     1       7.797  25.381   3.487  1.00  0.00     0.027 C 
ENDBRANCH  22  23
BRANCH  22  25
HETATM   25  S1  UNL     1       7.217  21.889   3.664  1.00  0.00     0.016 S 
HETATM   26  C22 UNL     1       6.128  22.526   5.024  1.00  0.00     0.136 C 
HETATM   27  C23 UNL     1       6.628  22.258   1.873  1.00  0.00     0.136 C 
HETATM   28  O3  UNL     1       6.504  20.322   3.660  1.00  0.00    -0.251 OA
ENDBRANCH  22  25
ENDBRANCH  21  22
BRANCH  21  29
HETATM   29  C19 UNL     1      11.008  23.481   3.671  1.00  0.00     0.009 C 
HETATM   30  C20 UNL     1      12.165  22.449   3.532  1.00  0.00     0.012 C 
HETATM   31  C21 UNL     1      11.010  24.158   2.383  1.00  0.00     0.012 C 
ENDBRANCH  21  29
ENDBRANCH  20  21
BRANCH  20  32
HETATM   32  O1  UNL     1      10.659  23.896   6.053  1.00  0.00    -0.348 OA
ATOM     33  H1  UNL     1      10.408  24.186   6.922  1.00  0.00     0.219 HD
ENDBRANCH  20  32
ENDBRANCH  16  20
ENDBRANCH   1  14
BRANCH   6  34
HETATM   34  N5  UNL     1       5.892  15.381   8.110  1.00  0.00    -0.338 N 
ATOM     35  H5  UNL     1       5.940  14.772   7.293  1.00  0.00     0.167 HD
BRANCH  34  36
HETATM   36  C10 UNL     1       4.624  15.805   8.570  1.00  0.00     0.077 A 
HETATM   37  C11 UNL     1       3.953  16.811   7.908  1.00  0.00     0.062 A 
HETATM   38 CL1  UNL     1       4.609  17.605   6.490  1.00  0.00    -0.082 Cl
HETATM   39  C12 UNL     1       2.721  17.215   8.372  1.00  0.00     0.026 A 
HETATM   40  C13 UNL     1       2.120  16.650   9.482  1.00  0.00     0.003 A 
HETATM   41  C14 UNL     1       2.803  15.648  10.129  1.00  0.00     0.026 A 
HETATM   42  C15 UNL     1       4.045  15.227   9.679  1.00  0.00     0.062 A 
HETATM   43 CL2  UNL     1       4.826  13.944  10.580  1.00  0.00    -0.082 Cl
ENDBRANCH  34  36
ENDBRANCH   6  34
TORSDOF 10
ENDMDL
MODEL 5
REMARK VINA RESULT: -8.706495039      1.382      2.802
REMARK  10 active torsions:
REMARK  status: ('A' for Active; 'I' for Inactive)
REMARK    1  A    between atoms: C2_2  and  N1_3 
REMARK    2  A    between atoms: N1_3  and  C3_4 
REMARK    3  A    between atoms: N1_3  and  S1_40 
REMARK    4  A    between atoms: C3_4  and  C4_5 
REMARK    5  A    between atoms: C3_4  and  C19_37 
REMARK    6  A    between atoms: C4_5  and  O1_6 
REMARK    7  A    between atoms: C4_5  and  N2_8 
REMARK       I    between atoms: N2_8  and  C5_10 
REMARK       I    between atoms: C5_10  and  N3_12 
REMARK    8  A    between atoms: N3_12  and  C6_14 
REMARK    9  A    between atoms: C9_19  and  N5_20 
REMARK   10  A    between atoms: N5_20  and  C10_22 
ROOT
HETATM    1  C6  UNL     1       9.374  19.359   8.532  1.00  0.00     0.117 A 
HETATM    2  N4  UNL     1       8.230  19.365   7.754  1.00  0.00    -0.351 N 
ATOM      3  H4  UNL     1       8.017  20.208   7.221  1.00  0.00     0.166 HD
HETATM    4  C7  UNL     1       7.398  18.347   7.660  1.00  0.00     0.107 A 
HETATM    5  C8  UNL     1       7.606  17.179   8.341  1.00  0.00     0.053 A 
HETATM    6  C9  UNL     1       6.932  15.981   8.443  1.00  0.00     0.134 A 
HETATM    7  N6  UNL     1       7.659  15.228   9.286  1.00  0.00    -0.284 N 
ATOM      8  H6  UNL     1       7.422  14.277   9.568  1.00  0.00     0.188 HD
HETATM    9  N7  UNL     1       8.723  15.892   9.698  1.00  0.00    -0.298 N 
ATOM     10  H7  UNL     1       9.425  15.529  10.343  1.00  0.00     0.187 HD
HETATM   11  C16 UNL     1       8.749  17.130   9.138  1.00  0.00     0.073 A 
HETATM   12  C17 UNL     1       9.610  18.201   9.226  1.00  0.00     0.011 A 
HETATM   13  C18 UNL     1      10.797  18.061  10.086  1.00  0.00     0.054 C 
ENDROOT
BRANCH   1  14
HETATM   14  N3  UNL     1      10.034  20.411   8.501  1.00  0.00    -0.294 N 
HETATM   15  C5  UNL     1      10.575  21.236   7.517  1.00  0.00     0.327 C 
HETATM   16  N2  UNL     1       9.842  22.233   6.846  1.00  0.00    -0.291 N 
HETATM   17  O2  UNL     1      11.815  20.987   7.292  1.00  0.00    -0.247 OA
ATOM     18  H2  UNL     1       8.876  22.313   7.164  1.00  0.00     0.172 HD
ATOM     19  H3  UNL     1      10.231  20.761   9.439  1.00  0.00     0.172 HD
BRANCH  16  20
HETATM   20  C4  UNL     1      10.169  23.126   5.840  1.00  0.00     0.143 C 
BRANCH  20  21
HETATM   21  C3  UNL     1       9.971  23.122   4.376  1.00  0.00     0.170 C 
BRANCH  21  22
HETATM   22  N1  UNL     1      11.229  23.130   3.695  1.00  0.00    -0.331 N 
BRANCH  22  23
HETATM   23  C2  UNL     1      11.079  23.644   2.331  1.00  0.00     0.128 C 
HETATM   24  C1  UNL     1      10.306  24.917   2.220  1.00  0.00     0.027 C 
ENDBRANCH  22  23
BRANCH  22  25
HETATM   25  S1  UNL     1      12.471  21.914   3.808  1.00  0.00     0.016 S 
HETATM   26  C22 UNL     1      12.779  21.672   1.995  1.00  0.00     0.136 C 
HETATM   27  C23 UNL     1      13.837  22.856   4.775  1.00  0.00     0.136 C 
HETATM   28  O3  UNL     1      13.109  20.377   4.247  1.00  0.00    -0.251 OA
ENDBRANCH  22  25
ENDBRANCH  21  22
BRANCH  21  29
HETATM   29  C19 UNL     1       8.998  22.038   4.161  1.00  0.00     0.009 C 
HETATM   30  C20 UNL     1       7.613  22.673   4.480  1.00  0.00     0.012 C 
HETATM   31  C21 UNL     1       8.773  21.374   2.886  1.00  0.00     0.012 C 
ENDBRANCH  21  29
ENDBRANCH  20  21
BRANCH  20  32
HETATM   32  O1  UNL     1      10.778  24.195   6.281  1.00  0.00    -0.348 OA
ATOM     33  H1  UNL     1      11.114  24.103   7.164  1.00  0.00     0.219 HD
ENDBRANCH  20  32
ENDBRANCH  16  20
ENDBRANCH   1  14
BRANCH   6  34
HETATM   34  N5  UNL     1       5.834  15.697   7.829  1.00  0.00    -0.338 N 
ATOM     35  H5  UNL     1       5.882  15.178   6.952  1.00  0.00     0.167 HD
BRANCH  34  36
HETATM   36  C10 UNL     1       4.567  16.079   8.326  1.00  0.00     0.077 A 
HETATM   37  C11 UNL     1       3.876  17.111   7.727  1.00  0.00     0.062 A 
HETATM   38 CL1  UNL     1       4.503  17.987   6.347  1.00  0.00    -0.082 Cl
HETATM   39  C12 UNL     1       2.644  17.472   8.226  1.00  0.00     0.026 A 
HETATM   40  C13 UNL     1       2.064  16.841   9.312  1.00  0.00     0.003 A 
HETATM   41  C14 UNL     1       2.768  15.815   9.896  1.00  0.00     0.026 A 
HETATM   42  C15 UNL     1       4.009  15.435   9.410  1.00  0.00     0.062 A 
HETATM   43 CL2  UNL     1       4.818  14.116  10.231  1.00  0.00    -0.082 Cl
ENDBRANCH  34  36
ENDBRANCH   6  34
TORSDOF 10
ENDMDL
