MODEL 1
REMARK VINA RESULT: -6.378786996      0.000      0.000
REMARK  8 active torsions:
REMARK  status: ('A' for Active; 'I' for Inactive)
REMARK    1  A    between atoms: C2_2  and  C3_3 
REMARK    2  A    between atoms: C3_3  and  C4_4 
REMARK    3  A    between atoms: C4_4  and  C5_5 
REMARK    4  A    between atoms: C7_10  and  C8_11 
REMARK    5  A    between atoms: C14_21  and  C15_22 
REMARK    6  A    between atoms: C15_22  and  C16_23 
REMARK    7  A    between atoms: C16_23  and  C17_24 
REMARK    8  A    between atoms: C17_24  and  N3_25 
ROOT
HETATM    1  C5  UNL     1       1.863  20.812   5.638  1.00  0.00     0.177 C 
HETATM    2  N1  UNL     1       3.315  20.693   5.819  1.00  0.00    -0.346 N 
ATOM      3  H1  UNL     1       3.677  19.740   5.838  1.00  0.00     0.163 HD
HETATM    4  C6  UNL     1       4.262  21.692   5.968  1.00  0.00     0.249 C 
HETATM    5  O1  UNL     1       4.970  21.675   7.043  1.00  0.00    -0.271 OA
HETATM    6  C7  UNL     1       4.616  22.819   5.071  1.00  0.00     0.280 C 
HETATM    7  N2  UNL     1       5.116  23.967   5.849  1.00  0.00    -0.062 N 
ATOM      8  H21 UNL     1       6.127  24.059   5.756  1.00  0.00     0.278 HD
ATOM      9  H22 UNL     1       5.058  23.783   6.850  1.00  0.00     0.278 HD
HETATM   10  C11 UNL     1       4.448  25.204   5.508  1.00  0.00     0.240 C 
HETATM   11  C12 UNL     1       3.814  25.913   6.680  1.00  0.00     0.106 C 
HETATM   12  C13 UNL     1       2.450  26.424   6.420  1.00  0.00     0.141 C 
HETATM   13  O2  UNL     1       2.265  26.996   5.365  1.00  0.00    -0.297 OA
HETATM   14  C14 UNL     1       1.278  26.316   7.301  1.00  0.00     0.147 C 
HETATM   15  C18 UNL     1      -0.010  26.550   6.634  1.00  0.00     0.231 C 
HETATM   16  O3  UNL     1      -0.364  27.794   6.746  1.00  0.00    -0.273 OA
HETATM   17  N4  UNL     1      -0.880  25.709   5.932  1.00  0.00    -0.351 N 
HETATM   18  C19 UNL     1      -1.531  26.270   4.731  1.00  0.00     0.153 C 
HETATM   19  C20 UNL     1      -1.255  24.335   6.217  1.00  0.00     0.166 C 
HETATM   20  C21 UNL     1      -1.524  23.616   4.896  1.00  0.00    -0.012 A 
HETATM   21  C22 UNL     1      -2.812  23.604   4.412  1.00  0.00     0.013 A 
HETATM   22  C23 UNL     1      -3.147  23.060   3.200  1.00  0.00     0.026 A 
HETATM   23  C24 UNL     1      -2.166  22.497   2.417  1.00  0.00     0.058 A 
HETATM   24 CL1  UNL     1      -2.548  21.790   0.854  1.00  0.00    -0.082 Cl
HETATM   25  C25 UNL     1      -0.872  22.506   2.898  1.00  0.00     0.083 A 
HETATM   26 CL2  UNL     1       0.385  21.846   1.805  1.00  0.00    -0.080 Cl
HETATM   27  C26 UNL     1      -0.536  23.056   4.130  1.00  0.00     0.066 A 
HETATM   28  N5  UNL     1       0.846  22.932   4.483  1.00  0.00    -0.323 N 
ATOM     29  H5  UNL     1       1.474  23.418   3.842  1.00  0.00     0.169 HD
HETATM   30  C27 UNL     1       1.508  22.283   5.524  1.00  0.00     0.245 C 
HETATM   31  O4  UNL     1       1.926  22.850   6.560  1.00  0.00    -0.271 OA
ENDROOT
BRANCH  14  32
HETATM   32  C15 UNL     1       1.544  27.275   8.448  1.00  0.00     0.023 C 
BRANCH  32  33
HETATM   33  C16 UNL     1       0.530  27.252   9.529  1.00  0.00     0.028 C 
BRANCH  33  34
HETATM   34  C17 UNL     1       0.066  28.634   9.944  1.00  0.00     0.229 C 
BRANCH  34  35
HETATM   35  N3  UNL     1       0.664  29.649   9.097  1.00  0.00    -0.079 N 
ATOM     36  H33 UNL     1      -0.027  30.325   8.771  1.00  0.00     0.274 HD
ATOM     37  H32 UNL     1       1.260  30.283   9.629  1.00  0.00     0.274 HD
ATOM     38  H31 UNL     1       1.167  29.217   8.322  1.00  0.00     0.274 HD
ENDBRANCH  34  35
ENDBRANCH  33  34
ENDBRANCH  32  33
ENDBRANCH  14  32
BRANCH   6  39
HETATM   39  C8  UNL     1       5.828  22.371   4.247  1.00  0.00     0.017 C 
HETATM   40  C9  UNL     1       7.084  23.057   4.724  1.00  0.00     0.012 C 
HETATM   41  C10 UNL     1       5.654  22.665   2.793  1.00  0.00     0.012 C 
ENDBRANCH   6  39
BRANCH   1  42
HETATM   42  C4  UNL     1       1.178  20.358   6.936  1.00  0.00     0.035 C 
BRANCH  42  43
HETATM   43  C3  UNL     1      -0.297  20.617   6.898  1.00  0.00     0.002 C 
BRANCH  43  44
HETATM   44  C2  UNL     1      -0.986  19.335   7.332  1.00  0.00    -0.004 C 
HETATM   45  C1  UNL     1      -2.439  19.304   6.948  1.00  0.00     0.005 C 
ENDBRANCH  43  44
ENDBRANCH  42  43
ENDBRANCH   1  42
TORSDOF 8
ENDMDL
MODEL 2
REMARK VINA RESULT: -6.328658310      1.437      1.855
REMARK  8 active torsions:
REMARK  status: ('A' for Active; 'I' for Inactive)
REMARK    1  A    between atoms: C2_2  and  C3_3 
REMARK    2  A    between atoms: C3_3  and  C4_4 
REMARK    3  A    between atoms: C4_4  and  C5_5 
REMARK    4  A    between atoms: C7_10  and  C8_11 
REMARK    5  A    between atoms: C14_21  and  C15_22 
REMARK    6  A    between atoms: C15_22  and  C16_23 
REMARK    7  A    between atoms: C16_23  and  C17_24 
REMARK    8  A    between atoms: C17_24  and  N3_25 
ROOT
HETATM    1  C5  UNL     1       2.485  21.153   5.050  1.00  0.00     0.177 C 
HETATM    2  N1  UNL     1       3.872  21.505   5.374  1.00  0.00    -0.346 N 
ATOM      3  H1  UNL     1       4.555  20.758   5.247  1.00  0.00     0.163 HD
HETATM    4  C6  UNL     1       4.386  22.708   5.829  1.00  0.00     0.249 C 
HETATM    5  O1  UNL     1       5.010  22.692   6.956  1.00  0.00    -0.271 OA
HETATM    6  C7  UNL     1       4.342  24.060   5.222  1.00  0.00     0.280 C 
HETATM    7  N2  UNL     1       4.360  25.101   6.266  1.00  0.00    -0.062 N 
ATOM      8  H21 UNL     1       5.272  25.555   6.313  1.00  0.00     0.278 HD
ATOM      9  H22 UNL     1       4.334  24.685   7.197  1.00  0.00     0.278 HD
HETATM   10  C11 UNL     1       3.303  26.074   6.101  1.00  0.00     0.240 C 
HETATM   11  C12 UNL     1       2.409  26.234   7.307  1.00  0.00     0.106 C 
HETATM   12  C13 UNL     1       0.964  26.287   6.994  1.00  0.00     0.141 C 
HETATM   13  O2  UNL     1       0.626  26.985   6.058  1.00  0.00    -0.297 OA
HETATM   14  C14 UNL     1      -0.122  25.584   7.691  1.00  0.00     0.147 C 
HETATM   15  C18 UNL     1      -1.380  25.505   6.936  1.00  0.00     0.231 C 
HETATM   16  O3  UNL     1      -2.166  26.489   7.250  1.00  0.00    -0.273 OA
HETATM   17  N4  UNL     1      -1.857  24.598   5.983  1.00  0.00    -0.351 N 
HETATM   18  C19 UNL     1      -2.620  25.157   4.849  1.00  0.00     0.153 C 
HETATM   19  C20 UNL     1      -1.719  23.152   5.944  1.00  0.00     0.166 C 
HETATM   20  C21 UNL     1      -1.656  22.706   4.483  1.00  0.00    -0.012 A 
HETATM   21  C22 UNL     1      -2.832  22.360   3.858  1.00  0.00     0.013 A 
HETATM   22  C23 UNL     1      -2.900  22.025   2.531  1.00  0.00     0.026 A 
HETATM   23  C24 UNL     1      -1.751  22.030   1.774  1.00  0.00     0.058 A 
HETATM   24 CL1  UNL     1      -1.789  21.610   0.067  1.00  0.00    -0.082 Cl
HETATM   25  C25 UNL     1      -0.569  22.375   2.396  1.00  0.00     0.083 A 
HETATM   26 CL2  UNL     1       0.884  22.457   1.351  1.00  0.00    -0.080 Cl
HETATM   27  C26 UNL     1      -0.504  22.711   3.744  1.00  0.00     0.066 A 
HETATM   28  N5  UNL     1       0.814  22.996   4.226  1.00  0.00    -0.323 N 
ATOM     29  H5  UNL     1       1.247  23.801   3.773  1.00  0.00     0.169 HD
HETATM   30  C27 UNL     1       1.625  22.396   5.189  1.00  0.00     0.245 C 
HETATM   31  O4  UNL     1       1.768  22.820   6.359  1.00  0.00    -0.271 OA
ENDROOT
BRANCH  14  32
HETATM   32  C15 UNL     1      -0.268  26.288   9.029  1.00  0.00     0.023 C 
BRANCH  32  33
HETATM   33  C16 UNL     1       0.480  27.562   9.149  1.00  0.00     0.028 C 
BRANCH  33  34
HETATM   34  C17 UNL     1      -0.419  28.779   9.231  1.00  0.00     0.229 C 
BRANCH  34  35
HETATM   35  N3  UNL     1      -0.866  29.174   7.908  1.00  0.00    -0.079 N 
ATOM     36  H33 UNL     1      -0.466  28.580   7.181  1.00  0.00     0.274 HD
ATOM     37  H32 UNL     1      -1.851  28.954   7.761  1.00  0.00     0.274 HD
ATOM     38  H31 UNL     1      -0.669  30.160   7.743  1.00  0.00     0.274 HD
ENDBRANCH  34  35
ENDBRANCH  33  34
ENDBRANCH  32  33
ENDBRANCH  14  32
BRANCH   6  39
HETATM   39  C8  UNL     1       5.665  24.259   4.475  1.00  0.00     0.017 C 
HETATM   40  C9  UNL     1       5.981  25.726   4.324  1.00  0.00     0.012 C 
HETATM   41  C10 UNL     1       5.637  23.640   3.116  1.00  0.00     0.012 C 
ENDBRANCH   6  39
BRANCH   1  42
HETATM   42  C4  UNL     1       1.961  20.208   6.142  1.00  0.00     0.035 C 
BRANCH  42  43
HETATM   43  C3  UNL     1       3.029  19.269   6.612  1.00  0.00     0.002 C 
BRANCH  43  44
HETATM   44  C2  UNL     1       2.434  18.448   7.743  1.00  0.00    -0.004 C 
HETATM   45  C1  UNL     1       3.179  17.164   7.977  1.00  0.00     0.005 C 
ENDBRANCH  43  44
ENDBRANCH  42  43
ENDBRANCH   1  42
TORSDOF 8
ENDMDL
MODEL 3
REMARK VINA RESULT: -6.284617994      4.008      6.971
REMARK  8 active torsions:
REMARK  status: ('A' for Active; 'I' for Inactive)
REMARK    1  A    between atoms: C2_2  and  C3_3 
REMARK    2  A    between atoms: C3_3  and  C4_4 
REMARK    3  A    between atoms: C4_4  and  C5_5 
REMARK    4  A    between atoms: C7_10  and  C8_11 
REMARK    5  A    between atoms: C14_21  and  C15_22 
REMARK    6  A    between atoms: C15_22  and  C16_23 
REMARK    7  A    between atoms: C16_23  and  C17_24 
REMARK    8  A    between atoms: C17_24  and  N3_25 
ROOT
HETATM    1  C5  UNL     1       6.205  23.392   2.526  1.00  0.00     0.177 C 
HETATM    2  N1  UNL     1       7.642  23.145   2.689  1.00  0.00    -0.346 N 
ATOM      3  H1  UNL     1       8.243  23.578   1.988  1.00  0.00     0.163 HD
HETATM    4  C6  UNL     1       8.299  22.408   3.661  1.00  0.00     0.249 C 
HETATM    5  O1  UNL     1       9.028  21.425   3.260  1.00  0.00    -0.271 OA
HETATM    6  C7  UNL     1       8.308  22.561   5.136  1.00  0.00     0.280 C 
HETATM    7  N2  UNL     1       8.519  21.258   5.793  1.00  0.00    -0.062 N 
ATOM      8  H21 UNL     1       9.466  21.184   6.163  1.00  0.00     0.278 HD
ATOM      9  H22 UNL     1       8.550  20.504   5.107  1.00  0.00     0.278 HD
HETATM   10  C11 UNL     1       7.536  20.987   6.819  1.00  0.00     0.240 C 
HETATM   11  C12 UNL     1       6.783  19.691   6.635  1.00  0.00     0.106 C 
HETATM   12  C13 UNL     1       5.324  19.795   6.855  1.00  0.00     0.141 C 
HETATM   13  O2  UNL     1       4.955  20.423   7.827  1.00  0.00    -0.297 OA
HETATM   14  C14 UNL     1       4.257  19.222   6.022  1.00  0.00     0.147 C 
HETATM   15  C18 UNL     1       2.928  19.807   6.247  1.00  0.00     0.231 C 
HETATM   16  O3  UNL     1       2.264  19.113   7.120  1.00  0.00    -0.273 OA
HETATM   17  N4  UNL     1       2.284  20.927   5.711  1.00  0.00    -0.351 N 
HETATM   18  C19 UNL     1       1.462  21.734   6.636  1.00  0.00     0.153 C 
HETATM   19  C20 UNL     1       2.295  21.425   4.346  1.00  0.00     0.166 C 
HETATM   20  C21 UNL     1       2.174  22.949   4.380  1.00  0.00    -0.012 A 
HETATM   21  C22 UNL     1       0.916  23.503   4.307  1.00  0.00     0.013 A 
HETATM   22  C23 UNL     1       0.689  24.850   4.411  1.00  0.00     0.026 A 
HETATM   23  C24 UNL     1       1.753  25.702   4.597  1.00  0.00     0.058 A 
HETATM   24 CL1  UNL     1       1.510  27.437   4.738  1.00  0.00    -0.082 Cl
HETATM   25  C25 UNL     1       3.016  25.152   4.670  1.00  0.00     0.083 A 
HETATM   26 CL2  UNL     1       4.359  26.289   5.005  1.00  0.00    -0.080 Cl
HETATM   27  C26 UNL     1       3.243  23.784   4.561  1.00  0.00     0.066 A 
HETATM   28  N5  UNL     1       4.622  23.401   4.614  1.00  0.00    -0.323 N 
ATOM     29  H5  UNL     1       5.074  23.633   5.499  1.00  0.00     0.169 HD
HETATM   30  C27 UNL     1       5.471  22.775   3.703  1.00  0.00     0.245 C 
HETATM   31  O4  UNL     1       5.765  21.557   3.729  1.00  0.00    -0.271 OA
ENDROOT
BRANCH  14  32
HETATM   32  C15 UNL     1       4.305  17.725   6.276  1.00  0.00     0.023 C 
BRANCH  32  33
HETATM   33  C16 UNL     1       4.976  17.327   7.535  1.00  0.00     0.028 C 
BRANCH  33  34
HETATM   34  C17 UNL     1       4.104  16.474   8.435  1.00  0.00     0.229 C 
BRANCH  34  35
HETATM   35  N3  UNL     1       3.159  17.300   9.161  1.00  0.00    -0.079 N 
ATOM     36  H33 UNL     1       3.271  18.290   8.937  1.00  0.00     0.274 HD
ATOM     37  H32 UNL     1       2.206  17.174   8.821  1.00  0.00     0.274 HD
ATOM     38  H31 UNL     1       3.229  17.128  10.164  1.00  0.00     0.274 HD
ENDBRANCH  34  35
ENDBRANCH  33  34
ENDBRANCH  32  33
ENDBRANCH  14  32
BRANCH   6  39
HETATM   39  C8  UNL     1       9.563  23.365   5.494  1.00  0.00     0.017 C 
HETATM   40  C9  UNL     1       9.835  24.427   4.458  1.00  0.00     0.012 C 
HETATM   41  C10 UNL     1      10.771  22.493   5.606  1.00  0.00     0.012 C 
ENDBRANCH   6  39
BRANCH   1  42
HETATM   42  C4  UNL     1       5.714  22.588   1.312  1.00  0.00     0.035 C 
BRANCH  42  43
HETATM   43  C3  UNL     1       5.162  23.486   0.247  1.00  0.00     0.002 C 
BRANCH  43  44
HETATM   44  C2  UNL     1       4.237  24.476   0.934  1.00  0.00    -0.004 C 
HETATM   45  C1  UNL     1       2.796  24.051   0.879  1.00  0.00     0.005 C 
ENDBRANCH  43  44
ENDBRANCH  42  43
ENDBRANCH   1  42
TORSDOF 8
ENDMDL
MODEL 4
REMARK VINA RESULT: -6.251526530      4.985      8.422
REMARK  8 active torsions:
REMARK  status: ('A' for Active; 'I' for Inactive)
REMARK    1  A    between atoms: C2_2  and  C3_3 
REMARK    2  A    between atoms: C3_3  and  C4_4 
REMARK    3  A    between atoms: C4_4  and  C5_5 
REMARK    4  A    between atoms: C7_10  and  C8_11 
REMARK    5  A    between atoms: C14_21  and  C15_22 
REMARK    6  A    between atoms: C15_22  and  C16_23 
REMARK    7  A    between atoms: C16_23  and  C17_24 
REMARK    8  A    between atoms: C17_24  and  N3_25 
ROOT
HETATM    1  C5  UNL     1       8.309  22.884   3.053  1.00  0.00     0.177 C 
HETATM    2  N1  UNL     1       9.742  22.929   3.370  1.00  0.00    -0.346 N 
ATOM      3  H1  UNL     1      10.330  23.390   2.676  1.00  0.00     0.163 HD
HETATM    4  C6  UNL     1      10.408  22.433   4.478  1.00  0.00     0.249 C 
HETATM    5  O1  UNL     1      11.337  21.568   4.266  1.00  0.00    -0.271 OA
HETATM    6  C7  UNL     1      10.231  22.739   5.918  1.00  0.00     0.280 C 
HETATM    7  N2  UNL     1      10.595  21.575   6.746  1.00  0.00    -0.062 N 
ATOM      8  H21 UNL     1      11.495  21.718   7.204  1.00  0.00     0.278 HD
ATOM      9  H22 UNL     1      10.832  20.772   6.163  1.00  0.00     0.278 HD
HETATM   10  C11 UNL     1       9.570  21.234   7.708  1.00  0.00     0.240 C 
HETATM   11  C12 UNL     1       9.081  19.808   7.620  1.00  0.00     0.106 C 
HETATM   12  C13 UNL     1       7.611  19.660   7.697  1.00  0.00     0.141 C 
HETATM   13  O2  UNL     1       7.034  20.307   8.549  1.00  0.00    -0.297 OA
HETATM   14  C14 UNL     1       6.757  18.814   6.851  1.00  0.00     0.147 C 
HETATM   15  C18 UNL     1       5.330  19.160   6.885  1.00  0.00     0.231 C 
HETATM   16  O3  UNL     1       4.707  18.450   7.776  1.00  0.00    -0.273 OA
HETATM   17  N4  UNL     1       4.561  20.077   6.162  1.00  0.00    -0.351 N 
HETATM   18  C19 UNL     1       3.515  20.809   6.905  1.00  0.00     0.153 C 
HETATM   19  C20 UNL     1       4.631  20.423   4.752  1.00  0.00     0.166 C 
HETATM   20  C21 UNL     1       4.242  21.892   4.588  1.00  0.00    -0.012 A 
HETATM   21  C22 UNL     1       2.922  22.191   4.338  1.00  0.00     0.013 A 
HETATM   22  C23 UNL     1       2.452  23.475   4.255  1.00  0.00     0.026 A 
HETATM   23  C24 UNL     1       3.323  24.526   4.428  1.00  0.00     0.058 A 
HETATM   24 CL1  UNL     1       2.766  26.190   4.333  1.00  0.00    -0.082 Cl
HETATM   25  C25 UNL     1       4.648  24.232   4.678  1.00  0.00     0.083 A 
HETATM   26 CL2  UNL     1       5.727  25.629   4.986  1.00  0.00    -0.080 Cl
HETATM   27  C26 UNL     1       5.122  22.927   4.758  1.00  0.00     0.066 A 
HETATM   28  N5  UNL     1       6.533  22.816   4.978  1.00  0.00    -0.323 N 
ATOM     29  H5  UNL     1       6.839  23.220   5.863  1.00  0.00     0.169 HD
HETATM   30  C27 UNL     1       7.572  22.267   4.228  1.00  0.00     0.245 C 
HETATM   31  O4  UNL     1       8.071  21.136   4.429  1.00  0.00    -0.271 OA
ENDROOT
BRANCH  14  32
HETATM   32  C15 UNL     1       7.040  17.387   7.290  1.00  0.00     0.023 C 
BRANCH  32  33
HETATM   33  C16 UNL     1       7.794  17.262   8.560  1.00  0.00     0.028 C 
BRANCH  33  34
HETATM   34  C17 UNL     1       7.858  15.840   9.081  1.00  0.00     0.229 C 
BRANCH  34  35
HETATM   35  N3  UNL     1       9.123  15.598   9.747  1.00  0.00    -0.079 N 
ATOM     36  H33 UNL     1       9.486  14.666   9.545  1.00  0.00     0.274 HD
ATOM     37  H32 UNL     1       9.878  16.148   9.337  1.00  0.00     0.274 HD
ATOM     38  H31 UNL     1       9.037  15.763  10.750  1.00  0.00     0.274 HD
ENDBRANCH  34  35
ENDBRANCH  33  34
ENDBRANCH  32  33
ENDBRANCH  14  32
BRANCH   6  39
HETATM   39  C8  UNL     1      11.279  23.796   6.283  1.00  0.00     0.017 C 
HETATM   40  C9  UNL     1      11.740  23.625   7.709  1.00  0.00     0.012 C 
HETATM   41  C10 UNL     1      10.751  25.184   6.121  1.00  0.00     0.012 C 
ENDBRANCH   6  39
BRANCH   1  42
HETATM   42  C4  UNL     1       8.102  21.880   1.908  1.00  0.00     0.035 C 
BRANCH  42  43
HETATM   43  C3  UNL     1       6.763  22.057   1.259  1.00  0.00     0.002 C 
BRANCH  43  44
HETATM   44  C2  UNL     1       6.524  23.552   1.132  1.00  0.00    -0.004 C 
HETATM   45  C1  UNL     1       5.062  23.899   1.098  1.00  0.00     0.005 C 
ENDBRANCH  43  44
ENDBRANCH  42  43
ENDBRANCH   1  42
TORSDOF 8
ENDMDL
MODEL 5
REMARK VINA RESULT: -6.043050901      6.862     11.071
REMARK  8 active torsions:
REMARK  status: ('A' for Active; 'I' for Inactive)
REMARK    1  A    between atoms: C2_2  and  C3_3 
REMARK    2  A    between atoms: C3_3  and  C4_4 
REMARK    3  A    between atoms: C4_4  and  C5_5 
REMARK    4  A    between atoms: C7_10  and  C8_11 
REMARK    5  A    between atoms: C14_21  and  C15_22 
REMARK    6  A    between atoms: C15_22  and  C16_23 
REMARK    7  A    between atoms: C16_23  and  C17_24 
REMARK    8  A    between atoms: C17_24  and  N3_25 
ROOT
HETATM    1  C5  UNL     1      12.374  26.003   6.297  1.00  0.00     0.177 C 
HETATM    2  N1  UNL     1      12.116  27.402   6.661  1.00  0.00    -0.346 N 
ATOM      3  H1  UNL     1      12.746  27.796   7.359  1.00  0.00     0.163 HD
HETATM    4  C6  UNL     1      11.137  28.262   6.191  1.00  0.00     0.249 C 
HETATM    5  O1  UNL     1      10.329  28.763   7.059  1.00  0.00    -0.271 OA
HETATM    6  C7  UNL     1      10.850  28.723   4.811  1.00  0.00     0.280 C 
HETATM    7  N2  UNL     1       9.416  29.023   4.651  1.00  0.00    -0.062 N 
ATOM      8  H21 UNL     1       9.252  30.029   4.627  1.00  0.00     0.278 HD
ATOM      9  H22 UNL     1       8.897  28.792   5.498  1.00  0.00     0.278 HD
HETATM   10  C11 UNL     1       8.837  28.375   3.494  1.00  0.00     0.240 C 
HETATM   11  C12 UNL     1       7.639  27.507   3.799  1.00  0.00     0.106 C 
HETATM   12  C13 UNL     1       7.649  26.193   3.121  1.00  0.00     0.141 C 
HETATM   13  O2  UNL     1       7.956  26.178   1.946  1.00  0.00    -0.297 OA
HETATM   14  C14 UNL     1       7.327  24.886   3.713  1.00  0.00     0.147 C 
HETATM   15  C18 UNL     1       7.796  23.732   2.934  1.00  0.00     0.231 C 
HETATM   16  O3  UNL     1       6.864  23.309   2.134  1.00  0.00    -0.273 OA
HETATM   17  N4  UNL     1       9.012  23.042   2.903  1.00  0.00    -0.351 N 
HETATM   18  C19 UNL     1       9.497  22.596   1.581  1.00  0.00     0.153 C 
HETATM   19  C20 UNL     1       9.890  22.681   4.003  1.00  0.00     0.166 C 
HETATM   20  C21 UNL     1      11.334  22.689   3.501  1.00  0.00    -0.012 A 
HETATM   21  C22 UNL     1      11.862  21.512   3.023  1.00  0.00     0.013 A 
HETATM   22  C23 UNL     1      13.115  21.427   2.475  1.00  0.00     0.026 A 
HETATM   23  C24 UNL     1      13.894  22.558   2.390  1.00  0.00     0.058 A 
HETATM   24 CL1  UNL     1      15.506  22.498   1.693  1.00  0.00    -0.082 Cl
HETATM   25  C25 UNL     1      13.369  23.741   2.869  1.00  0.00     0.083 A 
HETATM   26 CL2  UNL     1      14.381  25.203   2.654  1.00  0.00    -0.080 Cl
HETATM   27  C26 UNL     1      12.098  23.823   3.428  1.00  0.00     0.066 A 
HETATM   28  N5  UNL     1      11.740  25.122   3.912  1.00  0.00    -0.323 N 
ATOM     29  H5  UNL     1      11.711  25.834   3.182  1.00  0.00     0.169 HD
HETATM   30  C27 UNL     1      11.425  25.611   5.179  1.00  0.00     0.245 C 
HETATM   31  O4  UNL     1      10.259  25.809   5.592  1.00  0.00    -0.271 OA
ENDROOT
BRANCH  14  32
HETATM   32  C15 UNL     1       5.822  24.896   3.924  1.00  0.00     0.023 C 
BRANCH  32  33
HETATM   33  C16 UNL     1       5.379  24.481   5.276  1.00  0.00     0.028 C 
BRANCH  33  34
HETATM   34  C17 UNL     1       5.039  23.007   5.367  1.00  0.00     0.229 C 
BRANCH  34  35
HETATM   35  N3  UNL     1       6.142  22.264   5.947  1.00  0.00    -0.079 N 
ATOM     36  H33 UNL     1       5.843  21.354   6.299  1.00  0.00     0.274 HD
ATOM     37  H32 UNL     1       6.798  21.944   5.234  1.00  0.00     0.274 HD
ATOM     38  H31 UNL     1       6.606  22.816   6.668  1.00  0.00     0.274 HD
ENDBRANCH  34  35
ENDBRANCH  33  34
ENDBRANCH  32  33
ENDBRANCH  14  32
BRANCH   6  39
HETATM   39  C8  UNL     1      11.535  30.083   4.642  1.00  0.00     0.017 C 
HETATM   40  C9  UNL     1      10.515  31.183   4.485  1.00  0.00     0.012 C 
HETATM   41  C10 UNL     1      12.441  30.108   3.455  1.00  0.00     0.012 C 
ENDBRANCH   6  39
BRANCH   1  42
HETATM   42  C4  UNL     1      11.954  25.115   7.477  1.00  0.00     0.035 C 
BRANCH  42  43
HETATM   43  C3  UNL     1      12.512  23.730   7.347  1.00  0.00     0.002 C 
BRANCH  43  44
HETATM   44  C2  UNL     1      11.355  22.764   7.534  1.00  0.00    -0.004 C 
HETATM   45  C1  UNL     1      11.732  21.345   7.212  1.00  0.00     0.005 C 
ENDBRANCH  43  44
ENDBRANCH  42  43
ENDBRANCH   1  42
TORSDOF 8
ENDMDL
