MODEL 1
REMARK VINA RESULT: -7.322553219      0.000      0.000
REMARK  7 active torsions:
REMARK  status: ('A' for Active; 'I' for Inactive)
REMARK    1  A    between atoms: C2_2  and  C3_3 
REMARK    2  A    between atoms: C3_3  and  C4_4 
REMARK    3  A    between atoms: C4_4  and  C5_5 
REMARK    4  A    between atoms: C10_13  and  C11_14 
REMARK    5  A    between atoms: C11_14  and  C12_15 
REMARK    6  A    between atoms: C12_15  and  N2_16 
REMARK    7  A    between atoms: C16_24  and  C17_25 
ROOT
HETATM    1  C5  UNL     1       4.306  19.579   7.030  1.00  0.00    -0.006 C 
HETATM    2  C6  UNL     1       4.208  20.706   6.066  1.00  0.00     0.007 C 
HETATM    3  C7  UNL     1       5.232  21.775   6.197  1.00  0.00     0.020 C 
HETATM    4  C8  UNL     1       4.823  23.047   5.447  1.00  0.00     0.122 C 
HETATM    5  N1  UNL     1       4.379  22.720   4.118  1.00  0.00    -0.359 N 
ATOM      6  H1  UNL     1       3.694  21.971   4.019  1.00  0.00     0.162 HD
HETATM    7  C9  UNL     1       4.825  23.361   2.942  1.00  0.00     0.240 C 
HETATM    8  O1  UNL     1       4.011  23.485   1.992  1.00  0.00    -0.271 OA
HETATM    9  C10 UNL     1       6.221  23.903   2.765  1.00  0.00     0.180 C 
HETATM   10  N3  UNL     1       6.963  23.024   1.892  1.00  0.00    -0.341 N 
HETATM   11  C14 UNL     1       6.284  22.731   0.623  1.00  0.00     0.153 C 
HETATM   12  C15 UNL     1       8.222  22.436   2.152  1.00  0.00     0.245 C 
HETATM   13  O2  UNL     1       8.295  21.173   1.866  1.00  0.00    -0.271 OA
HETATM   14  C16 UNL     1       9.429  23.064   2.692  1.00  0.00     0.209 C 
HETATM   15  N4  UNL     1       9.255  24.044   3.709  1.00  0.00    -0.345 N 
ATOM     16  H4  UNL     1       8.905  24.957   3.420  1.00  0.00     0.163 HD
HETATM   17  C18 UNL     1       9.525  23.860   5.088  1.00  0.00     0.218 C 
HETATM   18  O3  UNL     1       9.818  24.895   5.743  1.00  0.00    -0.274 OA
HETATM   19  C19 UNL     1       9.488  22.575   5.794  1.00  0.00     0.103 C 
HETATM   20  C20 UNL     1      10.825  21.943   6.015  1.00  0.00     0.009 C 
HETATM   21  C21 UNL     1      10.913  21.330   7.420  1.00  0.00     0.001 C 
HETATM   22  C22 UNL     1       9.592  20.729   7.816  1.00  0.00     0.002 C 
HETATM   23  C23 UNL     1       9.709  19.304   8.279  1.00  0.00     0.020 C 
HETATM   24  C24 UNL     1       8.325  18.881   8.770  1.00  0.00     0.122 C 
HETATM   25  N5  UNL     1       7.669  18.023   7.805  1.00  0.00    -0.361 N 
ATOM     26  H5  UNL     1       8.063  17.098   7.634  1.00  0.00     0.162 HD
HETATM   27  C25 UNL     1       6.504  18.404   7.085  1.00  0.00     0.217 C 
HETATM   28  O4  UNL     1       6.254  17.920   5.971  1.00  0.00    -0.274 OA
HETATM   29  C26 UNL     1       5.599  19.418   7.741  1.00  0.00     0.107 C 
ENDROOT
BRANCH   9  30
HETATM   30  C11 UNL     1       6.048  25.307   2.212  1.00  0.00     0.062 C 
BRANCH  30  31
HETATM   31  C12 UNL     1       5.635  26.160   3.414  1.00  0.00     0.234 C 
BRANCH  31  32
HETATM   32  N2  UNL     1       6.772  26.402   4.282  1.00  0.00    -0.079 N 
HETATM   33  C13 UNL     1       7.717  27.285   3.639  1.00  0.00     0.266 C 
ATOM     34  H22 UNL     1       6.484  26.753   5.195  1.00  0.00     0.276 HD
ATOM     35  H21 UNL     1       7.211  25.532   4.585  1.00  0.00     0.276 HD
ENDBRANCH  31  32
ENDBRANCH  30  31
ENDBRANCH   9  30
BRANCH  14  36
HETATM   36  C17 UNL     1      10.354  23.593   1.608  1.00  0.00     0.210 C 
HETATM   37 CL1  UNL     1       9.691  25.058   0.847  1.00  0.00    -0.105 Cl
HETATM   38 CL2  UNL     1      11.987  23.946   2.212  1.00  0.00    -0.105 Cl
ENDBRANCH  14  36
BRANCH   1  39
HETATM   39  C4  UNL     1       3.089  19.447   7.914  1.00  0.00     0.005 C 
BRANCH  39  40
HETATM   40  C3  UNL     1       2.474  18.111   8.017  1.00  0.00     0.000 C 
BRANCH  40  41
HETATM   41  C2  UNL     1       2.905  17.293   9.195  1.00  0.00    -0.005 C 
HETATM   42  C1  UNL     1       3.883  16.202   8.723  1.00  0.00     0.005 C 
ENDBRANCH  40  41
ENDBRANCH  39  40
ENDBRANCH   1  39
TORSDOF 7
ENDMDL
MODEL 2
REMARK VINA RESULT: -6.838408337      0.846      1.322
REMARK  7 active torsions:
REMARK  status: ('A' for Active; 'I' for Inactive)
REMARK    1  A    between atoms: C2_2  and  C3_3 
REMARK    2  A    between atoms: C3_3  and  C4_4 
REMARK    3  A    between atoms: C4_4  and  C5_5 
REMARK    4  A    between atoms: C10_13  and  C11_14 
REMARK    5  A    between atoms: C11_14  and  C12_15 
REMARK    6  A    between atoms: C12_15  and  N2_16 
REMARK    7  A    between atoms: C16_24  and  C17_25 
ROOT
HETATM    1  C5  UNL     1       4.196  19.671   6.901  1.00  0.00    -0.006 C 
HETATM    2  C6  UNL     1       4.145  20.800   5.935  1.00  0.00     0.007 C 
HETATM    3  C7  UNL     1       5.186  21.848   6.091  1.00  0.00     0.020 C 
HETATM    4  C8  UNL     1       4.823  23.128   5.332  1.00  0.00     0.122 C 
HETATM    5  N1  UNL     1       4.404  22.810   3.992  1.00  0.00    -0.359 N 
ATOM      6  H1  UNL     1       3.705  22.075   3.877  1.00  0.00     0.162 HD
HETATM    7  C9  UNL     1       4.890  23.442   2.827  1.00  0.00     0.240 C 
HETATM    8  O1  UNL     1       4.102  23.583   1.859  1.00  0.00    -0.271 OA
HETATM    9  C10 UNL     1       6.302  23.955   2.684  1.00  0.00     0.180 C 
HETATM   10  N3  UNL     1       7.046  23.061   1.829  1.00  0.00    -0.341 N 
HETATM   11  C14 UNL     1       6.391  22.781   0.544  1.00  0.00     0.153 C 
HETATM   12  C15 UNL     1       8.286  22.447   2.119  1.00  0.00     0.245 C 
HETATM   13  O2  UNL     1       8.340  21.182   1.834  1.00  0.00    -0.271 OA
HETATM   14  C16 UNL     1       9.493  23.049   2.688  1.00  0.00     0.209 C 
HETATM   15  N4  UNL     1       9.314  24.033   3.700  1.00  0.00    -0.345 N 
ATOM     16  H4  UNL     1       8.990  24.953   3.404  1.00  0.00     0.163 HD
HETATM   17  C18 UNL     1       9.548  23.844   5.086  1.00  0.00     0.218 C 
HETATM   18  O3  UNL     1       9.846  24.873   5.748  1.00  0.00    -0.274 OA
HETATM   19  C19 UNL     1       9.467  22.560   5.790  1.00  0.00     0.103 C 
HETATM   20  C20 UNL     1      10.785  21.901   6.042  1.00  0.00     0.009 C 
HETATM   21  C21 UNL     1      10.827  21.286   7.449  1.00  0.00     0.001 C 
HETATM   22  C22 UNL     1       9.485  20.713   7.814  1.00  0.00     0.002 C 
HETATM   23  C23 UNL     1       9.561  19.286   8.278  1.00  0.00     0.020 C 
HETATM   24  C24 UNL     1       8.157  18.891   8.736  1.00  0.00     0.122 C 
HETATM   25  N5  UNL     1       7.507  18.047   7.755  1.00  0.00    -0.361 N 
ATOM     26  H5  UNL     1       7.886  17.113   7.593  1.00  0.00     0.162 HD
HETATM   27  C25 UNL     1       6.368  18.451   7.008  1.00  0.00     0.217 C 
HETATM   28  O4  UNL     1       6.134  17.972   5.888  1.00  0.00    -0.274 OA
HETATM   29  C26 UNL     1       5.469  19.484   7.642  1.00  0.00     0.107 C 
ENDROOT
BRANCH   9  30
HETATM   30  C11 UNL     1       6.170  25.362   2.127  1.00  0.00     0.062 C 
BRANCH  30  31
HETATM   31  C12 UNL     1       5.773  26.228   3.326  1.00  0.00     0.234 C 
BRANCH  31  32
HETATM   32  N2  UNL     1       6.905  26.421   4.212  1.00  0.00    -0.079 N 
HETATM   33  C13 UNL     1       7.839  27.363   3.640  1.00  0.00     0.266 C 
ATOM     34  H22 UNL     1       6.611  26.699   5.149  1.00  0.00     0.276 HD
ATOM     35  H21 UNL     1       7.356  25.537   4.451  1.00  0.00     0.276 HD
ENDBRANCH  31  32
ENDBRANCH  30  31
ENDBRANCH   9  30
BRANCH  14  36
HETATM   36  C17 UNL     1      10.453  23.559   1.626  1.00  0.00     0.210 C 
HETATM   37 CL1  UNL     1       9.873  25.075   0.899  1.00  0.00    -0.105 Cl
HETATM   38 CL2  UNL     1      12.096  23.813   2.254  1.00  0.00    -0.105 Cl
ENDBRANCH  14  36
BRANCH   1  39
HETATM   39  C4  UNL     1       2.956  19.565   7.756  1.00  0.00     0.005 C 
BRANCH  39  40
HETATM   40  C3  UNL     1       1.660  19.498   7.055  1.00  0.00     0.000 C 
BRANCH  40  41
HETATM   41  C2  UNL     1       0.802  20.719   7.170  1.00  0.00    -0.005 C 
HETATM   42  C1  UNL     1      -0.679  20.304   7.105  1.00  0.00     0.005 C 
ENDBRANCH  40  41
ENDBRANCH  39  40
ENDBRANCH   1  39
TORSDOF 7
ENDMDL
MODEL 3
REMARK VINA RESULT: -6.272475408      1.525      2.053
REMARK  7 active torsions:
REMARK  status: ('A' for Active; 'I' for Inactive)
REMARK    1  A    between atoms: C2_2  and  C3_3 
REMARK    2  A    between atoms: C3_3  and  C4_4 
REMARK    3  A    between atoms: C4_4  and  C5_5 
REMARK    4  A    between atoms: C10_13  and  C11_14 
REMARK    5  A    between atoms: C11_14  and  C12_15 
REMARK    6  A    between atoms: C12_15  and  N2_16 
REMARK    7  A    between atoms: C16_24  and  C17_25 
ROOT
HETATM    1  C5  UNL     1       3.616  19.769   6.072  1.00  0.00    -0.006 C 
HETATM    2  C6  UNL     1       3.613  20.889   5.094  1.00  0.00     0.007 C 
HETATM    3  C7  UNL     1       4.630  21.951   5.306  1.00  0.00     0.020 C 
HETATM    4  C8  UNL     1       4.300  23.219   4.513  1.00  0.00     0.122 C 
HETATM    5  N1  UNL     1       3.972  22.884   3.153  1.00  0.00    -0.359 N 
ATOM      6  H1  UNL     1       3.291  22.140   3.000  1.00  0.00     0.162 HD
HETATM    7  C9  UNL     1       4.524  23.511   2.015  1.00  0.00     0.240 C 
HETATM    8  O1  UNL     1       3.799  23.634   0.996  1.00  0.00    -0.271 OA
HETATM    9  C10 UNL     1       5.936  24.041   1.957  1.00  0.00     0.180 C 
HETATM   10  N3  UNL     1       6.744  23.148   1.160  1.00  0.00    -0.341 N 
HETATM   11  C14 UNL     1       6.177  22.849  -0.161  1.00  0.00     0.153 C 
HETATM   12  C15 UNL     1       7.970  22.553   1.535  1.00  0.00     0.245 C 
HETATM   13  O2  UNL     1       8.057  21.286   1.267  1.00  0.00    -0.271 OA
HETATM   14  C16 UNL     1       9.131  23.175   2.174  1.00  0.00     0.209 C 
HETATM   15  N4  UNL     1       8.876  24.165   3.163  1.00  0.00    -0.345 N 
ATOM     16  H4  UNL     1       8.561  25.079   2.838  1.00  0.00     0.163 HD
HETATM   17  C18 UNL     1       9.022  23.992   4.563  1.00  0.00     0.218 C 
HETATM   18  O3  UNL     1       9.266  25.030   5.232  1.00  0.00    -0.274 OA
HETATM   19  C19 UNL     1       8.912  22.713   5.273  1.00  0.00     0.103 C 
HETATM   20  C20 UNL     1      10.219  22.073   5.615  1.00  0.00     0.009 C 
HETATM   21  C21 UNL     1      10.178  21.472   7.028  1.00  0.00     0.001 C 
HETATM   22  C22 UNL     1       8.822  20.885   7.311  1.00  0.00     0.002 C 
HETATM   23  C23 UNL     1       8.885  19.463   7.793  1.00  0.00     0.020 C 
HETATM   24  C24 UNL     1       7.459  19.055   8.164  1.00  0.00     0.122 C 
HETATM   25  N5  UNL     1       6.884  18.194   7.153  1.00  0.00    -0.361 N 
ATOM     26  H5  UNL     1       7.283  17.264   7.025  1.00  0.00     0.162 HD
HETATM   27  C25 UNL     1       5.790  18.578   6.330  1.00  0.00     0.217 C 
HETATM   28  O4  UNL     1       5.634  18.086   5.202  1.00  0.00    -0.274 OA
HETATM   29  C26 UNL     1       4.840  19.605   6.896  1.00  0.00     0.107 C 
ENDROOT
BRANCH   9  30
HETATM   30  C11 UNL     1       5.824  25.441   1.380  1.00  0.00     0.062 C 
BRANCH  30  31
HETATM   31  C12 UNL     1       5.703  26.364   2.595  1.00  0.00     0.234 C 
BRANCH  31  32
HETATM   32  N2  UNL     1       4.547  27.231   2.464  1.00  0.00    -0.079 N 
HETATM   33  C13 UNL     1       3.474  26.771   3.315  1.00  0.00     0.266 C 
ATOM     34  H22 UNL     1       4.783  28.207   2.643  1.00  0.00     0.276 HD
ATOM     35  H21 UNL     1       4.249  27.322   1.492  1.00  0.00     0.276 HD
ENDBRANCH  31  32
ENDBRANCH  30  31
ENDBRANCH   9  30
BRANCH  14  36
HETATM   36  C17 UNL     1      10.151  23.687   1.171  1.00  0.00     0.210 C 
HETATM   37 CL1  UNL     1       9.961  22.896  -0.411  1.00  0.00    -0.105 Cl
HETATM   38 CL2  UNL     1      10.070  25.448   0.949  1.00  0.00    -0.105 Cl
ENDBRANCH  14  36
BRANCH   1  39
HETATM   39  C4  UNL     1       2.324  19.655   6.847  1.00  0.00     0.005 C 
BRANCH  39  40
HETATM   40  C3  UNL     1       1.335  20.733   6.667  1.00  0.00     0.000 C 
BRANCH  40  41
HETATM   41  C2  UNL     1      -0.055  20.414   7.123  1.00  0.00    -0.005 C 
HETATM   42  C1  UNL     1      -1.050  21.335   6.394  1.00  0.00     0.005 C 
ENDBRANCH  40  41
ENDBRANCH  39  40
ENDBRANCH   1  39
TORSDOF 7
ENDMDL
MODEL 4
REMARK VINA RESULT: -6.250773581      4.490      6.506
REMARK  7 active torsions:
REMARK  status: ('A' for Active; 'I' for Inactive)
REMARK    1  A    between atoms: C2_2  and  C3_3 
REMARK    2  A    between atoms: C3_3  and  C4_4 
REMARK    3  A    between atoms: C4_4  and  C5_5 
REMARK    4  A    between atoms: C10_13  and  C11_14 
REMARK    5  A    between atoms: C11_14  and  C12_15 
REMARK    6  A    between atoms: C12_15  and  N2_16 
REMARK    7  A    between atoms: C16_24  and  C17_25 
ROOT
HETATM    1  C5  UNL     1       2.928  18.520   7.346  1.00  0.00    -0.006 C 
HETATM    2  C6  UNL     1       1.699  19.340   7.176  1.00  0.00     0.007 C 
HETATM    3  C7  UNL     1       1.897  20.808   7.068  1.00  0.00     0.020 C 
HETATM    4  C8  UNL     1       0.590  21.576   7.291  1.00  0.00     0.122 C 
HETATM    5  N1  UNL     1      -0.468  20.994   6.507  1.00  0.00    -0.359 N 
ATOM      6  H1  UNL     1      -0.594  19.983   6.559  1.00  0.00     0.162 HD
HETATM    7  C9  UNL     1      -1.342  21.722   5.672  1.00  0.00     0.240 C 
HETATM    8  O1  UNL     1      -2.524  21.312   5.552  1.00  0.00    -0.271 OA
HETATM    9  C10 UNL     1      -0.934  22.964   4.918  1.00  0.00     0.180 C 
HETATM   10  N3  UNL     1      -0.778  22.639   3.520  1.00  0.00    -0.341 N 
HETATM   11  C14 UNL     1      -1.935  21.952   2.934  1.00  0.00     0.153 C 
HETATM   12  C15 UNL     1       0.352  22.900   2.711  1.00  0.00     0.245 C 
HETATM   13  O2  UNL     1       0.728  21.899   1.974  1.00  0.00    -0.271 OA
HETATM   14  C16 UNL     1       1.134  24.132   2.603  1.00  0.00     0.209 C 
HETATM   15  N4  UNL     1       1.349  24.874   3.798  1.00  0.00    -0.345 N 
ATOM     16  H4  UNL     1       0.558  25.403   4.166  1.00  0.00     0.163 HD
HETATM   17  C18 UNL     1       2.566  24.941   4.522  1.00  0.00     0.218 C 
HETATM   18  O3  UNL     1       2.754  25.983   5.204  1.00  0.00    -0.274 OA
HETATM   19  C19 UNL     1       3.603  23.903   4.532  1.00  0.00     0.103 C 
HETATM   20  C20 UNL     1       4.765  24.172   3.631  1.00  0.00     0.009 C 
HETATM   21  C21 UNL     1       6.085  23.785   4.315  1.00  0.00     0.001 C 
HETATM   22  C22 UNL     1       5.901  22.549   5.152  1.00  0.00     0.002 C 
HETATM   23  C23 UNL     1       6.907  21.475   4.846  1.00  0.00     0.020 C 
HETATM   24  C24 UNL     1       6.681  20.351   5.857  1.00  0.00     0.122 C 
HETATM   25  N5  UNL     1       5.996  19.231   5.247  1.00  0.00    -0.361 N 
ATOM     26  H5  UNL     1       6.486  18.698   4.528  1.00  0.00     0.162 HD
HETATM   27  C25 UNL     1       4.677  18.836   5.599  1.00  0.00     0.217 C 
HETATM   28  O4  UNL     1       3.947  18.248   4.786  1.00  0.00    -0.274 OA
HETATM   29  C26 UNL     1       4.217  19.168   6.997  1.00  0.00     0.107 C 
ENDROOT
BRANCH   9  30
HETATM   30  C11 UNL     1      -2.028  23.984   5.188  1.00  0.00     0.062 C 
BRANCH  30  31
HETATM   31  C12 UNL     1      -1.322  25.148   5.888  1.00  0.00     0.234 C 
BRANCH  31  32
HETATM   32  N2  UNL     1      -1.069  24.827   7.280  1.00  0.00    -0.079 N 
HETATM   33  C13 UNL     1       0.215  25.345   7.690  1.00  0.00     0.266 C 
ATOM     34  H22 UNL     1      -1.822  25.152   7.887  1.00  0.00     0.276 HD
ATOM     35  H21 UNL     1      -1.150  23.826   7.460  1.00  0.00     0.276 HD
ENDBRANCH  31  32
ENDBRANCH  30  31
ENDBRANCH   9  30
BRANCH  14  36
HETATM   36  C17 UNL     1       0.637  25.050   1.499  1.00  0.00     0.210 C 
HETATM   37 CL1  UNL     1      -0.867  25.876   1.969  1.00  0.00    -0.105 Cl
HETATM   38 CL2  UNL     1       1.841  26.269   1.027  1.00  0.00    -0.105 Cl
ENDBRANCH  14  36
BRANCH   1  39
HETATM   39  C4  UNL     1       2.950  17.748   8.644  1.00  0.00     0.005 C 
BRANCH  39  40
HETATM   40  C3  UNL     1       3.194  16.296   8.558  1.00  0.00     0.000 C 
BRANCH  40  41
HETATM   41  C2  UNL     1       4.623  15.873   8.710  1.00  0.00    -0.005 C 
HETATM   42  C1  UNL     1       4.671  14.378   9.072  1.00  0.00     0.005 C 
ENDBRANCH  40  41
ENDBRANCH  39  40
ENDBRANCH   1  39
TORSDOF 7
ENDMDL
MODEL 5
REMARK VINA RESULT: -6.184295305      3.223      6.659
REMARK  7 active torsions:
REMARK  status: ('A' for Active; 'I' for Inactive)
REMARK    1  A    between atoms: C2_2  and  C3_3 
REMARK    2  A    between atoms: C3_3  and  C4_4 
REMARK    3  A    between atoms: C4_4  and  C5_5 
REMARK    4  A    between atoms: C10_13  and  C11_14 
REMARK    5  A    between atoms: C11_14  and  C12_15 
REMARK    6  A    between atoms: C12_15  and  N2_16 
REMARK    7  A    between atoms: C16_24  and  C17_25 
ROOT
HETATM    1  C5  UNL     1       7.433  21.202   5.821  1.00  0.00    -0.006 C 
HETATM    2  C6  UNL     1       8.703  21.828   6.274  1.00  0.00     0.007 C 
HETATM    3  C7  UNL     1       9.718  22.094   5.221  1.00  0.00     0.020 C 
HETATM    4  C8  UNL     1      11.101  22.361   5.821  1.00  0.00     0.122 C 
HETATM    5  N1  UNL     1      11.002  23.313   6.896  1.00  0.00    -0.359 N 
ATOM      6  H1  UNL     1      10.292  23.148   7.610  1.00  0.00     0.162 HD
HETATM    7  C9  UNL     1      11.817  24.457   7.034  1.00  0.00     0.240 C 
HETATM    8  O1  UNL     1      12.109  24.840   8.195  1.00  0.00    -0.271 OA
HETATM    9  C10 UNL     1      12.355  25.244   5.864  1.00  0.00     0.180 C 
HETATM   10  N3  UNL     1      11.615  26.478   5.743  1.00  0.00    -0.341 N 
HETATM   11  C14 UNL     1      11.544  27.255   6.988  1.00  0.00     0.153 C 
HETATM   12  C15 UNL     1      10.970  26.970   4.586  1.00  0.00     0.245 C 
HETATM   13  O2  UNL     1       9.768  27.415   4.788  1.00  0.00    -0.271 OA
HETATM   14  C16 UNL     1      11.479  27.038   3.215  1.00  0.00     0.209 C 
HETATM   15  N4  UNL     1      12.284  25.955   2.765  1.00  0.00    -0.345 N 
ATOM     16  H4  UNL     1      13.238  25.905   3.121  1.00  0.00     0.163 HD
HETATM   17  C18 UNL     1      11.875  24.939   1.865  1.00  0.00     0.218 C 
HETATM   18  O3  UNL     1      12.784  24.394   1.185  1.00  0.00    -0.274 OA
HETATM   19  C19 UNL     1      10.493  24.486   1.672  1.00  0.00     0.103 C 
HETATM   20  C20 UNL     1       9.809  25.057   0.471  1.00  0.00     0.009 C 
HETATM   21  C21 UNL     1       8.975  23.982  -0.243  1.00  0.00     0.001 C 
HETATM   22  C22 UNL     1       8.343  23.055   0.759  1.00  0.00     0.002 C 
HETATM   23  C23 UNL     1       6.860  22.906   0.568  1.00  0.00     0.020 C 
HETATM   24  C24 UNL     1       6.388  21.842   1.559  1.00  0.00     0.122 C 
HETATM   25  N5  UNL     1       5.710  22.445   2.687  1.00  0.00    -0.361 N 
ATOM     26  H5  UNL     1       4.817  22.911   2.523  1.00  0.00     0.162 HD
HETATM   27  C25 UNL     1       6.224  22.420   4.012  1.00  0.00     0.217 C 
HETATM   28  O4  UNL     1       5.931  23.307   4.829  1.00  0.00    -0.274 OA
HETATM   29  C26 UNL     1       7.135  21.271   4.368  1.00  0.00     0.107 C 
ENDROOT
BRANCH   9  30
HETATM   30  C11 UNL     1      13.833  25.444   6.151  1.00  0.00     0.062 C 
BRANCH  30  31
HETATM   31  C12 UNL     1      14.525  24.219   5.549  1.00  0.00     0.234 C 
BRANCH  31  32
HETATM   32  N2  UNL     1      15.283  23.512   6.564  1.00  0.00    -0.079 N 
HETATM   33  C13 UNL     1      14.751  22.183   6.755  1.00  0.00     0.266 C 
ATOM     34  H22 UNL     1      16.280  23.495   6.349  1.00  0.00     0.276 HD
ATOM     35  H21 UNL     1      15.325  24.034   7.439  1.00  0.00     0.276 HD
ENDBRANCH  31  32
ENDBRANCH  30  31
ENDBRANCH   9  30
BRANCH  14  36
HETATM   36  C17 UNL     1      12.159  28.361   2.904  1.00  0.00     0.210 C 
HETATM   37 CL1  UNL     1      13.623  28.586   3.890  1.00  0.00    -0.105 Cl
HETATM   38 CL2  UNL     1      12.589  28.524   1.189  1.00  0.00    -0.105 Cl
ENDBRANCH  14  36
BRANCH   1  39
HETATM   39  C4  UNL     1       7.182  19.850   6.444  1.00  0.00     0.005 C 
BRANCH  39  40
HETATM   40  C3  UNL     1       7.897  19.544   7.697  1.00  0.00     0.000 C 
BRANCH  40  41
HETATM   41  C2  UNL     1       7.945  18.096   8.075  1.00  0.00    -0.005 C 
HETATM   42  C1  UNL     1       6.778  17.358   7.396  1.00  0.00     0.005 C 
ENDBRANCH  40  41
ENDBRANCH  39  40
ENDBRANCH   1  39
TORSDOF 7
ENDMDL
