MODEL 1
REMARK VINA RESULT: -6.545377604      0.000      0.000
REMARK  13 active torsions:
REMARK  status: ('A' for Active; 'I' for Inactive)
REMARK    1  A    between atoms: N1_1  and  C1_4 
REMARK    2  A    between atoms: N3_8  and  C3_9 
REMARK    3  A    between atoms: C4_13  and  C5_14 
REMARK       I    between atoms: C5_14  and  N5_16 
REMARK    4  A    between atoms: N5_16  and  C6_18 
REMARK    5  A    between atoms: C6_18  and  C7_19 
REMARK    6  A    between atoms: C7_19  and  N6_20 
REMARK    7  A    between atoms: N6_20  and  C8_23 
REMARK    8  A    between atoms: C9_25  and  C10_26 
REMARK    9  A    between atoms: C10_26  and  O3_27 
REMARK   10  A    between atoms: N7_31  and  N8_32 
REMARK   11  A    between atoms: C12_33  and  O5_34 
REMARK   12  A    between atoms: C15_41  and  O7_42 
REMARK   13  A    between atoms: C16_44  and  O8_45 
ROOT
HETATM    1  C5  UNL     1      19.988  -2.922  14.130  1.00  0.00     0.251 C 
HETATM    2  O1  UNL     1      20.642  -3.967  13.835  1.00  0.00    -0.271 OA
HETATM    3  N5  UNL     1      18.893  -3.095  15.011  1.00  0.00    -0.358 N 
ATOM      4  H5  UNL     1      18.353  -2.263  15.251  1.00  0.00     0.162 HD
ENDROOT
BRANCH   1   5
HETATM    5  C4  UNL     1      20.363  -1.591  13.575  1.00  0.00     0.310 C 
HETATM    6  N4  UNL     1      21.734  -1.670  13.162  1.00  0.00    -0.036 N 
HETATM    7  C3  UNL     1      21.812  -1.278  11.778  1.00  0.00     0.328 C 
ATOM      8  H42 UNL     1      22.143  -2.589  13.335  1.00  0.00     0.280 HD
ATOM      9  H41 UNL     1      22.356  -1.127  13.760  1.00  0.00     0.280 HD
HETATM   10  C16 UNL     1      20.475  -1.623  11.237  1.00  0.00     0.200 C 
HETATM   11  C15 UNL     1      19.544  -1.236  12.359  1.00  0.00     0.190 C 
BRANCH   7  12
HETATM   12  N3  UNL     1      22.894  -2.022  11.169  1.00  0.00    -0.263 N 
HETATM   13  C2  UNL     1      23.476  -3.030  11.864  1.00  0.00     0.207 A 
HETATM   14  N2  UNL     1      24.475  -3.740  11.317  1.00  0.00    -0.188 N 
HETATM   15  C1  UNL     1      24.921  -3.471  10.077  1.00  0.00     0.680 A 
ATOM     16  H2  UNL     1      24.904  -4.496  11.851  1.00  0.00     0.185 HD
HETATM   17  N10 UNL     1      24.336  -2.459   9.382  1.00  0.00    -0.141 N 
HETATM   18  C17 UNL     1      23.333  -1.749   9.934  1.00  0.00     0.343 A 
ATOM     19  H10 UNL     1      24.658  -2.237   8.440  1.00  0.00     0.189 HD
HETATM   20  O9  UNL     1      22.779  -0.812   9.310  1.00  0.00    -0.246 OA
BRANCH  15  21
HETATM   21  N1  UNL     1      25.889  -4.157   9.539  1.00  0.00    -0.234 N 
ATOM     22  H12 UNL     1      26.069  -4.086   8.538  1.00  0.00     0.174 HD
ATOM     23  H11 UNL     1      26.481  -4.773  10.098  1.00  0.00     0.174 HD
ENDBRANCH  15  21
ENDBRANCH   7  12
BRANCH  10  24
HETATM   24  O8  UNL     1      20.332  -2.986  11.012  1.00  0.00    -0.389 OA
ATOM     25  H8  UNL     1      19.613  -3.360  11.508  1.00  0.00     0.210 HD
ENDBRANCH  10  24
BRANCH  11  26
HETATM   26  O7  UNL     1      18.334  -1.912  12.278  1.00  0.00    -0.390 OA
ATOM     27  H7  UNL     1      18.038  -2.068  11.389  1.00  0.00     0.210 HD
ENDBRANCH  11  26
ENDBRANCH   1   5
BRANCH   3  28
HETATM   28  C6  UNL     1      18.478  -4.330  15.591  1.00  0.00     0.150 C 
BRANCH  28  29
HETATM   29  C7  UNL     1      19.078  -4.588  16.942  1.00  0.00     0.257 C 
BRANCH  29  30
HETATM   30  N6  UNL     1      19.114  -3.413  17.780  1.00  0.00    -0.027 N 
ATOM     31  H62 UNL     1      20.070  -3.117  17.977  1.00  0.00     0.282 HD
ATOM     32  H61 UNL     1      18.797  -2.582  17.280  1.00  0.00     0.282 HD
BRANCH  30  33
HETATM   33  C8  UNL     1      18.367  -3.628  18.977  1.00  0.00     0.454 C 
HETATM   34  O2  UNL     1      17.260  -4.439  18.732  1.00  0.00    -0.325 OA
HETATM   35  C9  UNL     1      16.270  -4.087  19.644  1.00  0.00     0.243 C 
HETATM   36  C11 UNL     1      16.647  -2.751  20.192  1.00  0.00     0.274 C 
HETATM   37  O4  UNL     1      16.072  -2.093  21.077  1.00  0.00    -0.268 OA
HETATM   38  N7  UNL     1      17.807  -2.384  19.488  1.00  0.00    -0.191 N 
BRANCH  35  39
HETATM   39  C10 UNL     1      14.922  -3.932  18.978  1.00  0.00     0.206 C 
BRANCH  39  40
HETATM   40  O3  UNL     1      14.910  -2.735  18.271  1.00  0.00    -0.398 OA
ATOM     41  H3  UNL     1      15.802  -2.417  18.195  1.00  0.00     0.209 HD
ENDBRANCH  39  40
ENDBRANCH  35  39
BRANCH  38  42
HETATM   42  N8  UNL     1      18.358  -1.139  19.274  1.00  0.00    -0.172 N 
HETATM   43  C12 UNL     1      17.840  -0.134  18.516  1.00  0.00     0.182 A 
HETATM   44  C13 UNL     1      18.692   0.919  18.567  1.00  0.00     0.150 A 
HETATM   45  N9  UNL     1      19.727   0.590  19.340  1.00  0.00    -0.313 N 
HETATM   46  C14 UNL     1      19.512  -0.662  19.762  1.00  0.00     0.348 A 
ATOM     47  H9  UNL     1      20.530   1.178  19.565  1.00  0.00     0.170 HD
HETATM   48  O6  UNL     1      20.317  -1.295  20.529  1.00  0.00    -0.245 OA
BRANCH  43  49
HETATM   49  O5  UNL     1      16.620  -0.255  17.831  1.00  0.00    -0.344 OA
ATOM     50  H5  UNL     1      15.794  -0.402  18.277  1.00  0.00     0.219 HD
ENDBRANCH  43  49
ENDBRANCH  38  42
ENDBRANCH  30  33
ENDBRANCH  29  30
ENDBRANCH  28  29
ENDBRANCH   3  28
TORSDOF 13
ENDMDL
MODEL 2
REMARK VINA RESULT: -6.457261574      1.816      2.304
REMARK  13 active torsions:
REMARK  status: ('A' for Active; 'I' for Inactive)
REMARK    1  A    between atoms: N1_1  and  C1_4 
REMARK    2  A    between atoms: N3_8  and  C3_9 
REMARK    3  A    between atoms: C4_13  and  C5_14 
REMARK       I    between atoms: C5_14  and  N5_16 
REMARK    4  A    between atoms: N5_16  and  C6_18 
REMARK    5  A    between atoms: C6_18  and  C7_19 
REMARK    6  A    between atoms: C7_19  and  N6_20 
REMARK    7  A    between atoms: N6_20  and  C8_23 
REMARK    8  A    between atoms: C9_25  and  C10_26 
REMARK    9  A    between atoms: C10_26  and  O3_27 
REMARK   10  A    between atoms: N7_31  and  N8_32 
REMARK   11  A    between atoms: C12_33  and  O5_34 
REMARK   12  A    between atoms: C15_41  and  O7_42 
REMARK   13  A    between atoms: C16_44  and  O8_45 
ROOT
HETATM    1  C5  UNL     1      18.399  -2.155  14.072  1.00  0.00     0.251 C 
HETATM    2  O1  UNL     1      19.068  -1.382  14.821  1.00  0.00    -0.271 OA
HETATM    3  N5  UNL     1      17.545  -3.078  14.724  1.00  0.00    -0.358 N 
ATOM      4  H5  UNL     1      17.006  -3.710  14.134  1.00  0.00     0.162 HD
ENDROOT
BRANCH   1   5
HETATM    5  C4  UNL     1      18.511  -2.084  12.588  1.00  0.00     0.310 C 
HETATM    6  N4  UNL     1      19.319  -0.942  12.274  1.00  0.00    -0.036 N 
HETATM    7  C3  UNL     1      20.416  -1.378  11.447  1.00  0.00     0.328 C 
ATOM      8  H42 UNL     1      19.629  -0.440  13.106  1.00  0.00     0.280 HD
ATOM      9  H41 UNL     1      18.782  -0.187  11.848  1.00  0.00     0.280 HD
HETATM   10  C16 UNL     1      20.612  -2.795  11.840  1.00  0.00     0.200 C 
HETATM   11  C15 UNL     1      19.201  -3.297  12.017  1.00  0.00     0.190 C 
BRANCH   7  12
HETATM   12  N3  UNL     1      21.553  -0.532  11.740  1.00  0.00    -0.263 N 
HETATM   13  C2  UNL     1      21.506   0.287  12.819  1.00  0.00     0.207 A 
HETATM   14  N2  UNL     1      22.552   1.075  13.116  1.00  0.00    -0.188 N 
HETATM   15  C1  UNL     1      23.661   1.073  12.356  1.00  0.00     0.680 A 
ATOM     16  H2  UNL     1      22.504   1.686  13.931  1.00  0.00     0.185 HD
HETATM   17  N10 UNL     1      23.706   0.251  11.273  1.00  0.00    -0.141 N 
HETATM   18  C17 UNL     1      22.654  -0.539  10.979  1.00  0.00     0.343 A 
ATOM     19  H10 UNL     1      24.537   0.233  10.683  1.00  0.00     0.189 HD
HETATM   20  O9  UNL     1      22.674  -1.305   9.986  1.00  0.00    -0.246 OA
BRANCH  15  21
HETATM   21  N1  UNL     1      24.681   1.833  12.639  1.00  0.00    -0.234 N 
ATOM     22  H12 UNL     1      25.353   1.542  13.348  1.00  0.00     0.174 HD
ATOM     23  H11 UNL     1      24.828   2.725  12.165  1.00  0.00     0.174 HD
ENDBRANCH  15  21
ENDBRANCH   7  12
BRANCH  10  24
HETATM   24  O8  UNL     1      21.268  -2.919  13.057  1.00  0.00    -0.389 OA
ATOM     25  H8  UNL     1      20.984  -3.685  13.543  1.00  0.00     0.210 HD
ENDBRANCH  10  24
BRANCH  11  26
HETATM   26  O7  UNL     1      19.154  -4.414  12.841  1.00  0.00    -0.390 OA
ATOM     27  H7  UNL     1      19.084  -5.237  12.372  1.00  0.00     0.210 HD
ENDBRANCH  11  26
ENDBRANCH   1   5
BRANCH   3  28
HETATM   28  C6  UNL     1      17.374  -3.200  16.135  1.00  0.00     0.150 C 
BRANCH  28  29
HETATM   29  C7  UNL     1      18.373  -4.114  16.783  1.00  0.00     0.257 C 
BRANCH  29  30
HETATM   30  N6  UNL     1      19.077  -3.496  17.880  1.00  0.00    -0.027 N 
ATOM     31  H62 UNL     1      20.037  -3.833  17.952  1.00  0.00     0.282 HD
ATOM     32  H61 UNL     1      19.275  -2.512  17.698  1.00  0.00     0.282 HD
BRANCH  30  33
HETATM   33  C8  UNL     1      18.359  -3.675  19.101  1.00  0.00     0.454 C 
HETATM   34  O2  UNL     1      17.266  -4.519  18.913  1.00  0.00    -0.325 OA
HETATM   35  C9  UNL     1      16.286  -4.150  19.830  1.00  0.00     0.243 C 
HETATM   36  C11 UNL     1      16.644  -2.783  20.313  1.00  0.00     0.274 C 
HETATM   37  O4  UNL     1      16.072  -2.101  21.180  1.00  0.00    -0.268 OA
HETATM   38  N7  UNL     1      17.782  -2.423  19.570  1.00  0.00    -0.191 N 
BRANCH  35  39
HETATM   39  C10 UNL     1      14.922  -4.052  19.185  1.00  0.00     0.206 C 
BRANCH  39  40
HETATM   40  O3  UNL     1      14.850  -2.860  18.474  1.00  0.00    -0.398 OA
ATOM     41  H3  UNL     1      14.855  -2.137  19.091  1.00  0.00     0.209 HD
ENDBRANCH  39  40
ENDBRANCH  35  39
BRANCH  38  42
HETATM   42  N8  UNL     1      18.301  -1.176  19.291  1.00  0.00    -0.172 N 
HETATM   43  C12 UNL     1      17.741  -0.212  18.511  1.00  0.00     0.182 A 
HETATM   44  C13 UNL     1      18.572   0.859  18.497  1.00  0.00     0.150 A 
HETATM   45  N9  UNL     1      19.636   0.580  19.251  1.00  0.00    -0.313 N 
HETATM   46  C14 UNL     1      19.458  -0.658  19.728  1.00  0.00     0.348 A 
ATOM     47  H9  UNL     1      20.432   1.192  19.430  1.00  0.00     0.170 HD
HETATM   48  O6  UNL     1      20.297  -1.244  20.494  1.00  0.00    -0.245 OA
BRANCH  43  49
HETATM   49  O5  UNL     1      16.505  -0.383  17.867  1.00  0.00    -0.344 OA
ATOM     50  H5  UNL     1      16.411  -0.873  17.058  1.00  0.00     0.219 HD
ENDBRANCH  43  49
ENDBRANCH  38  42
ENDBRANCH  30  33
ENDBRANCH  29  30
ENDBRANCH  28  29
ENDBRANCH   3  28
TORSDOF 13
ENDMDL
MODEL 3
REMARK VINA RESULT: -6.435193741      1.484      2.103
REMARK  13 active torsions:
REMARK  status: ('A' for Active; 'I' for Inactive)
REMARK    1  A    between atoms: N1_1  and  C1_4 
REMARK    2  A    between atoms: N3_8  and  C3_9 
REMARK    3  A    between atoms: C4_13  and  C5_14 
REMARK       I    between atoms: C5_14  and  N5_16 
REMARK    4  A    between atoms: N5_16  and  C6_18 
REMARK    5  A    between atoms: C6_18  and  C7_19 
REMARK    6  A    between atoms: C7_19  and  N6_20 
REMARK    7  A    between atoms: N6_20  and  C8_23 
REMARK    8  A    between atoms: C9_25  and  C10_26 
REMARK    9  A    between atoms: C10_26  and  O3_27 
REMARK   10  A    between atoms: N7_31  and  N8_32 
REMARK   11  A    between atoms: C12_33  and  O5_34 
REMARK   12  A    between atoms: C15_41  and  O7_42 
REMARK   13  A    between atoms: C16_44  and  O8_45 
ROOT
HETATM    1  C5  UNL     1      19.562  -2.420  15.146  1.00  0.00     0.251 C 
HETATM    2  O1  UNL     1      19.823  -3.329  14.302  1.00  0.00    -0.271 OA
HETATM    3  N5  UNL     1      18.445  -2.646  15.987  1.00  0.00    -0.358 N 
ATOM      4  H5  UNL     1      18.221  -1.920  16.667  1.00  0.00     0.162 HD
ENDROOT
BRANCH   1   5
HETATM    5  C4  UNL     1      20.395  -1.188  15.240  1.00  0.00     0.310 C 
HETATM    6  N4  UNL     1      21.580  -1.412  14.466  1.00  0.00    -0.036 N 
HETATM    7  C3  UNL     1      21.699  -0.348  13.501  1.00  0.00     0.328 C 
ATOM      8  H42 UNL     1      21.599  -2.337  14.035  1.00  0.00     0.280 HD
ATOM      9  H41 UNL     1      22.414  -1.513  15.044  1.00  0.00     0.280 HD
HETATM   10  C16 UNL     1      20.297   0.080  13.275  1.00  0.00     0.200 C 
HETATM   11  C15 UNL     1      19.693   0.012  14.655  1.00  0.00     0.190 C 
BRANCH   7  12
HETATM   12  N3  UNL     1      22.337  -0.890  12.321  1.00  0.00    -0.263 N 
HETATM   13  C2  UNL     1      22.102  -2.180  11.976  1.00  0.00     0.207 A 
HETATM   14  N2  UNL     1      22.676  -2.703  10.881  1.00  0.00    -0.188 N 
HETATM   15  C1  UNL     1      23.492  -1.967  10.106  1.00  0.00     0.680 A 
ATOM     16  H2  UNL     1      22.491  -3.675  10.633  1.00  0.00     0.185 HD
HETATM   17  N10 UNL     1      23.728  -0.673  10.455  1.00  0.00    -0.141 N 
HETATM   18  C17 UNL     1      23.150  -0.152  11.554  1.00  0.00     0.343 A 
ATOM     19  H10 UNL     1      24.344  -0.097   9.882  1.00  0.00     0.189 HD
HETATM   20  O9  UNL     1      23.351   1.038  11.893  1.00  0.00    -0.246 OA
BRANCH  15  21
HETATM   21  N1  UNL     1      24.052  -2.467   9.041  1.00  0.00    -0.234 N 
ATOM     22  H12 UNL     1      23.908  -3.448   8.801  1.00  0.00     0.174 HD
ATOM     23  H11 UNL     1      24.640  -1.898   8.431  1.00  0.00     0.174 HD
ENDBRANCH  15  21
ENDBRANCH   7  12
BRANCH  10  24
HETATM   24  O8  UNL     1      19.600  -0.801  12.459  1.00  0.00    -0.389 OA
ATOM     25  H8  UNL     1      18.759  -1.044  12.825  1.00  0.00     0.210 HD
ENDBRANCH  10  24
BRANCH  11  26
HETATM   26  O7  UNL     1      18.311  -0.111  14.606  1.00  0.00    -0.390 OA
ATOM     27  H7  UNL     1      17.875   0.613  14.173  1.00  0.00     0.210 HD
ENDBRANCH  11  26
ENDBRANCH   1   5
BRANCH   3  28
HETATM   28  C6  UNL     1      17.608  -3.801  15.966  1.00  0.00     0.150 C 
BRANCH  28  29
HETATM   29  C7  UNL     1      17.567  -4.534  17.275  1.00  0.00     0.257 C 
BRANCH  29  30
HETATM   30  N6  UNL     1      18.524  -4.035  18.234  1.00  0.00    -0.027 N 
ATOM     31  H62 UNL     1      19.378  -4.592  18.241  1.00  0.00     0.282 HD
ATOM     32  H61 UNL     1      18.925  -3.144  17.940  1.00  0.00     0.282 HD
BRANCH  30  33
HETATM   33  C8  UNL     1      17.935  -3.949  19.531  1.00  0.00     0.454 C 
HETATM   34  O2  UNL     1      16.916  -4.890  19.676  1.00  0.00    -0.325 OA
HETATM   35  C9  UNL     1      15.988  -4.370  20.575  1.00  0.00     0.243 C 
HETATM   36  C11 UNL     1      16.254  -2.904  20.665  1.00  0.00     0.274 C 
HETATM   37  O4  UNL     1      15.696  -2.066  21.396  1.00  0.00    -0.268 OA
HETATM   38  N7  UNL     1      17.283  -2.664  19.738  1.00  0.00    -0.191 N 
BRANCH  35  39
HETATM   39  C10 UNL     1      14.570  -4.538  20.078  1.00  0.00     0.206 C 
BRANCH  39  40
HETATM   40  O3  UNL     1      14.378  -3.693  18.990  1.00  0.00    -0.398 OA
ATOM     41  H3  UNL     1      13.508  -3.315  19.049  1.00  0.00     0.209 HD
ENDBRANCH  39  40
ENDBRANCH  35  39
BRANCH  38  42
HETATM   42  N8  UNL     1      17.653  -1.494  19.107  1.00  0.00    -0.172 N 
HETATM   43  C12 UNL     1      18.753  -0.738  19.367  1.00  0.00     0.182 A 
HETATM   44  C13 UNL     1      18.745   0.326  18.527  1.00  0.00     0.150 A 
HETATM   45  N9  UNL     1      17.663   0.246  17.752  1.00  0.00    -0.313 N 
HETATM   46  C14 UNL     1      17.009  -0.865  18.115  1.00  0.00     0.348 A 
ATOM     47  H9  UNL     1      17.387   0.904  17.023  1.00  0.00     0.170 HD
HETATM   48  O6  UNL     1      15.918  -1.248  17.570  1.00  0.00    -0.245 OA
BRANCH  43  49
HETATM   49  O5  UNL     1      19.689  -1.078  20.357  1.00  0.00    -0.344 OA
ATOM     50  H5  UNL     1      19.452  -1.550  21.147  1.00  0.00     0.219 HD
ENDBRANCH  43  49
ENDBRANCH  38  42
ENDBRANCH  30  33
ENDBRANCH  29  30
ENDBRANCH  28  29
ENDBRANCH   3  28
TORSDOF 13
ENDMDL
MODEL 4
REMARK VINA RESULT: -6.403355185      3.136      4.239
REMARK  13 active torsions:
REMARK  status: ('A' for Active; 'I' for Inactive)
REMARK    1  A    between atoms: N1_1  and  C1_4 
REMARK    2  A    between atoms: N3_8  and  C3_9 
REMARK    3  A    between atoms: C4_13  and  C5_14 
REMARK       I    between atoms: C5_14  and  N5_16 
REMARK    4  A    between atoms: N5_16  and  C6_18 
REMARK    5  A    between atoms: C6_18  and  C7_19 
REMARK    6  A    between atoms: C7_19  and  N6_20 
REMARK    7  A    between atoms: N6_20  and  C8_23 
REMARK    8  A    between atoms: C9_25  and  C10_26 
REMARK    9  A    between atoms: C10_26  and  O3_27 
REMARK   10  A    between atoms: N7_31  and  N8_32 
REMARK   11  A    between atoms: C12_33  and  O5_34 
REMARK   12  A    between atoms: C15_41  and  O7_42 
REMARK   13  A    between atoms: C16_44  and  O8_45 
ROOT
HETATM    1  C5  UNL     1      17.787  -1.175  16.620  1.00  0.00     0.251 C 
HETATM    2  O1  UNL     1      17.441  -0.305  17.474  1.00  0.00    -0.271 OA
HETATM    3  N5  UNL     1      16.838  -2.188  16.337  1.00  0.00    -0.358 N 
ATOM      4  H5  UNL     1      17.106  -2.899  15.656  1.00  0.00     0.162 HD
ENDROOT
BRANCH   1   5
HETATM    5  C4  UNL     1      19.120  -1.122  15.956  1.00  0.00     0.310 C 
HETATM    6  N4  UNL     1      19.352  -2.406  15.361  1.00  0.00    -0.036 N 
HETATM    7  C3  UNL     1      19.637  -2.210  13.962  1.00  0.00     0.328 C 
ATOM      8  H42 UNL     1      18.583  -3.057  15.518  1.00  0.00     0.280 HD
ATOM      9  H41 UNL     1      20.081  -2.934  15.840  1.00  0.00     0.280 HD
HETATM   10  C16 UNL     1      18.927  -0.951  13.630  1.00  0.00     0.200 C 
HETATM   11  C15 UNL     1      19.158  -0.097  14.851  1.00  0.00     0.190 C 
BRANCH   7  12
HETATM   12  N3  UNL     1      19.141  -3.363  13.244  1.00  0.00    -0.263 N 
HETATM   13  C2  UNL     1      18.436  -4.307  13.916  1.00  0.00     0.207 A 
HETATM   14  N2  UNL     1      17.957  -5.382  13.270  1.00  0.00    -0.188 N 
HETATM   15  C1  UNL     1      18.164  -5.549  11.952  1.00  0.00     0.680 A 
ATOM     16  H2  UNL     1      17.428  -6.084  13.788  1.00  0.00     0.185 HD
HETATM   17  N10 UNL     1      18.873  -4.602  11.280  1.00  0.00    -0.141 N 
HETATM   18  C17 UNL     1      19.351  -3.524  11.932  1.00  0.00     0.343 A 
ATOM     19  H10 UNL     1      19.042  -4.709  10.280  1.00  0.00     0.189 HD
HETATM   20  O9  UNL     1      20.005  -2.639  11.331  1.00  0.00    -0.246 OA
BRANCH  15  21
HETATM   21  N1  UNL     1      17.701  -6.589  11.318  1.00  0.00    -0.234 N 
ATOM     22  H12 UNL     1      16.706  -6.656  11.106  1.00  0.00     0.174 HD
ATOM     23  H11 UNL     1      18.314  -7.350  11.023  1.00  0.00     0.174 HD
ENDBRANCH  15  21
ENDBRANCH   7  12
BRANCH  10  24
HETATM   24  O8  UNL     1      17.558  -1.138  13.492  1.00  0.00    -0.389 OA
ATOM     25  H8  UNL     1      17.342  -1.687  12.747  1.00  0.00     0.210 HD
ENDBRANCH  10  24
BRANCH  11  26
HETATM   26  O7  UNL     1      18.198   0.898  14.971  1.00  0.00    -0.390 OA
ATOM     27  H7  UNL     1      18.062   1.401  14.177  1.00  0.00     0.210 HD
ENDBRANCH  11  26
ENDBRANCH   1   5
BRANCH   3  28
HETATM   28  C6  UNL     1      15.541  -2.301  16.920  1.00  0.00     0.150 C 
BRANCH  28  29
HETATM   29  C7  UNL     1      15.230  -3.679  17.425  1.00  0.00     0.257 C 
BRANCH  29  30
HETATM   30  N6  UNL     1      16.364  -4.570  17.376  1.00  0.00    -0.027 N 
ATOM     31  H62 UNL     1      16.416  -5.069  16.489  1.00  0.00     0.282 HD
ATOM     32  H61 UNL     1      17.245  -4.059  17.315  1.00  0.00     0.282 HD
BRANCH  30  33
HETATM   33  C8  UNL     1      16.348  -5.465  18.488  1.00  0.00     0.454 C 
HETATM   34  O2  UNL     1      15.043  -5.846  18.798  1.00  0.00    -0.325 OA
HETATM   35  C9  UNL     1      14.994  -6.112  20.163  1.00  0.00     0.243 C 
HETATM   36  C11 UNL     1      16.207  -5.483  20.765  1.00  0.00     0.274 C 
HETATM   37  O4  UNL     1      16.588  -5.527  21.948  1.00  0.00    -0.268 OA
HETATM   38  N7  UNL     1      16.841  -4.823  19.699  1.00  0.00    -0.191 N 
BRANCH  35  39
HETATM   39  C10 UNL     1      13.790  -5.472  20.817  1.00  0.00     0.206 C 
BRANCH  39  40
HETATM   40  O3  UNL     1      14.032  -4.111  20.962  1.00  0.00    -0.398 OA
ATOM     41  H3  UNL     1      13.219  -3.641  20.824  1.00  0.00     0.209 HD
ENDBRANCH  39  40
ENDBRANCH  35  39
BRANCH  38  42
HETATM   42  N8  UNL     1      17.741  -3.777  19.712  1.00  0.00    -0.172 N 
HETATM   43  C12 UNL     1      19.051  -3.821  19.350  1.00  0.00     0.182 A 
HETATM   44  C13 UNL     1      19.578  -2.583  19.511  1.00  0.00     0.150 A 
HETATM   45  N9  UNL     1      18.622  -1.771  19.965  1.00  0.00    -0.313 N 
HETATM   46  C14 UNL     1      17.512  -2.509  20.082  1.00  0.00     0.348 A 
ATOM     47  H9  UNL     1      18.719  -0.779  20.182  1.00  0.00     0.170 HD
HETATM   48  O6  UNL     1      16.396  -2.041  20.495  1.00  0.00    -0.245 OA
BRANCH  43  49
HETATM   49  O5  UNL     1      19.673  -4.996  18.897  1.00  0.00    -0.344 OA
ATOM     50  H5  UNL     1      20.604  -5.046  18.713  1.00  0.00     0.219 HD
ENDBRANCH  43  49
ENDBRANCH  38  42
ENDBRANCH  30  33
ENDBRANCH  29  30
ENDBRANCH  28  29
ENDBRANCH   3  28
TORSDOF 13
ENDMDL
MODEL 5
REMARK VINA RESULT: -6.370106544      2.195      4.082
REMARK  13 active torsions:
REMARK  status: ('A' for Active; 'I' for Inactive)
REMARK    1  A    between atoms: N1_1  and  C1_4 
REMARK    2  A    between atoms: N3_8  and  C3_9 
REMARK    3  A    between atoms: C4_13  and  C5_14 
REMARK       I    between atoms: C5_14  and  N5_16 
REMARK    4  A    between atoms: N5_16  and  C6_18 
REMARK    5  A    between atoms: C6_18  and  C7_19 
REMARK    6  A    between atoms: C7_19  and  N6_20 
REMARK    7  A    between atoms: N6_20  and  C8_23 
REMARK    8  A    between atoms: C9_25  and  C10_26 
REMARK    9  A    between atoms: C10_26  and  O3_27 
REMARK   10  A    between atoms: N7_31  and  N8_32 
REMARK   11  A    between atoms: C12_33  and  O5_34 
REMARK   12  A    between atoms: C15_41  and  O7_42 
REMARK   13  A    between atoms: C16_44  and  O8_45 
ROOT
HETATM    1  C5  UNL     1      17.690  -1.282  14.258  1.00  0.00     0.251 C 
HETATM    2  O1  UNL     1      16.803  -1.747  15.035  1.00  0.00    -0.271 OA
HETATM    3  N5  UNL     1      18.288  -0.059  14.648  1.00  0.00    -0.358 N 
ATOM      4  H5  UNL     1      18.999   0.330  14.029  1.00  0.00     0.162 HD
ENDROOT
BRANCH   1   5
HETATM    5  C4  UNL     1      18.076  -1.995  13.008  1.00  0.00     0.310 C 
HETATM    6  N4  UNL     1      18.967  -1.137  12.283  1.00  0.00    -0.036 N 
HETATM    7  C3  UNL     1      20.181  -1.867  12.019  1.00  0.00     0.328 C 
ATOM      8  H42 UNL     1      19.136  -0.252  12.762  1.00  0.00     0.280 HD
ATOM      9  H41 UNL     1      18.544  -0.758  11.436  1.00  0.00     0.280 HD
HETATM   10  C16 UNL     1      20.252  -2.848  13.129  1.00  0.00     0.200 C 
HETATM   11  C15 UNL     1      18.816  -3.277  13.296  1.00  0.00     0.190 C 
BRANCH   7  12
HETATM   12  N3  UNL     1      21.274  -0.918  12.012  1.00  0.00    -0.263 N 
HETATM   13  C2  UNL     1      21.131   0.259  12.669  1.00  0.00     0.207 A 
HETATM   14  N2  UNL     1      22.133   1.152  12.684  1.00  0.00    -0.188 N 
HETATM   15  C1  UNL     1      23.294   0.903  12.053  1.00  0.00     0.680 A 
ATOM     16  H2  UNL     1      22.013   2.033  13.183  1.00  0.00     0.185 HD
HETATM   17  N10 UNL     1      23.436  -0.278  11.393  1.00  0.00    -0.141 N 
HETATM   18  C17 UNL     1      22.427  -1.171  11.380  1.00  0.00     0.343 A 
ATOM     19  H10 UNL     1      24.307  -0.487  10.907  1.00  0.00     0.189 HD
HETATM   20  O9  UNL     1      22.536  -2.267  10.780  1.00  0.00    -0.246 OA
BRANCH  15  21
HETATM   21  N1  UNL     1      24.273   1.764  12.064  1.00  0.00    -0.234 N 
ATOM     22  H12 UNL     1      24.140   2.693  11.665  1.00  0.00     0.174 HD
ATOM     23  H11 UNL     1      25.182   1.532  12.466  1.00  0.00     0.174 HD
ENDBRANCH  15  21
ENDBRANCH   7  12
BRANCH  10  24
HETATM   24  O8  UNL     1      20.668  -2.268  14.320  1.00  0.00    -0.389 OA
ATOM     25  H8  UNL     1      20.189  -2.601  15.070  1.00  0.00     0.210 HD
ENDBRANCH  10  24
BRANCH  11  26
HETATM   26  O7  UNL     1      18.579  -3.793  14.563  1.00  0.00    -0.390 OA
ATOM     27  H7  UNL     1      18.838  -4.701  14.665  1.00  0.00     0.210 HD
ENDBRANCH  11  26
ENDBRANCH   1   5
BRANCH   3  28
HETATM   28  C6  UNL     1      17.982   0.677  15.831  1.00  0.00     0.150 C 
BRANCH  28  29
HETATM   29  C7  UNL     1      18.713   0.187  17.047  1.00  0.00     0.257 C 
BRANCH  29  30
HETATM   30  N6  UNL     1      17.902   0.203  18.240  1.00  0.00    -0.027 N 
ATOM     31  H62 UNL     1      17.446   1.105  18.377  1.00  0.00     0.282 HD
ATOM     32  H61 UNL     1      17.067  -0.375  18.139  1.00  0.00     0.282 HD
BRANCH  30  33
HETATM   33  C8  UNL     1      18.676  -0.177  19.378  1.00  0.00     0.454 C 
HETATM   34  O2  UNL     1      20.034   0.030  19.145  1.00  0.00    -0.325 OA
HETATM   35  C9  UNL     1      20.738  -0.906  19.897  1.00  0.00     0.243 C 
HETATM   36  C11 UNL     1      19.762  -1.968  20.282  1.00  0.00     0.274 C 
HETATM   37  O4  UNL     1      19.954  -2.962  21.004  1.00  0.00    -0.268 OA
HETATM   38  N7  UNL     1      18.561  -1.604  19.649  1.00  0.00    -0.191 N 
BRANCH  35  39
HETATM   39  C10 UNL     1      21.827  -1.573  19.087  1.00  0.00     0.206 C 
BRANCH  39  40
HETATM   40  O3  UNL     1      21.242  -2.506  18.239  1.00  0.00    -0.398 OA
ATOM     41  H3  UNL     1      21.652  -2.439  17.385  1.00  0.00     0.209 HD
ENDBRANCH  39  40
ENDBRANCH  35  39
BRANCH  38  42
HETATM   42  N8  UNL     1      17.467  -2.373  19.313  1.00  0.00    -0.172 N 
HETATM   43  C12 UNL     1      17.325  -3.156  18.210  1.00  0.00     0.182 A 
HETATM   44  C13 UNL     1      16.103  -3.740  18.258  1.00  0.00     0.150 A 
HETATM   45  N9  UNL     1      15.483  -3.336  19.367  1.00  0.00    -0.313 N 
HETATM   46  C14 UNL     1      16.323  -2.506  19.999  1.00  0.00     0.348 A 
ATOM     47  H9  UNL     1      14.549  -3.606  19.675  1.00  0.00     0.170 HD
HETATM   48  O6  UNL     1      16.044  -1.931  21.107  1.00  0.00    -0.245 OA
BRANCH  43  49
HETATM   49  O5  UNL     1      18.329  -3.281  17.236  1.00  0.00    -0.344 OA
ATOM     50  H5  UNL     1      18.148  -3.562  16.347  1.00  0.00     0.219 HD
ENDBRANCH  43  49
ENDBRANCH  38  42
ENDBRANCH  30  33
ENDBRANCH  29  30
ENDBRANCH  28  29
ENDBRANCH   3  28
TORSDOF 13
ENDMDL
