MODEL 1
REMARK VINA RESULT: -6.636286930      0.000      0.000
REMARK  15 active torsions:
REMARK  status: ('A' for Active; 'I' for Inactive)
REMARK    1  A    between atoms: N1_1  and  N2_4 
REMARK    2  A    between atoms: C1_6  and  C2_8 
REMARK    3  A    between atoms: C2_8  and  O1_9 
REMARK    4  A    between atoms: O1_9  and  N4_10 
REMARK    5  A    between atoms: N5_12  and  N6_14 
REMARK    6  A    between atoms: N6_14  and  C3_16 
REMARK    7  A    between atoms: N9_23  and  C6_24 
REMARK    8  A    between atoms: C7_26  and  C8_27 
REMARK    9  A    between atoms: C8_27  and  O3_28 
REMARK   10  A    between atoms: C9_30  and  O4_31 
REMARK   11  A    between atoms: C10_33  and  O5_34 
REMARK   12  A    between atoms: C10_33  and  C11_36 
REMARK   13  A    between atoms: C11_36  and  O6_37 
REMARK   14  A    between atoms: N10_41  and  C13_42 
REMARK   15  A    between atoms: C14_46  and  O8_47 
ROOT
HETATM    1  C3  UNL     1      18.931  -4.637  12.611  1.00  0.00     0.701 A 
HETATM    2  N7  UNL     1      19.933  -4.062  11.925  1.00  0.00    -0.171 N 
ATOM      3  H7  UNL     1      20.474  -4.491  11.173  1.00  0.00     0.186 HD
HETATM    4  C4  UNL     1      20.092  -2.802  12.416  1.00  0.00     0.180 A 
HETATM    5  C5  UNL     1      19.181  -2.577  13.426  1.00  0.00     0.175 A 
HETATM    6  N8  UNL     1      18.480  -3.746  13.513  1.00  0.00    -0.171 N 
ATOM      7  H8  UNL     1      17.719  -3.920  14.169  1.00  0.00     0.186 HD
HETATM    8  N9  UNL     1      19.340  -1.333  13.912  1.00  0.00    -0.250 N 
HETATM    9  C12 UNL     1      20.325  -0.770  13.235  1.00  0.00     0.341 A 
HETATM   10  O7  UNL     1      20.751   0.399  13.420  1.00  0.00    -0.246 OA
HETATM   11  N10 UNL     1      20.780  -1.652  12.333  1.00  0.00    -0.208 N 
ENDROOT
BRANCH   1  12
HETATM   12  N6  UNL     1      18.457  -5.841  12.458  1.00  0.00    -0.116 N 
ATOM     13  H6  UNL     1      18.547  -6.508  13.225  1.00  0.00     0.207 HD
BRANCH  12  14
HETATM   14  N5  UNL     1      17.832  -6.247  11.282  1.00  0.00    -0.209 N 
HETATM   15  N4  UNL     1      16.739  -6.853  11.232  1.00  0.00    -0.192 N 
ATOM     16  H4  UNL     1      16.348  -7.114  10.327  1.00  0.00     0.217 HD
ATOM     17  H5  UNL     1      18.299  -6.036  10.400  1.00  0.00     0.211 HD
BRANCH  15  18
HETATM   18  O1  UNL     1      16.059  -7.169  12.382  1.00  0.00    -0.257 OA
BRANCH  18  19
HETATM   19  C2  UNL     1      14.976  -8.079  12.388  1.00  0.00     0.277 C 
BRANCH  19  20
HETATM   20  C1  UNL     1      14.280  -7.967  11.088  1.00  0.00     0.133 C 
HETATM   21  N2  UNL     1      13.275  -7.183  10.977  1.00  0.00    -0.296 N 
ATOM     22  H2  UNL     1      12.785  -7.095  10.087  1.00  0.00     0.187 HD
HETATM   23  N3  UNL     1      14.695  -8.709   9.948  1.00  0.00    -0.084 NA
BRANCH  21  24
HETATM   24  N1  UNL     1      12.859  -6.450  12.086  1.00  0.00    -0.344 N 
ATOM     25  H12 UNL     1      13.555  -5.993  12.675  1.00  0.00     0.176 HD
ATOM     26  H11 UNL     1      11.862  -6.383  12.293  1.00  0.00     0.176 HD
ENDBRANCH  21  24
ENDBRANCH  19  20
ENDBRANCH  18  19
ENDBRANCH  15  18
ENDBRANCH  12  14
ENDBRANCH   1  12
BRANCH  11  27
HETATM   27  C13 UNL     1      21.850  -1.448  11.390  1.00  0.00     0.251 C 
HETATM   28  N11 UNL     1      22.466  -0.337  11.209  1.00  0.00    -0.264 N 
HETATM   29  N12 UNL     1      23.451  -0.459  10.227  1.00  0.00    -0.078 NA
ATOM     30  H11 UNL     1      22.263   0.525  11.716  1.00  0.00     0.186 HD
HETATM   31  C14 UNL     1      23.301  -1.799   9.656  1.00  0.00     0.386 C 
HETATM   32  O9  UNL     1      22.377  -2.406  10.539  1.00  0.00    -0.272 OA
BRANCH  31  33
HETATM   33  O8  UNL     1      24.528  -2.430   9.794  1.00  0.00    -0.356 OA
ATOM     34  H8  UNL     1      24.407  -3.327   9.506  1.00  0.00     0.214 HD
ENDBRANCH  31  33
ENDBRANCH  11  27
BRANCH   8  35
HETATM   35  C6  UNL     1      18.513  -0.826  14.984  1.00  0.00     0.274 C 
HETATM   36  O2  UNL     1      17.428  -1.642  15.254  1.00  0.00    -0.353 OA
HETATM   37  C7  UNL     1      16.860  -1.020  16.361  1.00  0.00     0.179 C 
HETATM   38  C9  UNL     1      17.975  -0.466  17.193  1.00  0.00     0.190 C 
HETATM   39  C10 UNL     1      19.201  -0.801  16.326  1.00  0.00     0.151 C 
BRANCH  37  40
HETATM   40  C8  UNL     1      15.992  -1.991  17.142  1.00  0.00     0.198 C 
BRANCH  40  41
HETATM   41  O3  UNL     1      16.376  -2.058  18.474  1.00  0.00    -0.398 OA
ATOM     42  H3  UNL     1      15.661  -2.349  19.028  1.00  0.00     0.209 HD
ENDBRANCH  40  41
ENDBRANCH  37  40
BRANCH  38  43
HETATM   43  O4  UNL     1      17.906   0.933  17.317  1.00  0.00    -0.390 OA
ATOM     44  H4  UNL     1      18.643   1.369  16.906  1.00  0.00     0.210 HD
ENDBRANCH  38  43
BRANCH  39  45
HETATM   45  O5  UNL     1      20.165   0.189  16.439  1.00  0.00    -0.380 OA
ATOM     46  H5  UNL     1      20.995  -0.124  16.781  1.00  0.00     0.211 HD
ENDBRANCH  39  45
BRANCH  39  47
HETATM   47  C11 UNL     1      19.679  -2.142  16.798  1.00  0.00     0.209 C 
BRANCH  47  48
HETATM   48  O6  UNL     1      19.423  -2.416  18.115  1.00  0.00    -0.398 OA
ATOM     49  H6  UNL     1      18.502  -2.431  18.349  1.00  0.00     0.209 HD
ENDBRANCH  47  48
ENDBRANCH  39  47
ENDBRANCH   8  35
TORSDOF 15
ENDMDL
MODEL 2
REMARK VINA RESULT: -6.296084567      3.064      4.679
REMARK  15 active torsions:
REMARK  status: ('A' for Active; 'I' for Inactive)
REMARK    1  A    between atoms: N1_1  and  N2_4 
REMARK    2  A    between atoms: C1_6  and  C2_8 
REMARK    3  A    between atoms: C2_8  and  O1_9 
REMARK    4  A    between atoms: O1_9  and  N4_10 
REMARK    5  A    between atoms: N5_12  and  N6_14 
REMARK    6  A    between atoms: N6_14  and  C3_16 
REMARK    7  A    between atoms: N9_23  and  C6_24 
REMARK    8  A    between atoms: C7_26  and  C8_27 
REMARK    9  A    between atoms: C8_27  and  O3_28 
REMARK   10  A    between atoms: C9_30  and  O4_31 
REMARK   11  A    between atoms: C10_33  and  O5_34 
REMARK   12  A    between atoms: C10_33  and  C11_36 
REMARK   13  A    between atoms: C11_36  and  O6_37 
REMARK   14  A    between atoms: N10_41  and  C13_42 
REMARK   15  A    between atoms: C14_46  and  O8_47 
ROOT
HETATM    1  C3  UNL     1      18.100  -4.665  13.885  1.00  0.00     0.701 A 
HETATM    2  N7  UNL     1      18.558  -3.412  14.039  1.00  0.00    -0.171 N 
ATOM      3  H7  UNL     1      19.332  -2.984  13.529  1.00  0.00     0.186 HD
HETATM    4  C4  UNL     1      17.799  -2.817  15.001  1.00  0.00     0.180 A 
HETATM    5  C5  UNL     1      16.850  -3.705  15.461  1.00  0.00     0.175 A 
HETATM    6  N8  UNL     1      17.074  -4.841  14.738  1.00  0.00    -0.171 N 
ATOM      7  H8  UNL     1      16.539  -5.704  14.832  1.00  0.00     0.186 HD
HETATM    8  N9  UNL     1      16.101  -3.116  16.411  1.00  0.00    -0.250 N 
HETATM    9  C12 UNL     1      16.554  -1.884  16.561  1.00  0.00     0.341 A 
HETATM   10  O7  UNL     1      16.091  -1.039  17.370  1.00  0.00    -0.246 OA
HETATM   11  N10 UNL     1      17.576  -1.700  15.713  1.00  0.00    -0.208 N 
ENDROOT
BRANCH   1  12
HETATM   12  N6  UNL     1      18.546  -5.575  13.065  1.00  0.00    -0.116 N 
ATOM     13  H6  UNL     1      19.215  -6.264  13.409  1.00  0.00     0.207 HD
BRANCH  12  14
HETATM   14  N5  UNL     1      18.140  -5.636  11.735  1.00  0.00    -0.209 N 
HETATM   15  N4  UNL     1      17.323  -6.467  11.279  1.00  0.00    -0.192 N 
ATOM     16  H4  UNL     1      17.078  -6.443  10.289  1.00  0.00     0.217 HD
ATOM     17  H5  UNL     1      18.538  -4.956  11.085  1.00  0.00     0.211 HD
BRANCH  15  18
HETATM   18  O1  UNL     1      16.752  -7.409  12.098  1.00  0.00    -0.257 OA
BRANCH  18  19
HETATM   19  C2  UNL     1      15.401  -7.326  12.510  1.00  0.00     0.277 C 
BRANCH  19  20
HETATM   20  C1  UNL     1      14.548  -7.563  11.325  1.00  0.00     0.133 C 
HETATM   21  N2  UNL     1      13.364  -7.078  11.295  1.00  0.00    -0.296 N 
ATOM     22  H2  UNL     1      12.764  -7.233  10.486  1.00  0.00     0.187 HD
HETATM   23  N3  UNL     1      15.004  -8.318  10.210  1.00  0.00    -0.084 NA
BRANCH  21  24
HETATM   24  N1  UNL     1      12.906  -6.336  12.381  1.00  0.00    -0.344 N 
ATOM     25  H12 UNL     1      13.578  -5.946  13.041  1.00  0.00     0.176 HD
ATOM     26  H11 UNL     1      11.902  -6.195  12.499  1.00  0.00     0.176 HD
ENDBRANCH  21  24
ENDBRANCH  19  20
ENDBRANCH  18  19
ENDBRANCH  15  18
ENDBRANCH  12  14
ENDBRANCH   1  12
BRANCH  11  27
HETATM   27  C13 UNL     1      18.357  -0.501  15.549  1.00  0.00     0.251 C 
HETATM   28  N11 UNL     1      17.992   0.670  15.928  1.00  0.00    -0.264 N 
HETATM   29  N12 UNL     1      18.965   1.625  15.630  1.00  0.00    -0.078 NA
ATOM     30  H11 UNL     1      17.105   0.876  16.387  1.00  0.00     0.186 HD
HETATM   31  C14 UNL     1      19.991   0.937  14.843  1.00  0.00     0.386 C 
HETATM   32  O9  UNL     1      19.611  -0.420  14.965  1.00  0.00    -0.272 OA
BRANCH  31  33
HETATM   33  O8  UNL     1      21.193   1.123  15.508  1.00  0.00    -0.356 OA
ATOM     34  H8  UNL     1      21.858   1.245  14.840  1.00  0.00     0.214 HD
ENDBRANCH  31  33
ENDBRANCH  11  27
BRANCH   8  35
HETATM   35  C6  UNL     1      15.025  -3.819  17.071  1.00  0.00     0.274 C 
HETATM   36  O2  UNL     1      14.809  -5.082  16.547  1.00  0.00    -0.353 OA
HETATM   37  C7  UNL     1      13.827  -5.588  17.391  1.00  0.00     0.179 C 
HETATM   38  C9  UNL     1      14.100  -5.070  18.769  1.00  0.00     0.190 C 
HETATM   39  C10 UNL     1      15.305  -4.148  18.516  1.00  0.00     0.151 C 
BRANCH  37  40
HETATM   40  C8  UNL     1      13.803  -7.107  17.347  1.00  0.00     0.198 C 
BRANCH  40  41
HETATM   41  O3  UNL     1      14.137  -7.656  18.576  1.00  0.00    -0.398 OA
ATOM     42  H3  UNL     1      14.459  -8.546  18.484  1.00  0.00     0.209 HD
ENDBRANCH  40  41
ENDBRANCH  37  40
BRANCH  38  43
HETATM   43  O4  UNL     1      13.047  -4.276  19.261  1.00  0.00    -0.390 OA
ATOM     44  H4  UNL     1      12.708  -4.597  20.088  1.00  0.00     0.210 HD
ENDBRANCH  38  43
BRANCH  39  45
HETATM   45  O5  UNL     1      15.262  -3.045  19.357  1.00  0.00    -0.380 OA
ATOM     46  H5  UNL     1      16.110  -2.804  19.713  1.00  0.00     0.211 HD
ENDBRANCH  39  45
BRANCH  39  47
HETATM   47  C11 UNL     1      16.521  -5.000  18.730  1.00  0.00     0.209 C 
BRANCH  47  48
HETATM   48  O6  UNL     1      16.377  -5.987  19.668  1.00  0.00    -0.398 OA
ATOM     49  H6  UNL     1      16.847  -6.790  19.480  1.00  0.00     0.209 HD
ENDBRANCH  47  48
ENDBRANCH  39  47
ENDBRANCH   8  35
TORSDOF 15
ENDMDL
MODEL 3
REMARK VINA RESULT: -6.295476310      2.013      3.196
REMARK  15 active torsions:
REMARK  status: ('A' for Active; 'I' for Inactive)
REMARK    1  A    between atoms: N1_1  and  N2_4 
REMARK    2  A    between atoms: C1_6  and  C2_8 
REMARK    3  A    between atoms: C2_8  and  O1_9 
REMARK    4  A    between atoms: O1_9  and  N4_10 
REMARK    5  A    between atoms: N5_12  and  N6_14 
REMARK    6  A    between atoms: N6_14  and  C3_16 
REMARK    7  A    between atoms: N9_23  and  C6_24 
REMARK    8  A    between atoms: C7_26  and  C8_27 
REMARK    9  A    between atoms: C8_27  and  O3_28 
REMARK   10  A    between atoms: C9_30  and  O4_31 
REMARK   11  A    between atoms: C10_33  and  O5_34 
REMARK   12  A    between atoms: C10_33  and  C11_36 
REMARK   13  A    between atoms: C11_36  and  O6_37 
REMARK   14  A    between atoms: N10_41  and  C13_42 
REMARK   15  A    between atoms: C14_46  and  O8_47 
ROOT
HETATM    1  C3  UNL     1      18.547  -4.512  11.790  1.00  0.00     0.701 A 
HETATM    2  N7  UNL     1      19.648  -3.947  11.266  1.00  0.00    -0.171 N 
ATOM      3  H7  UNL     1      20.213  -4.320  10.502  1.00  0.00     0.186 HD
HETATM    4  C4  UNL     1      19.870  -2.785  11.940  1.00  0.00     0.180 A 
HETATM    5  C5  UNL     1      18.899  -2.613  12.904  1.00  0.00     0.175 A 
HETATM    6  N8  UNL     1      18.097  -3.711  12.774  1.00  0.00    -0.171 N 
ATOM      7  H8  UNL     1      17.272  -3.898  13.343  1.00  0.00     0.186 HD
HETATM    8  N9  UNL     1      19.120  -1.465  13.570  1.00  0.00    -0.250 N 
HETATM    9  C12 UNL     1      20.202  -0.912  13.053  1.00  0.00     0.341 A 
HETATM   10  O7  UNL     1      20.707   0.176  13.431  1.00  0.00    -0.246 OA
HETATM   11  N10 UNL     1      20.656  -1.704  12.071  1.00  0.00    -0.208 N 
ENDROOT
BRANCH   1  12
HETATM   12  N6  UNL     1      17.989  -5.634  11.435  1.00  0.00    -0.116 N 
ATOM     13  H6  UNL     1      17.816  -5.807  10.444  1.00  0.00     0.207 HD
BRANCH  12  14
HETATM   14  N5  UNL     1      17.621  -6.605  12.362  1.00  0.00    -0.209 N 
HETATM   15  N4  UNL     1      18.253  -7.665  12.568  1.00  0.00    -0.192 N 
ATOM     16  H4  UNL     1      17.915  -8.325  13.268  1.00  0.00     0.217 HD
ATOM     17  H5  UNL     1      16.777  -6.441  12.911  1.00  0.00     0.211 HD
BRANCH  15  18
HETATM   18  O1  UNL     1      19.396  -7.949  11.862  1.00  0.00    -0.257 OA
BRANCH  18  19
HETATM   19  C2  UNL     1      20.633  -8.195  12.504  1.00  0.00     0.277 C 
BRANCH  19  20
HETATM   20  C1  UNL     1      21.190  -6.895  12.934  1.00  0.00     0.133 C 
HETATM   21  N2  UNL     1      22.380  -6.575  12.589  1.00  0.00    -0.296 N 
ATOM     22  H2  UNL     1      22.779  -5.682  12.879  1.00  0.00     0.187 HD
HETATM   23  N3  UNL     1      20.441  -5.981  13.726  1.00  0.00    -0.084 NA
BRANCH  21  24
HETATM   24  N1  UNL     1      23.124  -7.460  11.814  1.00  0.00    -0.344 N 
ATOM     25  H12 UNL     1      22.646  -8.202  11.302  1.00  0.00     0.176 HD
ATOM     26  H11 UNL     1      24.138  -7.354  11.771  1.00  0.00     0.176 HD
ENDBRANCH  21  24
ENDBRANCH  19  20
ENDBRANCH  18  19
ENDBRANCH  15  18
ENDBRANCH  12  14
ENDBRANCH   1  12
BRANCH  11  27
HETATM   27  C13 UNL     1      21.815  -1.478  11.245  1.00  0.00     0.251 C 
HETATM   28  N11 UNL     1      22.426  -0.355  11.130  1.00  0.00    -0.264 N 
HETATM   29  N12 UNL     1      23.510  -0.455  10.257  1.00  0.00    -0.078 NA
ATOM     30  H11 UNL     1      22.154   0.502  11.614  1.00  0.00     0.186 HD
HETATM   31  C14 UNL     1      23.447  -1.796   9.673  1.00  0.00     0.386 C 
HETATM   32  O9  UNL     1      22.447  -2.423  10.453  1.00  0.00    -0.272 OA
BRANCH  31  33
HETATM   33  O8  UNL     1      24.664  -2.404   9.939  1.00  0.00    -0.356 OA
ATOM     34  H8  UNL     1      25.264  -1.713  10.196  1.00  0.00     0.214 HD
ENDBRANCH  31  33
ENDBRANCH  11  27
BRANCH   8  35
HETATM   35  C6  UNL     1      18.250  -1.031  14.641  1.00  0.00     0.274 C 
HETATM   36  O2  UNL     1      17.183  -1.889  14.845  1.00  0.00    -0.353 OA
HETATM   37  C7  UNL     1      16.569  -1.334  15.963  1.00  0.00     0.179 C 
HETATM   38  C9  UNL     1      17.645  -0.787  16.849  1.00  0.00     0.190 C 
HETATM   39  C10 UNL     1      18.902  -1.047  16.001  1.00  0.00     0.151 C 
BRANCH  37  40
HETATM   40  C8  UNL     1      15.710  -2.364  16.677  1.00  0.00     0.198 C 
BRANCH  40  41
HETATM   41  O3  UNL     1      15.931  -2.348  18.047  1.00  0.00    -0.398 OA
ATOM     42  H3  UNL     1      15.655  -1.525  18.434  1.00  0.00     0.209 HD
ENDBRANCH  40  41
ENDBRANCH  37  40
BRANCH  38  43
HETATM   43  O4  UNL     1      17.531   0.603  17.033  1.00  0.00    -0.390 OA
ATOM     44  H4  UNL     1      18.048   0.914  17.767  1.00  0.00     0.210 HD
ENDBRANCH  38  43
BRANCH  39  45
HETATM   45  O5  UNL     1      19.834  -0.036  16.184  1.00  0.00    -0.380 OA
ATOM     46  H5  UNL     1      20.693  -0.351  16.441  1.00  0.00     0.211 HD
ENDBRANCH  39  45
BRANCH  39  47
HETATM   47  C11 UNL     1      19.408  -2.394  16.426  1.00  0.00     0.209 C 
BRANCH  47  48
HETATM   48  O6  UNL     1      19.087  -2.753  17.708  1.00  0.00    -0.398 OA
ATOM     49  H6  UNL     1      18.952  -3.683  17.842  1.00  0.00     0.209 HD
ENDBRANCH  47  48
ENDBRANCH  39  47
ENDBRANCH   8  35
TORSDOF 15
ENDMDL
MODEL 4
REMARK VINA RESULT: -6.262314164      1.229      1.682
REMARK  15 active torsions:
REMARK  status: ('A' for Active; 'I' for Inactive)
REMARK    1  A    between atoms: N1_1  and  N2_4 
REMARK    2  A    between atoms: C1_6  and  C2_8 
REMARK    3  A    between atoms: C2_8  and  O1_9 
REMARK    4  A    between atoms: O1_9  and  N4_10 
REMARK    5  A    between atoms: N5_12  and  N6_14 
REMARK    6  A    between atoms: N6_14  and  C3_16 
REMARK    7  A    between atoms: N9_23  and  C6_24 
REMARK    8  A    between atoms: C7_26  and  C8_27 
REMARK    9  A    between atoms: C8_27  and  O3_28 
REMARK   10  A    between atoms: C9_30  and  O4_31 
REMARK   11  A    between atoms: C10_33  and  O5_34 
REMARK   12  A    between atoms: C10_33  and  C11_36 
REMARK   13  A    between atoms: C11_36  and  O6_37 
REMARK   14  A    between atoms: N10_41  and  C13_42 
REMARK   15  A    between atoms: C14_46  and  O8_47 
ROOT
HETATM    1  C3  UNL     1      18.924  -4.884  12.338  1.00  0.00     0.701 A 
HETATM    2  N7  UNL     1      19.929  -4.252  11.709  1.00  0.00    -0.171 N 
ATOM      3  H7  UNL     1      20.524  -4.641  10.977  1.00  0.00     0.186 HD
HETATM    4  C4  UNL     1      20.008  -2.996  12.229  1.00  0.00     0.180 A 
HETATM    5  C5  UNL     1      19.041  -2.831  13.199  1.00  0.00     0.175 A 
HETATM    6  N8  UNL     1      18.390  -4.032  13.232  1.00  0.00    -0.171 N 
ATOM      7  H8  UNL     1      17.608  -4.252  13.848  1.00  0.00     0.186 HD
HETATM    8  N9  UNL     1      19.120  -1.591  13.712  1.00  0.00    -0.250 N 
HETATM    9  C12 UNL     1      20.109  -0.971  13.093  1.00  0.00     0.341 A 
HETATM   10  O7  UNL     1      20.472   0.212  13.318  1.00  0.00    -0.246 OA
HETATM   11  N10 UNL     1      20.645  -1.814  12.199  1.00  0.00    -0.208 N 
ENDROOT
BRANCH   1  12
HETATM   12  N6  UNL     1      18.513  -6.105  12.141  1.00  0.00    -0.116 N 
ATOM     13  H6  UNL     1      18.983  -6.869  12.628  1.00  0.00     0.207 HD
BRANCH  12  14
HETATM   14  N5  UNL     1      17.453  -6.402  11.290  1.00  0.00    -0.209 N 
HETATM   15  N4  UNL     1      16.461  -7.096  11.605  1.00  0.00    -0.192 N 
ATOM     16  H4  UNL     1      15.725  -7.265  10.919  1.00  0.00     0.217 HD
ATOM     17  H5  UNL     1      17.488  -6.029  10.340  1.00  0.00     0.211 HD
BRANCH  15  18
HETATM   18  O1  UNL     1      16.351  -7.630  12.865  1.00  0.00    -0.257 OA
BRANCH  18  19
HETATM   19  C2  UNL     1      15.232  -7.377  13.693  1.00  0.00     0.277 C 
BRANCH  19  20
HETATM   20  C1  UNL     1      15.616  -6.338  14.674  1.00  0.00     0.133 C 
HETATM   21  N2  UNL     1      14.703  -5.674  15.276  1.00  0.00    -0.296 N 
ATOM     22  H2  UNL     1      14.951  -4.954  15.955  1.00  0.00     0.187 HD
HETATM   23  N3  UNL     1      16.976  -6.052  14.971  1.00  0.00    -0.084 NA
BRANCH  21  24
HETATM   24  N1  UNL     1      13.366  -5.945  14.994  1.00  0.00    -0.344 N 
ATOM     25  H12 UNL     1      13.058  -6.914  14.912  1.00  0.00     0.176 HD
ATOM     26  H11 UNL     1      12.716  -5.169  14.873  1.00  0.00     0.176 HD
ENDBRANCH  21  24
ENDBRANCH  19  20
ENDBRANCH  18  19
ENDBRANCH  15  18
ENDBRANCH  12  14
ENDBRANCH   1  12
BRANCH  11  27
HETATM   27  C13 UNL     1      21.747  -1.545  11.311  1.00  0.00     0.251 C 
HETATM   28  N11 UNL     1      22.309  -0.400  11.165  1.00  0.00    -0.264 N 
HETATM   29  N12 UNL     1      23.347  -0.460  10.233  1.00  0.00    -0.078 NA
ATOM     30  H11 UNL     1      22.032   0.446  11.665  1.00  0.00     0.186 HD
HETATM   31  C14 UNL     1      23.301  -1.802   9.651  1.00  0.00     0.386 C 
HETATM   32  O9  UNL     1      22.370  -2.466  10.484  1.00  0.00    -0.272 OA
BRANCH  31  33
HETATM   33  O8  UNL     1      24.553  -2.364   9.848  1.00  0.00    -0.356 OA
ATOM     34  H8  UNL     1      24.444  -3.052  10.495  1.00  0.00     0.214 HD
ENDBRANCH  31  33
ENDBRANCH  11  27
BRANCH   8  35
HETATM   35  C6  UNL     1      18.221  -1.142  14.752  1.00  0.00     0.274 C 
HETATM   36  O2  UNL     1      17.204  -2.046  15.007  1.00  0.00    -0.353 OA
HETATM   37  C7  UNL     1      16.553  -1.459  16.087  1.00  0.00     0.179 C 
HETATM   38  C9  UNL     1      17.591  -0.797  16.940  1.00  0.00     0.190 C 
HETATM   39  C10 UNL     1      18.865  -1.037  16.112  1.00  0.00     0.151 C 
BRANCH  37  40
HETATM   40  C8  UNL     1      15.751  -2.491  16.862  1.00  0.00     0.198 C 
BRANCH  40  41
HETATM   41  O3  UNL     1      16.409  -3.711  16.915  1.00  0.00    -0.398 OA
ATOM     42  H3  UNL     1      15.929  -4.343  17.438  1.00  0.00     0.209 HD
ENDBRANCH  40  41
ENDBRANCH  37  40
BRANCH  38  43
HETATM   43  O4  UNL     1      17.396   0.593  17.037  1.00  0.00    -0.390 OA
ATOM     44  H4  UNL     1      18.122   1.030  17.467  1.00  0.00     0.210 HD
ENDBRANCH  38  43
BRANCH  39  45
HETATM   45  O5  UNL     1      19.736   0.036  16.234  1.00  0.00    -0.380 OA
ATOM     46  H5  UNL     1      20.622  -0.216  16.468  1.00  0.00     0.211 HD
ENDBRANCH  39  45
BRANCH  39  47
HETATM   47  C11 UNL     1      19.446  -2.322  16.621  1.00  0.00     0.209 C 
BRANCH  47  48
HETATM   48  O6  UNL     1      19.148  -2.614  17.925  1.00  0.00    -0.398 OA
ATOM     49  H6  UNL     1      19.570  -2.057  18.567  1.00  0.00     0.209 HD
ENDBRANCH  47  48
ENDBRANCH  39  47
ENDBRANCH   8  35
TORSDOF 15
ENDMDL
MODEL 5
REMARK VINA RESULT: -6.217685524      3.243      6.556
REMARK  15 active torsions:
REMARK  status: ('A' for Active; 'I' for Inactive)
REMARK    1  A    between atoms: N1_1  and  N2_4 
REMARK    2  A    between atoms: C1_6  and  C2_8 
REMARK    3  A    between atoms: C2_8  and  O1_9 
REMARK    4  A    between atoms: O1_9  and  N4_10 
REMARK    5  A    between atoms: N5_12  and  N6_14 
REMARK    6  A    between atoms: N6_14  and  C3_16 
REMARK    7  A    between atoms: N9_23  and  C6_24 
REMARK    8  A    between atoms: C7_26  and  C8_27 
REMARK    9  A    between atoms: C8_27  and  O3_28 
REMARK   10  A    between atoms: C9_30  and  O4_31 
REMARK   11  A    between atoms: C10_33  and  O5_34 
REMARK   12  A    between atoms: C10_33  and  C11_36 
REMARK   13  A    between atoms: C11_36  and  O6_37 
REMARK   14  A    between atoms: N10_41  and  C13_42 
REMARK   15  A    between atoms: C14_46  and  O8_47 
ROOT
HETATM    1  C3  UNL     1      18.342  -1.433  13.494  1.00  0.00     0.701 A 
HETATM    2  N7  UNL     1      18.875  -0.480  14.277  1.00  0.00    -0.171 N 
ATOM      3  H7  UNL     1      19.615   0.173  14.016  1.00  0.00     0.186 HD
HETATM    4  C4  UNL     1      18.245  -0.546  15.483  1.00  0.00     0.180 A 
HETATM    5  C5  UNL     1      17.303  -1.553  15.462  1.00  0.00     0.175 A 
HETATM    6  N8  UNL     1      17.399  -2.077  14.205  1.00  0.00    -0.171 N 
ATOM      7  H8  UNL     1      16.833  -2.849  13.853  1.00  0.00     0.186 HD
HETATM    8  N9  UNL     1      16.682  -1.617  16.654  1.00  0.00    -0.250 N 
HETATM    9  C12 UNL     1      17.207  -0.679  17.422  1.00  0.00     0.341 A 
HETATM   10  O7  UNL     1      16.868  -0.448  18.611  1.00  0.00    -0.246 OA
HETATM   11  N10 UNL     1      18.149  -0.032  16.720  1.00  0.00    -0.208 N 
ENDROOT
BRANCH   1  12
HETATM   12  N6  UNL     1      18.660  -1.712  12.261  1.00  0.00    -0.116 N 
ATOM     13  H6  UNL     1      18.683  -0.957  11.575  1.00  0.00     0.207 HD
BRANCH  12  14
HETATM   14  N5  UNL     1      18.970  -3.005  11.850  1.00  0.00    -0.209 N 
HETATM   15  N4  UNL     1      20.087  -3.549  12.000  1.00  0.00    -0.192 N 
ATOM     16  H4  UNL     1      20.231  -4.503  11.670  1.00  0.00     0.217 HD
ATOM     17  H5  UNL     1      18.236  -3.547  11.394  1.00  0.00     0.211 HD
BRANCH  15  18
HETATM   18  O1  UNL     1      21.120  -2.875  12.603  1.00  0.00    -0.257 OA
BRANCH  18  19
HETATM   19  C2  UNL     1      22.337  -2.610  11.932  1.00  0.00     0.277 C 
BRANCH  19  20
HETATM   20  C1  UNL     1      22.061  -1.636  10.854  1.00  0.00     0.133 C 
HETATM   21  N2  UNL     1      22.729  -1.699   9.764  1.00  0.00    -0.296 N 
ATOM     22  H2  UNL     1      22.550  -1.034   9.012  1.00  0.00     0.187 HD
HETATM   23  N3  UNL     1      21.070  -0.626  10.990  1.00  0.00    -0.084 NA
BRANCH  21  24
HETATM   24  N1  UNL     1      23.702  -2.684   9.618  1.00  0.00    -0.344 N 
ATOM     25  H12 UNL     1      24.237  -2.734   8.752  1.00  0.00     0.176 HD
ATOM     26  H11 UNL     1      23.863  -3.342  10.381  1.00  0.00     0.176 HD
ENDBRANCH  21  24
ENDBRANCH  19  20
ENDBRANCH  18  19
ENDBRANCH  15  18
ENDBRANCH  12  14
ENDBRANCH   1  12
BRANCH  11  27
HETATM   27  C13 UNL     1      18.968   1.061  17.177  1.00  0.00     0.251 C 
HETATM   28  N11 UNL     1      18.735   1.764  18.226  1.00  0.00    -0.264 N 
HETATM   29  N12 UNL     1      19.710   2.748  18.402  1.00  0.00    -0.078 NA
ATOM     30  H11 UNL     1      17.941   1.622  18.850  1.00  0.00     0.186 HD
HETATM   31  C14 UNL     1      20.563   2.702  17.214  1.00  0.00     0.386 C 
HETATM   32  O9  UNL     1      20.123   1.522  16.567  1.00  0.00    -0.272 OA
BRANCH  31  33
HETATM   33  O8  UNL     1      21.860   2.505  17.662  1.00  0.00    -0.356 OA
ATOM     34  H8  UNL     1      21.833   1.768  18.261  1.00  0.00     0.214 HD
ENDBRANCH  31  33
ENDBRANCH  11  27
BRANCH   8  35
HETATM   35  C6  UNL     1      15.642  -2.587  16.915  1.00  0.00     0.274 C 
HETATM   36  O2  UNL     1      15.561  -3.562  15.936  1.00  0.00    -0.353 OA
HETATM   37  C7  UNL     1      14.590  -4.415  16.449  1.00  0.00     0.179 C 
HETATM   38  C9  UNL     1      14.755  -4.449  17.937  1.00  0.00     0.190 C 
HETATM   39  C10 UNL     1      15.885  -3.426  18.144  1.00  0.00     0.151 C 
BRANCH  37  40
HETATM   40  C8  UNL     1      14.701  -5.798  15.830  1.00  0.00     0.198 C 
BRANCH  40  41
HETATM   41  O3  UNL     1      15.076  -6.747  16.771  1.00  0.00    -0.398 OA
ATOM     42  H3  UNL     1      14.625  -7.572  16.632  1.00  0.00     0.209 HD
ENDBRANCH  40  41
ENDBRANCH  37  40
BRANCH  38  43
HETATM   43  O4  UNL     1      13.616  -3.973  18.613  1.00  0.00    -0.390 OA
ATOM     44  H4  UNL     1      13.681  -4.085  19.554  1.00  0.00     0.210 HD
ENDBRANCH  38  43
BRANCH  39  45
HETATM   45  O5  UNL     1      15.708  -2.736  19.334  1.00  0.00    -0.380 OA
ATOM     46  H5  UNL     1      15.017  -3.091  19.882  1.00  0.00     0.211 HD
ENDBRANCH  39  45
BRANCH  39  47
HETATM   47  C11 UNL     1      17.160  -4.216  18.109  1.00  0.00     0.209 C 
BRANCH  47  48
HETATM   48  O6  UNL     1      17.071  -5.480  18.629  1.00  0.00    -0.398 OA
ATOM     49  H6  UNL     1      17.018  -6.175  17.984  1.00  0.00     0.209 HD
ENDBRANCH  47  48
ENDBRANCH  39  47
ENDBRANCH   8  35
TORSDOF 15
ENDMDL
