MODEL 1
REMARK VINA RESULT: -8.077128822      0.000      0.000
REMARK  11 active torsions:
REMARK  status: ('A' for Active; 'I' for Inactive)
REMARK    1  A    between atoms: C2_2  and  C3_3 
REMARK    2  A    between atoms: C3_3  and  C4_4 
REMARK    3  A    between atoms: C8_8  and  C9_9 
REMARK       I    between atoms: C9_9  and  N1_11 
REMARK    4  A    between atoms: N1_11  and  C10_12 
REMARK    5  A    between atoms: N1_11  and  C27_33 
REMARK    6  A    between atoms: C10_12  and  C11_13 
REMARK    7  A    between atoms: C15_17  and  O2_18 
REMARK    8  A    between atoms: C18_21  and  C19_22 
REMARK    9  A    between atoms: C19_22  and  C20_23 
REMARK   10  A    between atoms: C20_23  and  N2_25 
REMARK   11  A    between atoms: C24_30  and  C25_31 
ROOT
HETATM    1  C11 UNL     1      10.798 -19.886   3.775  1.00  0.00    -0.008 A 
HETATM    2  C12 UNL     1      11.863 -19.699   4.729  1.00  0.00    -0.047 A 
HETATM    3  C13 UNL     1      11.824 -20.369   6.051  1.00  0.00     0.049 C 
HETATM    4  C14 UNL     1      12.931 -18.910   4.455  1.00  0.00     0.044 A 
HETATM    5  C15 UNL     1      13.053 -18.248   3.254  1.00  0.00     0.069 A 
HETATM    6  C17 UNL     1      12.079 -18.401   2.340  1.00  0.00     0.044 A 
HETATM    7  C18 UNL     1      10.950 -19.225   2.604  1.00  0.00    -0.041 A 
ENDROOT
BRANCH   1   8
HETATM    8  C10 UNL     1       9.743 -20.701   4.314  1.00  0.00     0.107 C 
BRANCH   8   9
HETATM    9  N1  UNL     1       9.194 -21.872   3.839  1.00  0.00    -0.322 N 
HETATM   10  C9  UNL     1       9.946 -23.085   3.792  1.00  0.00     0.228 C 
HETATM   11  O1  UNL     1       9.335 -24.137   3.391  1.00  0.00    -0.273 OA
BRANCH  10  12
HETATM   12  C8  UNL     1      11.348 -23.273   4.146  1.00  0.00     0.078 C 
HETATM   13  C7  UNL     1      11.723 -24.588   4.703  1.00  0.00     0.015 C 
HETATM   14  C6  UNL     1      13.044 -25.146   4.231  1.00  0.00     0.010 C 
HETATM   15  C4  UNL     1      14.130 -24.149   4.043  1.00  0.00    -0.041 C 
HETATM   16  C5  UNL     1      15.005 -24.699   2.899  1.00  0.00     0.015 C 
HETATM   17  C31 UNL     1      13.652 -22.804   3.554  1.00  0.00     0.010 C 
HETATM   18  C30 UNL     1      12.270 -22.990   2.960  1.00  0.00     0.015 C 
BRANCH  15  19
HETATM   19  C3  UNL     1      15.061 -23.982   5.206  1.00  0.00     0.035 C 
BRANCH  19  20
HETATM   20  C2  UNL     1      14.573 -23.126   6.289  1.00  0.00    -0.036 C 
HETATM   21  C1  UNL     1      14.227 -23.633   7.471  1.00  0.00     0.007 C 
ENDBRANCH  19  20
ENDBRANCH  15  19
ENDBRANCH  10  12
BRANCH   9  22
HETATM   22  C27 UNL     1       7.851 -21.983   3.249  1.00  0.00     0.092 A 
HETATM   23  C28 UNL     1       6.922 -20.956   4.007  1.00  0.00     0.028 A 
HETATM   24  C29 UNL     1       6.660 -22.391   3.952  1.00  0.00     0.028 A 
ENDBRANCH   9  22
ENDBRANCH   8   9
ENDBRANCH   1   8
BRANCH   7  25
HETATM   25  C19 UNL     1      10.052 -19.376   1.457  1.00  0.00     0.064 C 
BRANCH  25  26
HETATM   26  C20 UNL     1       8.761 -18.602   1.612  1.00  0.00     0.090 C 
HETATM   27  C21 UNL     1       7.647 -19.241   0.777  1.00  0.00     0.033 C 
BRANCH  26  28
HETATM   28  N2  UNL     1       8.855 -17.253   1.179  1.00  0.00    -0.313 N 
HETATM   29  C22 UNL     1       9.423 -16.759  -0.030  1.00  0.00     0.363 C 
HETATM   30  O3  UNL     1      10.261 -17.290  -0.785  1.00  0.00    -0.238 OA
HETATM   31  O4  UNL     1       8.859 -15.494  -0.268  1.00  0.00    -0.302 OA
HETATM   32  C23 UNL     1       7.859 -15.228   0.705  1.00  0.00     0.210 C 
HETATM   33  C24 UNL     1       8.379 -16.080   1.869  1.00  0.00     0.136 C 
BRANCH  33  34
HETATM   34  C25 UNL     1       9.496 -15.352   2.551  1.00  0.00    -0.010 C 
HETATM   35  C26 UNL     1      10.010 -15.786   3.688  1.00  0.00     0.009 C 
ENDBRANCH  33  34
ENDBRANCH  26  28
ENDBRANCH  25  26
ENDBRANCH   7  25
BRANCH   5  36
HETATM   36  O2  UNL     1      14.153 -17.435   2.974  1.00  0.00    -0.356 OA
HETATM   37  C16 UNL     1      14.850 -17.593   1.754  1.00  0.00     0.210 C 
ENDBRANCH   5  36
TORSDOF 11
ENDMDL
MODEL 2
REMARK VINA RESULT: -7.759610184      2.392      5.160
REMARK  11 active torsions:
REMARK  status: ('A' for Active; 'I' for Inactive)
REMARK    1  A    between atoms: C2_2  and  C3_3 
REMARK    2  A    between atoms: C3_3  and  C4_4 
REMARK    3  A    between atoms: C8_8  and  C9_9 
REMARK       I    between atoms: C9_9  and  N1_11 
REMARK    4  A    between atoms: N1_11  and  C10_12 
REMARK    5  A    between atoms: N1_11  and  C27_33 
REMARK    6  A    between atoms: C10_12  and  C11_13 
REMARK    7  A    between atoms: C15_17  and  O2_18 
REMARK    8  A    between atoms: C18_21  and  C19_22 
REMARK    9  A    between atoms: C19_22  and  C20_23 
REMARK   10  A    between atoms: C20_23  and  N2_25 
REMARK   11  A    between atoms: C24_30  and  C25_31 
ROOT
HETATM    1  C11 UNL     1      12.718 -21.349   1.265  1.00  0.00    -0.008 A 
HETATM    2  C12 UNL     1      12.263 -22.708   1.108  1.00  0.00    -0.047 A 
HETATM    3  C13 UNL     1      13.164 -23.752   0.562  1.00  0.00     0.049 C 
HETATM    4  C14 UNL     1      11.005 -23.080   1.451  1.00  0.00     0.044 A 
HETATM    5  C15 UNL     1      10.100 -22.178   1.965  1.00  0.00     0.069 A 
HETATM    6  C17 UNL     1      10.491 -20.904   2.126  1.00  0.00     0.044 A 
HETATM    7  C18 UNL     1      11.806 -20.490   1.775  1.00  0.00    -0.041 A 
ENDROOT
BRANCH   1   8
HETATM    8  C10 UNL     1      14.057 -21.180   0.767  1.00  0.00     0.107 C 
BRANCH   8   9
HETATM    9  N1  UNL     1      15.210 -20.808   1.425  1.00  0.00    -0.322 N 
HETATM   10  C9  UNL     1      15.516 -21.299   2.730  1.00  0.00     0.228 C 
HETATM   11  O1  UNL     1      16.636 -20.948   3.239  1.00  0.00    -0.273 OA
BRANCH  10  12
HETATM   12  C8  UNL     1      14.691 -22.163   3.569  1.00  0.00     0.078 C 
HETATM   13  C7  UNL     1      15.287 -23.447   3.989  1.00  0.00     0.015 C 
HETATM   14  C6  UNL     1      15.000 -23.867   5.410  1.00  0.00     0.010 C 
HETATM   15  C4  UNL     1      13.637 -23.551   5.909  1.00  0.00    -0.041 C 
HETATM   16  C5  UNL     1      13.795 -23.305   7.422  1.00  0.00     0.015 C 
HETATM   17  C31 UNL     1      13.065 -22.264   5.364  1.00  0.00     0.010 C 
HETATM   18  C30 UNL     1      14.215 -21.437   4.826  1.00  0.00     0.015 C 
BRANCH  15  19
HETATM   19  C3  UNL     1      12.634 -24.659   5.792  1.00  0.00     0.035 C 
BRANCH  19  20
HETATM   20  C2  UNL     1      11.900 -24.718   4.527  1.00  0.00    -0.036 C 
HETATM   21  C1  UNL     1      12.245 -25.572   3.565  1.00  0.00     0.007 C 
ENDBRANCH  19  20
ENDBRANCH  15  19
ENDBRANCH  10  12
BRANCH   9  22
HETATM   22  C27 UNL     1      16.174 -19.817   0.922  1.00  0.00     0.092 A 
HETATM   23  C28 UNL     1      15.614 -18.390   1.299  1.00  0.00     0.028 A 
HETATM   24  C29 UNL     1      15.896 -18.809  -0.071  1.00  0.00     0.028 A 
ENDBRANCH   9  22
ENDBRANCH   8   9
ENDBRANCH   1   8
BRANCH   7  25
HETATM   25  C19 UNL     1      12.100 -19.100   2.131  1.00  0.00     0.064 C 
BRANCH  25  26
HETATM   26  C20 UNL     1      11.364 -18.102   1.264  1.00  0.00     0.090 C 
HETATM   27  C21 UNL     1      12.303 -17.515   0.205  1.00  0.00     0.033 C 
BRANCH  26  28
HETATM   28  N2  UNL     1      10.847 -16.996   1.990  1.00  0.00    -0.313 N 
HETATM   29  C22 UNL     1      10.037 -17.019   3.162  1.00  0.00     0.363 C 
HETATM   30  O3  UNL     1       9.308 -17.929   3.602  1.00  0.00    -0.238 OA
HETATM   31  O4  UNL     1      10.192 -15.776   3.799  1.00  0.00    -0.302 OA
HETATM   32  C23 UNL     1      11.174 -15.010   3.115  1.00  0.00     0.210 C 
HETATM   33  C24 UNL     1      11.043 -15.596   1.704  1.00  0.00     0.136 C 
BRANCH  33  34
HETATM   34  C25 UNL     1       9.845 -15.000   1.032  1.00  0.00    -0.010 C 
HETATM   35  C26 UNL     1       9.882 -14.616  -0.231  1.00  0.00     0.009 C 
ENDBRANCH  33  34
ENDBRANCH  26  28
ENDBRANCH  25  26
ENDBRANCH   7  25
BRANCH   5  36
HETATM   36  O2  UNL     1       8.804 -22.562   2.316  1.00  0.00    -0.356 OA
HETATM   37  C16 UNL     1       8.587 -23.291   3.509  1.00  0.00     0.210 C 
ENDBRANCH   5  36
TORSDOF 11
ENDMDL
MODEL 3
REMARK VINA RESULT: -7.740949284      2.849      5.497
REMARK  11 active torsions:
REMARK  status: ('A' for Active; 'I' for Inactive)
REMARK    1  A    between atoms: C2_2  and  C3_3 
REMARK    2  A    between atoms: C3_3  and  C4_4 
REMARK    3  A    between atoms: C8_8  and  C9_9 
REMARK       I    between atoms: C9_9  and  N1_11 
REMARK    4  A    between atoms: N1_11  and  C10_12 
REMARK    5  A    between atoms: N1_11  and  C27_33 
REMARK    6  A    between atoms: C10_12  and  C11_13 
REMARK    7  A    between atoms: C15_17  and  O2_18 
REMARK    8  A    between atoms: C18_21  and  C19_22 
REMARK    9  A    between atoms: C19_22  and  C20_23 
REMARK   10  A    between atoms: C20_23  and  N2_25 
REMARK   11  A    between atoms: C24_30  and  C25_31 
ROOT
HETATM    1  C11 UNL     1      11.230 -21.113   2.207  1.00  0.00    -0.008 A 
HETATM    2  C12 UNL     1      10.297 -20.974   3.297  1.00  0.00    -0.047 A 
HETATM    3  C13 UNL     1      10.176 -19.692   4.032  1.00  0.00     0.049 C 
HETATM    4  C14 UNL     1       9.502 -22.000   3.687  1.00  0.00     0.044 A 
HETATM    5  C15 UNL     1       9.546 -23.227   3.062  1.00  0.00     0.069 A 
HETATM    6  C17 UNL     1      10.402 -23.391   2.041  1.00  0.00     0.044 A 
HETATM    7  C18 UNL     1      11.246 -22.329   1.613  1.00  0.00    -0.041 A 
ENDROOT
BRANCH   1   8
HETATM    8  C10 UNL     1      12.013 -19.920   2.026  1.00  0.00     0.107 C 
BRANCH   8   9
HETATM    9  N1  UNL     1      13.379 -19.757   1.948  1.00  0.00    -0.322 N 
HETATM   10  C9  UNL     1      14.271 -20.544   2.738  1.00  0.00     0.228 C 
HETATM   11  O1  UNL     1      15.526 -20.365   2.556  1.00  0.00    -0.273 OA
BRANCH  10  12
HETATM   12  C8  UNL     1      13.921 -21.539   3.746  1.00  0.00     0.078 C 
HETATM   13  C7  UNL     1      14.919 -22.594   4.014  1.00  0.00     0.015 C 
HETATM   14  C6  UNL     1      15.085 -22.984   5.462  1.00  0.00     0.010 C 
HETATM   15  C4  UNL     1      13.835 -23.005   6.267  1.00  0.00    -0.041 C 
HETATM   16  C5  UNL     1      14.260 -22.632   7.701  1.00  0.00     0.015 C 
HETATM   17  C31 UNL     1      12.832 -21.950   5.872  1.00  0.00     0.010 C 
HETATM   18  C30 UNL     1      13.564 -20.886   5.080  1.00  0.00     0.015 C 
BRANCH  15  19
HETATM   19  C3  UNL     1      13.168 -24.342   6.388  1.00  0.00     0.035 C 
BRANCH  19  20
HETATM   20  C2  UNL     1      12.136 -24.627   5.390  1.00  0.00    -0.036 C 
HETATM   21  C1  UNL     1      12.425 -25.262   4.256  1.00  0.00     0.007 C 
ENDBRANCH  19  20
ENDBRANCH  15  19
ENDBRANCH  10  12
BRANCH   9  22
HETATM   22  C27 UNL     1      14.051 -18.720   1.149  1.00  0.00     0.092 A 
HETATM   23  C28 UNL     1      13.796 -17.339   1.870  1.00  0.00     0.028 A 
HETATM   24  C29 UNL     1      13.396 -17.615   0.494  1.00  0.00     0.028 A 
ENDBRANCH   9  22
ENDBRANCH   8   9
ENDBRANCH   1   8
BRANCH   7  25
HETATM   25  C19 UNL     1      12.024 -22.643   0.413  1.00  0.00     0.064 C 
BRANCH  25  26
HETATM   26  C20 UNL     1      11.172 -23.170  -0.722  1.00  0.00     0.090 C 
HETATM   27  C21 UNL     1      12.053 -23.776  -1.819  1.00  0.00     0.033 C 
BRANCH  26  28
HETATM   28  N2  UNL     1      10.389 -22.167  -1.353  1.00  0.00    -0.313 N 
HETATM   29  C22 UNL     1      10.843 -21.020  -2.064  1.00  0.00     0.363 C 
HETATM   30  O3  UNL     1      11.940 -20.431  -1.999  1.00  0.00    -0.238 OA
HETATM   31  O4  UNL     1       9.800 -20.619  -2.916  1.00  0.00    -0.302 OA
HETATM   32  C23 UNL     1       8.737 -21.559  -2.842  1.00  0.00     0.210 C 
HETATM   33  C24 UNL     1       8.950 -22.100  -1.423  1.00  0.00     0.136 C 
BRANCH  33  34
HETATM   34  C25 UNL     1       8.397 -21.120  -0.434  1.00  0.00    -0.010 C 
HETATM   35  C26 UNL     1       7.536 -21.490   0.497  1.00  0.00     0.009 C 
ENDBRANCH  33  34
ENDBRANCH  26  28
ENDBRANCH  25  26
ENDBRANCH   7  25
BRANCH   5  36
HETATM   36  O2  UNL     1       8.727 -24.284   3.466  1.00  0.00    -0.356 OA
HETATM   37  C16 UNL     1       7.341 -24.069   3.642  1.00  0.00     0.210 C 
ENDBRANCH   5  36
TORSDOF 11
ENDMDL
MODEL 4
REMARK VINA RESULT: -7.703448018      4.026      7.286
REMARK  11 active torsions:
REMARK  status: ('A' for Active; 'I' for Inactive)
REMARK    1  A    between atoms: C2_2  and  C3_3 
REMARK    2  A    between atoms: C3_3  and  C4_4 
REMARK    3  A    between atoms: C8_8  and  C9_9 
REMARK       I    between atoms: C9_9  and  N1_11 
REMARK    4  A    between atoms: N1_11  and  C10_12 
REMARK    5  A    between atoms: N1_11  and  C27_33 
REMARK    6  A    between atoms: C10_12  and  C11_13 
REMARK    7  A    between atoms: C15_17  and  O2_18 
REMARK    8  A    between atoms: C18_21  and  C19_22 
REMARK    9  A    between atoms: C19_22  and  C20_23 
REMARK   10  A    between atoms: C20_23  and  N2_25 
REMARK   11  A    between atoms: C24_30  and  C25_31 
ROOT
HETATM    1  C11 UNL     1      13.990 -21.686   1.164  1.00  0.00    -0.008 A 
HETATM    2  C12 UNL     1      12.813 -21.062   1.714  1.00  0.00    -0.047 A 
HETATM    3  C13 UNL     1      11.504 -21.759   1.695  1.00  0.00     0.049 C 
HETATM    4  C14 UNL     1      12.857 -19.823   2.266  1.00  0.00     0.044 A 
HETATM    5  C15 UNL     1      14.029 -19.101   2.327  1.00  0.00     0.069 A 
HETATM    6  C17 UNL     1      15.145 -19.654   1.825  1.00  0.00     0.044 A 
HETATM    7  C18 UNL     1      15.123 -20.952   1.243  1.00  0.00    -0.041 A 
ENDROOT
BRANCH   1   8
HETATM    8  C10 UNL     1      13.683 -22.960   0.571  1.00  0.00     0.107 C 
BRANCH   8   9
HETATM    9  N1  UNL     1      14.204 -24.209   0.831  1.00  0.00    -0.322 N 
HETATM   10  C9  UNL     1      14.341 -24.699   2.165  1.00  0.00     0.228 C 
HETATM   11  O1  UNL     1      14.779 -25.893   2.307  1.00  0.00    -0.273 OA
BRANCH  10  12
HETATM   12  C8  UNL     1      14.043 -23.990   3.404  1.00  0.00     0.078 C 
HETATM   13  C7  UNL     1      12.870 -24.456   4.171  1.00  0.00     0.015 C 
HETATM   14  C6  UNL     1      13.037 -24.483   5.671  1.00  0.00     0.010 C 
HETATM   15  C4  UNL     1      13.830 -23.365   6.247  1.00  0.00    -0.041 C 
HETATM   16  C5  UNL     1      14.523 -23.949   7.494  1.00  0.00     0.015 C 
HETATM   17  C31 UNL     1      14.957 -22.891   5.362  1.00  0.00     0.010 C 
HETATM   18  C30 UNL     1      15.243 -23.981   4.350  1.00  0.00     0.015 C 
BRANCH  15  19
HETATM   19  C3  UNL     1      13.032 -22.199   6.748  1.00  0.00     0.035 C 
BRANCH  19  20
HETATM   20  C2  UNL     1      12.774 -21.142   5.770  1.00  0.00    -0.036 C 
HETATM   21  C1  UNL     1      11.556 -20.628   5.609  1.00  0.00     0.007 C 
ENDBRANCH  19  20
ENDBRANCH  15  19
ENDBRANCH  10  12
BRANCH   9  22
HETATM   22  C27 UNL     1      14.756 -25.111  -0.193  1.00  0.00     0.092 A 
HETATM   23  C28 UNL     1      16.225 -24.621  -0.502  1.00  0.00     0.028 A 
HETATM   24  C29 UNL     1      15.177 -24.717  -1.514  1.00  0.00     0.028 A 
ENDBRANCH   9  22
ENDBRANCH   8   9
ENDBRANCH   1   8
BRANCH   7  25
HETATM   25  C19 UNL     1      16.448 -21.447   0.860  1.00  0.00     0.064 C 
BRANCH  25  26
HETATM   26  C20 UNL     1      17.251 -20.432   0.075  1.00  0.00     0.090 C 
HETATM   27  C21 UNL     1      17.279 -20.804  -1.411  1.00  0.00     0.033 C 
BRANCH  26  28
HETATM   28  N2  UNL     1      18.607 -20.345   0.486  1.00  0.00    -0.313 N 
HETATM   29  C22 UNL     1      19.525 -19.280   0.260  1.00  0.00     0.363 C 
HETATM   30  O3  UNL     1      19.504 -18.390  -0.613  1.00  0.00    -0.238 OA
HETATM   31  O4  UNL     1      20.530 -19.382   1.236  1.00  0.00    -0.302 OA
HETATM   32  C23 UNL     1      20.205 -20.421   2.148  1.00  0.00     0.210 C 
HETATM   33  C24 UNL     1      19.354 -21.321   1.242  1.00  0.00     0.136 C 
BRANCH  33  34
HETATM   34  C25 UNL     1      20.256 -22.126   0.360  1.00  0.00    -0.010 C 
HETATM   35  C26 UNL     1      19.783 -23.074  -0.429  1.00  0.00     0.009 C 
ENDBRANCH  33  34
ENDBRANCH  26  28
ENDBRANCH  25  26
ENDBRANCH   7  25
BRANCH   5  36
HETATM   36  O2  UNL     1      14.073 -17.826   2.894  1.00  0.00    -0.356 OA
HETATM   37  C16 UNL     1      12.888 -17.242   3.400  1.00  0.00     0.210 C 
ENDBRANCH   5  36
TORSDOF 11
ENDMDL
MODEL 5
REMARK VINA RESULT: -7.691964123      4.481      8.298
REMARK  11 active torsions:
REMARK  status: ('A' for Active; 'I' for Inactive)
REMARK    1  A    between atoms: C2_2  and  C3_3 
REMARK    2  A    between atoms: C3_3  and  C4_4 
REMARK    3  A    between atoms: C8_8  and  C9_9 
REMARK       I    between atoms: C9_9  and  N1_11 
REMARK    4  A    between atoms: N1_11  and  C10_12 
REMARK    5  A    between atoms: N1_11  and  C27_33 
REMARK    6  A    between atoms: C10_12  and  C11_13 
REMARK    7  A    between atoms: C15_17  and  O2_18 
REMARK    8  A    between atoms: C18_21  and  C19_22 
REMARK    9  A    between atoms: C19_22  and  C20_23 
REMARK   10  A    between atoms: C20_23  and  N2_25 
REMARK   11  A    between atoms: C24_30  and  C25_31 
ROOT
HETATM    1  C11 UNL     1      14.805 -22.925   0.780  1.00  0.00    -0.008 A 
HETATM    2  C12 UNL     1      14.053 -24.108   1.118  1.00  0.00    -0.047 A 
HETATM    3  C13 UNL     1      12.577 -24.058   1.245  1.00  0.00     0.049 C 
HETATM    4  C14 UNL     1      14.663 -25.301   1.330  1.00  0.00     0.044 A 
HETATM    5  C15 UNL     1      16.030 -25.442   1.233  1.00  0.00     0.069 A 
HETATM    6  C17 UNL     1      16.761 -24.360   0.918  1.00  0.00     0.044 A 
HETATM    7  C18 UNL     1      16.144 -23.098   0.690  1.00  0.00    -0.041 A 
ENDROOT
BRANCH   1   8
HETATM    8  C10 UNL     1      13.954 -21.770   0.677  1.00  0.00     0.107 C 
BRANCH   8   9
HETATM    9  N1  UNL     1      14.095 -20.511   1.219  1.00  0.00    -0.322 N 
HETATM   10  C9  UNL     1      14.092 -20.302   2.632  1.00  0.00     0.228 C 
HETATM   11  O1  UNL     1      14.289 -19.107   3.046  1.00  0.00    -0.273 OA
BRANCH  10  12
HETATM   12  C8  UNL     1      13.882 -21.299   3.675  1.00  0.00     0.078 C 
HETATM   13  C7  UNL     1      15.065 -22.072   4.103  1.00  0.00     0.015 C 
HETATM   14  C6  UNL     1      15.170 -22.339   5.586  1.00  0.00     0.010 C 
HETATM   15  C4  UNL     1      13.886 -22.615   6.280  1.00  0.00    -0.041 C 
HETATM   16  C5  UNL     1      14.066 -22.081   7.714  1.00  0.00     0.015 C 
HETATM   17  C31 UNL     1      12.710 -21.849   5.725  1.00  0.00     0.010 C 
HETATM   18  C30 UNL     1      13.252 -20.683   4.924  1.00  0.00     0.015 C 
BRANCH  15  19
HETATM   19  C3  UNL     1      13.537 -24.064   6.440  1.00  0.00     0.035 C 
BRANCH  19  20
HETATM   20  C2  UNL     1      12.427 -24.543   5.614  1.00  0.00    -0.036 C 
HETATM   21  C1  UNL     1      12.642 -25.160   4.454  1.00  0.00     0.007 C 
ENDBRANCH  19  20
ENDBRANCH  15  19
ENDBRANCH  10  12
BRANCH   9  22
HETATM   22  C27 UNL     1      14.160 -19.268   0.435  1.00  0.00     0.092 A 
HETATM   23  C28 UNL     1      14.568 -19.667  -1.037  1.00  0.00     0.028 A 
HETATM   24  C29 UNL     1      15.341 -18.746  -0.208  1.00  0.00     0.028 A 
ENDBRANCH   9  22
ENDBRANCH   8   9
ENDBRANCH   1   8
BRANCH   7  25
HETATM   25  C19 UNL     1      17.075 -22.062   0.238  1.00  0.00     0.064 C 
BRANCH  25  26
HETATM   26  C20 UNL     1      18.205 -21.818   1.215  1.00  0.00     0.090 C 
HETATM   27  C21 UNL     1      17.855 -20.667   2.163  1.00  0.00     0.033 C 
BRANCH  26  28
HETATM   28  N2  UNL     1      19.426 -21.456   0.588  1.00  0.00    -0.313 N 
HETATM   29  C22 UNL     1      20.751 -21.645   1.075  1.00  0.00     0.363 C 
HETATM   30  O3  UNL     1      21.147 -21.809   2.245  1.00  0.00    -0.238 OA
HETATM   31  O4  UNL     1      21.611 -21.618  -0.036  1.00  0.00    -0.302 OA
HETATM   32  C23 UNL     1      20.844 -21.534  -1.229  1.00  0.00     0.210 C 
HETATM   33  C24 UNL     1      19.592 -20.824  -0.698  1.00  0.00     0.136 C 
BRANCH  33  34
HETATM   34  C25 UNL     1      19.877 -19.361  -0.559  1.00  0.00    -0.010 C 
HETATM   35  C26 UNL     1      19.011 -18.447  -0.960  1.00  0.00     0.009 C 
ENDBRANCH  33  34
ENDBRANCH  26  28
ENDBRANCH  25  26
ENDBRANCH   7  25
BRANCH   5  36
HETATM   36  O2  UNL     1      16.656 -26.670   1.453  1.00  0.00    -0.356 OA
HETATM   37  C16 UNL     1      17.145 -27.414   0.355  1.00  0.00     0.210 C 
ENDBRANCH   5  36
TORSDOF 11
ENDMDL
