MODEL 1
REMARK VINA RESULT: -7.462119993      0.000      0.000
REMARK  11 active torsions:
REMARK  status: ('A' for Active; 'I' for Inactive)
REMARK    1  A    between atoms: O1_2  and  C2_3 
REMARK    2  A    between atoms: C2_3  and  C3_4 
REMARK    3  A    between atoms: C3_4  and  N1_5 
REMARK    4  A    between atoms: N1_5  and  C4_6 
REMARK    5  A    between atoms: N1_5  and  C29_34 
REMARK    6  A    between atoms: C4_6  and  C5_7 
REMARK    7  A    between atoms: C6_8  and  C7_9 
REMARK    8  A    between atoms: C12_14  and  N2_15 
REMARK    9  A    between atoms: C22_25  and  C23_26 
REMARK   10  A    between atoms: C29_34  and  C30_35 
REMARK   11  A    between atoms: C30_35  and  N4_36 
ROOT
HETATM    1  C7  UNL     1      14.111 -22.540   4.657  1.00  0.00     0.026 C 
HETATM    2  C8  UNL     1      14.139 -23.993   5.038  1.00  0.00     0.008 C 
HETATM    3  C9  UNL     1      14.730 -24.263   6.408  1.00  0.00     0.007 C 
HETATM    4  C10 UNL     1      13.766 -23.740   7.401  1.00  0.00     0.006 C 
HETATM    5  C11 UNL     1      13.144 -22.459   7.064  1.00  0.00     0.054 C 
HETATM    6  C12 UNL     1      13.445 -21.774   5.755  1.00  0.00     0.000 C 
HETATM    7  C15 UNL     1      12.964 -24.802   4.692  1.00  0.00    -0.009 C 
HETATM    8  C16 UNL     1      13.125 -25.198   3.208  1.00  0.00     0.005 C 
HETATM    9  C17 UNL     1      13.683 -23.939   2.589  1.00  0.00     0.009 C 
HETATM   10  C18 UNL     1      13.372 -22.654   3.348  1.00  0.00     0.032 C 
HETATM   11  C19 UNL     1      11.912 -22.436   3.250  1.00  0.00     0.035 C 
HETATM   12  C20 UNL     1      11.576 -22.695   1.750  1.00  0.00     0.037 C 
HETATM   13  C21 UNL     1      10.298 -21.905   1.576  1.00  0.00     0.055 C 
HETATM   14  C22 UNL     1      10.700 -20.708   2.360  1.00  0.00    -0.010 C 
HETATM   15  N3  UNL     1      11.520 -21.040   3.197  1.00  0.00    -0.386 N 
ATOM     16  H3  UNL     1      11.920 -20.358   3.841  1.00  0.00     0.160 HD
HETATM   17  C27 UNL     1      11.022 -23.276   4.073  1.00  0.00     0.032 C 
HETATM   18  C28 UNL     1      11.576 -24.430   4.795  1.00  0.00     0.007 C 
ENDROOT
BRANCH   1  19
HETATM   19  C6  UNL     1      15.382 -21.844   4.393  1.00  0.00    -0.013 C 
HETATM   20  C5  UNL     1      16.029 -21.297   3.244  1.00  0.00    -0.010 C 
BRANCH  20  21
HETATM   21  C4  UNL     1      16.528 -22.133   2.094  1.00  0.00     0.149 C 
BRANCH  21  22
HETATM   22  N1  UNL     1      17.186 -21.333   1.128  1.00  0.00    -0.386 N 
BRANCH  22  23
HETATM   23  C3  UNL     1      16.288 -20.455   0.443  1.00  0.00     0.148 C 
BRANCH  23  24
HETATM   24  C2  UNL     1      16.690 -19.024   0.409  1.00  0.00     0.186 C 
BRANCH  24  25
HETATM   25  O1  UNL     1      16.345 -18.392   1.581  1.00  0.00    -0.394 OA
HETATM   26  C1  UNL     1      15.220 -17.610   1.506  1.00  0.00     0.201 C 
ENDBRANCH  24  25
ENDBRANCH  23  24
ENDBRANCH  22  23
BRANCH  22  27
HETATM   27  C29 UNL     1      18.179 -21.843   0.301  1.00  0.00     0.088 C 
BRANCH  27  28
HETATM   28  C30 UNL     1      19.607 -21.762   0.779  1.00  0.00     0.315 C 
BRANCH  28  29
HETATM   29  N4  UNL     1      19.821 -20.533   1.554  1.00  0.00     0.084 N 
HETATM   30  C31 UNL     1      20.374 -19.553   0.664  1.00  0.00     0.309 C 
HETATM   31  C32 UNL     1      20.684 -20.745   2.672  1.00  0.00     0.309 C 
ENDBRANCH  28  29
ENDBRANCH  27  28
ENDBRANCH  22  27
ENDBRANCH  21  22
ENDBRANCH  20  21
ENDBRANCH   1  19
BRANCH   6  32
HETATM   32  N2  UNL     1      13.882 -20.473   6.135  1.00  0.00    -0.377 N 
HETATM   33  C13 UNL     1      14.660 -20.089   7.172  1.00  0.00     0.120 C 
HETATM   34  C14 UNL     1      13.032 -19.385   5.701  1.00  0.00     0.154 C 
ENDBRANCH   6  32
BRANCH  14  35
HETATM   35  C23 UNL     1      10.199 -19.299   2.174  1.00  0.00    -0.013 C 
HETATM   36  C24 UNL     1       9.570 -19.222   0.827  1.00  0.00     0.021 C 
HETATM   37  C25 UNL     1       9.152 -19.005   3.221  1.00  0.00     0.021 C 
HETATM   38  C26 UNL     1      11.316 -18.301   2.384  1.00  0.00     0.021 C 
ENDBRANCH  14  35
TORSDOF 11
ENDMDL
MODEL 2
REMARK VINA RESULT: -7.461535794      1.136      2.571
REMARK  11 active torsions:
REMARK  status: ('A' for Active; 'I' for Inactive)
REMARK    1  A    between atoms: O1_2  and  C2_3 
REMARK    2  A    between atoms: C2_3  and  C3_4 
REMARK    3  A    between atoms: C3_4  and  N1_5 
REMARK    4  A    between atoms: N1_5  and  C4_6 
REMARK    5  A    between atoms: N1_5  and  C29_34 
REMARK    6  A    between atoms: C4_6  and  C5_7 
REMARK    7  A    between atoms: C6_8  and  C7_9 
REMARK    8  A    between atoms: C12_14  and  N2_15 
REMARK    9  A    between atoms: C22_25  and  C23_26 
REMARK   10  A    between atoms: C29_34  and  C30_35 
REMARK   11  A    between atoms: C30_35  and  N4_36 
ROOT
HETATM    1  C7  UNL     1      14.163 -22.507   4.703  1.00  0.00     0.026 C 
HETATM    2  C8  UNL     1      14.205 -23.960   5.079  1.00  0.00     0.008 C 
HETATM    3  C9  UNL     1      14.794 -24.230   6.450  1.00  0.00     0.007 C 
HETATM    4  C10 UNL     1      13.820 -23.721   7.441  1.00  0.00     0.006 C 
HETATM    5  C11 UNL     1      13.186 -22.445   7.107  1.00  0.00     0.054 C 
HETATM    6  C12 UNL     1      13.484 -21.753   5.802  1.00  0.00     0.000 C 
HETATM    7  C15 UNL     1      13.041 -24.782   4.725  1.00  0.00    -0.009 C 
HETATM    8  C16 UNL     1      13.211 -25.170   3.241  1.00  0.00     0.005 C 
HETATM    9  C17 UNL     1      13.757 -23.903   2.629  1.00  0.00     0.009 C 
HETATM   10  C18 UNL     1      13.429 -22.624   3.391  1.00  0.00     0.032 C 
HETATM   11  C19 UNL     1      11.967 -22.421   3.288  1.00  0.00     0.035 C 
HETATM   12  C20 UNL     1      11.640 -22.679   1.786  1.00  0.00     0.037 C 
HETATM   13  C21 UNL     1      10.354 -21.902   1.610  1.00  0.00     0.055 C 
HETATM   14  C22 UNL     1      10.740 -20.704   2.400  1.00  0.00    -0.010 C 
HETATM   15  N3  UNL     1      11.561 -21.030   3.239  1.00  0.00    -0.386 N 
ATOM     16  H3  UNL     1      11.950 -20.346   3.887  1.00  0.00     0.160 HD
HETATM   17  C27 UNL     1      11.084 -23.274   4.104  1.00  0.00     0.032 C 
HETATM   18  C28 UNL     1      11.648 -24.425   4.824  1.00  0.00     0.007 C 
ENDROOT
BRANCH   1  19
HETATM   19  C6  UNL     1      15.426 -21.796   4.447  1.00  0.00    -0.013 C 
HETATM   20  C5  UNL     1      16.051 -21.196   3.311  1.00  0.00    -0.010 C 
BRANCH  20  21
HETATM   21  C4  UNL     1      16.530 -21.978   2.115  1.00  0.00     0.149 C 
BRANCH  21  22
HETATM   22  N1  UNL     1      17.291 -21.163   1.243  1.00  0.00    -0.386 N 
BRANCH  22  23
HETATM   23  C3  UNL     1      18.691 -21.443   1.317  1.00  0.00     0.148 C 
BRANCH  23  24
HETATM   24  C2  UNL     1      19.549 -20.319   1.777  1.00  0.00     0.186 C 
BRANCH  24  25
HETATM   25  O1  UNL     1      20.306 -20.695   2.861  1.00  0.00    -0.394 OA
HETATM   26  C1  UNL     1      21.578 -21.116   2.560  1.00  0.00     0.201 C 
ENDBRANCH  24  25
ENDBRANCH  23  24
ENDBRANCH  22  23
BRANCH  22  27
HETATM   27  C29 UNL     1      17.019 -19.811   1.071  1.00  0.00     0.088 C 
BRANCH  27  28
HETATM   28  C30 UNL     1      16.231 -19.399  -0.147  1.00  0.00     0.315 C 
BRANCH  28  29
HETATM   29  N4  UNL     1      14.965 -18.769   0.248  1.00  0.00     0.084 N 
HETATM   30  C31 UNL     1      15.237 -17.921   1.372  1.00  0.00     0.309 C 
HETATM   31  C32 UNL     1      13.963 -19.734   0.573  1.00  0.00     0.309 C 
ENDBRANCH  28  29
ENDBRANCH  27  28
ENDBRANCH  22  27
ENDBRANCH  21  22
ENDBRANCH  20  21
ENDBRANCH   1  19
BRANCH   6  32
HETATM   32  N2  UNL     1      13.905 -20.448   6.188  1.00  0.00    -0.377 N 
HETATM   33  C13 UNL     1      14.662 -20.058   7.238  1.00  0.00     0.120 C 
HETATM   34  C14 UNL     1      13.056 -19.366   5.738  1.00  0.00     0.154 C 
ENDBRANCH   6  32
BRANCH  14  35
HETATM   35  C23 UNL     1      10.224 -19.299   2.218  1.00  0.00    -0.013 C 
HETATM   36  C24 UNL     1       9.056 -19.131   3.125  1.00  0.00     0.021 C 
HETATM   37  C25 UNL     1      11.302 -18.322   2.618  1.00  0.00     0.021 C 
HETATM   38  C26 UNL     1       9.910 -19.029   0.763  1.00  0.00     0.021 C 
ENDBRANCH  14  35
TORSDOF 11
ENDMDL
MODEL 3
REMARK VINA RESULT: -7.386522943      1.158      2.404
REMARK  11 active torsions:
REMARK  status: ('A' for Active; 'I' for Inactive)
REMARK    1  A    between atoms: O1_2  and  C2_3 
REMARK    2  A    between atoms: C2_3  and  C3_4 
REMARK    3  A    between atoms: C3_4  and  N1_5 
REMARK    4  A    between atoms: N1_5  and  C4_6 
REMARK    5  A    between atoms: N1_5  and  C29_34 
REMARK    6  A    between atoms: C4_6  and  C5_7 
REMARK    7  A    between atoms: C6_8  and  C7_9 
REMARK    8  A    between atoms: C12_14  and  N2_15 
REMARK    9  A    between atoms: C22_25  and  C23_26 
REMARK   10  A    between atoms: C29_34  and  C30_35 
REMARK   11  A    between atoms: C30_35  and  N4_36 
ROOT
HETATM    1  C7  UNL     1      14.088 -22.553   4.591  1.00  0.00     0.026 C 
HETATM    2  C8  UNL     1      14.145 -24.003   4.977  1.00  0.00     0.008 C 
HETATM    3  C9  UNL     1      14.787 -24.261   6.326  1.00  0.00     0.007 C 
HETATM    4  C10 UNL     1      13.853 -23.744   7.350  1.00  0.00     0.006 C 
HETATM    5  C11 UNL     1      13.206 -22.471   7.031  1.00  0.00     0.054 C 
HETATM    6  C12 UNL     1      13.453 -21.789   5.710  1.00  0.00     0.000 C 
HETATM    7  C15 UNL     1      12.967 -24.826   4.676  1.00  0.00    -0.009 C 
HETATM    8  C16 UNL     1      13.079 -25.226   3.189  1.00  0.00     0.005 C 
HETATM    9  C17 UNL     1      13.601 -23.965   2.546  1.00  0.00     0.009 C 
HETATM   10  C18 UNL     1      13.303 -22.680   3.310  1.00  0.00     0.032 C 
HETATM   11  C19 UNL     1      11.838 -22.477   3.263  1.00  0.00     0.035 C 
HETATM   12  C20 UNL     1      11.453 -22.747   1.778  1.00  0.00     0.037 C 
HETATM   13  C21 UNL     1      10.161 -21.971   1.646  1.00  0.00     0.055 C 
HETATM   14  C22 UNL     1      10.577 -20.766   2.410  1.00  0.00    -0.010 C 
HETATM   15  N3  UNL     1      11.431 -21.086   3.219  1.00  0.00    -0.386 N 
ATOM     16  H3  UNL     1      11.845 -20.397   3.845  1.00  0.00     0.160 HD
HETATM   17  C27 UNL     1      10.988 -23.323   4.120  1.00  0.00     0.032 C 
HETATM   18  C28 UNL     1      11.580 -24.468   4.827  1.00  0.00     0.007 C 
ENDROOT
BRANCH   1  19
HETATM   19  C6  UNL     1      15.340 -21.844   4.280  1.00  0.00    -0.013 C 
HETATM   20  C5  UNL     1      15.913 -21.240   3.119  1.00  0.00    -0.010 C 
BRANCH  20  21
HETATM   21  C4  UNL     1      16.333 -22.017   1.898  1.00  0.00     0.149 C 
BRANCH  21  22
HETATM   22  N1  UNL     1      17.487 -21.453   1.305  1.00  0.00    -0.386 N 
BRANCH  22  23
HETATM   23  C3  UNL     1      18.277 -20.715   2.241  1.00  0.00     0.148 C 
BRANCH  23  24
HETATM   24  C2  UNL     1      19.684 -20.456   1.833  1.00  0.00     0.186 C 
BRANCH  24  25
HETATM   25  O1  UNL     1      20.540 -20.634   2.894  1.00  0.00    -0.394 OA
HETATM   26  C1  UNL     1      21.746 -21.205   2.575  1.00  0.00     0.201 C 
ENDBRANCH  24  25
ENDBRANCH  23  24
ENDBRANCH  22  23
BRANCH  22  27
HETATM   27  C29 UNL     1      17.459 -20.870   0.044  1.00  0.00     0.088 C 
BRANCH  27  28
HETATM   28  C30 UNL     1      16.318 -19.937  -0.276  1.00  0.00     0.315 C 
BRANCH  28  29
HETATM   29  N4  UNL     1      16.683 -18.550   0.043  1.00  0.00     0.084 N 
HETATM   30  C31 UNL     1      15.753 -18.074   1.025  1.00  0.00     0.309 C 
HETATM   31  C32 UNL     1      16.670 -17.711  -1.113  1.00  0.00     0.309 C 
ENDBRANCH  28  29
ENDBRANCH  27  28
ENDBRANCH  22  27
ENDBRANCH  21  22
ENDBRANCH  20  21
ENDBRANCH   1  19
BRANCH   6  32
HETATM   32  N2  UNL     1      13.889 -20.481   6.069  1.00  0.00    -0.377 N 
HETATM   33  C13 UNL     1      14.647 -20.077   7.112  1.00  0.00     0.120 C 
HETATM   34  C14 UNL     1      13.055 -19.399   5.591  1.00  0.00     0.154 C 
ENDBRANCH   6  32
BRANCH  14  35
HETATM   35  C23 UNL     1      10.054 -19.363   2.237  1.00  0.00    -0.013 C 
HETATM   36  C24 UNL     1      11.228 -18.471   2.032  1.00  0.00     0.021 C 
HETATM   37  C25 UNL     1       9.179 -19.311   1.009  1.00  0.00     0.021 C 
HETATM   38  C26 UNL     1       9.184 -18.967   3.409  1.00  0.00     0.021 C 
ENDBRANCH  14  35
TORSDOF 11
ENDMDL
MODEL 4
REMARK VINA RESULT: -7.379075313      1.499      1.880
REMARK  11 active torsions:
REMARK  status: ('A' for Active; 'I' for Inactive)
REMARK    1  A    between atoms: O1_2  and  C2_3 
REMARK    2  A    between atoms: C2_3  and  C3_4 
REMARK    3  A    between atoms: C3_4  and  N1_5 
REMARK    4  A    between atoms: N1_5  and  C4_6 
REMARK    5  A    between atoms: N1_5  and  C29_34 
REMARK    6  A    between atoms: C4_6  and  C5_7 
REMARK    7  A    between atoms: C6_8  and  C7_9 
REMARK    8  A    between atoms: C12_14  and  N2_15 
REMARK    9  A    between atoms: C22_25  and  C23_26 
REMARK   10  A    between atoms: C29_34  and  C30_35 
REMARK   11  A    between atoms: C30_35  and  N4_36 
ROOT
HETATM    1  C7  UNL     1      13.534 -22.342   4.007  1.00  0.00     0.026 C 
HETATM    2  C8  UNL     1      14.104 -23.730   3.953  1.00  0.00     0.008 C 
HETATM    3  C9  UNL     1      15.265 -23.961   4.899  1.00  0.00     0.007 C 
HETATM    4  C10 UNL     1      14.709 -23.949   6.270  1.00  0.00     0.006 C 
HETATM    5  C11 UNL     1      13.688 -22.933   6.529  1.00  0.00     0.054 C 
HETATM    6  C12 UNL     1      13.216 -22.015   5.431  1.00  0.00     0.000 C 
HETATM    7  C15 UNL     1      13.154 -24.844   3.843  1.00  0.00    -0.009 C 
HETATM    8  C16 UNL     1      12.774 -24.951   2.350  1.00  0.00     0.005 C 
HETATM    9  C17 UNL     1      12.663 -23.505   1.933  1.00  0.00     0.009 C 
HETATM   10  C18 UNL     1      12.372 -22.527   3.065  1.00  0.00     0.032 C 
HETATM   11  C19 UNL     1      11.006 -22.822   3.552  1.00  0.00     0.035 C 
HETATM   12  C20 UNL     1      10.152 -22.974   2.257  1.00  0.00     0.037 C 
HETATM   13  C21 UNL     1       8.761 -22.665   2.764  1.00  0.00     0.055 C 
HETATM   14  C22 UNL     1       9.122 -21.523   3.642  1.00  0.00    -0.010 C 
HETATM   15  N3  UNL     1      10.275 -21.658   4.014  1.00  0.00    -0.386 N 
ATOM     16  H3  UNL     1      10.711 -20.974   4.631  1.00  0.00     0.160 HD
HETATM   17  C27 UNL     1      10.804 -24.024   4.381  1.00  0.00     0.032 C 
HETATM   18  C28 UNL     1      11.895 -24.998   4.526  1.00  0.00     0.007 C 
ENDROOT
BRANCH   1  19
HETATM   19  C6  UNL     1      14.340 -21.216   3.506  1.00  0.00    -0.013 C 
HETATM   20  C5  UNL     1      15.225 -21.001   2.405  1.00  0.00    -0.010 C 
BRANCH  20  21
HETATM   21  C4  UNL     1      16.551 -21.701   2.254  1.00  0.00     0.149 C 
BRANCH  21  22
HETATM   22  N1  UNL     1      17.600 -20.772   2.054  1.00  0.00    -0.386 N 
BRANCH  22  23
HETATM   23  C3  UNL     1      17.187 -19.637   1.288  1.00  0.00     0.148 C 
BRANCH  23  24
HETATM   24  C2  UNL     1      17.545 -19.670  -0.155  1.00  0.00     0.186 C 
BRANCH  24  25
HETATM   25  O1  UNL     1      18.158 -18.498  -0.531  1.00  0.00    -0.394 OA
HETATM   26  C1  UNL     1      19.476 -18.626  -0.892  1.00  0.00     0.201 C 
ENDBRANCH  24  25
ENDBRANCH  23  24
ENDBRANCH  22  23
BRANCH  22  27
HETATM   27  C29 UNL     1      18.897 -21.177   1.763  1.00  0.00     0.088 C 
BRANCH  27  28
HETATM   28  C30 UNL     1      20.031 -20.459   2.451  1.00  0.00     0.315 C 
BRANCH  28  29
HETATM   29  N4  UNL     1      21.303 -20.737   1.772  1.00  0.00     0.084 N 
HETATM   30  C31 UNL     1      21.038 -21.686   0.731  1.00  0.00     0.309 C 
HETATM   31  C32 UNL     1      22.295 -21.235   2.671  1.00  0.00     0.309 C 
ENDBRANCH  28  29
ENDBRANCH  27  28
ENDBRANCH  22  27
ENDBRANCH  21  22
ENDBRANCH  20  21
ENDBRANCH   1  19
BRANCH   6  32
HETATM   32  N2  UNL     1      13.410 -20.708   5.963  1.00  0.00    -0.377 N 
HETATM   33  C13 UNL     1      14.275 -20.277   6.909  1.00  0.00     0.120 C 
HETATM   34  C14 UNL     1      12.262 -19.830   5.880  1.00  0.00     0.154 C 
ENDBRANCH   6  32
BRANCH  14  35
HETATM   35  C23 UNL     1       8.235 -20.366   4.028  1.00  0.00    -0.013 C 
HETATM   36  C24 UNL     1       8.072 -19.507   2.823  1.00  0.00     0.021 C 
HETATM   37  C25 UNL     1       6.883 -20.896   4.439  1.00  0.00     0.021 C 
HETATM   38  C26 UNL     1       8.798 -19.636   5.227  1.00  0.00     0.021 C 
ENDBRANCH  14  35
TORSDOF 11
ENDMDL
MODEL 5
REMARK VINA RESULT: -7.349118494      3.029      6.445
REMARK  11 active torsions:
REMARK  status: ('A' for Active; 'I' for Inactive)
REMARK    1  A    between atoms: O1_2  and  C2_3 
REMARK    2  A    between atoms: C2_3  and  C3_4 
REMARK    3  A    between atoms: C3_4  and  N1_5 
REMARK    4  A    between atoms: N1_5  and  C4_6 
REMARK    5  A    between atoms: N1_5  and  C29_34 
REMARK    6  A    between atoms: C4_6  and  C5_7 
REMARK    7  A    between atoms: C6_8  and  C7_9 
REMARK    8  A    between atoms: C12_14  and  N2_15 
REMARK    9  A    between atoms: C22_25  and  C23_26 
REMARK   10  A    between atoms: C29_34  and  C30_35 
REMARK   11  A    between atoms: C30_35  and  N4_36 
ROOT
HETATM    1  C7  UNL     1      10.789 -20.063   2.783  1.00  0.00     0.026 C 
HETATM    2  C8  UNL     1      10.039 -18.803   3.105  1.00  0.00     0.008 C 
HETATM    3  C9  UNL     1       8.706 -18.676   2.394  1.00  0.00     0.007 C 
HETATM    4  C10 UNL     1       7.806 -19.688   2.988  1.00  0.00     0.006 C 
HETATM    5  C11 UNL     1       8.414 -20.989   3.268  1.00  0.00     0.054 C 
HETATM    6  C12 UNL     1       9.879 -21.229   3.009  1.00  0.00     0.000 C 
HETATM    7  C15 UNL     1      10.049 -18.352   4.502  1.00  0.00    -0.009 C 
HETATM    8  C16 UNL     1      11.381 -17.601   4.712  1.00  0.00     0.005 C 
HETATM    9  C17 UNL     1      12.361 -18.444   3.933  1.00  0.00     0.009 C 
HETATM   10  C18 UNL     1      11.948 -19.897   3.734  1.00  0.00     0.032 C 
HETATM   11  C19 UNL     1      11.968 -20.540   5.066  1.00  0.00     0.035 C 
HETATM   12  C20 UNL     1      13.307 -20.069   5.709  1.00  0.00     0.037 C 
HETATM   13  C21 UNL     1      13.569 -21.163   6.720  1.00  0.00     0.055 C 
HETATM   14  C22 UNL     1      13.173 -22.314   5.869  1.00  0.00    -0.010 C 
HETATM   15  N3  UNL     1      12.355 -21.937   5.048  1.00  0.00    -0.386 N 
ATOM     16  H3  UNL     1      11.956 -22.584   4.369  1.00  0.00     0.160 HD
HETATM   17  C27 UNL     1      10.874 -20.235   6.006  1.00  0.00     0.032 C 
HETATM   18  C28 UNL     1       9.923 -19.159   5.689  1.00  0.00     0.007 C 
ENDROOT
BRANCH   1  19
HETATM   19  C6  UNL     1      11.344 -20.242   1.430  1.00  0.00    -0.013 C 
HETATM   20  C5  UNL     1      12.076 -19.433   0.510  1.00  0.00    -0.010 C 
BRANCH  20  21
HETATM   21  C4  UNL     1      11.512 -18.200  -0.147  1.00  0.00     0.149 C 
BRANCH  21  22
HETATM   22  N1  UNL     1      11.744 -17.048   0.641  1.00  0.00    -0.386 N 
BRANCH  22  23
HETATM   23  C3  UNL     1      10.721 -16.061   0.482  1.00  0.00     0.148 C 
BRANCH  23  24
HETATM   24  C2  UNL     1      10.838 -15.203  -0.726  1.00  0.00     0.186 C 
BRANCH  24  25
HETATM   25  O1  UNL     1       9.779 -15.413  -1.578  1.00  0.00    -0.394 OA
HETATM   26  C1  UNL     1       8.575 -15.638  -0.959  1.00  0.00     0.201 C 
ENDBRANCH  24  25
ENDBRANCH  23  24
ENDBRANCH  22  23
BRANCH  22  27
HETATM   27  C29 UNL     1      13.011 -16.494   0.783  1.00  0.00     0.088 C 
BRANCH  27  28
HETATM   28  C30 UNL     1      13.984 -16.657  -0.358  1.00  0.00     0.315 C 
BRANCH  28  29
HETATM   29  N4  UNL     1      15.244 -17.239   0.119  1.00  0.00     0.084 N 
HETATM   30  C31 UNL     1      15.486 -18.430  -0.642  1.00  0.00     0.309 C 
HETATM   31  C32 UNL     1      15.206 -17.532   1.517  1.00  0.00     0.309 C 
ENDBRANCH  28  29
ENDBRANCH  27  28
ENDBRANCH  22  27
ENDBRANCH  21  22
ENDBRANCH  20  21
ENDBRANCH   1  19
BRANCH   6  32
HETATM   32  N2  UNL     1       9.901 -22.374   2.164  1.00  0.00    -0.377 N 
HETATM   33  C13 UNL     1       9.259 -22.601   0.996  1.00  0.00     0.120 C 
HETATM   34  C14 UNL     1      10.226 -23.622   2.821  1.00  0.00     0.154 C 
ENDBRANCH   6  32
BRANCH  14  35
HETATM   35  C23 UNL     1      13.682 -23.730   5.973  1.00  0.00    -0.013 C 
HETATM   36  C24 UNL     1      13.979 -23.993   7.408  1.00  0.00     0.021 C 
HETATM   37  C25 UNL     1      12.601 -24.678   5.514  1.00  0.00     0.021 C 
HETATM   38  C26 UNL     1      14.865 -23.942   5.056  1.00  0.00     0.021 C 
ENDBRANCH  14  35
TORSDOF 11
ENDMDL
