MODEL 1
REMARK VINA RESULT: -7.492199854      0.000      0.000
REMARK  13 active torsions:
REMARK  status: ('A' for Active; 'I' for Inactive)
REMARK    1  A    between atoms: C2_2  and  C3_3 
REMARK    2  A    between atoms: C4_4  and  N1_5 
REMARK    3  A    between atoms: N1_5  and  C5_6 
REMARK    4  A    between atoms: N1_5  and  C7_8 
REMARK    5  A    between atoms: C7_8  and  O1_9 
REMARK    6  A    between atoms: C8_11  and  C10_13 
REMARK    7  A    between atoms: C10_13  and  C11_14 
REMARK    8  A    between atoms: N2_17  and  C14_18 
REMARK    9  A    between atoms: C14_18  and  C15_19 
REMARK   10  A    between atoms: C15_19  and  C16_20 
REMARK   11  A    between atoms: C16_20  and  O2_21 
REMARK   12  A    between atoms: O2_21  and  C17_22 
REMARK   13  A    between atoms: C17_22  and  C18_24 
ROOT
HETATM    1  C11 UNL     1      11.667 -21.033   5.187  1.00  0.00    -0.024 A 
HETATM    2  C12 UNL     1      12.579 -21.902   5.779  1.00  0.00    -0.026 A 
HETATM    3  C13 UNL     1      12.418 -23.113   5.121  1.00  0.00     0.022 A 
HETATM    4  N2  UNL     1      11.479 -23.023   4.187  1.00  0.00    -0.353 N 
HETATM    5  C25 UNL     1      11.002 -21.772   4.199  1.00  0.00     0.015 A 
HETATM    6  C26 UNL     1       9.952 -21.192   3.325  1.00  0.00     0.069 C 
HETATM    7  C27 UNL     1      13.292 -24.230   5.533  1.00  0.00     0.037 C 
HETATM    8  C28 UNL     1      13.093 -24.659   6.939  1.00  0.00     0.011 C 
HETATM    9  C29 UNL     1      14.163 -23.997   7.792  1.00  0.00     0.005 C 
HETATM   10  C30 UNL     1      14.605 -22.851   6.874  1.00  0.00    -0.010 C 
HETATM   11  C31 UNL     1      13.595 -21.761   6.847  1.00  0.00     0.045 C 
HETATM   12  C32 UNL     1      14.698 -23.599   5.566  1.00  0.00     0.015 C 
ENDROOT
BRANCH   1  13
HETATM   13  C10 UNL     1      11.415 -19.632   5.508  1.00  0.00     0.079 C 
BRANCH  13  14
HETATM   14  C8  UNL     1      12.326 -18.570   5.038  1.00  0.00    -0.029 C 
HETATM   15  C7  UNL     1      12.493 -18.359   3.627  1.00  0.00     0.144 C 
HETATM   16  C9  UNL     1      13.563 -18.375   5.903  1.00  0.00     0.048 C 
BRANCH  15  17
HETATM   17  N1  UNL     1      13.446 -18.784   2.683  1.00  0.00    -0.339 N 
BRANCH  17  18
HETATM   18  C4  UNL     1      13.595 -20.034   2.044  1.00  0.00     0.089 C 
HETATM   19  C3  UNL     1      14.240 -21.233   2.517  1.00  0.00    -0.010 C 
BRANCH  19  20
HETATM   20  C2  UNL     1      15.635 -21.317   2.996  1.00  0.00     0.024 C 
HETATM   21  C1  UNL     1      16.671 -20.706   2.102  1.00  0.00     0.009 C 
ENDBRANCH  19  20
ENDBRANCH  17  18
BRANCH  17  22
HETATM   22  C5  UNL     1      14.293 -17.679   2.157  1.00  0.00     0.126 C 
HETATM   23  C6  UNL     1      14.755 -17.787   0.776  1.00  0.00     0.027 C 
ENDBRANCH  17  22
ENDBRANCH  15  17
BRANCH  15  24
HETATM   24  O1  UNL     1      11.554 -17.603   3.086  1.00  0.00    -0.346 OA
ATOM     25  H1  UNL     1      10.752 -17.604   3.596  1.00  0.00     0.219 HD
ENDBRANCH  15  24
ENDBRANCH  13  14
ENDBRANCH   1  13
BRANCH   4  26
HETATM   26  C14 UNL     1      11.074 -24.093   3.335  1.00  0.00     0.131 C 
BRANCH  26  27
HETATM   27  C15 UNL     1      12.046 -24.403   2.253  1.00  0.00     0.047 C 
BRANCH  27  28
HETATM   28  C16 UNL     1      12.323 -25.879   2.150  1.00  0.00     0.180 C 
BRANCH  28  29
HETATM   29  O2  UNL     1      13.608 -26.246   1.804  1.00  0.00    -0.321 OA
BRANCH  29  30
HETATM   30  C17 UNL     1      14.127 -26.450   0.536  1.00  0.00     0.264 C 
HETATM   31  O3  UNL     1      13.568 -27.350  -0.146  1.00  0.00    -0.265 OA
BRANCH  30  32
HETATM   32  C18 UNL     1      15.268 -25.664   0.002  1.00  0.00     0.102 A 
HETATM   33  C19 UNL     1      16.288 -25.045   0.897  1.00  0.00    -0.027 A 
HETATM   34  C20 UNL     1      15.958 -24.980   2.345  1.00  0.00     0.016 C 
HETATM   35  C21 UNL     1      17.002 -23.773   0.406  1.00  0.00     0.016 C 
HETATM   36  C22 UNL     1      16.642 -26.258   0.168  1.00  0.00    -0.027 A 
HETATM   37  C23 UNL     1      17.509 -26.134  -1.086  1.00  0.00     0.016 C 
HETATM   38  C24 UNL     1      16.782 -27.604   0.839  1.00  0.00     0.016 C 
ENDBRANCH  30  32
ENDBRANCH  29  30
ENDBRANCH  28  29
ENDBRANCH  27  28
ENDBRANCH  26  27
ENDBRANCH   4  26
TORSDOF 13
ENDMDL
MODEL 2
REMARK VINA RESULT: -7.467305458      0.935      1.646
REMARK  13 active torsions:
REMARK  status: ('A' for Active; 'I' for Inactive)
REMARK    1  A    between atoms: C2_2  and  C3_3 
REMARK    2  A    between atoms: C4_4  and  N1_5 
REMARK    3  A    between atoms: N1_5  and  C5_6 
REMARK    4  A    between atoms: N1_5  and  C7_8 
REMARK    5  A    between atoms: C7_8  and  O1_9 
REMARK    6  A    between atoms: C8_11  and  C10_13 
REMARK    7  A    between atoms: C10_13  and  C11_14 
REMARK    8  A    between atoms: N2_17  and  C14_18 
REMARK    9  A    between atoms: C14_18  and  C15_19 
REMARK   10  A    between atoms: C15_19  and  C16_20 
REMARK   11  A    between atoms: C16_20  and  O2_21 
REMARK   12  A    between atoms: O2_21  and  C17_22 
REMARK   13  A    between atoms: C17_22  and  C18_24 
ROOT
HETATM    1  C11 UNL     1      11.602 -21.263   4.943  1.00  0.00    -0.024 A 
HETATM    2  C12 UNL     1      12.543 -22.015   5.641  1.00  0.00    -0.026 A 
HETATM    3  C13 UNL     1      12.502 -23.279   5.071  1.00  0.00     0.022 A 
HETATM    4  N2  UNL     1      11.608 -23.329   4.092  1.00  0.00    -0.353 N 
HETATM    5  C25 UNL     1      11.042 -22.120   3.986  1.00  0.00     0.015 A 
HETATM    6  C26 UNL     1       9.998 -21.688   3.024  1.00  0.00     0.069 C 
HETATM    7  C27 UNL     1      13.433 -24.293   5.606  1.00  0.00     0.037 C 
HETATM    8  C28 UNL     1      13.196 -24.631   7.031  1.00  0.00     0.011 C 
HETATM    9  C29 UNL     1      14.171 -23.830   7.878  1.00  0.00     0.005 C 
HETATM   10  C30 UNL     1      14.574 -22.724   6.895  1.00  0.00    -0.010 C 
HETATM   11  C31 UNL     1      13.491 -21.718   6.739  1.00  0.00     0.045 C 
HETATM   12  C32 UNL     1      14.787 -23.557   5.653  1.00  0.00     0.015 C 
ENDROOT
BRANCH   1  13
HETATM   13  C10 UNL     1      11.233 -19.865   5.144  1.00  0.00     0.079 C 
BRANCH  13  14
HETATM   14  C8  UNL     1      12.091 -18.774   4.640  1.00  0.00    -0.029 C 
HETATM   15  C7  UNL     1      12.365 -18.687   3.232  1.00  0.00     0.144 C 
HETATM   16  C9  UNL     1      13.224 -18.382   5.577  1.00  0.00     0.048 C 
BRANCH  15  17
HETATM   17  N1  UNL     1      13.432 -19.113   2.419  1.00  0.00    -0.339 N 
BRANCH  17  18
HETATM   18  C4  UNL     1      13.689 -20.379   1.850  1.00  0.00     0.089 C 
HETATM   19  C3  UNL     1      14.333 -21.530   2.431  1.00  0.00    -0.010 C 
BRANCH  19  20
HETATM   20  C2  UNL     1      15.678 -21.536   3.042  1.00  0.00     0.024 C 
HETATM   21  C1  UNL     1      16.824 -21.318   2.101  1.00  0.00     0.009 C 
ENDBRANCH  19  20
ENDBRANCH  17  18
BRANCH  17  22
HETATM   22  C5  UNL     1      14.299 -17.999   1.949  1.00  0.00     0.126 C 
HETATM   23  C6  UNL     1      15.164 -18.260   0.802  1.00  0.00     0.027 C 
ENDBRANCH  17  22
ENDBRANCH  15  17
BRANCH  15  24
HETATM   24  O1  UNL     1      11.419 -18.078   2.541  1.00  0.00    -0.346 OA
ATOM     25  H1  UNL     1      10.626 -18.598   2.479  1.00  0.00     0.219 HD
ENDBRANCH  15  24
ENDBRANCH  13  14
ENDBRANCH   1  13
BRANCH   4  26
HETATM   26  C14 UNL     1      11.325 -24.486   3.308  1.00  0.00     0.131 C 
BRANCH  26  27
HETATM   27  C15 UNL     1      12.145 -24.592   2.071  1.00  0.00     0.047 C 
BRANCH  27  28
HETATM   28  C16 UNL     1      13.247 -25.608   2.211  1.00  0.00     0.180 C 
BRANCH  28  29
HETATM   29  O2  UNL     1      14.383 -25.398   1.455  1.00  0.00    -0.321 OA
BRANCH  29  30
HETATM   30  C17 UNL     1      15.664 -25.870   1.687  1.00  0.00     0.264 C 
HETATM   31  O3  UNL     1      16.368 -25.179   2.471  1.00  0.00    -0.265 OA
BRANCH  30  32
HETATM   32  C18 UNL     1      16.187 -27.110   1.060  1.00  0.00     0.102 A 
HETATM   33  C19 UNL     1      15.776 -27.535  -0.309  1.00  0.00    -0.027 A 
HETATM   34  C20 UNL     1      14.599 -26.846  -0.901  1.00  0.00     0.016 C 
HETATM   35  C21 UNL     1      15.791 -29.040  -0.632  1.00  0.00     0.016 C 
HETATM   36  C22 UNL     1      17.097 -26.941  -0.128  1.00  0.00    -0.027 A 
HETATM   37  C23 UNL     1      18.316 -27.863  -0.090  1.00  0.00     0.016 C 
HETATM   38  C24 UNL     1      17.438 -25.547  -0.598  1.00  0.00     0.016 C 
ENDBRANCH  30  32
ENDBRANCH  29  30
ENDBRANCH  28  29
ENDBRANCH  27  28
ENDBRANCH  26  27
ENDBRANCH   4  26
TORSDOF 13
ENDMDL
MODEL 3
REMARK VINA RESULT: -7.379800129      0.708      1.425
REMARK  13 active torsions:
REMARK  status: ('A' for Active; 'I' for Inactive)
REMARK    1  A    between atoms: C2_2  and  C3_3 
REMARK    2  A    between atoms: C4_4  and  N1_5 
REMARK    3  A    between atoms: N1_5  and  C5_6 
REMARK    4  A    between atoms: N1_5  and  C7_8 
REMARK    5  A    between atoms: C7_8  and  O1_9 
REMARK    6  A    between atoms: C8_11  and  C10_13 
REMARK    7  A    between atoms: C10_13  and  C11_14 
REMARK    8  A    between atoms: N2_17  and  C14_18 
REMARK    9  A    between atoms: C14_18  and  C15_19 
REMARK   10  A    between atoms: C15_19  and  C16_20 
REMARK   11  A    between atoms: C16_20  and  O2_21 
REMARK   12  A    between atoms: O2_21  and  C17_22 
REMARK   13  A    between atoms: C17_22  and  C18_24 
ROOT
HETATM    1  C11 UNL     1      11.583 -21.057   5.105  1.00  0.00    -0.024 A 
HETATM    2  C12 UNL     1      12.561 -21.845   5.705  1.00  0.00    -0.026 A 
HETATM    3  C13 UNL     1      12.396 -23.113   5.167  1.00  0.00     0.022 A 
HETATM    4  N2  UNL     1      11.395 -23.132   4.296  1.00  0.00    -0.353 N 
HETATM    5  C25 UNL     1      10.878 -21.898   4.233  1.00  0.00     0.015 A 
HETATM    6  C26 UNL     1       9.753 -21.428   3.387  1.00  0.00     0.069 C 
HETATM    7  C27 UNL     1      13.333 -24.165   5.612  1.00  0.00     0.037 C 
HETATM    8  C28 UNL     1      13.243 -24.473   7.061  1.00  0.00     0.011 C 
HETATM    9  C29 UNL     1      14.345 -23.709   7.777  1.00  0.00     0.005 C 
HETATM   10  C30 UNL     1      14.686 -22.637   6.734  1.00  0.00    -0.010 C 
HETATM   11  C31 UNL     1      13.641 -21.582   6.683  1.00  0.00     0.045 C 
HETATM   12  C32 UNL     1      14.716 -23.495   5.492  1.00  0.00     0.015 C 
ENDROOT
BRANCH   1  13
HETATM   13  C10 UNL     1      11.306 -19.640   5.320  1.00  0.00     0.079 C 
BRANCH  13  14
HETATM   14  C8  UNL     1      12.074 -18.600   4.607  1.00  0.00    -0.029 C 
HETATM   15  C7  UNL     1      12.098 -18.603   3.171  1.00  0.00     0.144 C 
HETATM   16  C9  UNL     1      13.358 -18.178   5.306  1.00  0.00     0.048 C 
BRANCH  15  17
HETATM   17  N1  UNL     1      13.001 -19.099   2.212  1.00  0.00    -0.339 N 
BRANCH  17  18
HETATM   18  C4  UNL     1      13.262 -20.429   1.814  1.00  0.00     0.089 C 
HETATM   19  C3  UNL     1      14.100 -21.422   2.436  1.00  0.00    -0.010 C 
BRANCH  19  20
HETATM   20  C2  UNL     1      15.530 -21.245   2.765  1.00  0.00     0.024 C 
HETATM   21  C1  UNL     1      16.455 -21.085   1.597  1.00  0.00     0.009 C 
ENDBRANCH  19  20
ENDBRANCH  17  18
BRANCH  17  22
HETATM   22  C5  UNL     1      13.621 -18.035   1.376  1.00  0.00     0.126 C 
HETATM   23  C6  UNL     1      14.944 -17.559   1.769  1.00  0.00     0.027 C 
ENDBRANCH  17  22
ENDBRANCH  15  17
BRANCH  15  24
HETATM   24  O1  UNL     1      11.052 -18.016   2.618  1.00  0.00    -0.346 OA
ATOM     25  H1  UNL     1      10.474 -17.627   3.264  1.00  0.00     0.219 HD
ENDBRANCH  15  24
ENDBRANCH  13  14
ENDBRANCH   1  13
BRANCH   4  26
HETATM   26  C14 UNL     1      10.970 -24.284   3.570  1.00  0.00     0.131 C 
BRANCH  26  27
HETATM   27  C15 UNL     1      11.665 -24.466   2.268  1.00  0.00     0.047 C 
BRANCH  27  28
HETATM   28  C16 UNL     1      12.210 -25.861   2.111  1.00  0.00     0.180 C 
BRANCH  28  29
HETATM   29  O2  UNL     1      12.442 -26.294   0.821  1.00  0.00    -0.321 OA
BRANCH  29  30
HETATM   30  C17 UNL     1      13.588 -26.877   0.307  1.00  0.00     0.264 C 
HETATM   31  O3  UNL     1      13.466 -27.425  -0.820  1.00  0.00    -0.265 OA
BRANCH  30  32
HETATM   32  C18 UNL     1      14.886 -26.861   1.028  1.00  0.00     0.102 A 
HETATM   33  C19 UNL     1      16.185 -26.717   0.311  1.00  0.00    -0.027 A 
HETATM   34  C20 UNL     1      16.160 -26.898  -1.165  1.00  0.00     0.016 C 
HETATM   35  C21 UNL     1      17.436 -27.344   0.951  1.00  0.00     0.016 C 
HETATM   36  C22 UNL     1      15.651 -25.564   1.027  1.00  0.00    -0.027 A 
HETATM   37  C23 UNL     1      16.241 -25.211   2.392  1.00  0.00     0.016 C 
HETATM   38  C24 UNL     1      15.060 -24.366   0.323  1.00  0.00     0.016 C 
ENDBRANCH  30  32
ENDBRANCH  29  30
ENDBRANCH  28  29
ENDBRANCH  27  28
ENDBRANCH  26  27
ENDBRANCH   4  26
TORSDOF 13
ENDMDL
MODEL 4
REMARK VINA RESULT: -7.374544897      1.786      3.532
REMARK  13 active torsions:
REMARK  status: ('A' for Active; 'I' for Inactive)
REMARK    1  A    between atoms: C2_2  and  C3_3 
REMARK    2  A    between atoms: C4_4  and  N1_5 
REMARK    3  A    between atoms: N1_5  and  C5_6 
REMARK    4  A    between atoms: N1_5  and  C7_8 
REMARK    5  A    between atoms: C7_8  and  O1_9 
REMARK    6  A    between atoms: C8_11  and  C10_13 
REMARK    7  A    between atoms: C10_13  and  C11_14 
REMARK    8  A    between atoms: N2_17  and  C14_18 
REMARK    9  A    between atoms: C14_18  and  C15_19 
REMARK   10  A    between atoms: C15_19  and  C16_20 
REMARK   11  A    between atoms: C16_20  and  O2_21 
REMARK   12  A    between atoms: O2_21  and  C17_22 
REMARK   13  A    between atoms: C17_22  and  C18_24 
ROOT
HETATM    1  C11 UNL     1      11.534 -21.946   4.114  1.00  0.00    -0.024 A 
HETATM    2  C12 UNL     1      12.509 -22.262   5.056  1.00  0.00    -0.026 A 
HETATM    3  C13 UNL     1      12.778 -23.611   4.872  1.00  0.00     0.022 A 
HETATM    4  N2  UNL     1      12.035 -24.113   3.893  1.00  0.00    -0.353 N 
HETATM    5  C25 UNL     1      11.267 -23.128   3.409  1.00  0.00     0.015 A 
HETATM    6  C26 UNL     1      10.285 -23.205   2.299  1.00  0.00     0.069 C 
HETATM    7  C27 UNL     1      13.812 -24.220   5.733  1.00  0.00     0.037 C 
HETATM    8  C28 UNL     1      13.471 -24.207   7.177  1.00  0.00     0.011 C 
HETATM    9  C29 UNL     1      14.166 -23.018   7.818  1.00  0.00     0.005 C 
HETATM   10  C30 UNL     1      14.470 -22.155   6.587  1.00  0.00    -0.010 C 
HETATM   11  C31 UNL     1      13.243 -21.486   6.081  1.00  0.00     0.045 C 
HETATM   12  C32 UNL     1      14.985 -23.223   5.653  1.00  0.00     0.015 C 
ENDROOT
BRANCH   1  13
HETATM   13  C10 UNL     1      10.885 -20.659   3.881  1.00  0.00     0.079 C 
BRANCH  13  14
HETATM   14  C8  UNL     1      11.514 -19.638   3.020  1.00  0.00    -0.029 C 
HETATM   15  C7  UNL     1      11.919 -18.385   3.594  1.00  0.00     0.144 C 
HETATM   16  C9  UNL     1      10.964 -19.588   1.602  1.00  0.00     0.048 C 
BRANCH  15  17
HETATM   17  N1  UNL     1      11.326 -17.111   3.672  1.00  0.00    -0.339 N 
BRANCH  17  18
HETATM   18  C4  UNL     1      11.669 -15.909   3.015  1.00  0.00     0.089 C 
HETATM   19  C3  UNL     1      11.344 -15.470   1.681  1.00  0.00    -0.010 C 
BRANCH  19  20
HETATM   20  C2  UNL     1      11.630 -16.223   0.443  1.00  0.00     0.024 C 
HETATM   21  C1  UNL     1      13.050 -16.668   0.262  1.00  0.00     0.009 C 
ENDBRANCH  19  20
ENDBRANCH  17  18
BRANCH  17  22
HETATM   22  C5  UNL     1      10.036 -17.103   4.414  1.00  0.00     0.126 C 
HETATM   23  C6  UNL     1      10.047 -17.607   5.784  1.00  0.00     0.027 C 
ENDBRANCH  17  22
ENDBRANCH  15  17
BRANCH  15  24
HETATM   24  O1  UNL     1      13.103 -18.423   4.178  1.00  0.00    -0.346 OA
ATOM     25  H1  UNL     1      13.126 -19.035   4.905  1.00  0.00     0.219 HD
ENDBRANCH  15  24
ENDBRANCH  13  14
ENDBRANCH   1  13
BRANCH   4  26
HETATM   26  C14 UNL     1      12.074 -25.470   3.457  1.00  0.00     0.131 C 
BRANCH  26  27
HETATM   27  C15 UNL     1      12.470 -25.635   2.033  1.00  0.00     0.047 C 
BRANCH  27  28
HETATM   28  C16 UNL     1      13.904 -26.072   1.894  1.00  0.00     0.180 C 
BRANCH  28  29
HETATM   29  O2  UNL     1      14.859 -25.255   2.466  1.00  0.00    -0.321 OA
BRANCH  29  30
HETATM   30  C17 UNL     1      15.852 -24.528   1.832  1.00  0.00     0.264 C 
HETATM   31  O3  UNL     1      16.466 -25.127   0.910  1.00  0.00    -0.265 OA
BRANCH  30  32
HETATM   32  C18 UNL     1      16.181 -23.128   2.205  1.00  0.00     0.102 A 
HETATM   33  C19 UNL     1      16.606 -22.121   1.192  1.00  0.00    -0.027 A 
HETATM   34  C20 UNL     1      16.985 -22.638  -0.150  1.00  0.00     0.016 C 
HETATM   35  C21 UNL     1      17.525 -20.976   1.653  1.00  0.00     0.016 C 
HETATM   36  C22 UNL     1      15.246 -22.054   1.716  1.00  0.00    -0.027 A 
HETATM   37  C23 UNL     1      14.921 -21.006   2.780  1.00  0.00     0.016 C 
HETATM   38  C24 UNL     1      14.036 -22.451   0.903  1.00  0.00     0.016 C 
ENDBRANCH  30  32
ENDBRANCH  29  30
ENDBRANCH  28  29
ENDBRANCH  27  28
ENDBRANCH  26  27
ENDBRANCH   4  26
TORSDOF 13
ENDMDL
MODEL 5
REMARK VINA RESULT: -7.335078831      2.885      7.840
REMARK  13 active torsions:
REMARK  status: ('A' for Active; 'I' for Inactive)
REMARK    1  A    between atoms: C2_2  and  C3_3 
REMARK    2  A    between atoms: C4_4  and  N1_5 
REMARK    3  A    between atoms: N1_5  and  C5_6 
REMARK    4  A    between atoms: N1_5  and  C7_8 
REMARK    5  A    between atoms: C7_8  and  O1_9 
REMARK    6  A    between atoms: C8_11  and  C10_13 
REMARK    7  A    between atoms: C10_13  and  C11_14 
REMARK    8  A    between atoms: N2_17  and  C14_18 
REMARK    9  A    between atoms: C14_18  and  C15_19 
REMARK   10  A    between atoms: C15_19  and  C16_20 
REMARK   11  A    between atoms: C16_20  and  O2_21 
REMARK   12  A    between atoms: O2_21  and  C17_22 
REMARK   13  A    between atoms: C17_22  and  C18_24 
ROOT
HETATM    1  C11 UNL     1      15.114 -21.615   3.095  1.00  0.00    -0.024 A 
HETATM    2  C12 UNL     1      14.737 -21.670   4.434  1.00  0.00    -0.026 A 
HETATM    3  C13 UNL     1      13.804 -20.656   4.598  1.00  0.00     0.022 A 
HETATM    4  N2  UNL     1      13.603 -20.008   3.457  1.00  0.00    -0.353 N 
HETATM    5  C25 UNL     1      14.384 -20.565   2.521  1.00  0.00     0.015 A 
HETATM    6  C26 UNL     1      14.494 -20.190   1.090  1.00  0.00     0.069 C 
HETATM    7  C27 UNL     1      13.203 -20.497   5.937  1.00  0.00     0.037 C 
HETATM    8  C28 UNL     1      14.181 -20.137   6.993  1.00  0.00     0.011 C 
HETATM    9  C29 UNL     1      14.575 -21.407   7.729  1.00  0.00     0.005 C 
HETATM   10  C30 UNL     1      14.151 -22.478   6.716  1.00  0.00    -0.010 C 
HETATM   11  C31 UNL     1      15.098 -22.545   5.572  1.00  0.00     0.045 C 
HETATM   12  C32 UNL     1      12.798 -21.933   6.327  1.00  0.00     0.015 C 
ENDROOT
BRANCH   1  13
HETATM   13  C10 UNL     1      16.080 -22.455   2.393  1.00  0.00     0.079 C 
BRANCH  13  14
HETATM   14  C8  UNL     1      15.695 -23.782   1.873  1.00  0.00    -0.029 C 
HETATM   15  C7  UNL     1      14.590 -23.887   0.962  1.00  0.00     0.144 C 
HETATM   16  C9  UNL     1      15.862 -24.919   2.870  1.00  0.00     0.048 C 
BRANCH  15  17
HETATM   17  N1  UNL     1      13.227 -24.200   1.114  1.00  0.00    -0.339 N 
BRANCH  17  18
HETATM   18  C4  UNL     1      12.165 -23.412   1.611  1.00  0.00     0.089 C 
HETATM   19  C3  UNL     1      11.732 -23.214   2.971  1.00  0.00    -0.010 C 
BRANCH  19  20
HETATM   20  C2  UNL     1      11.369 -24.291   3.916  1.00  0.00     0.024 C 
HETATM   21  C1  UNL     1      12.516 -25.049   4.515  1.00  0.00     0.009 C 
ENDBRANCH  19  20
ENDBRANCH  17  18
BRANCH  17  22
HETATM   22  C5  UNL     1      12.839 -25.487   0.474  1.00  0.00     0.126 C 
HETATM   23  C6  UNL     1      13.222 -26.719   1.158  1.00  0.00     0.027 C 
ENDBRANCH  17  22
ENDBRANCH  15  17
BRANCH  15  24
HETATM   24  O1  UNL     1      14.910 -23.639  -0.296  1.00  0.00    -0.346 OA
ATOM     25  H1  UNL     1      15.824 -23.823  -0.478  1.00  0.00     0.219 HD
ENDBRANCH  15  24
ENDBRANCH  13  14
ENDBRANCH   1  13
BRANCH   4  26
HETATM   26  C14 UNL     1      12.705 -18.913   3.290  1.00  0.00     0.131 C 
BRANCH  26  27
HETATM   27  C15 UNL     1      11.319 -19.318   2.933  1.00  0.00     0.047 C 
BRANCH  27  28
HETATM   28  C16 UNL     1      10.344 -19.029   4.043  1.00  0.00     0.180 C 
BRANCH  28  29
HETATM   29  O2  UNL     1       9.577 -17.889   3.913  1.00  0.00    -0.321 OA
BRANCH  29  30
HETATM   30  C17 UNL     1       8.608 -17.614   2.963  1.00  0.00     0.264 C 
HETATM   31  O3  UNL     1       7.448 -18.028   3.230  1.00  0.00    -0.265 OA
BRANCH  30  32
HETATM   32  C18 UNL     1       8.902 -16.879   1.707  1.00  0.00     0.102 A 
HETATM   33  C19 UNL     1       8.118 -15.681   1.292  1.00  0.00    -0.027 A 
HETATM   34  C20 UNL     1       6.842 -15.431   2.014  1.00  0.00     0.016 C 
HETATM   35  C21 UNL     1       8.001 -15.381  -0.213  1.00  0.00     0.016 C 
HETATM   36  C22 UNL     1       9.452 -15.484   1.847  1.00  0.00    -0.027 A 
HETATM   37  C23 UNL     1      10.609 -15.193   0.890  1.00  0.00     0.016 C 
HETATM   38  C24 UNL     1       9.689 -14.925   3.230  1.00  0.00     0.016 C 
ENDBRANCH  30  32
ENDBRANCH  29  30
ENDBRANCH  28  29
ENDBRANCH  27  28
ENDBRANCH  26  27
ENDBRANCH   4  26
TORSDOF 13
ENDMDL
