MODEL 1
REMARK VINA RESULT: -6.815640909      0.000      0.000
REMARK  8 active torsions:
REMARK  status: ('A' for Active; 'I' for Inactive)
REMARK    1  A    between atoms: C7_7  and  C8_8 
REMARK    2  A    between atoms: C9_9  and  C10_10 
REMARK    3  A    between atoms: C10_10  and  C11_11 
REMARK    4  A    between atoms: C11_11  and  C12_12 
REMARK    5  A    between atoms: C11_11  and  N1_15 
REMARK    6  A    between atoms: C12_12  and  O1_13 
REMARK    7  A    between atoms: N1_15  and  N2_16 
REMARK       I    between atoms: N1_15  and  C13_21 
REMARK    8  A    between atoms: C13_21  and  C14_23 
ROOT
HETATM    1  C1  UNL     1      11.467 -24.231 -17.531  1.00  0.00     0.012 C 
HETATM    2  C2  UNL     1      11.400 -23.415 -18.422  1.00  0.00    -0.110 C 
HETATM    3  C3  UNL     1      11.323 -22.418 -19.474  1.00  0.00     0.090 C 
HETATM    4  C4  UNL     1      11.274 -23.006 -20.894  1.00  0.00     0.012 C 
HETATM    5  C5  UNL     1      12.246 -24.133 -20.764  1.00  0.00     0.008 C 
HETATM    6  C6  UNL     1      13.396 -23.379 -20.061  1.00  0.00     0.025 C 
HETATM    7  C7  UNL     1      12.746 -22.038 -19.912  1.00  0.00     0.045 C 
HETATM    8  C15 UNL     1      12.140 -21.792 -21.257  1.00  0.00    -0.023 C 
HETATM    9  C16 UNL     1      13.015 -21.985 -22.444  1.00  0.00     0.017 C 
HETATM   10  C17 UNL     1      11.298 -20.553 -21.395  1.00  0.00     0.017 C 
ENDROOT
BRANCH   7  11
HETATM   11  C8  UNL     1      13.393 -21.005 -19.230  1.00  0.00    -0.094 C 
HETATM   12  C9  UNL     1      13.963 -20.111 -18.656  1.00  0.00    -0.103 C 
BRANCH  12  13
HETATM   13  C10 UNL     1      14.680 -19.050 -17.957  1.00  0.00     0.123 C 
BRANCH  13  14
HETATM   14  C11 UNL     1      14.138 -18.883 -16.577  1.00  0.00     0.147 C 
BRANCH  14  15
HETATM   15  C12 UNL     1      13.907 -17.444 -16.203  1.00  0.00     0.192 C 
BRANCH  15  16
HETATM   16  O1  UNL     1      15.156 -16.881 -15.950  1.00  0.00    -0.399 OA
ATOM     17  H1  UNL     1      15.448 -17.216 -15.110  1.00  0.00     0.209 HD
ENDBRANCH  15  16
ENDBRANCH  14  15
BRANCH  14  18
HETATM   18  N1  UNL     1      14.930 -19.625 -15.623  1.00  0.00    -0.239 N 
HETATM   19  C13 UNL     1      14.285 -20.334 -14.567  1.00  0.00     0.249 C 
HETATM   20  O2  UNL     1      13.029 -20.304 -14.469  1.00  0.00    -0.271 OA
BRANCH  18  21
HETATM   21  N2  UNL     1      16.319 -19.666 -15.682  1.00  0.00    -0.244 N 
HETATM   22  N3  UNL     1      17.080 -18.911 -15.021  1.00  0.00    -0.331 N 
ATOM     23  H32 UNL     1      16.633 -18.230 -14.408  1.00  0.00     0.178 HD
ATOM     24  H31 UNL     1      18.099 -18.942 -15.064  1.00  0.00     0.178 HD
ATOM     25  H2  UNL     1      16.749 -20.353 -16.300  1.00  0.00     0.208 HD
ENDBRANCH  18  21
BRANCH  19  26
HETATM   26  C14 UNL     1      15.045 -21.110 -13.572  1.00  0.00     0.189 C 
HETATM   27 BR1  UNL     1      14.426 -20.686 -11.761  1.00  0.00    -0.087 Br
ENDBRANCH  19  26
ENDBRANCH  14  18
ENDBRANCH  13  14
ENDBRANCH  12  13
ENDBRANCH   7  11
TORSDOF 8
ENDMDL
MODEL 2
REMARK VINA RESULT: -6.651441388      1.348      1.348
REMARK  8 active torsions:
REMARK  status: ('A' for Active; 'I' for Inactive)
REMARK    1  A    between atoms: C7_7  and  C8_8 
REMARK    2  A    between atoms: C9_9  and  C10_10 
REMARK    3  A    between atoms: C10_10  and  C11_11 
REMARK    4  A    between atoms: C11_11  and  C12_12 
REMARK    5  A    between atoms: C11_11  and  N1_15 
REMARK    6  A    between atoms: C12_12  and  O1_13 
REMARK    7  A    between atoms: N1_15  and  N2_16 
REMARK       I    between atoms: N1_15  and  C13_21 
REMARK    8  A    between atoms: C13_21  and  C14_23 
ROOT
HETATM    1  C1  UNL     1      11.675 -24.090 -17.478  1.00  0.00     0.012 C 
HETATM    2  C2  UNL     1      11.528 -23.325 -18.404  1.00  0.00    -0.110 C 
HETATM    3  C3  UNL     1      11.352 -22.388 -19.498  1.00  0.00     0.090 C 
HETATM    4  C4  UNL     1      11.456 -23.027 -20.894  1.00  0.00     0.012 C 
HETATM    5  C5  UNL     1      12.577 -23.990 -20.679  1.00  0.00     0.008 C 
HETATM    6  C6  UNL     1      13.569 -23.048 -19.963  1.00  0.00     0.025 C 
HETATM    7  C7  UNL     1      12.721 -21.815 -19.895  1.00  0.00     0.045 C 
HETATM    8  C15 UNL     1      12.147 -21.710 -21.273  1.00  0.00    -0.023 C 
HETATM    9  C16 UNL     1      13.095 -21.811 -22.414  1.00  0.00     0.017 C 
HETATM   10  C17 UNL     1      11.138 -20.617 -21.494  1.00  0.00     0.017 C 
ENDROOT
BRANCH   7  11
HETATM   11  C8  UNL     1      13.176 -20.674 -19.231  1.00  0.00    -0.094 C 
HETATM   12  C9  UNL     1      13.586 -19.698 -18.654  1.00  0.00    -0.103 C 
BRANCH  12  13
HETATM   13  C10 UNL     1      14.079 -18.533 -17.926  1.00  0.00     0.123 C 
BRANCH  13  14
HETATM   14  C11 UNL     1      14.004 -18.775 -16.456  1.00  0.00     0.147 C 
BRANCH  14  15
HETATM   15  C12 UNL     1      13.994 -17.505 -15.649  1.00  0.00     0.192 C 
BRANCH  15  16
HETATM   16  O1  UNL     1      15.172 -16.823 -15.944  1.00  0.00    -0.399 OA
ATOM     17  H1  UNL     1      15.523 -16.502 -15.122  1.00  0.00     0.209 HD
ENDBRANCH  15  16
ENDBRANCH  14  15
BRANCH  14  18
HETATM   18  N1  UNL     1      15.001 -19.734 -16.042  1.00  0.00    -0.239 N 
HETATM   19  C13 UNL     1      14.598 -21.019 -15.573  1.00  0.00     0.249 C 
HETATM   20  O2  UNL     1      13.372 -21.307 -15.517  1.00  0.00    -0.271 OA
BRANCH  18  21
HETATM   21  N2  UNL     1      16.362 -19.448 -16.067  1.00  0.00    -0.244 N 
HETATM   22  N3  UNL     1      17.013 -19.007 -15.084  1.00  0.00    -0.331 N 
ATOM     23  H32 UNL     1      16.494 -18.854 -14.219  1.00  0.00     0.178 HD
ATOM     24  H31 UNL     1      18.012 -18.797 -15.102  1.00  0.00     0.178 HD
ATOM     25  H2  UNL     1      16.866 -19.607 -16.939  1.00  0.00     0.208 HD
ENDBRANCH  18  21
BRANCH  19  26
HETATM   26  C14 UNL     1      15.575 -22.034 -15.145  1.00  0.00     0.189 C 
HETATM   27 BR1  UNL     1      15.779 -23.408 -16.528  1.00  0.00    -0.087 Br
ENDBRANCH  19  26
ENDBRANCH  14  18
ENDBRANCH  13  14
ENDBRANCH  12  13
ENDBRANCH   7  11
TORSDOF 8
ENDMDL
MODEL 3
REMARK VINA RESULT: -6.640357725      1.948      2.634
REMARK  8 active torsions:
REMARK  status: ('A' for Active; 'I' for Inactive)
REMARK    1  A    between atoms: C7_7  and  C8_8 
REMARK    2  A    between atoms: C9_9  and  C10_10 
REMARK    3  A    between atoms: C10_10  and  C11_11 
REMARK    4  A    between atoms: C11_11  and  C12_12 
REMARK    5  A    between atoms: C11_11  and  N1_15 
REMARK    6  A    between atoms: C12_12  and  O1_13 
REMARK    7  A    between atoms: N1_15  and  N2_16 
REMARK       I    between atoms: N1_15  and  C13_21 
REMARK    8  A    between atoms: C13_21  and  C14_23 
ROOT
HETATM    1  C1  UNL     1      13.774 -25.679 -20.743  1.00  0.00     0.012 C 
HETATM    2  C2  UNL     1      12.966 -24.789 -20.607  1.00  0.00    -0.110 C 
HETATM    3  C3  UNL     1      12.002 -23.721 -20.420  1.00  0.00     0.090 C 
HETATM    4  C4  UNL     1      11.405 -23.177 -21.729  1.00  0.00     0.012 C 
HETATM    5  C5  UNL     1      12.611 -23.184 -22.610  1.00  0.00     0.008 C 
HETATM    6  C6  UNL     1      13.617 -22.516 -21.647  1.00  0.00     0.025 C 
HETATM    7  C7  UNL     1      12.736 -22.371 -20.444  1.00  0.00     0.045 C 
HETATM    8  C15 UNL     1      11.463 -21.823 -21.009  1.00  0.00    -0.023 C 
HETATM    9  C16 UNL     1      11.570 -20.644 -21.909  1.00  0.00     0.017 C 
HETATM   10  C17 UNL     1      10.315 -21.675 -20.048  1.00  0.00     0.017 C 
ENDROOT
BRANCH   7  11
HETATM   11  C8  UNL     1      13.246 -21.875 -19.243  1.00  0.00    -0.094 C 
HETATM   12  C9  UNL     1      13.673 -21.434 -18.206  1.00  0.00    -0.103 C 
BRANCH  12  13
HETATM   13  C10 UNL     1      14.202 -20.872 -16.967  1.00  0.00     0.123 C 
BRANCH  13  14
HETATM   14  C11 UNL     1      15.223 -19.827 -17.270  1.00  0.00     0.147 C 
BRANCH  14  15
HETATM   15  C12 UNL     1      16.483 -20.388 -17.870  1.00  0.00     0.192 C 
BRANCH  15  16
HETATM   16  O1  UNL     1      17.431 -19.368 -17.860  1.00  0.00    -0.399 OA
ATOM     17  H1  UNL     1      18.279 -19.774 -17.996  1.00  0.00     0.209 HD
ENDBRANCH  15  16
ENDBRANCH  14  15
BRANCH  14  18
HETATM   18  N1  UNL     1      15.440 -18.974 -16.124  1.00  0.00    -0.239 N 
HETATM   19  C13 UNL     1      14.850 -17.677 -16.084  1.00  0.00     0.249 C 
HETATM   20  O2  UNL     1      14.148 -17.279 -17.053  1.00  0.00    -0.271 OA
BRANCH  18  21
HETATM   21  N2  UNL     1      16.225 -19.366 -15.045  1.00  0.00    -0.244 N 
HETATM   22  N3  UNL     1      17.461 -19.147 -14.950  1.00  0.00    -0.331 N 
ATOM     23  H32 UNL     1      17.901 -18.649 -15.723  1.00  0.00     0.178 HD
ATOM     24  H31 UNL     1      18.037 -19.434 -14.158  1.00  0.00     0.178 HD
ATOM     25  H2  UNL     1      15.769 -19.863 -14.280  1.00  0.00     0.208 HD
ENDBRANCH  18  21
BRANCH  19  26
HETATM   26  C14 UNL     1      15.035 -16.772 -14.937  1.00  0.00     0.189 C 
HETATM   27 BR1  UNL     1      13.456 -16.810 -13.778  1.00  0.00    -0.087 Br
ENDBRANCH  19  26
ENDBRANCH  14  18
ENDBRANCH  13  14
ENDBRANCH  12  13
ENDBRANCH   7  11
TORSDOF 8
ENDMDL
MODEL 4
REMARK VINA RESULT: -6.592805621      1.920      2.368
REMARK  8 active torsions:
REMARK  status: ('A' for Active; 'I' for Inactive)
REMARK    1  A    between atoms: C7_7  and  C8_8 
REMARK    2  A    between atoms: C9_9  and  C10_10 
REMARK    3  A    between atoms: C10_10  and  C11_11 
REMARK    4  A    between atoms: C11_11  and  C12_12 
REMARK    5  A    between atoms: C11_11  and  N1_15 
REMARK    6  A    between atoms: C12_12  and  O1_13 
REMARK    7  A    between atoms: N1_15  and  N2_16 
REMARK       I    between atoms: N1_15  and  C13_21 
REMARK    8  A    between atoms: C13_21  and  C14_23 
ROOT
HETATM    1  C1  UNL     1      10.744 -24.587 -17.553  1.00  0.00     0.012 C 
HETATM    2  C2  UNL     1      11.178 -23.698 -18.249  1.00  0.00    -0.110 C 
HETATM    3  C3  UNL     1      11.708 -22.619 -19.064  1.00  0.00     0.090 C 
HETATM    4  C4  UNL     1      11.649 -22.888 -20.577  1.00  0.00     0.012 C 
HETATM    5  C5  UNL     1      12.013 -24.336 -20.619  1.00  0.00     0.008 C 
HETATM    6  C6  UNL     1      13.241 -24.302 -19.683  1.00  0.00     0.025 C 
HETATM    7  C7  UNL     1      13.208 -22.855 -19.297  1.00  0.00     0.045 C 
HETATM    8  C15 UNL     1      12.995 -22.152 -20.601  1.00  0.00    -0.023 C 
HETATM    9  C16 UNL     1      13.888 -22.526 -21.730  1.00  0.00     0.017 C 
HETATM   10  C17 UNL     1      12.795 -20.663 -20.532  1.00  0.00     0.017 C 
ENDROOT
BRANCH   7  11
HETATM   11  C8  UNL     1      14.110 -22.347 -18.360  1.00  0.00    -0.094 C 
HETATM   12  C9  UNL     1      14.903 -21.910 -17.565  1.00  0.00    -0.103 C 
BRANCH  12  13
HETATM   13  C10 UNL     1      15.876 -21.412 -16.598  1.00  0.00     0.123 C 
BRANCH  13  14
HETATM   14  C11 UNL     1      15.854 -19.920 -16.565  1.00  0.00     0.147 C 
BRANCH  14  15
HETATM   15  C12 UNL     1      17.215 -19.314 -16.359  1.00  0.00     0.192 C 
BRANCH  15  16
HETATM   16  O1  UNL     1      17.378 -19.131 -14.988  1.00  0.00    -0.399 OA
ATOM     17  H1  UNL     1      18.152 -19.619 -14.731  1.00  0.00     0.209 HD
ENDBRANCH  15  16
ENDBRANCH  14  15
BRANCH  14  18
HETATM   18  N1  UNL     1      14.846 -19.443 -15.648  1.00  0.00    -0.239 N 
HETATM   19  C13 UNL     1      14.142 -18.237 -15.933  1.00  0.00     0.249 C 
HETATM   20  O2  UNL     1      14.408 -17.590 -16.982  1.00  0.00    -0.271 OA
BRANCH  18  21
HETATM   21  N2  UNL     1      14.537 -20.114 -14.469  1.00  0.00    -0.244 N 
HETATM   22  N3  UNL     1      15.211 -20.034 -13.409  1.00  0.00    -0.331 N 
ATOM     23  H32 UNL     1      16.035 -19.433 -13.432  1.00  0.00     0.178 HD
ATOM     24  H31 UNL     1      14.985 -20.525 -12.544  1.00  0.00     0.178 HD
ATOM     25  H2  UNL     1      13.710 -20.709 -14.463  1.00  0.00     0.208 HD
ENDBRANCH  18  21
BRANCH  19  26
HETATM   26  C14 UNL     1      13.101 -17.710 -15.033  1.00  0.00     0.189 C 
HETATM   27 BR1  UNL     1      13.902 -16.543 -13.677  1.00  0.00    -0.087 Br
ENDBRANCH  19  26
ENDBRANCH  14  18
ENDBRANCH  13  14
ENDBRANCH  12  13
ENDBRANCH   7  11
TORSDOF 8
ENDMDL
MODEL 5
REMARK VINA RESULT: -6.576194686      1.916      3.265
REMARK  8 active torsions:
REMARK  status: ('A' for Active; 'I' for Inactive)
REMARK    1  A    between atoms: C7_7  and  C8_8 
REMARK    2  A    between atoms: C9_9  and  C10_10 
REMARK    3  A    between atoms: C10_10  and  C11_11 
REMARK    4  A    between atoms: C11_11  and  C12_12 
REMARK    5  A    between atoms: C11_11  and  N1_15 
REMARK    6  A    between atoms: C12_12  and  O1_13 
REMARK    7  A    between atoms: N1_15  and  N2_16 
REMARK       I    between atoms: N1_15  and  C13_21 
REMARK    8  A    between atoms: C13_21  and  C14_23 
ROOT
HETATM    1  C1  UNL     1      12.617 -20.471 -22.073  1.00  0.00     0.012 C 
HETATM    2  C2  UNL     1      12.723 -21.481 -21.415  1.00  0.00    -0.110 C 
HETATM    3  C3  UNL     1      12.875 -22.686 -20.620  1.00  0.00     0.090 C 
HETATM    4  C4  UNL     1      11.567 -23.468 -20.411  1.00  0.00     0.012 C 
HETATM    5  C5  UNL     1      10.600 -22.348 -20.208  1.00  0.00     0.008 C 
HETATM    6  C6  UNL     1      11.408 -21.514 -19.191  1.00  0.00     0.025 C 
HETATM    7  C7  UNL     1      12.655 -22.342 -19.139  1.00  0.00     0.045 C 
HETATM    8  C15 UNL     1      12.138 -23.741 -19.013  1.00  0.00    -0.023 C 
HETATM    9  C16 UNL     1      11.117 -23.997 -17.963  1.00  0.00     0.017 C 
HETATM   10  C17 UNL     1      13.165 -24.839 -19.056  1.00  0.00     0.017 C 
ENDROOT
BRANCH   7  11
HETATM   11  C8  UNL     1      13.755 -21.926 -18.387  1.00  0.00    -0.094 C 
HETATM   12  C9  UNL     1      14.717 -21.572 -17.753  1.00  0.00    -0.103 C 
BRANCH  12  13
HETATM   13  C10 UNL     1      15.889 -21.177 -16.978  1.00  0.00     0.123 C 
BRANCH  13  14
HETATM   14  C11 UNL     1      15.876 -19.704 -16.737  1.00  0.00     0.147 C 
BRANCH  14  15
HETATM   15  C12 UNL     1      17.242 -19.140 -16.456  1.00  0.00     0.192 C 
BRANCH  15  16
HETATM   16  O1  UNL     1      17.368 -19.042 -15.073  1.00  0.00    -0.399 OA
ATOM     17  H1  UNL     1      17.671 -19.886 -14.760  1.00  0.00     0.209 HD
ENDBRANCH  15  16
ENDBRANCH  14  15
BRANCH  14  18
HETATM   18  N1  UNL     1      14.876 -19.354 -15.756  1.00  0.00    -0.239 N 
HETATM   19  C13 UNL     1      14.127 -18.151 -15.905  1.00  0.00     0.249 C 
HETATM   20  O2  UNL     1      14.347 -17.395 -16.890  1.00  0.00    -0.271 OA
BRANCH  18  21
HETATM   21  N2  UNL     1      14.617 -20.148 -14.643  1.00  0.00    -0.244 N 
HETATM   22  N3  UNL     1      15.254 -20.081 -13.559  1.00  0.00    -0.331 N 
ATOM     23  H32 UNL     1      16.006 -19.394 -13.510  1.00  0.00     0.178 HD
ATOM     24  H31 UNL     1      15.064 -20.663 -12.743  1.00  0.00     0.178 HD
ATOM     25  H2  UNL     1      13.861 -20.829 -14.710  1.00  0.00     0.208 HD
ENDBRANCH  18  21
BRANCH  19  26
HETATM   26  C14 UNL     1      13.092 -17.751 -14.936  1.00  0.00     0.189 C 
HETATM   27 BR1  UNL     1      13.861 -16.583 -13.563  1.00  0.00    -0.087 Br
ENDBRANCH  19  26
ENDBRANCH  14  18
ENDBRANCH  13  14
ENDBRANCH  12  13
ENDBRANCH   7  11
TORSDOF 8
ENDMDL
