MODEL 1
REMARK VINA RESULT: -6.178259021      0.000      0.000
REMARK  5 active torsions:
REMARK  status: ('A' for Active; 'I' for Inactive)
REMARK    1  A    between atoms: C5_5  and  C6_6 
REMARK    2  A    between atoms: C5_5  and  C8_13 
REMARK       I    between atoms: C6_6  and  N1_8 
REMARK    3  A    between atoms: C8_13  and  O2_14 
REMARK    4  A    between atoms: C8_13  and  C9_16 
REMARK    5  A    between atoms: C15_23  and  C16_24 
ROOT
HETATM    1  C8  UNL     1      14.925 -21.263 -17.677  1.00  0.00     0.166 C 
ENDROOT
BRANCH   1   2
HETATM    2  C5  UNL     1      13.881 -20.379 -18.301  1.00  0.00     0.078 A 
HETATM    3  C2  UNL     1      12.746 -20.867 -19.065  1.00  0.00    -0.027 A 
HETATM    4  C1  UNL     1      11.506 -20.006 -19.166  1.00  0.00     0.016 C 
HETATM    5  C3  UNL     1      12.461 -22.313 -19.425  1.00  0.00     0.016 C 
HETATM    6  C4  UNL     1      13.921 -20.307 -19.880  1.00  0.00     0.033 A 
BRANCH   2   7
HETATM    7  C6  UNL     1      13.807 -18.995 -17.720  1.00  0.00     0.236 C 
HETATM    8  O1  UNL     1      14.341 -18.046 -18.359  1.00  0.00    -0.272 OA
HETATM    9  N1  UNL     1      13.190 -18.659 -16.507  1.00  0.00    -0.303 N 
HETATM   10  C7  UNL     1      13.665 -17.731 -15.762  1.00  0.00     0.203 C 
ATOM     11  H1  UNL     1      12.351 -19.161 -16.213  1.00  0.00     0.171 HD
HETATM   12  N2  UNL     1      13.004 -17.432 -14.551  1.00  0.00    -0.066 NA
HETATM   13  N3  UNL     1      14.846 -17.011 -16.158  1.00  0.00    -0.066 NA
ENDBRANCH   2   7
ENDBRANCH   1   2
BRANCH   1  14
HETATM   14  O2  UNL     1      15.842 -20.424 -17.042  1.00  0.00    -0.390 OA
ATOM     15  H2  UNL     1      15.434 -19.569 -16.977  1.00  0.00     0.210 HD
ENDBRANCH   1  14
BRANCH   1  16
HETATM   16  C9  UNL     1      14.520 -22.428 -16.901  1.00  0.00    -0.040 C 
HETATM   17  C10 UNL     1      15.754 -23.313 -16.562  1.00  0.00     0.066 C 
HETATM   18  C11 UNL     1      15.205 -24.676 -16.364  1.00  0.00     0.246 C 
HETATM   19  N4  UNL     1      14.154 -24.812 -15.434  1.00  0.00    -0.054 N 
HETATM   20  C12 UNL     1      13.449 -26.058 -15.828  1.00  0.00     0.277 C 
HETATM   21  C13 UNL     1      14.791 -25.181 -14.152  1.00  0.00     0.277 C 
HETATM   22  C14 UNL     1      13.216 -23.775 -15.290  1.00  0.00     0.209 C 
HETATM   23  C15 UNL     1      13.609 -22.395 -15.770  1.00  0.00    -0.020 C 
BRANCH  23  24
HETATM   24  C16 UNL     1      13.799 -21.505 -14.600  1.00  0.00     0.125 C 
HETATM   25 BR1  UNL     1      13.202 -22.029 -12.894  1.00  0.00    -0.091 Br
ENDBRANCH  23  24
ENDBRANCH   1  16
TORSDOF 5
ENDMDL
MODEL 2
REMARK VINA RESULT: -6.152362026      2.589      4.448
REMARK  5 active torsions:
REMARK  status: ('A' for Active; 'I' for Inactive)
REMARK    1  A    between atoms: C5_5  and  C6_6 
REMARK    2  A    between atoms: C5_5  and  C8_13 
REMARK       I    between atoms: C6_6  and  N1_8 
REMARK    3  A    between atoms: C8_13  and  O2_14 
REMARK    4  A    between atoms: C8_13  and  C9_16 
REMARK    5  A    between atoms: C15_23  and  C16_24 
ROOT
HETATM    1  C8  UNL     1      15.027 -20.537 -17.342  1.00  0.00     0.166 C 
ENDROOT
BRANCH   1   2
HETATM    2  C5  UNL     1      14.663 -19.547 -16.271  1.00  0.00     0.078 A 
HETATM    3  C2  UNL     1      13.988 -18.285 -16.520  1.00  0.00    -0.027 A 
HETATM    4  C1  UNL     1      13.193 -17.646 -15.402  1.00  0.00     0.016 C 
HETATM    5  C3  UNL     1      13.611 -17.720 -17.876  1.00  0.00     0.016 C 
HETATM    6  C4  UNL     1      15.504 -18.209 -16.283  1.00  0.00     0.033 A 
BRANCH   2   7
HETATM    7  C6  UNL     1      14.616 -20.119 -14.883  1.00  0.00     0.236 C 
HETATM    8  O1  UNL     1      15.624 -19.969 -14.137  1.00  0.00    -0.272 OA
HETATM    9  N1  UNL     1      13.534 -20.821 -14.333  1.00  0.00    -0.303 N 
HETATM   10  C7  UNL     1      13.724 -21.786 -13.513  1.00  0.00     0.203 C 
ATOM     11  H1  UNL     1      12.582 -20.558 -14.589  1.00  0.00     0.171 HD
HETATM   12  N2  UNL     1      12.599 -22.459 -12.988  1.00  0.00    -0.066 NA
HETATM   13  N3  UNL     1      15.058 -22.173 -13.138  1.00  0.00    -0.066 NA
ENDBRANCH   2   7
ENDBRANCH   1   2
BRANCH   1  14
HETATM   14  O2  UNL     1      15.868 -21.483 -16.754  1.00  0.00    -0.390 OA
ATOM     15  H2  UNL     1      16.514 -21.724 -17.407  1.00  0.00     0.210 HD
ENDBRANCH   1  14
BRANCH   1  16
HETATM   16  C9  UNL     1      13.990 -21.091 -18.203  1.00  0.00    -0.040 C 
HETATM   17  C10 UNL     1      14.602 -21.590 -19.543  1.00  0.00     0.066 C 
HETATM   18  C11 UNL     1      13.486 -21.532 -20.519  1.00  0.00     0.246 C 
HETATM   19  N4  UNL     1      12.297 -22.203 -20.170  1.00  0.00    -0.054 N 
HETATM   20  C12 UNL     1      11.234 -21.548 -20.973  1.00  0.00     0.277 C 
HETATM   21  C13 UNL     1      12.394 -23.547 -20.779  1.00  0.00     0.277 C 
HETATM   22  C14 UNL     1      11.896 -22.251 -18.822  1.00  0.00     0.209 C 
HETATM   23  C15 UNL     1      12.948 -22.004 -17.763  1.00  0.00    -0.020 C 
BRANCH  23  24
HETATM   24  C16 UNL     1      13.228 -23.271 -17.046  1.00  0.00     0.125 C 
HETATM   25 BR1  UNL     1      11.881 -24.568 -16.837  1.00  0.00    -0.091 Br
ENDBRANCH  23  24
ENDBRANCH   1  16
TORSDOF 5
ENDMDL
MODEL 3
REMARK VINA RESULT: -6.059079323      3.191      4.463
REMARK  5 active torsions:
REMARK  status: ('A' for Active; 'I' for Inactive)
REMARK    1  A    between atoms: C5_5  and  C6_6 
REMARK    2  A    between atoms: C5_5  and  C8_13 
REMARK       I    between atoms: C6_6  and  N1_8 
REMARK    3  A    between atoms: C8_13  and  O2_14 
REMARK    4  A    between atoms: C8_13  and  C9_16 
REMARK    5  A    between atoms: C15_23  and  C16_24 
ROOT
HETATM    1  C8  UNL     1      13.576 -20.024 -15.540  1.00  0.00     0.166 C 
ENDROOT
BRANCH   1   2
HETATM    2  C5  UNL     1      14.213 -18.725 -15.947  1.00  0.00     0.078 A 
HETATM    3  C2  UNL     1      14.279 -17.545 -15.101  1.00  0.00    -0.027 A 
HETATM    4  C1  UNL     1      15.371 -16.527 -15.347  1.00  0.00     0.016 C 
HETATM    5  C3  UNL     1      13.664 -17.394 -13.723  1.00  0.00     0.016 C 
HETATM    6  C4  UNL     1      13.205 -17.534 -16.199  1.00  0.00     0.033 A 
BRANCH   2   7
HETATM    7  C6  UNL     1      15.181 -18.836 -17.091  1.00  0.00     0.236 C 
HETATM    8  O1  UNL     1      14.782 -18.525 -18.248  1.00  0.00    -0.272 OA
HETATM    9  N1  UNL     1      16.512 -19.266 -16.986  1.00  0.00    -0.303 N 
HETATM   10  C7  UNL     1      17.061 -19.941 -17.926  1.00  0.00     0.203 C 
ATOM     11  H1  UNL     1      17.050 -19.037 -16.150  1.00  0.00     0.171 HD
HETATM   12  N2  UNL     1      18.404 -20.348 -17.769  1.00  0.00    -0.066 NA
HETATM   13  N3  UNL     1      16.321 -20.274 -19.114  1.00  0.00    -0.066 NA
ENDBRANCH   2   7
ENDBRANCH   1   2
BRANCH   1  14
HETATM   14  O2  UNL     1      13.705 -20.897 -16.621  1.00  0.00    -0.390 OA
ATOM     15  H2  UNL     1      13.748 -21.776 -16.263  1.00  0.00     0.210 HD
ENDBRANCH   1  14
BRANCH   1  16
HETATM   16  C9  UNL     1      13.883 -20.608 -14.241  1.00  0.00    -0.040 C 
HETATM   17  C10 UNL     1      13.122 -21.952 -14.053  1.00  0.00     0.066 C 
HETATM   18  C11 UNL     1      12.993 -22.117 -12.585  1.00  0.00     0.246 C 
HETATM   19  N4  UNL     1      14.180 -22.043 -11.827  1.00  0.00    -0.054 N 
HETATM   20  C12 UNL     1      13.741 -21.677 -10.457  1.00  0.00     0.277 C 
HETATM   21  C13 UNL     1      14.647 -23.436 -11.666  1.00  0.00     0.277 C 
HETATM   22  C14 UNL     1      15.209 -21.173 -12.232  1.00  0.00     0.209 C 
HETATM   23  C15 UNL     1      15.217 -20.711 -13.672  1.00  0.00    -0.020 C 
BRANCH  23  24
HETATM   24  C16 UNL     1      16.356 -21.338 -14.382  1.00  0.00     0.125 C 
HETATM   25 BR1  UNL     1      16.198 -23.072 -15.098  1.00  0.00    -0.091 Br
ENDBRANCH  23  24
ENDBRANCH   1  16
TORSDOF 5
ENDMDL
MODEL 4
REMARK VINA RESULT: -6.004213045      2.838      4.840
REMARK  5 active torsions:
REMARK  status: ('A' for Active; 'I' for Inactive)
REMARK    1  A    between atoms: C5_5  and  C6_6 
REMARK    2  A    between atoms: C5_5  and  C8_13 
REMARK       I    between atoms: C6_6  and  N1_8 
REMARK    3  A    between atoms: C8_13  and  O2_14 
REMARK    4  A    between atoms: C8_13  and  C9_16 
REMARK    5  A    between atoms: C15_23  and  C16_24 
ROOT
HETATM    1  C8  UNL     1      14.925 -20.547 -16.999  1.00  0.00     0.166 C 
ENDROOT
BRANCH   1   2
HETATM    2  C5  UNL     1      14.475 -19.881 -15.729  1.00  0.00     0.078 A 
HETATM    3  C2  UNL     1      13.870 -18.561 -15.666  1.00  0.00    -0.027 A 
HETATM    4  C1  UNL     1      12.976 -18.220 -14.494  1.00  0.00     0.016 C 
HETATM    5  C3  UNL     1      13.661 -17.613 -16.832  1.00  0.00     0.016 C 
HETATM    6  C4  UNL     1      15.352 -18.648 -15.271  1.00  0.00     0.033 A 
BRANCH   2   7
HETATM    7  C6  UNL     1      14.259 -20.820 -14.576  1.00  0.00     0.236 C 
HETATM    8  O1  UNL     1      13.365 -21.706 -14.683  1.00  0.00    -0.272 OA
HETATM    9  N1  UNL     1      14.971 -20.798 -13.369  1.00  0.00    -0.303 N 
HETATM   10  C7  UNL     1      14.400 -21.099 -12.262  1.00  0.00     0.203 C 
ATOM     11  H1  UNL     1      15.958 -20.539 -13.372  1.00  0.00     0.171 HD
HETATM   12  N2  UNL     1      15.165 -21.061 -11.075  1.00  0.00    -0.066 NA
HETATM   13  N3  UNL     1      13.010 -21.468 -12.235  1.00  0.00    -0.066 NA
ENDBRANCH   2   7
ENDBRANCH   1   2
BRANCH   1  14
HETATM   14  O2  UNL     1      15.774 -21.592 -16.633  1.00  0.00    -0.390 OA
ATOM     15  H2  UNL     1      16.543 -21.530 -17.186  1.00  0.00     0.210 HD
ENDBRANCH   1  14
BRANCH   1  16
HETATM   16  C9  UNL     1      13.950 -20.881 -18.029  1.00  0.00    -0.040 C 
HETATM   17  C10 UNL     1      14.618 -20.881 -19.434  1.00  0.00     0.066 C 
HETATM   18  C11 UNL     1      13.512 -20.606 -20.384  1.00  0.00     0.246 C 
HETATM   19  N4  UNL     1      12.383 -21.446 -20.308  1.00  0.00    -0.054 N 
HETATM   20  C12 UNL     1      11.275 -20.658 -20.905  1.00  0.00     0.277 C 
HETATM   21  C13 UNL     1      12.604 -22.516 -21.304  1.00  0.00     0.277 C 
HETATM   22  C14 UNL     1      11.973 -21.949 -19.060  1.00  0.00     0.209 C 
HETATM   23  C15 UNL     1      12.988 -21.967 -17.938  1.00  0.00    -0.020 C 
BRANCH  23  24
HETATM   24  C16 UNL     1      13.370 -23.368 -17.645  1.00  0.00     0.125 C 
HETATM   25 BR1  UNL     1      12.157 -24.532 -16.798  1.00  0.00    -0.091 Br
ENDBRANCH  23  24
ENDBRANCH   1  16
TORSDOF 5
ENDMDL
MODEL 5
REMARK VINA RESULT: -5.973683425      3.293      4.668
REMARK  5 active torsions:
REMARK  status: ('A' for Active; 'I' for Inactive)
REMARK    1  A    between atoms: C5_5  and  C6_6 
REMARK    2  A    between atoms: C5_5  and  C8_13 
REMARK       I    between atoms: C6_6  and  N1_8 
REMARK    3  A    between atoms: C8_13  and  O2_14 
REMARK    4  A    between atoms: C8_13  and  C9_16 
REMARK    5  A    between atoms: C15_23  and  C16_24 
ROOT
HETATM    1  C8  UNL     1      14.135 -22.910 -17.119  1.00  0.00     0.166 C 
ENDROOT
BRANCH   1   2
HETATM    2  C5  UNL     1      12.929 -23.387 -17.880  1.00  0.00     0.078 A 
HETATM    3  C2  UNL     1      11.986 -24.374 -17.383  1.00  0.00    -0.027 A 
HETATM    4  C1  UNL     1      10.574 -24.378 -17.928  1.00  0.00     0.016 C 
HETATM    5  C3  UNL     1      12.089 -25.137 -16.076  1.00  0.00     0.016 C 
HETATM    6  C4  UNL     1      13.015 -24.874 -18.408  1.00  0.00     0.033 A 
BRANCH   2   7
HETATM    7  C6  UNL     1      12.485 -22.468 -18.983  1.00  0.00     0.236 C 
HETATM    8  O1  UNL     1      11.922 -21.382 -18.669  1.00  0.00    -0.272 OA
HETATM    9  N1  UNL     1      12.641 -22.715 -20.354  1.00  0.00    -0.303 N 
HETATM   10  C7  UNL     1      11.761 -22.322 -21.197  1.00  0.00     0.203 C 
ATOM     11  H1  UNL     1      13.467 -23.215 -20.684  1.00  0.00     0.171 HD
HETATM   12  N2  UNL     1      11.968 -22.597 -22.567  1.00  0.00    -0.066 NA
HETATM   13  N3  UNL     1      10.588 -21.617 -20.753  1.00  0.00    -0.066 NA
ENDBRANCH   2   7
ENDBRANCH   1   2
BRANCH   1  14
HETATM   14  O2  UNL     1      14.855 -22.079 -17.977  1.00  0.00    -0.390 OA
ATOM     15  H2  UNL     1      15.776 -22.212 -17.783  1.00  0.00     0.210 HD
ENDBRANCH   1  14
BRANCH   1  16
HETATM   16  C9  UNL     1      13.983 -22.406 -15.760  1.00  0.00    -0.040 C 
HETATM   17  C10 UNL     1      15.101 -22.974 -14.839  1.00  0.00     0.066 C 
HETATM   18  C11 UNL     1      14.528 -22.935 -13.472  1.00  0.00     0.246 C 
HETATM   19  N4  UNL     1      14.022 -21.697 -13.027  1.00  0.00    -0.054 N 
HETATM   20  C12 UNL     1      13.054 -22.037 -11.955  1.00  0.00     0.277 C 
HETATM   21  C13 UNL     1      15.125 -21.049 -12.286  1.00  0.00     0.277 C 
HETATM   22  C14 UNL     1      13.408 -20.827 -13.947  1.00  0.00     0.209 C 
HETATM   23  C15 UNL     1      13.716 -21.019 -15.415  1.00  0.00    -0.020 C 
BRANCH  23  24
HETATM   24  C16 UNL     1      14.545 -19.889 -15.895  1.00  0.00     0.125 C 
HETATM   25 BR1  UNL     1      13.858 -18.664 -17.147  1.00  0.00    -0.091 Br
ENDBRANCH  23  24
ENDBRANCH   1  16
TORSDOF 5
ENDMDL
