MODEL 1
REMARK VINA RESULT: -7.302697157      0.000      0.000
REMARK  6 active torsions:
REMARK  status: ('A' for Active; 'I' for Inactive)
REMARK    1  A    between atoms: C3_5  and  C4_6 
REMARK    2  A    between atoms: C11_18  and  O1_19 
REMARK    3  A    between atoms: O1_19  and  C12_20 
REMARK    4  A    between atoms: C12_20  and  C13_21 
REMARK    5  A    between atoms: C13_21  and  C14_22 
REMARK    6  A    between atoms: C14_22  and  C15_23 
ROOT
HETATM    1  C1  UNL     1     -28.827  -8.389 -28.355  1.00  0.00     0.124 A 
HETATM    2  N1  UNL     1     -29.311  -7.318 -29.009  1.00  0.00    -0.372 N 
ATOM      3  H1  UNL     1     -28.740  -6.473 -29.044  1.00  0.00     0.164 HD
HETATM    4  C2  UNL     1     -30.516  -7.301 -29.625  1.00  0.00     0.095 A 
HETATM    5  C3  UNL     1     -31.276  -8.437 -29.575  1.00  0.00    -0.034 A 
HETATM    6  C10 UNL     1     -30.792  -9.553 -28.905  1.00  0.00     0.047 A 
HETATM    7  C11 UNL     1     -29.565  -9.559 -28.282  1.00  0.00     0.084 A 
ENDROOT
BRANCH   5   8
HETATM    8  C4  UNL     1     -32.609  -8.539 -30.211  1.00  0.00     0.054 C 
HETATM    9  C5  UNL     1     -33.368  -7.249 -29.875  1.00  0.00     0.046 C 
HETATM   10  C6  UNL     1     -34.803  -7.800 -29.862  1.00  0.00     0.204 C 
HETATM   11  C7  UNL     1     -35.107  -8.233 -31.273  1.00  0.00     0.147 C 
HETATM   12  N3  UNL     1     -34.615  -8.940 -28.978  1.00  0.00    -0.063 N 
HETATM   13  N2  UNL     1     -35.137  -9.644 -31.464  1.00  0.00    -0.417 N 
HETATM   14  C8  UNL     1     -34.097 -10.374 -30.789  1.00  0.00     0.147 C 
ATOM     15  H2  UNL     1     -35.844 -10.104 -32.037  1.00  0.00     0.153 HD
HETATM   16  C9  UNL     1     -33.486  -9.606 -29.643  1.00  0.00     0.212 C 
ATOM     17  H32 UNL     1     -34.480  -8.719 -27.991  1.00  0.00     0.278 HD
ATOM     18  H31 UNL     1     -35.441  -9.519 -28.820  1.00  0.00     0.278 HD
ENDBRANCH   5   8
BRANCH   7  19
HETATM   19  O1  UNL     1     -29.046 -10.651 -27.603  1.00  0.00    -0.350 OA
BRANCH  19  20
HETATM   20  C12 UNL     1     -28.781 -11.816 -28.377  1.00  0.00     0.175 C 
BRANCH  20  21
HETATM   21  C13 UNL     1     -27.316 -11.860 -28.768  1.00  0.00     0.027 C 
BRANCH  21  22
HETATM   22  C14 UNL     1     -26.747 -13.175 -28.220  1.00  0.00     0.007 C 
BRANCH  22  23
HETATM   23  C15 UNL     1     -26.590 -12.982 -26.727  1.00  0.00    -0.014 C 
HETATM   24  C16 UNL     1     -25.452 -12.061 -26.340  1.00  0.00     0.005 C 
HETATM   25  C17 UNL     1     -25.080 -13.063 -25.267  1.00  0.00     0.001 C 
HETATM   26  C18 UNL     1     -25.776 -14.123 -26.104  1.00  0.00     0.005 C 
ENDBRANCH  22  23
ENDBRANCH  21  22
ENDBRANCH  20  21
ENDBRANCH  19  20
ENDBRANCH   7  19
TORSDOF 6
ENDMDL
MODEL 2
REMARK VINA RESULT: -7.151008378      6.385      8.778
REMARK  6 active torsions:
REMARK  status: ('A' for Active; 'I' for Inactive)
REMARK    1  A    between atoms: C3_5  and  C4_6 
REMARK    2  A    between atoms: C11_18  and  O1_19 
REMARK    3  A    between atoms: O1_19  and  C12_20 
REMARK    4  A    between atoms: C12_20  and  C13_21 
REMARK    5  A    between atoms: C13_21  and  C14_22 
REMARK    6  A    between atoms: C14_22  and  C15_23 
ROOT
HETATM    1  C1  UNL     1     -24.836 -11.172 -33.887  1.00  0.00     0.124 A 
HETATM    2  N1  UNL     1     -24.645 -11.657 -35.127  1.00  0.00    -0.372 N 
ATOM      3  H1  UNL     1     -24.388 -11.004 -35.867  1.00  0.00     0.164 HD
HETATM    4  C2  UNL     1     -24.777 -12.966 -35.444  1.00  0.00     0.095 A 
HETATM    5  C3  UNL     1     -25.121 -13.835 -34.447  1.00  0.00    -0.034 A 
HETATM    6  C10 UNL     1     -25.321 -13.352 -33.160  1.00  0.00     0.047 A 
HETATM    7  C11 UNL     1     -25.185 -12.019 -32.848  1.00  0.00     0.084 A 
ENDROOT
BRANCH   5   8
HETATM    8  C4  UNL     1     -25.294 -15.288 -34.671  1.00  0.00     0.054 C 
HETATM    9  C5  UNL     1     -26.606 -15.470 -35.447  1.00  0.00     0.046 C 
HETATM   10  C6  UNL     1     -27.018 -16.852 -34.918  1.00  0.00     0.204 C 
HETATM   11  C7  UNL     1     -25.980 -17.827 -35.411  1.00  0.00     0.147 C 
HETATM   12  N3  UNL     1     -26.894 -16.610 -33.488  1.00  0.00    -0.063 N 
HETATM   13  N2  UNL     1     -25.089 -18.299 -34.405  1.00  0.00    -0.417 N 
HETATM   14  C8  UNL     1     -24.628 -17.299 -33.478  1.00  0.00     0.147 C 
ATOM     15  H2  UNL     1     -24.798 -19.275 -34.346  1.00  0.00     0.153 HD
HETATM   16  C9  UNL     1     -25.522 -16.085 -33.430  1.00  0.00     0.212 C 
ATOM     17  H32 UNL     1     -27.613 -16.017 -33.074  1.00  0.00     0.278 HD
ATOM     18  H31 UNL     1     -27.088 -17.410 -32.885  1.00  0.00     0.278 HD
ENDBRANCH   5   8
BRANCH   7  19
HETATM   19  O1  UNL     1     -25.375 -11.497 -31.577  1.00  0.00    -0.350 OA
BRANCH  19  20
HETATM   20  C12 UNL     1     -26.695 -11.568 -31.049  1.00  0.00     0.175 C 
BRANCH  20  21
HETATM   21  C13 UNL     1     -26.645 -11.866 -29.561  1.00  0.00     0.027 C 
BRANCH  21  22
HETATM   22  C14 UNL     1     -27.336 -13.220 -29.354  1.00  0.00     0.007 C 
BRANCH  22  23
HETATM   23  C15 UNL     1     -27.353 -13.465 -27.861  1.00  0.00    -0.014 C 
HETATM   24  C16 UNL     1     -26.463 -12.529 -27.071  1.00  0.00     0.005 C 
HETATM   25  C17 UNL     1     -25.994 -13.734 -26.281  1.00  0.00     0.001 C 
HETATM   26  C18 UNL     1     -26.386 -14.590 -27.474  1.00  0.00     0.005 C 
ENDBRANCH  22  23
ENDBRANCH  21  22
ENDBRANCH  20  21
ENDBRANCH  19  20
ENDBRANCH   7  19
TORSDOF 6
ENDMDL
MODEL 3
REMARK VINA RESULT: -7.108543291      6.047      8.487
REMARK  6 active torsions:
REMARK  status: ('A' for Active; 'I' for Inactive)
REMARK    1  A    between atoms: C3_5  and  C4_6 
REMARK    2  A    between atoms: C11_18  and  O1_19 
REMARK    3  A    between atoms: O1_19  and  C12_20 
REMARK    4  A    between atoms: C12_20  and  C13_21 
REMARK    5  A    between atoms: C13_21  and  C14_22 
REMARK    6  A    between atoms: C14_22  and  C15_23 
ROOT
HETATM    1  C1  UNL     1     -25.468 -12.135 -32.313  1.00  0.00     0.124 A 
HETATM    2  N1  UNL     1     -24.757 -12.753 -33.273  1.00  0.00    -0.372 N 
ATOM      3  H1  UNL     1     -23.987 -12.243 -33.708  1.00  0.00     0.164 HD
HETATM    4  C2  UNL     1     -25.007 -14.014 -33.693  1.00  0.00     0.095 A 
HETATM    5  C3  UNL     1     -26.039 -14.691 -33.104  1.00  0.00    -0.034 A 
HETATM    6  C10 UNL     1     -26.785 -14.069 -32.110  1.00  0.00     0.047 A 
HETATM    7  C11 UNL     1     -26.521 -12.786 -31.692  1.00  0.00     0.084 A 
ENDROOT
BRANCH   5   8
HETATM    8  C4  UNL     1     -26.409 -16.075 -33.478  1.00  0.00     0.054 C 
HETATM    9  C5  UNL     1     -25.124 -16.775 -33.939  1.00  0.00     0.046 C 
HETATM   10  C6  UNL     1     -25.726 -17.756 -34.957  1.00  0.00     0.204 C 
HETATM   11  C7  UNL     1     -26.588 -18.711 -34.172  1.00  0.00     0.147 C 
HETATM   12  N3  UNL     1     -26.527 -16.829 -35.742  1.00  0.00    -0.063 N 
HETATM   13  N2  UNL     1     -27.989 -18.514 -34.337  1.00  0.00    -0.417 N 
HETATM   14  C8  UNL     1     -28.415 -17.139 -34.347  1.00  0.00     0.147 C 
ATOM     15  H2  UNL     1     -28.642 -19.290 -34.439  1.00  0.00     0.153 HD
HETATM   16  C9  UNL     1     -27.298 -16.179 -34.672  1.00  0.00     0.212 C 
ATOM     17  H32 UNL     1     -26.006 -16.202 -36.355  1.00  0.00     0.278 HD
ATOM     18  H31 UNL     1     -27.076 -17.245 -36.494  1.00  0.00     0.278 HD
ENDBRANCH   5   8
BRANCH   7  19
HETATM   19  O1  UNL     1     -27.240 -12.129 -30.704  1.00  0.00    -0.350 OA
BRANCH  19  20
HETATM   20  C12 UNL     1     -28.504 -12.686 -30.359  1.00  0.00     0.175 C 
BRANCH  20  21
HETATM   21  C13 UNL     1     -28.419 -13.376 -29.010  1.00  0.00     0.027 C 
BRANCH  21  22
HETATM   22  C14 UNL     1     -27.871 -12.345 -28.015  1.00  0.00     0.007 C 
BRANCH  22  23
HETATM   23  C15 UNL     1     -26.522 -12.863 -27.564  1.00  0.00    -0.014 C 
HETATM   24  C16 UNL     1     -26.473 -14.363 -27.362  1.00  0.00     0.005 C 
HETATM   25  C17 UNL     1     -25.718 -14.107 -26.073  1.00  0.00     0.001 C 
HETATM   26  C18 UNL     1     -26.358 -12.729 -26.045  1.00  0.00     0.005 C 
ENDBRANCH  22  23
ENDBRANCH  21  22
ENDBRANCH  20  21
ENDBRANCH  19  20
ENDBRANCH   7  19
TORSDOF 6
ENDMDL
MODEL 4
REMARK VINA RESULT: -7.034354945      6.656      9.088
REMARK  6 active torsions:
REMARK  status: ('A' for Active; 'I' for Inactive)
REMARK    1  A    between atoms: C3_5  and  C4_6 
REMARK    2  A    between atoms: C11_18  and  O1_19 
REMARK    3  A    between atoms: O1_19  and  C12_20 
REMARK    4  A    between atoms: C12_20  and  C13_21 
REMARK    5  A    between atoms: C13_21  and  C14_22 
REMARK    6  A    between atoms: C14_22  and  C15_23 
ROOT
HETATM    1  C1  UNL     1     -25.240 -12.856 -33.202  1.00  0.00     0.124 A 
HETATM    2  N1  UNL     1     -24.763 -13.535 -34.261  1.00  0.00    -0.372 N 
ATOM      3  H1  UNL     1     -24.107 -13.062 -34.883  1.00  0.00     0.164 HD
HETATM    4  C2  UNL     1     -25.106 -14.813 -34.544  1.00  0.00     0.095 A 
HETATM    5  C3  UNL     1     -25.985 -15.441 -33.706  1.00  0.00    -0.034 A 
HETATM    6  C10 UNL     1     -26.487 -14.755 -32.607  1.00  0.00     0.047 A 
HETATM    7  C11 UNL     1     -26.132 -13.456 -32.328  1.00  0.00     0.084 A 
ENDROOT
BRANCH   5   8
HETATM    8  C4  UNL     1     -26.434 -16.836 -33.911  1.00  0.00     0.054 C 
HETATM    9  C5  UNL     1     -25.180 -17.679 -34.172  1.00  0.00     0.046 C 
HETATM   10  C6  UNL     1     -25.787 -18.754 -35.088  1.00  0.00     0.204 C 
HETATM   11  C7  UNL     1     -26.770 -19.526 -34.247  1.00  0.00     0.147 C 
HETATM   12  N3  UNL     1     -26.460 -17.897 -36.052  1.00  0.00    -0.063 N 
HETATM   13  N2  UNL     1     -28.137 -19.261 -34.544  1.00  0.00    -0.417 N 
HETATM   14  C8  UNL     1     -28.455 -17.877 -34.777  1.00  0.00     0.147 C 
ATOM     15  H2  UNL     1     -28.840 -19.998 -34.588  1.00  0.00     0.153 HD
HETATM   16  C9  UNL     1     -27.248 -17.050 -35.145  1.00  0.00     0.212 C 
ATOM     17  H32 UNL     1     -25.853 -17.401 -36.705  1.00  0.00     0.278 HD
ATOM     18  H31 UNL     1     -26.988 -18.378 -36.780  1.00  0.00     0.278 HD
ENDBRANCH   5   8
BRANCH   7  19
HETATM   19  O1  UNL     1     -26.610 -12.737 -31.242  1.00  0.00    -0.350 OA
BRANCH  19  20
HETATM   20  C12 UNL     1     -27.993 -12.886 -30.938  1.00  0.00     0.175 C 
BRANCH  20  21
HETATM   21  C13 UNL     1     -28.165 -13.304 -29.489  1.00  0.00     0.027 C 
BRANCH  21  22
HETATM   22  C14 UNL     1     -27.241 -12.408 -28.654  1.00  0.00     0.007 C 
BRANCH  22  23
HETATM   23  C15 UNL     1     -27.146 -13.051 -27.287  1.00  0.00    -0.014 C 
HETATM   24  C16 UNL     1     -25.972 -12.572 -26.460  1.00  0.00     0.005 C 
HETATM   25  C17 UNL     1     -25.719 -14.018 -26.084  1.00  0.00     0.001 C 
HETATM   26  C18 UNL     1     -26.439 -14.410 -27.364  1.00  0.00     0.005 C 
ENDBRANCH  22  23
ENDBRANCH  21  22
ENDBRANCH  20  21
ENDBRANCH  19  20
ENDBRANCH   7  19
TORSDOF 6
ENDMDL
MODEL 5
REMARK VINA RESULT: -6.933497875      6.912      9.145
REMARK  6 active torsions:
REMARK  status: ('A' for Active; 'I' for Inactive)
REMARK    1  A    between atoms: C3_5  and  C4_6 
REMARK    2  A    between atoms: C11_18  and  O1_19 
REMARK    3  A    between atoms: O1_19  and  C12_20 
REMARK    4  A    between atoms: C12_20  and  C13_21 
REMARK    5  A    between atoms: C13_21  and  C14_22 
REMARK    6  A    between atoms: C14_22  and  C15_23 
ROOT
HETATM    1  C1  UNL     1     -26.080 -13.166 -32.618  1.00  0.00     0.124 A 
HETATM    2  N1  UNL     1     -25.122 -13.382 -33.538  1.00  0.00    -0.372 N 
ATOM      3  H1  UNL     1     -24.399 -12.673 -33.658  1.00  0.00     0.164 HD
HETATM    4  C2  UNL     1     -25.067 -14.491 -34.312  1.00  0.00     0.095 A 
HETATM    5  C3  UNL     1     -26.039 -15.438 -34.144  1.00  0.00    -0.034 A 
HETATM    6  C10 UNL     1     -27.036 -15.232 -33.198  1.00  0.00     0.047 A 
HETATM    7  C11 UNL     1     -27.083 -14.101 -32.417  1.00  0.00     0.084 A 
ENDROOT
BRANCH   5   8
HETATM    8  C4  UNL     1     -26.084 -16.691 -34.930  1.00  0.00     0.054 C 
HETATM    9  C5  UNL     1     -26.585 -16.324 -36.333  1.00  0.00     0.046 C 
HETATM   10  C6  UNL     1     -27.298 -17.636 -36.695  1.00  0.00     0.204 C 
HETATM   11  C7  UNL     1     -26.229 -18.694 -36.782  1.00  0.00     0.147 C 
HETATM   12  N3  UNL     1     -28.120 -17.799 -35.505  1.00  0.00    -0.063 N 
HETATM   13  N2  UNL     1     -26.223 -19.618 -35.699  1.00  0.00    -0.417 N 
HETATM   14  C8  UNL     1     -26.433 -19.038 -34.399  1.00  0.00     0.147 C 
ATOM     15  H2  UNL     1     -26.079 -20.619 -35.834  1.00  0.00     0.153 HD
HETATM   16  C9  UNL     1     -27.094 -17.683 -34.459  1.00  0.00     0.212 C 
ATOM     17  H32 UNL     1     -28.911 -17.161 -35.422  1.00  0.00     0.278 HD
ATOM     18  H31 UNL     1     -28.692 -18.644 -35.474  1.00  0.00     0.278 HD
ENDBRANCH   5   8
BRANCH   7  19
HETATM   19  O1  UNL     1     -28.059 -13.858 -31.462  1.00  0.00    -0.350 OA
BRANCH  19  20
HETATM   20  C12 UNL     1     -27.721 -12.948 -30.421  1.00  0.00     0.175 C 
BRANCH  20  21
HETATM   21  C13 UNL     1     -28.388 -13.369 -29.124  1.00  0.00     0.027 C 
BRANCH  21  22
HETATM   22  C14 UNL     1     -27.900 -12.403 -28.037  1.00  0.00     0.007 C 
BRANCH  22  23
HETATM   23  C15 UNL     1     -26.541 -12.907 -27.598  1.00  0.00    -0.014 C 
HETATM   24  C16 UNL     1     -26.490 -14.398 -27.340  1.00  0.00     0.005 C 
HETATM   25  C17 UNL     1     -25.704 -14.094 -26.080  1.00  0.00     0.001 C 
HETATM   26  C18 UNL     1     -26.342 -12.715 -26.090  1.00  0.00     0.005 C 
ENDBRANCH  22  23
ENDBRANCH  21  22
ENDBRANCH  20  21
ENDBRANCH  19  20
ENDBRANCH   7  19
TORSDOF 6
ENDMDL
