MODEL 1
REMARK VINA RESULT: -5.949994524      0.000      0.000
REMARK  6 active torsions:
REMARK  status: ('A' for Active; 'I' for Inactive)
REMARK    1  A    between atoms: C2_2  and  O1_3 
REMARK    2  A    between atoms: O1_3  and  C3_4 
REMARK    3  A    between atoms: C5_6  and  C6_7 
REMARK    4  A    between atoms: C6_7  and  C7_8 
REMARK    5  A    between atoms: C13_18  and  O3_19 
REMARK    6  A    between atoms: O3_19  and  C14_20 
ROOT
HETATM    1  C3  UNL     1     -25.084 -13.339 -33.154  1.00  0.00     0.103 A 
HETATM    2  C4  UNL     1     -25.771 -13.132 -31.982  1.00  0.00     0.047 A 
HETATM    3  C5  UNL     1     -26.142 -11.845 -31.575  1.00  0.00    -0.052 A 
HETATM    4  C11 UNL     1     -25.812 -10.765 -32.362  1.00  0.00     0.029 A 
HETATM    5  C12 UNL     1     -25.121 -10.938 -33.548  1.00  0.00     0.048 A 
HETATM    6  S1  UNL     1     -24.773  -9.480 -34.509  1.00  0.00    -0.050 SA
HETATM    7  C13 UNL     1     -24.761 -12.199 -33.940  1.00  0.00     0.119 A 
ENDROOT
BRANCH   3   8
HETATM    8  C6  UNL     1     -26.866 -11.694 -30.328  1.00  0.00     0.063 C 
BRANCH   8   9
HETATM    9  C7  UNL     1     -27.657 -12.836 -29.827  1.00  0.00     0.089 C 
HETATM   10  C8  UNL     1     -27.044 -13.521 -28.647  1.00  0.00     0.034 C 
HETATM   11  C9  UNL     1     -27.390 -12.616 -27.467  1.00  0.00     0.105 C 
HETATM   12  C10 UNL     1     -28.503 -11.776 -27.970  1.00  0.00     0.217 C 
HETATM   13  O2  UNL     1     -29.009 -10.792 -27.361  1.00  0.00    -0.274 OA
HETATM   14  N1  UNL     1     -28.874 -12.288 -29.236  1.00  0.00    -0.356 N 
ATOM     15  H1  UNL     1     -29.805 -12.277 -29.652  1.00  0.00     0.162 HD
ENDBRANCH   8   9
ENDBRANCH   3   8
BRANCH   1  16
HETATM   16  O1  UNL     1     -24.687 -14.577 -33.611  1.00  0.00    -0.349 OA
BRANCH  16  17
HETATM   17  C2  UNL     1     -25.316 -15.764 -33.250  1.00  0.00     0.171 C 
HETATM   18  C1  UNL     1     -24.525 -17.011 -33.477  1.00  0.00     0.034 C 
ENDBRANCH  16  17
ENDBRANCH   1  16
BRANCH   7  19
HETATM   19  O3  UNL     1     -24.083 -12.416 -35.096  1.00  0.00    -0.347 OA
BRANCH  19  20
HETATM   20  C14 UNL     1     -24.575 -12.414 -36.401  1.00  0.00     0.171 C 
HETATM   21  C15 UNL     1     -25.218 -13.698 -36.845  1.00  0.00     0.034 C 
ENDBRANCH  19  20
ENDBRANCH   7  19
TORSDOF 6
ENDMDL
MODEL 2
REMARK VINA RESULT: -5.947649205      4.291      6.165
REMARK  6 active torsions:
REMARK  status: ('A' for Active; 'I' for Inactive)
REMARK    1  A    between atoms: C2_2  and  O1_3 
REMARK    2  A    between atoms: O1_3  and  C3_4 
REMARK    3  A    between atoms: C5_6  and  C6_7 
REMARK    4  A    between atoms: C6_7  and  C7_8 
REMARK    5  A    between atoms: C13_18  and  O3_19 
REMARK    6  A    between atoms: O3_19  and  C14_20 
ROOT
HETATM    1  C3  UNL     1     -28.747  -9.204 -29.724  1.00  0.00     0.103 A 
HETATM    2  C4  UNL     1     -28.223 -10.322 -29.122  1.00  0.00     0.047 A 
HETATM    3  C5  UNL     1     -27.205 -11.065 -29.730  1.00  0.00    -0.052 A 
HETATM    4  C11 UNL     1     -26.719 -10.670 -30.955  1.00  0.00     0.029 A 
HETATM    5  C12 UNL     1     -27.224  -9.548 -31.590  1.00  0.00     0.048 A 
HETATM    6  S1  UNL     1     -26.504  -9.103 -33.155  1.00  0.00    -0.050 SA
HETATM    7  C13 UNL     1     -28.220  -8.826 -30.989  1.00  0.00     0.119 A 
ENDROOT
BRANCH   3   8
HETATM    8  C6  UNL     1     -26.695 -12.235 -29.043  1.00  0.00     0.063 C 
BRANCH   8   9
HETATM    9  C7  UNL     1     -27.527 -12.856 -27.991  1.00  0.00     0.089 C 
HETATM   10  C8  UNL     1     -27.220 -14.300 -27.757  1.00  0.00     0.034 C 
HETATM   11  C9  UNL     1     -25.953 -14.281 -26.904  1.00  0.00     0.105 C 
HETATM   12  C10 UNL     1     -25.902 -12.902 -26.364  1.00  0.00     0.217 C 
HETATM   13  O2  UNL     1     -24.941 -12.407 -25.710  1.00  0.00    -0.274 OA
HETATM   14  N1  UNL     1     -27.118 -12.269 -26.719  1.00  0.00    -0.356 N 
ATOM     15  H1  UNL     1     -27.609 -11.548 -26.192  1.00  0.00     0.162 HD
ENDBRANCH   8   9
ENDBRANCH   3   8
BRANCH   1  16
HETATM   16  O1  UNL     1     -29.751  -8.430 -29.182  1.00  0.00    -0.349 OA
BRANCH  16  17
HETATM   17  C2  UNL     1     -31.096  -8.782 -29.223  1.00  0.00     0.171 C 
HETATM   18  C1  UNL     1     -32.016  -7.762 -29.811  1.00  0.00     0.034 C 
ENDBRANCH  16  17
ENDBRANCH   1  16
BRANCH   7  19
HETATM   19  O3  UNL     1     -28.745  -7.719 -31.573  1.00  0.00    -0.347 OA
BRANCH  19  20
HETATM   20  C14 UNL     1     -28.314  -6.398 -31.466  1.00  0.00     0.171 C 
HETATM   21  C15 UNL     1     -29.365  -5.414 -31.036  1.00  0.00     0.034 C 
ENDBRANCH  19  20
ENDBRANCH   7  19
TORSDOF 6
ENDMDL
MODEL 3
REMARK VINA RESULT: -5.933970327      3.838      5.338
REMARK  6 active torsions:
REMARK  status: ('A' for Active; 'I' for Inactive)
REMARK    1  A    between atoms: C2_2  and  O1_3 
REMARK    2  A    between atoms: O1_3  and  C3_4 
REMARK    3  A    between atoms: C5_6  and  C6_7 
REMARK    4  A    between atoms: C6_7  and  C7_8 
REMARK    5  A    between atoms: C13_18  and  O3_19 
REMARK    6  A    between atoms: O3_19  and  C14_20 
ROOT
HETATM    1  C3  UNL     1     -27.055  -9.807 -31.885  1.00  0.00     0.103 A 
HETATM    2  C4  UNL     1     -26.640 -10.875 -31.128  1.00  0.00     0.047 A 
HETATM    3  C5  UNL     1     -27.104 -11.062 -29.820  1.00  0.00    -0.052 A 
HETATM    4  C11 UNL     1     -27.992 -10.160 -29.281  1.00  0.00     0.029 A 
HETATM    5  C12 UNL     1     -28.431  -9.073 -30.017  1.00  0.00     0.048 A 
HETATM    6  S1  UNL     1     -29.604  -7.983 -29.240  1.00  0.00    -0.050 SA
HETATM    7  C13 UNL     1     -27.972  -8.895 -31.295  1.00  0.00     0.119 A 
ENDROOT
BRANCH   3   8
HETATM    8  C6  UNL     1     -26.627 -12.211 -29.074  1.00  0.00     0.063 C 
BRANCH   8   9
HETATM    9  C7  UNL     1     -27.511 -12.804 -28.049  1.00  0.00     0.089 C 
HETATM   10  C8  UNL     1     -27.249 -14.254 -27.796  1.00  0.00     0.034 C 
HETATM   11  C9  UNL     1     -26.013 -14.261 -26.899  1.00  0.00     0.105 C 
HETATM   12  C10 UNL     1     -25.947 -12.879 -26.365  1.00  0.00     0.217 C 
HETATM   13  O2  UNL     1     -24.998 -12.404 -25.680  1.00  0.00    -0.274 OA
HETATM   14  N1  UNL     1     -27.134 -12.219 -26.767  1.00  0.00    -0.356 N 
ATOM     15  H1  UNL     1     -27.625 -11.482 -26.261  1.00  0.00     0.162 HD
ENDBRANCH   8   9
ENDBRANCH   3   8
BRANCH   1  16
HETATM   16  O1  UNL     1     -26.636  -9.562 -33.176  1.00  0.00    -0.349 OA
BRANCH  16  17
HETATM   17  C2  UNL     1     -25.299  -9.439 -33.536  1.00  0.00     0.171 C 
HETATM   18  C1  UNL     1     -24.680  -8.103 -33.285  1.00  0.00     0.034 C 
ENDBRANCH  16  17
ENDBRANCH   1  16
BRANCH   7  19
HETATM   19  O3  UNL     1     -28.376  -7.844 -32.053  1.00  0.00    -0.347 OA
BRANCH  19  20
HETATM   20  C14 UNL     1     -27.843  -6.557 -32.102  1.00  0.00     0.171 C 
HETATM   21  C15 UNL     1     -28.846  -5.443 -32.008  1.00  0.00     0.034 C 
ENDBRANCH  19  20
ENDBRANCH   7  19
TORSDOF 6
ENDMDL
MODEL 4
REMARK VINA RESULT: -5.818837915      5.345      7.959
REMARK  6 active torsions:
REMARK  status: ('A' for Active; 'I' for Inactive)
REMARK    1  A    between atoms: C2_2  and  O1_3 
REMARK    2  A    between atoms: O1_3  and  C3_4 
REMARK    3  A    between atoms: C5_6  and  C6_7 
REMARK    4  A    between atoms: C6_7  and  C7_8 
REMARK    5  A    between atoms: C13_18  and  O3_19 
REMARK    6  A    between atoms: O3_19  and  C14_20 
ROOT
HETATM    1  C3  UNL     1     -29.716  -7.587 -29.595  1.00  0.00     0.103 A 
HETATM    2  C4  UNL     1     -28.943  -8.540 -28.978  1.00  0.00     0.047 A 
HETATM    3  C5  UNL     1     -29.506  -9.720 -28.478  1.00  0.00    -0.052 A 
HETATM    4  C11 UNL     1     -30.860  -9.931 -28.605  1.00  0.00     0.029 A 
HETATM    5  C12 UNL     1     -31.668  -8.992 -29.222  1.00  0.00     0.048 A 
HETATM    6  S1  UNL     1     -33.400  -9.375 -29.365  1.00  0.00    -0.050 SA
HETATM    7  C13 UNL     1     -31.111  -7.840 -29.708  1.00  0.00     0.119 A 
ENDROOT
BRANCH   3   8
HETATM    8  C6  UNL     1     -28.635 -10.686 -27.837  1.00  0.00     0.063 C 
BRANCH   8   9
HETATM    9  C7  UNL     1     -27.441 -11.157 -28.569  1.00  0.00     0.089 C 
HETATM   10  C8  UNL     1     -26.632 -12.164 -27.816  1.00  0.00     0.034 C 
HETATM   11  C9  UNL     1     -27.399 -13.472 -27.996  1.00  0.00     0.105 C 
HETATM   12  C10 UNL     1     -28.286 -13.214 -29.156  1.00  0.00     0.217 C 
HETATM   13  O2  UNL     1     -29.195 -13.988 -29.569  1.00  0.00    -0.274 OA
HETATM   14  N1  UNL     1     -27.915 -11.957 -29.694  1.00  0.00    -0.356 N 
ATOM     15  H1  UNL     1     -27.969 -11.670 -30.670  1.00  0.00     0.162 HD
ENDBRANCH   8   9
ENDBRANCH   3   8
BRANCH   1  16
HETATM   16  O1  UNL     1     -29.227  -6.404 -30.107  1.00  0.00    -0.349 OA
BRANCH  16  17
HETATM   17  C2  UNL     1     -28.509  -6.323 -31.296  1.00  0.00     0.171 C 
HETATM   18  C1  UNL     1     -29.119  -5.475 -32.364  1.00  0.00     0.034 C 
ENDBRANCH  16  17
ENDBRANCH   1  16
BRANCH   7  19
HETATM   19  O3  UNL     1     -31.864  -6.891 -30.321  1.00  0.00    -0.347 OA
BRANCH  19  20
HETATM   20  C14 UNL     1     -32.441  -5.751 -29.764  1.00  0.00     0.171 C 
HETATM   21  C15 UNL     1     -33.942  -5.710 -29.798  1.00  0.00     0.034 C 
ENDBRANCH  19  20
ENDBRANCH   7  19
TORSDOF 6
ENDMDL
MODEL 5
REMARK VINA RESULT: -5.812478215      1.859      3.149
REMARK  6 active torsions:
REMARK  status: ('A' for Active; 'I' for Inactive)
REMARK    1  A    between atoms: C2_2  and  O1_3 
REMARK    2  A    between atoms: O1_3  and  C3_4 
REMARK    3  A    between atoms: C5_6  and  C6_7 
REMARK    4  A    between atoms: C6_7  and  C7_8 
REMARK    5  A    between atoms: C13_18  and  O3_19 
REMARK    6  A    between atoms: O3_19  and  C14_20 
ROOT
HETATM    1  C3  UNL     1     -25.071 -12.112 -33.443  1.00  0.00     0.103 A 
HETATM    2  C4  UNL     1     -25.692 -11.761 -32.269  1.00  0.00     0.047 A 
HETATM    3  C5  UNL     1     -26.355 -12.712 -31.485  1.00  0.00    -0.052 A 
HETATM    4  C11 UNL     1     -26.387 -14.025 -31.896  1.00  0.00     0.029 A 
HETATM    5  C12 UNL     1     -25.772 -14.413 -33.074  1.00  0.00     0.048 A 
HETATM    6  S1  UNL     1     -25.843 -16.140 -33.499  1.00  0.00    -0.050 SA
HETATM    7  C13 UNL     1     -25.126 -13.477 -33.836  1.00  0.00     0.119 A 
ENDROOT
BRANCH   3   8
HETATM    8  C6  UNL     1     -26.990 -12.276 -30.256  1.00  0.00     0.063 C 
BRANCH   8   9
HETATM    9  C7  UNL     1     -27.739 -13.268 -29.457  1.00  0.00     0.089 C 
HETATM   10  C8  UNL     1     -27.031 -13.697 -28.213  1.00  0.00     0.034 C 
HETATM   11  C9  UNL     1     -27.271 -12.554 -27.231  1.00  0.00     0.105 C 
HETATM   12  C10 UNL     1     -28.420 -11.817 -27.809  1.00  0.00     0.217 C 
HETATM   13  O2  UNL     1     -28.870 -10.715 -27.386  1.00  0.00    -0.274 OA
HETATM   14  N1  UNL     1     -28.900 -12.580 -28.900  1.00  0.00    -0.356 N 
ATOM     15  H1  UNL     1     -29.863 -12.638 -29.231  1.00  0.00     0.162 HD
ENDBRANCH   8   9
ENDBRANCH   3   8
BRANCH   1  16
HETATM   16  O1  UNL     1     -24.404 -11.227 -34.263  1.00  0.00    -0.349 OA
BRANCH  16  17
HETATM   17  C2  UNL     1     -24.995 -10.089 -34.802  1.00  0.00     0.171 C 
HETATM   18  C1  UNL     1     -24.514  -8.786 -34.253  1.00  0.00     0.034 C 
ENDBRANCH  16  17
ENDBRANCH   1  16
BRANCH   7  19
HETATM   19  O3  UNL     1     -24.508 -13.813 -34.997  1.00  0.00    -0.347 OA
BRANCH  19  20
HETATM   20  C14 UNL     1     -25.067 -13.946 -36.268  1.00  0.00     0.171 C 
HETATM   21  C15 UNL     1     -24.601 -12.940 -37.281  1.00  0.00     0.034 C 
ENDBRANCH  19  20
ENDBRANCH   7  19
TORSDOF 6
ENDMDL
