MODEL 1
REMARK VINA RESULT: -6.467556648      0.000      0.000
REMARK  8 active torsions:
REMARK  status: ('A' for Active; 'I' for Inactive)
REMARK    1  A    between atoms: C2_2  and  C3_3 
REMARK    2  A    between atoms: C3_3  and  C4_4 
REMARK    3  A    between atoms: C4_4  and  C5_5 
REMARK    4  A    between atoms: C10_12  and  C11_13 
REMARK    5  A    between atoms: C11_13  and  N2_14 
REMARK    6  A    between atoms: C14_17  and  C15_18 
REMARK    7  A    between atoms: C15_18  and  O1_19 
REMARK    8  A    between atoms: C18_23  and  O2_24 
ROOT
HETATM    1  C5  UNL     1     -27.708 -11.215 -29.123  1.00  0.00    -0.015 A 
HETATM    2  C6  UNL     1     -27.160 -11.037 -30.370  1.00  0.00    -0.031 A 
HETATM    3  C7  UNL     1     -26.011 -11.857 -30.807  1.00  0.00     0.051 C 
HETATM    4  C8  UNL     1     -27.695 -10.063 -31.191  1.00  0.00     0.012 A 
HETATM    5  C9  UNL     1     -27.189 -10.042 -32.600  1.00  0.00     0.068 C 
HETATM    6  N1  UNL     1     -28.729  -9.249 -30.850  1.00  0.00    -0.356 N 
ATOM      7  H1  UNL     1     -29.075  -8.539 -31.496  1.00  0.00     0.166 HD
HETATM    8  C10 UNL     1     -29.260  -9.403 -29.684  1.00  0.00     0.082 A 
HETATM    9  C18 UNL     1     -28.765 -10.389 -28.802  1.00  0.00     0.100 A 
ENDROOT
BRANCH   8  10
HETATM   10  C11 UNL     1     -30.422  -8.656 -29.101  1.00  0.00     0.122 C 
BRANCH  10  11
HETATM   11  N2  UNL     1     -31.650  -8.936 -29.699  1.00  0.00    -0.368 N 
HETATM   12  C12 UNL     1     -31.973  -7.823 -30.591  1.00  0.00     0.128 C 
HETATM   13  C13 UNL     1     -32.796  -6.900 -29.716  1.00  0.00     0.027 C 
HETATM   14  C14 UNL     1     -34.126  -7.621 -29.574  1.00  0.00     0.015 C 
HETATM   15  C16 UNL     1     -33.989  -8.993 -29.047  1.00  0.00     0.051 C 
HETATM   16  C17 UNL     1     -32.678  -9.707 -29.253  1.00  0.00     0.064 C 
BRANCH  14  17
HETATM   17  C15 UNL     1     -34.973  -6.763 -28.658  1.00  0.00     0.169 C 
BRANCH  17  18
HETATM   18  O1  UNL     1     -34.728  -5.403 -28.940  1.00  0.00    -0.400 OA
ATOM     19  H1  UNL     1     -35.499  -5.024 -29.344  1.00  0.00     0.209 HD
ENDBRANCH  17  18
ENDBRANCH  14  17
ENDBRANCH  10  11
ENDBRANCH   8  10
BRANCH   9  20
HETATM   20  O2  UNL     1     -29.423 -10.454 -27.596  1.00  0.00    -0.358 OA
ATOM     21  H2  UNL     1     -29.224  -9.875 -26.869  1.00  0.00     0.217 HD
ENDBRANCH   9  20
BRANCH   1  22
HETATM   22  C4  UNL     1     -27.202 -12.079 -28.049  1.00  0.00     0.046 C 
BRANCH  22  23
HETATM   23  C3  UNL     1     -27.617 -13.511 -28.072  1.00  0.00     0.031 C 
BRANCH  23  24
HETATM   24  C2  UNL     1     -26.498 -14.338 -27.492  1.00  0.00    -0.037 C 
HETATM   25  C1  UNL     1     -25.894 -13.936 -26.405  1.00  0.00     0.007 C 
ENDBRANCH  23  24
ENDBRANCH  22  23
ENDBRANCH   1  22
TORSDOF 8
ENDMDL
MODEL 2
REMARK VINA RESULT: -6.374936451      3.503      7.121
REMARK  8 active torsions:
REMARK  status: ('A' for Active; 'I' for Inactive)
REMARK    1  A    between atoms: C2_2  and  C3_3 
REMARK    2  A    between atoms: C3_3  and  C4_4 
REMARK    3  A    between atoms: C4_4  and  C5_5 
REMARK    4  A    between atoms: C10_12  and  C11_13 
REMARK    5  A    between atoms: C11_13  and  N2_14 
REMARK    6  A    between atoms: C14_17  and  C15_18 
REMARK    7  A    between atoms: C15_18  and  O1_19 
REMARK    8  A    between atoms: C18_23  and  O2_24 
ROOT
HETATM    1  C5  UNL     1     -29.302 -10.896 -31.252  1.00  0.00    -0.015 A 
HETATM    2  C6  UNL     1     -30.371 -11.718 -31.516  1.00  0.00    -0.031 A 
HETATM    3  C7  UNL     1     -31.556 -11.199 -32.231  1.00  0.00     0.051 C 
HETATM    4  C8  UNL     1     -30.315 -13.028 -31.081  1.00  0.00     0.012 A 
HETATM    5  C9  UNL     1     -31.415 -13.925 -31.561  1.00  0.00     0.068 C 
HETATM    6  N1  UNL     1     -29.276 -13.570 -30.393  1.00  0.00    -0.356 N 
ATOM      7  H1  UNL     1     -29.298 -14.543 -30.088  1.00  0.00     0.166 HD
HETATM    8  C10 UNL     1     -28.262 -12.815 -30.137  1.00  0.00     0.082 A 
HETATM    9  C18 UNL     1     -28.253 -11.468 -30.565  1.00  0.00     0.100 A 
ENDROOT
BRANCH   8  10
HETATM   10  C11 UNL     1     -26.995 -13.191 -29.429  1.00  0.00     0.122 C 
BRANCH  10  11
HETATM   11  N2  UNL     1     -27.179 -13.683 -28.137  1.00  0.00    -0.368 N 
HETATM   12  C12 UNL     1     -27.681 -12.584 -27.312  1.00  0.00     0.128 C 
HETATM   13  C13 UNL     1     -26.420 -11.980 -26.727  1.00  0.00     0.027 C 
HETATM   14  C14 UNL     1     -25.971 -13.003 -25.697  1.00  0.00     0.015 C 
HETATM   15  C16 UNL     1     -25.790 -14.354 -26.261  1.00  0.00     0.051 C 
HETATM   16  C17 UNL     1     -26.561 -14.716 -27.503  1.00  0.00     0.064 C 
BRANCH  14  17
HETATM   17  C15 UNL     1     -24.676 -12.472 -25.116  1.00  0.00     0.169 C 
BRANCH  17  18
HETATM   18  O1  UNL     1     -24.770 -12.462 -23.708  1.00  0.00    -0.400 OA
ATOM     19  H1  UNL     1     -23.907 -12.320 -23.339  1.00  0.00     0.209 HD
ENDBRANCH  17  18
ENDBRANCH  14  17
ENDBRANCH  10  11
ENDBRANCH   8  10
BRANCH   9  20
HETATM   20  O2  UNL     1     -27.111 -10.776 -30.234  1.00  0.00    -0.358 OA
ATOM     21  H2  UNL     1     -27.048 -10.223 -29.464  1.00  0.00     0.217 HD
ENDBRANCH   9  20
BRANCH   1  22
HETATM   22  C4  UNL     1     -29.219  -9.448 -31.488  1.00  0.00     0.046 C 
BRANCH  22  23
HETATM   23  C3  UNL     1     -30.011  -8.563 -30.586  1.00  0.00     0.031 C 
BRANCH  23  24
HETATM   24  C2  UNL     1     -29.092  -8.036 -29.514  1.00  0.00    -0.037 C 
HETATM   25  C1  UNL     1     -29.101  -8.583 -28.327  1.00  0.00     0.007 C 
ENDBRANCH  23  24
ENDBRANCH  22  23
ENDBRANCH   1  22
TORSDOF 8
ENDMDL
MODEL 3
REMARK VINA RESULT: -6.310168947      1.207      1.334
REMARK  8 active torsions:
REMARK  status: ('A' for Active; 'I' for Inactive)
REMARK    1  A    between atoms: C2_2  and  C3_3 
REMARK    2  A    between atoms: C3_3  and  C4_4 
REMARK    3  A    between atoms: C4_4  and  C5_5 
REMARK    4  A    between atoms: C10_12  and  C11_13 
REMARK    5  A    between atoms: C11_13  and  N2_14 
REMARK    6  A    between atoms: C14_17  and  C15_18 
REMARK    7  A    between atoms: C15_18  and  O1_19 
REMARK    8  A    between atoms: C18_23  and  O2_24 
ROOT
HETATM    1  C5  UNL     1     -28.198 -11.882 -28.497  1.00  0.00    -0.015 A 
HETATM    2  C6  UNL     1     -27.950 -12.419 -29.737  1.00  0.00    -0.031 A 
HETATM    3  C7  UNL     1     -27.020 -13.558 -29.887  1.00  0.00     0.051 C 
HETATM    4  C8  UNL     1     -28.573 -11.856 -30.834  1.00  0.00     0.012 A 
HETATM    5  C9  UNL     1     -28.419 -12.596 -32.127  1.00  0.00     0.068 C 
HETATM    6  N1  UNL     1     -29.415 -10.790 -30.781  1.00  0.00    -0.356 N 
ATOM      7  H1  UNL     1     -29.837 -10.411 -31.629  1.00  0.00     0.166 HD
HETATM    8  C10 UNL     1     -29.663 -10.273 -29.625  1.00  0.00     0.082 A 
HETATM    9  C18 UNL     1     -29.065 -10.810 -28.463  1.00  0.00     0.100 A 
ENDROOT
BRANCH   8  10
HETATM   10  C11 UNL     1     -30.576  -9.126 -29.312  1.00  0.00     0.122 C 
BRANCH  10  11
HETATM   11  N2  UNL     1     -31.849  -9.230 -29.872  1.00  0.00    -0.368 N 
HETATM   12  C12 UNL     1     -32.048  -8.068 -30.739  1.00  0.00     0.128 C 
HETATM   13  C13 UNL     1     -32.712  -7.059 -29.824  1.00  0.00     0.027 C 
HETATM   14  C14 UNL     1     -34.121  -7.598 -29.648  1.00  0.00     0.015 C 
HETATM   15  C16 UNL     1     -34.153  -8.985 -29.144  1.00  0.00     0.051 C 
HETATM   16  C17 UNL     1     -32.957  -9.864 -29.402  1.00  0.00     0.064 C 
BRANCH  14  17
HETATM   17  C15 UNL     1     -34.817  -6.650 -28.693  1.00  0.00     0.169 C 
BRANCH  17  18
HETATM   18  O1  UNL     1     -34.579  -5.322 -29.104  1.00  0.00    -0.400 OA
ATOM     19  H1  UNL     1     -33.852  -4.967 -28.607  1.00  0.00     0.209 HD
ENDBRANCH  17  18
ENDBRANCH  14  17
ENDBRANCH  10  11
ENDBRANCH   8  10
BRANCH   9  20
HETATM   20  O2  UNL     1     -29.418 -10.172 -27.297  1.00  0.00    -0.358 OA
ATOM     21  H2  UNL     1     -29.919  -9.365 -27.282  1.00  0.00     0.217 HD
ENDBRANCH   9  20
BRANCH   1  22
HETATM   22  C4  UNL     1     -27.532 -12.226 -27.234  1.00  0.00     0.046 C 
BRANCH  22  23
HETATM   23  C3  UNL     1     -26.124 -11.768 -27.058  1.00  0.00     0.031 C 
BRANCH  23  24
HETATM   24  C2  UNL     1     -25.430 -12.722 -26.119  1.00  0.00    -0.037 C 
HETATM   25  C1  UNL     1     -25.750 -13.990 -26.131  1.00  0.00     0.007 C 
ENDBRANCH  23  24
ENDBRANCH  22  23
ENDBRANCH   1  22
TORSDOF 8
ENDMDL
MODEL 4
REMARK VINA RESULT: -6.294405006      3.827      7.364
REMARK  8 active torsions:
REMARK  status: ('A' for Active; 'I' for Inactive)
REMARK    1  A    between atoms: C2_2  and  C3_3 
REMARK    2  A    between atoms: C3_3  and  C4_4 
REMARK    3  A    between atoms: C4_4  and  C5_5 
REMARK    4  A    between atoms: C10_12  and  C11_13 
REMARK    5  A    between atoms: C11_13  and  N2_14 
REMARK    6  A    between atoms: C14_17  and  C15_18 
REMARK    7  A    between atoms: C15_18  and  O1_19 
REMARK    8  A    between atoms: C18_23  and  O2_24 
ROOT
HETATM    1  C5  UNL     1     -28.056 -11.595 -28.890  1.00  0.00    -0.015 A 
HETATM    2  C6  UNL     1     -28.533 -10.358 -29.254  1.00  0.00    -0.031 A 
HETATM    3  C7  UNL     1     -28.549  -9.247 -28.280  1.00  0.00     0.051 C 
HETATM    4  C8  UNL     1     -29.011 -10.190 -30.539  1.00  0.00     0.012 A 
HETATM    5  C9  UNL     1     -29.338  -8.784 -30.938  1.00  0.00     0.068 C 
HETATM    6  N1  UNL     1     -29.058 -11.170 -31.480  1.00  0.00    -0.356 N 
ATOM      7  H1  UNL     1     -29.434 -10.987 -32.411  1.00  0.00     0.166 HD
HETATM    8  C10 UNL     1     -28.612 -12.337 -31.159  1.00  0.00     0.082 A 
HETATM    9  C18 UNL     1     -28.099 -12.571 -29.863  1.00  0.00     0.100 A 
ENDROOT
BRANCH   8  10
HETATM   10  C11 UNL     1     -28.529 -13.556 -32.028  1.00  0.00     0.122 C 
BRANCH  10  11
HETATM   11  N2  UNL     1     -27.525 -13.509 -32.995  1.00  0.00    -0.368 N 
HETATM   12  C12 UNL     1     -27.821 -14.540 -33.991  1.00  0.00     0.128 C 
HETATM   13  C13 UNL     1     -27.052 -15.745 -33.487  1.00  0.00     0.027 C 
HETATM   14  C14 UNL     1     -25.601 -15.398 -33.775  1.00  0.00     0.015 C 
HETATM   15  C16 UNL     1     -25.180 -14.117 -33.176  1.00  0.00     0.051 C 
HETATM   16  C17 UNL     1     -26.238 -13.082 -32.893  1.00  0.00     0.064 C 
BRANCH  14  17
HETATM   17  C15 UNL     1     -24.780 -16.552 -33.239  1.00  0.00     0.169 C 
BRANCH  17  18
HETATM   18  O1  UNL     1     -25.316 -17.765 -33.720  1.00  0.00    -0.400 OA
ATOM     19  H1  UNL     1     -24.617 -18.402 -33.808  1.00  0.00     0.209 HD
ENDBRANCH  17  18
ENDBRANCH  14  17
ENDBRANCH  10  11
ENDBRANCH   8  10
BRANCH   9  20
HETATM   20  O2  UNL     1     -27.651 -13.854 -29.654  1.00  0.00    -0.358 OA
ATOM     21  H2  UNL     1     -26.728 -14.079 -29.623  1.00  0.00     0.217 HD
ENDBRANCH   9  20
BRANCH   1  22
HETATM   22  C4  UNL     1     -27.646 -12.027 -27.547  1.00  0.00     0.046 C 
BRANCH  22  23
HETATM   23  C3  UNL     1     -26.212 -11.851 -27.183  1.00  0.00     0.031 C 
BRANCH  23  24
HETATM   24  C2  UNL     1     -25.864 -12.868 -26.126  1.00  0.00    -0.037 C 
HETATM   25  C1  UNL     1     -25.881 -14.141 -26.423  1.00  0.00     0.007 C 
ENDBRANCH  23  24
ENDBRANCH  22  23
ENDBRANCH   1  22
TORSDOF 8
ENDMDL
MODEL 5
REMARK VINA RESULT: -6.207717951      2.789      7.346
REMARK  8 active torsions:
REMARK  status: ('A' for Active; 'I' for Inactive)
REMARK    1  A    between atoms: C2_2  and  C3_3 
REMARK    2  A    between atoms: C3_3  and  C4_4 
REMARK    3  A    between atoms: C4_4  and  C5_5 
REMARK    4  A    between atoms: C10_12  and  C11_13 
REMARK    5  A    between atoms: C11_13  and  N2_14 
REMARK    6  A    between atoms: C14_17  and  C15_18 
REMARK    7  A    between atoms: C15_18  and  O1_19 
REMARK    8  A    between atoms: C18_23  and  O2_24 
ROOT
HETATM    1  C5  UNL     1     -29.837 -10.124 -29.751  1.00  0.00    -0.015 A 
HETATM    2  C6  UNL     1     -29.895 -10.600 -31.039  1.00  0.00    -0.031 A 
HETATM    3  C7  UNL     1     -30.519  -9.793 -32.108  1.00  0.00     0.051 C 
HETATM    4  C8  UNL     1     -29.377 -11.854 -31.300  1.00  0.00     0.012 A 
HETATM    5  C9  UNL     1     -29.294 -12.241 -32.744  1.00  0.00     0.068 C 
HETATM    6  N1  UNL     1     -28.817 -12.668 -30.367  1.00  0.00    -0.356 N 
ATOM      7  H1  UNL     1     -28.460 -13.590 -30.619  1.00  0.00     0.166 HD
HETATM    8  C10 UNL     1     -28.750 -12.237 -29.152  1.00  0.00     0.082 A 
HETATM    9  C18 UNL     1     -29.253 -10.959 -28.822  1.00  0.00     0.100 A 
ENDROOT
BRANCH   8  10
HETATM   10  C11 UNL     1     -28.151 -12.932 -27.966  1.00  0.00     0.122 C 
BRANCH  10  11
HETATM   11  N2  UNL     1     -26.762 -12.840 -27.881  1.00  0.00    -0.368 N 
HETATM   12  C12 UNL     1     -26.257 -14.142 -27.446  1.00  0.00     0.128 C 
HETATM   13  C13 UNL     1     -26.194 -14.007 -25.938  1.00  0.00     0.027 C 
HETATM   14  C14 UNL     1     -25.009 -13.086 -25.704  1.00  0.00     0.015 C 
HETATM   15  C16 UNL     1     -25.121 -11.802 -26.423  1.00  0.00     0.051 C 
HETATM   16  C17 UNL     1     -25.975 -11.753 -27.663  1.00  0.00     0.064 C 
BRANCH  14  17
HETATM   17  C15 UNL     1     -24.933 -12.872 -24.206  1.00  0.00     0.169 C 
BRANCH  17  18
HETATM   18  O1  UNL     1     -24.076 -11.785 -23.936  1.00  0.00    -0.400 OA
ATOM     19  H1  UNL     1     -23.785 -11.406 -24.757  1.00  0.00     0.209 HD
ENDBRANCH  17  18
ENDBRANCH  14  17
ENDBRANCH  10  11
ENDBRANCH   8  10
BRANCH   9  20
HETATM   20  O2  UNL     1     -29.114 -10.620 -27.497  1.00  0.00    -0.358 OA
ATOM     21  H2  UNL     1     -29.686 -10.953 -26.816  1.00  0.00     0.217 HD
ENDBRANCH   9  20
BRANCH   1  22
HETATM   22  C4  UNL     1     -30.456  -8.898 -29.231  1.00  0.00     0.046 C 
BRANCH  22  23
HETATM   23  C3  UNL     1     -29.610  -7.671 -29.191  1.00  0.00     0.031 C 
BRANCH  23  24
HETATM   24  C2  UNL     1     -30.441  -6.507 -29.671  1.00  0.00    -0.037 C 
HETATM   25  C1  UNL     1     -31.689  -6.699 -30.008  1.00  0.00     0.007 C 
ENDBRANCH  23  24
ENDBRANCH  22  23
ENDBRANCH   1  22
TORSDOF 8
ENDMDL
