MODEL 1
REMARK VINA RESULT: -8.441898362      0.000      0.000
REMARK  6 active torsions:
REMARK  status: ('A' for Active; 'I' for Inactive)
REMARK       I    between atoms: N2_3  and  C2_5 
REMARK       I    between atoms: C2_5  and  N3_7 
REMARK    1  A    between atoms: N3_7  and  C3_9 
REMARK    2  A    between atoms: C3_9  and  C4_10 
REMARK    3  A    between atoms: C4_10  and  C5_11 
REMARK    4  A    between atoms: C5_11  and  C6_12 
REMARK    5  A    between atoms: C6_12  and  N4_13 
REMARK    6  A    between atoms: C10_19  and  C11_20 
ROOT
HETATM    1  N1  UNL     1     -22.220 -13.454 -21.922  1.00  0.00    -0.172 NA
HETATM    2  C1  UNL     1     -22.705 -13.680 -22.944  1.00  0.00     0.185 C 
HETATM    3  N2  UNL     1     -23.318 -13.941 -24.200  1.00  0.00    -0.245 N 
ATOM      4  H2  UNL     1     -22.892 -14.573 -24.876  1.00  0.00     0.183 HD
HETATM    5  C2  UNL     1     -24.542 -13.289 -24.474  1.00  0.00     0.329 C 
HETATM    6  O1  UNL     1     -25.083 -12.512 -23.664  1.00  0.00    -0.246 OA
HETATM    7  N3  UNL     1     -25.178 -13.534 -25.729  1.00  0.00    -0.342 N 
ATOM      8  H3  UNL     1     -24.751 -14.168 -26.405  1.00  0.00     0.164 HD
ENDROOT
BRANCH   7   9
HETATM    9  C3  UNL     1     -26.424 -12.883 -26.035  1.00  0.00     0.124 C 
BRANCH   9  10
HETATM   10  C4  UNL     1     -26.547 -12.721 -27.529  1.00  0.00     0.021 C 
BRANCH  10  11
HETATM   11  C5  UNL     1     -27.311 -13.880 -28.122  1.00  0.00     0.021 C 
BRANCH  11  12
HETATM   12  C6  UNL     1     -28.413 -13.439 -29.034  1.00  0.00     0.124 C 
BRANCH  12  13
HETATM   13  N4  UNL     1     -28.040 -12.742 -30.210  1.00  0.00    -0.371 N 
HETATM   14  C7  UNL     1     -27.546 -13.334 -31.429  1.00  0.00     0.125 C 
HETATM   15  C8  UNL     1     -26.211 -12.689 -31.716  1.00  0.00     0.039 C 
HETATM   16  C9  UNL     1     -26.461 -11.216 -31.935  1.00  0.00     0.122 C 
HETATM   17  N5  UNL     1     -27.405 -10.649 -31.033  1.00  0.00    -0.379 N 
HETATM   18  C10 UNL     1     -28.163 -11.312 -30.213  1.00  0.00     0.079 C 
ATOM     19  H5  UNL     1     -27.495  -9.632 -31.032  1.00  0.00     0.160 HD
BRANCH  18  20
HETATM   20  C11 UNL     1     -29.105 -10.574 -29.331  1.00  0.00     0.053 C 
HETATM   21  C12 UNL     1     -30.220  -9.988 -30.102  1.00  0.00     0.012 C 
HETATM   22  C13 UNL     1     -30.310  -8.534 -30.260  1.00  0.00     0.001 C 
HETATM   23  C14 UNL     1     -29.348  -7.687 -29.506  1.00  0.00     0.000 C 
HETATM   24  C15 UNL     1     -29.110  -8.365 -28.156  1.00  0.00     0.001 C 
HETATM   25  C16 UNL     1     -28.306  -9.602 -28.510  1.00  0.00     0.012 C 
ENDBRANCH  18  20
ENDBRANCH  12  13
ENDBRANCH  11  12
ENDBRANCH  10  11
ENDBRANCH   9  10
ENDBRANCH   7   9
TORSDOF 6
ENDMDL
MODEL 2
REMARK VINA RESULT: -8.325173008      0.913      1.226
REMARK  6 active torsions:
REMARK  status: ('A' for Active; 'I' for Inactive)
REMARK       I    between atoms: N2_3  and  C2_5 
REMARK       I    between atoms: C2_5  and  N3_7 
REMARK    1  A    between atoms: N3_7  and  C3_9 
REMARK    2  A    between atoms: C3_9  and  C4_10 
REMARK    3  A    between atoms: C4_10  and  C5_11 
REMARK    4  A    between atoms: C5_11  and  C6_12 
REMARK    5  A    between atoms: C6_12  and  N4_13 
REMARK    6  A    between atoms: C10_19  and  C11_20 
ROOT
HETATM    1  N1  UNL     1     -22.419 -13.270 -21.920  1.00  0.00    -0.172 NA
HETATM    2  C1  UNL     1     -22.794 -13.604 -22.958  1.00  0.00     0.185 C 
HETATM    3  N2  UNL     1     -23.274 -13.999 -24.236  1.00  0.00    -0.245 N 
ATOM      4  H2  UNL     1     -22.721 -14.599 -24.848  1.00  0.00     0.183 HD
HETATM    5  C2  UNL     1     -24.549 -13.528 -24.626  1.00  0.00     0.329 C 
HETATM    6  O1  UNL     1     -25.244 -12.795 -23.898  1.00  0.00    -0.246 OA
HETATM    7  N3  UNL     1     -25.053 -13.912 -25.907  1.00  0.00    -0.342 N 
ATOM      8  H3  UNL     1     -24.499 -14.513 -26.518  1.00  0.00     0.164 HD
ENDROOT
BRANCH   7   9
HETATM    9  C3  UNL     1     -26.347 -13.447 -26.330  1.00  0.00     0.124 C 
BRANCH   9  10
HETATM   10  C4  UNL     1     -26.788 -14.235 -27.538  1.00  0.00     0.021 C 
BRANCH  10  11
HETATM   11  C5  UNL     1     -27.596 -13.361 -28.467  1.00  0.00     0.021 C 
BRANCH  11  12
HETATM   12  C6  UNL     1     -26.902 -12.076 -28.799  1.00  0.00     0.124 C 
BRANCH  12  13
HETATM   13  N4  UNL     1     -27.029 -11.596 -30.126  1.00  0.00    -0.371 N 
HETATM   14  C7  UNL     1     -26.571 -12.263 -31.321  1.00  0.00     0.125 C 
HETATM   15  C8  UNL     1     -25.647 -11.300 -32.029  1.00  0.00     0.039 C 
HETATM   16  C9  UNL     1     -26.465 -10.089 -32.408  1.00  0.00     0.122 C 
HETATM   17  N5  UNL     1     -27.379  -9.669 -31.402  1.00  0.00    -0.379 N 
HETATM   18  C10 UNL     1     -27.676 -10.330 -30.324  1.00  0.00     0.079 C 
ATOM     19  H5  UNL     1     -27.842  -8.769 -31.538  1.00  0.00     0.160 HD
BRANCH  18  20
HETATM   20  C11 UNL     1     -28.657  -9.758 -29.364  1.00  0.00     0.053 C 
HETATM   21  C12 UNL     1     -29.930 -10.506 -29.380  1.00  0.00     0.012 C 
HETATM   22  C13 UNL     1     -31.136  -9.878 -29.924  1.00  0.00     0.001 C 
HETATM   23  C14 UNL     1     -31.065  -8.442 -30.308  1.00  0.00     0.000 C 
HETATM   24  C15 UNL     1     -30.147  -7.749 -29.300  1.00  0.00     0.001 C 
HETATM   25  C16 UNL     1     -28.769  -8.285 -29.639  1.00  0.00     0.012 C 
ENDBRANCH  18  20
ENDBRANCH  12  13
ENDBRANCH  11  12
ENDBRANCH  10  11
ENDBRANCH   9  10
ENDBRANCH   7   9
TORSDOF 6
ENDMDL
MODEL 3
REMARK VINA RESULT: -8.286769694      0.994      1.144
REMARK  6 active torsions:
REMARK  status: ('A' for Active; 'I' for Inactive)
REMARK       I    between atoms: N2_3  and  C2_5 
REMARK       I    between atoms: C2_5  and  N3_7 
REMARK    1  A    between atoms: N3_7  and  C3_9 
REMARK    2  A    between atoms: C3_9  and  C4_10 
REMARK    3  A    between atoms: C4_10  and  C5_11 
REMARK    4  A    between atoms: C5_11  and  C6_12 
REMARK    5  A    between atoms: C6_12  and  N4_13 
REMARK    6  A    between atoms: C10_19  and  C11_20 
ROOT
HETATM    1  N1  UNL     1     -22.161 -13.478 -21.930  1.00  0.00    -0.172 NA
HETATM    2  C1  UNL     1     -22.665 -13.687 -22.947  1.00  0.00     0.185 C 
HETATM    3  N2  UNL     1     -23.301 -13.925 -24.196  1.00  0.00    -0.245 N 
ATOM      4  H2  UNL     1     -22.891 -14.552 -24.888  1.00  0.00     0.183 HD
HETATM    5  C2  UNL     1     -24.523 -13.259 -24.441  1.00  0.00     0.329 C 
HETATM    6  O1  UNL     1     -25.044 -12.488 -23.612  1.00  0.00    -0.246 OA
HETATM    7  N3  UNL     1     -25.182 -13.482 -25.689  1.00  0.00    -0.342 N 
ATOM      8  H3  UNL     1     -24.771 -14.110 -26.381  1.00  0.00     0.164 HD
ENDROOT
BRANCH   7   9
HETATM    9  C3  UNL     1     -26.427 -12.817 -25.966  1.00  0.00     0.124 C 
BRANCH   9  10
HETATM   10  C4  UNL     1     -26.544 -12.579 -27.450  1.00  0.00     0.021 C 
BRANCH  10  11
HETATM   11  C5  UNL     1     -27.050 -13.822 -28.142  1.00  0.00     0.021 C 
BRANCH  11  12
HETATM   12  C6  UNL     1     -28.192 -13.542 -29.069  1.00  0.00     0.124 C 
BRANCH  12  13
HETATM   13  N4  UNL     1     -27.941 -12.677 -30.163  1.00  0.00    -0.371 N 
HETATM   14  C7  UNL     1     -26.996 -12.906 -31.229  1.00  0.00     0.125 C 
HETATM   15  C8  UNL     1     -26.066 -11.716 -31.249  1.00  0.00     0.039 C 
HETATM   16  C9  UNL     1     -26.901 -10.498 -31.565  1.00  0.00     0.122 C 
HETATM   17  N5  UNL     1     -28.161 -10.471 -30.904  1.00  0.00    -0.379 N 
HETATM   18  C10 UNL     1     -28.689 -11.455 -30.240  1.00  0.00     0.079 C 
ATOM     19  H5  UNL     1     -28.696  -9.604 -30.956  1.00  0.00     0.160 HD
BRANCH  18  20
HETATM   20  C11 UNL     1     -30.020 -11.273 -29.603  1.00  0.00     0.053 C 
HETATM   21  C12 UNL     1     -31.106 -11.304 -30.603  1.00  0.00     0.012 C 
HETATM   22  C13 UNL     1     -31.850 -10.079 -30.906  1.00  0.00     0.001 C 
HETATM   23  C14 UNL     1     -31.578  -8.872 -30.081  1.00  0.00     0.000 C 
HETATM   24  C15 UNL     1     -31.310  -9.351 -28.653  1.00  0.00     0.001 C 
HETATM   25  C16 UNL     1     -29.961 -10.037 -28.750  1.00  0.00     0.012 C 
ENDBRANCH  18  20
ENDBRANCH  12  13
ENDBRANCH  11  12
ENDBRANCH  10  11
ENDBRANCH   9  10
ENDBRANCH   7   9
TORSDOF 6
ENDMDL
MODEL 4
REMARK VINA RESULT: -8.172800670      1.499      1.656
REMARK  6 active torsions:
REMARK  status: ('A' for Active; 'I' for Inactive)
REMARK       I    between atoms: N2_3  and  C2_5 
REMARK       I    between atoms: C2_5  and  N3_7 
REMARK    1  A    between atoms: N3_7  and  C3_9 
REMARK    2  A    between atoms: C3_9  and  C4_10 
REMARK    3  A    between atoms: C4_10  and  C5_11 
REMARK    4  A    between atoms: C5_11  and  C6_12 
REMARK    5  A    between atoms: C6_12  and  N4_13 
REMARK    6  A    between atoms: C10_19  and  C11_20 
ROOT
HETATM    1  N1  UNL     1     -22.362 -13.414 -21.921  1.00  0.00    -0.172 NA
HETATM    2  C1  UNL     1     -22.801 -13.638 -22.964  1.00  0.00     0.185 C 
HETATM    3  N2  UNL     1     -23.355 -13.896 -24.247  1.00  0.00    -0.245 N 
ATOM      4  H2  UNL     1     -22.894 -14.521 -24.908  1.00  0.00     0.183 HD
HETATM    5  C2  UNL     1     -24.572 -13.253 -24.571  1.00  0.00     0.329 C 
HETATM    6  O1  UNL     1     -25.155 -12.485 -23.781  1.00  0.00    -0.246 OA
HETATM    7  N3  UNL     1     -25.150 -13.496 -25.854  1.00  0.00    -0.342 N 
ATOM      8  H3  UNL     1     -24.688 -14.122 -26.514  1.00  0.00     0.164 HD
ENDROOT
BRANCH   7   9
HETATM    9  C3  UNL     1     -26.387 -12.854 -26.211  1.00  0.00     0.124 C 
BRANCH   9  10
HETATM   10  C4  UNL     1     -26.109 -11.761 -27.211  1.00  0.00     0.021 C 
BRANCH  10  11
HETATM   11  C5  UNL     1     -26.861 -12.021 -28.495  1.00  0.00     0.021 C 
BRANCH  11  12
HETATM   12  C6  UNL     1     -28.336 -12.168 -28.280  1.00  0.00     0.124 C 
BRANCH  12  13
HETATM   13  N4  UNL     1     -29.157 -12.206 -29.434  1.00  0.00    -0.371 N 
HETATM   14  C7  UNL     1     -29.522 -13.386 -30.180  1.00  0.00     0.125 C 
HETATM   15  C8  UNL     1     -29.090 -13.148 -31.608  1.00  0.00     0.039 C 
HETATM   16  C9  UNL     1     -29.872 -11.962 -32.122  1.00  0.00     0.122 C 
HETATM   17  N5  UNL     1     -30.008 -10.904 -31.179  1.00  0.00    -0.379 N 
HETATM   18  C10 UNL     1     -29.691 -10.966 -29.921  1.00  0.00     0.079 C 
ATOM     19  H5  UNL     1     -30.387 -10.021 -31.521  1.00  0.00     0.160 HD
BRANCH  18  20
HETATM   20  C11 UNL     1     -29.894  -9.772 -29.058  1.00  0.00     0.053 C 
HETATM   21  C12 UNL     1     -31.325  -9.431 -28.935  1.00  0.00     0.012 C 
HETATM   22  C13 UNL     1     -31.839  -8.211 -29.563  1.00  0.00     0.001 C 
HETATM   23  C14 UNL     1     -30.861  -7.277 -30.182  1.00  0.00     0.000 C 
HETATM   24  C15 UNL     1     -29.602  -7.300 -29.314  1.00  0.00     0.001 C 
HETATM   25  C16 UNL     1     -29.009  -8.672 -29.574  1.00  0.00     0.012 C 
ENDBRANCH  18  20
ENDBRANCH  12  13
ENDBRANCH  11  12
ENDBRANCH  10  11
ENDBRANCH   9  10
ENDBRANCH   7   9
TORSDOF 6
ENDMDL
MODEL 5
REMARK VINA RESULT: -8.097418668      2.046      3.751
REMARK  6 active torsions:
REMARK  status: ('A' for Active; 'I' for Inactive)
REMARK       I    between atoms: N2_3  and  C2_5 
REMARK       I    between atoms: C2_5  and  N3_7 
REMARK    1  A    between atoms: N3_7  and  C3_9 
REMARK    2  A    between atoms: C3_9  and  C4_10 
REMARK    3  A    between atoms: C4_10  and  C5_11 
REMARK    4  A    between atoms: C5_11  and  C6_12 
REMARK    5  A    between atoms: C6_12  and  N4_13 
REMARK    6  A    between atoms: C10_19  and  C11_20 
ROOT
HETATM    1  N1  UNL     1     -22.291 -13.411 -21.950  1.00  0.00    -0.172 NA
HETATM    2  C1  UNL     1     -22.759 -13.620 -22.983  1.00  0.00     0.185 C 
HETATM    3  N2  UNL     1     -23.353 -13.862 -24.251  1.00  0.00    -0.245 N 
ATOM      4  H2  UNL     1     -22.889 -14.439 -24.952  1.00  0.00     0.183 HD
HETATM    5  C2  UNL     1     -24.612 -13.270 -24.504  1.00  0.00     0.329 C 
HETATM    6  O1  UNL     1     -25.199 -12.560 -23.664  1.00  0.00    -0.246 OA
HETATM    7  N3  UNL     1     -25.229 -13.498 -25.772  1.00  0.00    -0.342 N 
ATOM      8  H3  UNL     1     -24.764 -14.076 -26.472  1.00  0.00     0.164 HD
ENDROOT
BRANCH   7   9
HETATM    9  C3  UNL     1     -26.509 -12.907 -26.056  1.00  0.00     0.124 C 
BRANCH   9  10
HETATM   10  C4  UNL     1     -26.523 -12.412 -27.481  1.00  0.00     0.021 C 
BRANCH  10  11
HETATM   11  C5  UNL     1     -27.944 -12.249 -27.965  1.00  0.00     0.021 C 
BRANCH  11  12
HETATM   12  C6  UNL     1     -28.365 -13.344 -28.895  1.00  0.00     0.124 C 
BRANCH  12  13
HETATM   13  N4  UNL     1     -28.979 -12.959 -30.113  1.00  0.00    -0.371 N 
HETATM   14  C7  UNL     1     -30.293 -12.383 -30.260  1.00  0.00     0.125 C 
HETATM   15  C8  UNL     1     -31.054 -13.274 -31.213  1.00  0.00     0.039 C 
HETATM   16  C9  UNL     1     -30.334 -13.233 -32.539  1.00  0.00     0.122 C 
HETATM   17  N5  UNL     1     -28.915 -13.268 -32.430  1.00  0.00    -0.379 N 
HETATM   18  C10 UNL     1     -28.238 -13.146 -31.328  1.00  0.00     0.079 C 
ATOM     19  H5  UNL     1     -28.385 -13.401 -33.291  1.00  0.00     0.160 HD
BRANCH  18  20
HETATM   20  C11 UNL     1     -26.752 -13.203 -31.376  1.00  0.00     0.053 C 
HETATM   21  C12 UNL     1     -26.157 -11.853 -31.306  1.00  0.00     0.012 C 
HETATM   22  C13 UNL     1     -25.488 -11.292 -32.482  1.00  0.00     0.001 C 
HETATM   23  C14 UNL     1     -25.301 -12.170 -33.667  1.00  0.00     0.000 C 
HETATM   24  C15 UNL     1     -25.024 -13.581 -33.145  1.00  0.00     0.001 C 
HETATM   25  C16 UNL     1     -26.358 -14.022 -32.572  1.00  0.00     0.012 C 
ENDBRANCH  18  20
ENDBRANCH  12  13
ENDBRANCH  11  12
ENDBRANCH  10  11
ENDBRANCH   9  10
ENDBRANCH   7   9
TORSDOF 6
ENDMDL
