MODEL 1
REMARK VINA RESULT: -6.419280677      0.000      0.000
REMARK  7 active torsions:
REMARK  status: ('A' for Active; 'I' for Inactive)
REMARK    1  A    between atoms: N1_2  and  C2_3 
REMARK    2  A    between atoms: N1_2  and  C11_16 
REMARK    3  A    between atoms: C2_3  and  C3_4 
REMARK    4  A    between atoms: N2_8  and  C7_9 
REMARK    5  A    between atoms: C7_9  and  C8_10 
REMARK    6  A    between atoms: C8_10  and  O1_11 
REMARK    7  A    between atoms: C8_10  and  C9_13 
ROOT
HETATM    1  C3  UNL     1     -26.417 -13.238 -31.803  1.00  0.00     0.042 C 
HETATM    2  C4  UNL     1     -25.506 -12.301 -32.553  1.00  0.00     0.016 C 
HETATM    3  C5  UNL     1     -24.624 -12.928 -33.569  1.00  0.00     0.045 C 
HETATM    4  C6  UNL     1     -25.481 -13.905 -34.358  1.00  0.00     0.063 C 
HETATM    5  N2  UNL     1     -25.888 -14.921 -33.512  1.00  0.00    -0.367 N 
HETATM    6  C10 UNL     1     -26.902 -14.387 -32.575  1.00  0.00     0.137 C 
ENDROOT
BRANCH   1   7
HETATM    7  C2  UNL     1     -27.559 -12.398 -31.284  1.00  0.00     0.064 C 
BRANCH   7   8
HETATM    8  N1  UNL     1     -28.203 -12.838 -30.139  1.00  0.00    -0.393 N 
HETATM    9  C1  UNL     1     -29.597 -12.959 -30.030  1.00  0.00     0.149 C 
BRANCH   8  10
HETATM   10  C11 UNL     1     -27.568 -12.746 -28.882  1.00  0.00     0.083 C 
HETATM   11  C12 UNL     1     -26.733 -14.000 -28.587  1.00  0.00     0.025 C 
HETATM   12  C13 UNL     1     -26.613 -14.116 -27.103  1.00  0.00     0.002 C 
HETATM   13  C14 UNL     1     -26.562 -12.775 -26.411  1.00  0.00     0.000 C 
HETATM   14  C15 UNL     1     -26.029 -11.687 -27.285  1.00  0.00     0.002 C 
HETATM   15  C16 UNL     1     -26.708 -11.563 -28.625  1.00  0.00     0.025 C 
ENDBRANCH   8  10
ENDBRANCH   7   8
ENDBRANCH   1   7
BRANCH   5  16
HETATM   16  C7  UNL     1     -25.125 -15.929 -32.961  1.00  0.00     0.122 C 
BRANCH  16  17
HETATM   17  C8  UNL     1     -24.563 -17.049 -33.754  1.00  0.00     0.068 C 
BRANCH  17  18
HETATM   18  O1  UNL     1     -23.264 -17.415 -33.338  1.00  0.00    -0.363 OA
ATOM     19  H1  UNL     1     -23.175 -18.350 -33.191  1.00  0.00     0.217 HD
ENDBRANCH  17  18
BRANCH  17  20
HETATM   20  C9  UNL     1     -25.404 -18.108 -34.306  1.00  0.00     0.151 C 
HETATM   21  S1  UNL     1     -26.427 -17.840 -35.713  1.00  0.00    -0.091 SA
ENDBRANCH  17  20
ENDBRANCH  16  17
ENDBRANCH   5  16
TORSDOF 7
ENDMDL
MODEL 2
REMARK VINA RESULT: -6.332246269      5.558      7.309
REMARK  7 active torsions:
REMARK  status: ('A' for Active; 'I' for Inactive)
REMARK    1  A    between atoms: N1_2  and  C2_3 
REMARK    2  A    between atoms: N1_2  and  C11_16 
REMARK    3  A    between atoms: C2_3  and  C3_4 
REMARK    4  A    between atoms: N2_8  and  C7_9 
REMARK    5  A    between atoms: C7_9  and  C8_10 
REMARK    6  A    between atoms: C8_10  and  O1_11 
REMARK    7  A    between atoms: C8_10  and  C9_13 
ROOT
HETATM    1  C3  UNL     1     -29.853 -10.095 -29.175  1.00  0.00     0.042 C 
HETATM    2  C4  UNL     1     -28.857  -9.188 -29.850  1.00  0.00     0.016 C 
HETATM    3  C5  UNL     1     -29.427  -8.022 -30.572  1.00  0.00     0.045 C 
HETATM    4  C6  UNL     1     -30.479  -7.407 -29.662  1.00  0.00     0.063 C 
HETATM    5  N2  UNL     1     -31.512  -8.313 -29.504  1.00  0.00    -0.367 N 
HETATM    6  C10 UNL     1     -31.048  -9.426 -28.646  1.00  0.00     0.137 C 
ENDROOT
BRANCH   1   7
HETATM    7  C2  UNL     1     -29.099 -10.822 -28.088  1.00  0.00     0.064 C 
BRANCH   7   8
HETATM    8  N1  UNL     1     -28.428 -11.980 -28.445  1.00  0.00    -0.393 N 
HETATM    9  C1  UNL     1     -28.941 -12.931 -29.339  1.00  0.00     0.149 C 
BRANCH   8  10
HETATM   10  C11 UNL     1     -27.428 -12.513 -27.604  1.00  0.00     0.083 C 
HETATM   11  C12 UNL     1     -26.813 -13.785 -28.206  1.00  0.00     0.025 C 
HETATM   12  C13 UNL     1     -26.263 -14.592 -27.077  1.00  0.00     0.002 C 
HETATM   13  C14 UNL     1     -25.729 -13.739 -25.951  1.00  0.00     0.000 C 
HETATM   14  C15 UNL     1     -25.286 -12.386 -26.403  1.00  0.00     0.002 C 
HETATM   15  C16 UNL     1     -26.310 -11.621 -27.203  1.00  0.00     0.025 C 
ENDBRANCH   8  10
ENDBRANCH   7   8
ENDBRANCH   1   7
BRANCH   5  16
HETATM   16  C7  UNL     1     -32.450  -8.708 -30.436  1.00  0.00     0.122 C 
BRANCH  16  17
HETATM   17  C8  UNL     1     -33.479  -9.740 -30.166  1.00  0.00     0.068 C 
BRANCH  17  18
HETATM   18  O1  UNL     1     -34.654  -9.203 -29.593  1.00  0.00    -0.363 OA
ATOM     19  H1  UNL     1     -34.546  -8.979 -28.676  1.00  0.00     0.217 HD
ENDBRANCH  17  18
BRANCH  17  20
HETATM   20  C9  UNL     1     -33.636 -10.921 -31.010  1.00  0.00     0.151 C 
HETATM   21  S1  UNL     1     -32.483 -12.251 -30.965  1.00  0.00    -0.091 SA
ENDBRANCH  17  20
ENDBRANCH  16  17
ENDBRANCH   5  16
TORSDOF 7
ENDMDL
MODEL 3
REMARK VINA RESULT: -6.321249112      0.645      1.306
REMARK  7 active torsions:
REMARK  status: ('A' for Active; 'I' for Inactive)
REMARK    1  A    between atoms: N1_2  and  C2_3 
REMARK    2  A    between atoms: N1_2  and  C11_16 
REMARK    3  A    between atoms: C2_3  and  C3_4 
REMARK    4  A    between atoms: N2_8  and  C7_9 
REMARK    5  A    between atoms: C7_9  and  C8_10 
REMARK    6  A    between atoms: C8_10  and  O1_11 
REMARK    7  A    between atoms: C8_10  and  C9_13 
ROOT
HETATM    1  C3  UNL     1     -26.828 -13.545 -32.059  1.00  0.00     0.042 C 
HETATM    2  C4  UNL     1     -25.844 -12.462 -32.419  1.00  0.00     0.016 C 
HETATM    3  C5  UNL     1     -24.664 -12.894 -33.210  1.00  0.00     0.045 C 
HETATM    4  C6  UNL     1     -25.179 -13.812 -34.309  1.00  0.00     0.063 C 
HETATM    5  N2  UNL     1     -25.699 -14.953 -33.725  1.00  0.00    -0.367 N 
HETATM    6  C10 UNL     1     -26.974 -14.612 -33.056  1.00  0.00     0.137 C 
ENDROOT
BRANCH   1   7
HETATM    7  C2  UNL     1     -28.142 -12.854 -31.791  1.00  0.00     0.064 C 
BRANCH   7   8
HETATM    8  N1  UNL     1     -28.672 -12.966 -30.515  1.00  0.00    -0.393 N 
HETATM    9  C1  UNL     1     -30.041 -12.862 -30.231  1.00  0.00     0.149 C 
BRANCH   8  10
HETATM   10  C11 UNL     1     -27.864 -12.723 -29.384  1.00  0.00     0.083 C 
HETATM   11  C12 UNL     1     -28.366 -11.507 -28.591  1.00  0.00     0.025 C 
HETATM   12  C13 UNL     1     -27.203 -10.957 -27.834  1.00  0.00     0.002 C 
HETATM   13  C14 UNL     1     -26.233 -12.027 -27.390  1.00  0.00     0.000 C 
HETATM   14  C15 UNL     1     -26.874 -13.365 -27.227  1.00  0.00     0.002 C 
HETATM   15  C16 UNL     1     -27.667 -13.836 -28.420  1.00  0.00     0.025 C 
ENDBRANCH   8  10
ENDBRANCH   7   8
ENDBRANCH   1   7
BRANCH   5  16
HETATM   16  C7  UNL     1     -25.018 -15.975 -33.096  1.00  0.00     0.122 C 
BRANCH  16  17
HETATM   17  C8  UNL     1     -24.601 -17.219 -33.786  1.00  0.00     0.068 C 
BRANCH  17  18
HETATM   18  O1  UNL     1     -23.371 -17.723 -33.308  1.00  0.00    -0.363 OA
ATOM     19  H1  UNL     1     -23.479 -18.468 -32.728  1.00  0.00     0.217 HD
ENDBRANCH  17  18
BRANCH  17  20
HETATM   20  C9  UNL     1     -25.569 -18.196 -34.279  1.00  0.00     0.151 C 
HETATM   21  S1  UNL     1     -26.389 -17.989 -35.823  1.00  0.00    -0.091 SA
ENDBRANCH  17  20
ENDBRANCH  16  17
ENDBRANCH   5  16
TORSDOF 7
ENDMDL
MODEL 4
REMARK VINA RESULT: -6.295495240      2.543      3.289
REMARK  7 active torsions:
REMARK  status: ('A' for Active; 'I' for Inactive)
REMARK    1  A    between atoms: N1_2  and  C2_3 
REMARK    2  A    between atoms: N1_2  and  C11_16 
REMARK    3  A    between atoms: C2_3  and  C3_4 
REMARK    4  A    between atoms: N2_8  and  C7_9 
REMARK    5  A    between atoms: C7_9  and  C8_10 
REMARK    6  A    between atoms: C8_10  and  O1_11 
REMARK    7  A    between atoms: C8_10  and  C9_13 
ROOT
HETATM    1  C3  UNL     1     -28.319 -12.857 -30.630  1.00  0.00     0.042 C 
HETATM    2  C4  UNL     1     -29.511 -13.275 -31.451  1.00  0.00     0.016 C 
HETATM    3  C5  UNL     1     -29.283 -13.395 -32.913  1.00  0.00     0.045 C 
HETATM    4  C6  UNL     1     -27.968 -14.138 -33.098  1.00  0.00     0.063 C 
HETATM    5  N2  UNL     1     -26.942 -13.352 -32.603  1.00  0.00    -0.367 N 
HETATM    6  C10 UNL     1     -27.023 -13.333 -31.125  1.00  0.00     0.137 C 
ENDROOT
BRANCH   1   7
HETATM    7  C2  UNL     1     -28.583 -13.334 -29.222  1.00  0.00     0.064 C 
BRANCH   7   8
HETATM    8  N1  UNL     1     -28.411 -12.418 -28.197  1.00  0.00    -0.393 N 
HETATM    9  C1  UNL     1     -28.976 -11.134 -28.200  1.00  0.00     0.149 C 
BRANCH   8  10
HETATM   10  C11 UNL     1     -27.305 -12.520 -27.327  1.00  0.00     0.083 C 
HETATM   11  C12 UNL     1     -26.610 -13.882 -27.465  1.00  0.00     0.025 C 
HETATM   12  C13 UNL     1     -25.903 -14.154 -26.179  1.00  0.00     0.002 C 
HETATM   13  C14 UNL     1     -25.378 -12.901 -25.521  1.00  0.00     0.000 C 
HETATM   14  C15 UNL     1     -25.106 -11.800 -26.493  1.00  0.00     0.002 C 
HETATM   15  C16 UNL     1     -26.256 -11.471 -27.411  1.00  0.00     0.025 C 
ENDBRANCH   8  10
ENDBRANCH   7   8
ENDBRANCH   1   7
BRANCH   5  16
HETATM   16  C7  UNL     1     -26.434 -12.183 -33.129  1.00  0.00     0.122 C 
BRANCH  16  17
HETATM   17  C8  UNL     1     -25.118 -12.101 -33.806  1.00  0.00     0.068 C 
BRANCH  17  18
HETATM   18  O1  UNL     1     -24.119 -12.856 -33.151  1.00  0.00    -0.363 OA
ATOM     19  H1  UNL     1     -24.098 -13.763 -33.435  1.00  0.00     0.217 HD
ENDBRANCH  17  18
BRANCH  17  20
HETATM   20  C9  UNL     1     -24.996 -11.958 -35.255  1.00  0.00     0.151 C 
HETATM   21  S1  UNL     1     -24.268 -13.213 -36.251  1.00  0.00    -0.091 SA
ENDBRANCH  17  20
ENDBRANCH  16  17
ENDBRANCH   5  16
TORSDOF 7
ENDMDL
MODEL 5
REMARK VINA RESULT: -6.222983879      6.008      7.912
REMARK  7 active torsions:
REMARK  status: ('A' for Active; 'I' for Inactive)
REMARK    1  A    between atoms: N1_2  and  C2_3 
REMARK    2  A    between atoms: N1_2  and  C11_16 
REMARK    3  A    between atoms: C2_3  and  C3_4 
REMARK    4  A    between atoms: N2_8  and  C7_9 
REMARK    5  A    between atoms: C7_9  and  C8_10 
REMARK    6  A    between atoms: C8_10  and  O1_11 
REMARK    7  A    between atoms: C8_10  and  C9_13 
ROOT
HETATM    1  C3  UNL     1     -29.729 -10.038 -29.203  1.00  0.00     0.042 C 
HETATM    2  C4  UNL     1     -28.556  -9.218 -29.673  1.00  0.00     0.016 C 
HETATM    3  C5  UNL     1     -28.889  -7.945 -30.362  1.00  0.00     0.045 C 
HETATM    4  C6  UNL     1     -29.976  -7.267 -29.543  1.00  0.00     0.063 C 
HETATM    5  N2  UNL     1     -31.117  -8.048 -29.588  1.00  0.00    -0.367 N 
HETATM    6  C10 UNL     1     -30.899  -9.264 -28.773  1.00  0.00     0.137 C 
ENDROOT
BRANCH   1   7
HETATM    7  C2  UNL     1     -29.213 -10.923 -28.094  1.00  0.00     0.064 C 
BRANCH   7   8
HETATM    8  N1  UNL     1     -28.468 -12.032 -28.460  1.00  0.00    -0.393 N 
HETATM    9  C1  UNL     1     -28.909 -12.993 -29.382  1.00  0.00     0.149 C 
BRANCH   8  10
HETATM   10  C11 UNL     1     -27.453 -12.522 -27.611  1.00  0.00     0.083 C 
HETATM   11  C12 UNL     1     -26.805 -13.788 -28.190  1.00  0.00     0.025 C 
HETATM   12  C13 UNL     1     -26.233 -14.558 -27.047  1.00  0.00     0.002 C 
HETATM   13  C14 UNL     1     -25.719 -13.669 -25.939  1.00  0.00     0.000 C 
HETATM   14  C15 UNL     1     -25.314 -12.314 -26.418  1.00  0.00     0.002 C 
HETATM   15  C16 UNL     1     -26.359 -11.593 -27.231  1.00  0.00     0.025 C 
ENDBRANCH   8  10
ENDBRANCH   7   8
ENDBRANCH   1   7
BRANCH   5  16
HETATM   16  C7  UNL     1     -31.961  -8.261 -30.657  1.00  0.00     0.122 C 
BRANCH  16  17
HETATM   17  C8  UNL     1     -33.393  -8.616 -30.505  1.00  0.00     0.068 C 
BRANCH  17  18
HETATM   18  O1  UNL     1     -33.654  -9.972 -30.801  1.00  0.00    -0.363 OA
ATOM     19  H1  UNL     1     -34.542 -10.117 -31.108  1.00  0.00     0.217 HD
ENDBRANCH  17  18
BRANCH  17  20
HETATM   20  C9  UNL     1     -34.249  -7.980 -29.506  1.00  0.00     0.151 C 
HETATM   21  S1  UNL     1     -34.409  -6.230 -29.403  1.00  0.00    -0.091 SA
ENDBRANCH  17  20
ENDBRANCH  16  17
ENDBRANCH   5  16
TORSDOF 7
ENDMDL
