MODEL 1
REMARK VINA RESULT: -7.362196419      0.000      0.000
REMARK  7 active torsions:
REMARK  status: ('A' for Active; 'I' for Inactive)
REMARK    1  A    between atoms: O1_1  and  C1_3 
REMARK    2  A    between atoms: C1_3  and  C2_4 
REMARK    3  A    between atoms: C2_4  and  N1_5 
REMARK    4  A    between atoms: N4_17  and  C9_18 
REMARK    5  A    between atoms: C9_18  and  C10_19 
REMARK    6  A    between atoms: C10_19  and  C11_20 
REMARK    7  A    between atoms: C11_20  and  C12_21 
ROOT
HETATM    1  N1  UNL     1     -25.201 -14.834 -33.512  1.00  0.00    -0.372 N 
ATOM      2  H1  UNL     1     -24.287 -14.889 -33.962  1.00  0.00     0.161 HD
HETATM    3  C3  UNL     1     -25.520 -13.718 -32.957  1.00  0.00     0.130 A 
HETATM    4  N2  UNL     1     -24.627 -12.716 -33.014  1.00  0.00    -0.351 N 
ATOM      5  H2  UNL     1     -23.736 -12.870 -33.488  1.00  0.00     0.166 HD
HETATM    6  C4  UNL     1     -24.877 -11.505 -32.458  1.00  0.00     0.092 A 
HETATM    7  C5  UNL     1     -26.066 -11.245 -31.807  1.00  0.00     0.049 A 
HETATM    8  C6  UNL     1     -27.003 -12.248 -31.731  1.00  0.00     0.067 A 
HETATM    9  C7  UNL     1     -26.710 -13.469 -32.310  1.00  0.00     0.104 A 
HETATM   10  N3  UNL     1     -27.768 -14.244 -32.096  1.00  0.00    -0.347 N 
ATOM     11  H3  UNL     1     -27.872 -15.213 -32.398  1.00  0.00     0.167 HD
HETATM   12  C8  UNL     1     -28.683 -13.526 -31.407  1.00  0.00     0.184 A 
HETATM   13  N4  UNL     1     -28.226 -12.282 -31.172  1.00  0.00    -0.341 N 
ENDROOT
BRANCH  13  14
HETATM   14  C9  UNL     1     -28.913 -11.197 -30.456  1.00  0.00     0.130 C 
BRANCH  14  15
HETATM   15  C10 UNL     1     -29.121 -11.584 -29.016  1.00  0.00     0.021 C 
BRANCH  15  16
HETATM   16  C11 UNL     1     -27.929 -11.218 -28.175  1.00  0.00     0.006 C 
BRANCH  16  17
HETATM   17  C12 UNL     1     -26.856 -12.262 -28.158  1.00  0.00    -0.014 C 
HETATM   18  C13 UNL     1     -25.818 -11.888 -27.125  1.00  0.00     0.004 C 
HETATM   19  C14 UNL     1     -26.007 -12.642 -25.825  1.00  0.00     0.000 C 
HETATM   20  C15 UNL     1     -25.877 -14.140 -26.038  1.00  0.00     0.000 C 
HETATM   21  C16 UNL     1     -26.217 -14.512 -27.470  1.00  0.00     0.000 C 
HETATM   22  C17 UNL     1     -27.379 -13.639 -27.885  1.00  0.00     0.004 C 
ENDBRANCH  16  17
ENDBRANCH  15  16
ENDBRANCH  14  15
ENDBRANCH  13  14
BRANCH   1  23
HETATM   23  C2  UNL     1     -26.023 -16.004 -33.550  1.00  0.00     0.147 C 
BRANCH  23  24
HETATM   24  C1  UNL     1     -25.102 -17.195 -33.830  1.00  0.00     0.183 C 
BRANCH  24  25
HETATM   25  O1  UNL     1     -24.037 -17.092 -32.942  1.00  0.00    -0.399 OA
ATOM     26  H1  UNL     1     -23.273 -17.429 -33.394  1.00  0.00     0.209 HD
ENDBRANCH  24  25
ENDBRANCH  23  24
ENDBRANCH   1  23
TORSDOF 7
ENDMDL
MODEL 2
REMARK VINA RESULT: -7.288790287      2.329      3.417
REMARK  7 active torsions:
REMARK  status: ('A' for Active; 'I' for Inactive)
REMARK    1  A    between atoms: O1_1  and  C1_3 
REMARK    2  A    between atoms: C1_3  and  C2_4 
REMARK    3  A    between atoms: C2_4  and  N1_5 
REMARK    4  A    between atoms: N4_17  and  C9_18 
REMARK    5  A    between atoms: C9_18  and  C10_19 
REMARK    6  A    between atoms: C10_19  and  C11_20 
REMARK    7  A    between atoms: C11_20  and  C12_21 
ROOT
HETATM    1  N1  UNL     1     -27.684 -18.087 -34.706  1.00  0.00    -0.372 N 
ATOM      2  H1  UNL     1     -27.232 -18.914 -35.097  1.00  0.00     0.161 HD
HETATM    3  C3  UNL     1     -26.929 -17.213 -34.140  1.00  0.00     0.130 A 
HETATM    4  N2  UNL     1     -25.609 -17.456 -34.110  1.00  0.00    -0.351 N 
ATOM      5  H2  UNL     1     -25.252 -18.315 -34.530  1.00  0.00     0.166 HD
HETATM    6  C4  UNL     1     -24.737 -16.590 -33.535  1.00  0.00     0.092 A 
HETATM    7  C5  UNL     1     -25.169 -15.415 -32.955  1.00  0.00     0.049 A 
HETATM    8  C6  UNL     1     -26.515 -15.135 -32.969  1.00  0.00     0.067 A 
HETATM    9  C7  UNL     1     -27.371 -16.043 -33.564  1.00  0.00     0.104 A 
HETATM   10  N3  UNL     1     -28.593 -15.534 -33.441  1.00  0.00    -0.347 N 
ATOM     11  H3  UNL     1     -29.456 -15.961 -33.778  1.00  0.00     0.167 HD
HETATM   12  C8  UNL     1     -28.494 -14.353 -32.792  1.00  0.00     0.184 A 
HETATM   13  N4  UNL     1     -27.210 -14.087 -32.491  1.00  0.00    -0.341 N 
ENDROOT
BRANCH  13  14
HETATM   14  C9  UNL     1     -26.681 -12.908 -31.789  1.00  0.00     0.130 C 
BRANCH  14  15
HETATM   15  C10 UNL     1     -27.490 -12.646 -30.546  1.00  0.00     0.021 C 
BRANCH  15  16
HETATM   16  C11 UNL     1     -26.698 -11.864 -29.534  1.00  0.00     0.006 C 
BRANCH  16  17
HETATM   17  C12 UNL     1     -27.024 -12.208 -28.114  1.00  0.00    -0.014 C 
HETATM   18  C13 UNL     1     -27.418 -13.666 -28.037  1.00  0.00     0.004 C 
HETATM   19  C14 UNL     1     -26.278 -14.542 -27.562  1.00  0.00     0.000 C 
HETATM   20  C15 UNL     1     -25.830 -14.147 -26.165  1.00  0.00     0.000 C 
HETATM   21  C16 UNL     1     -26.157 -12.690 -25.887  1.00  0.00     0.000 C 
HETATM   22  C17 UNL     1     -25.896 -11.930 -27.167  1.00  0.00     0.004 C 
ENDBRANCH  16  17
ENDBRANCH  15  16
ENDBRANCH  14  15
ENDBRANCH  13  14
BRANCH   1  23
HETATM   23  C2  UNL     1     -29.106 -17.996 -34.832  1.00  0.00     0.147 C 
BRANCH  23  24
HETATM   24  C1  UNL     1     -29.714 -18.965 -33.813  1.00  0.00     0.183 C 
BRANCH  24  25
HETATM   25  O1  UNL     1     -29.967 -18.224 -32.662  1.00  0.00    -0.399 OA
ATOM     26  H1  UNL     1     -30.681 -18.659 -32.212  1.00  0.00     0.209 HD
ENDBRANCH  24  25
ENDBRANCH  23  24
ENDBRANCH   1  23
TORSDOF 7
ENDMDL
MODEL 3
REMARK VINA RESULT: -7.216762008      2.451      3.894
REMARK  7 active torsions:
REMARK  status: ('A' for Active; 'I' for Inactive)
REMARK    1  A    between atoms: O1_1  and  C1_3 
REMARK    2  A    between atoms: C1_3  and  C2_4 
REMARK    3  A    between atoms: C2_4  and  N1_5 
REMARK    4  A    between atoms: N4_17  and  C9_18 
REMARK    5  A    between atoms: C9_18  and  C10_19 
REMARK    6  A    between atoms: C10_19  and  C11_20 
REMARK    7  A    between atoms: C11_20  and  C12_21 
ROOT
HETATM    1  N1  UNL     1     -26.010 -19.345 -34.563  1.00  0.00    -0.372 N 
ATOM      2  H1  UNL     1     -25.195 -19.957 -34.603  1.00  0.00     0.161 HD
HETATM    3  C3  UNL     1     -25.821 -18.135 -34.170  1.00  0.00     0.130 A 
HETATM    4  N2  UNL     1     -24.568 -17.775 -33.844  1.00  0.00    -0.351 N 
ATOM      5  H2  UNL     1     -23.818 -18.463 -33.917  1.00  0.00     0.166 HD
HETATM    6  C4  UNL     1     -24.275 -16.520 -33.420  1.00  0.00     0.092 A 
HETATM    7  C5  UNL     1     -25.252 -15.554 -33.305  1.00  0.00     0.049 A 
HETATM    8  C6  UNL     1     -26.545 -15.889 -33.631  1.00  0.00     0.067 A 
HETATM    9  C7  UNL     1     -26.804 -17.178 -34.059  1.00  0.00     0.104 A 
HETATM   10  N3  UNL     1     -28.109 -17.230 -34.304  1.00  0.00    -0.347 N 
ATOM     11  H3  UNL     1     -28.623 -18.047 -34.636  1.00  0.00     0.167 HD
HETATM   12  C8  UNL     1     -28.638 -16.016 -34.036  1.00  0.00     0.184 A 
HETATM   13  N4  UNL     1     -27.681 -15.168 -33.617  1.00  0.00    -0.341 N 
ENDROOT
BRANCH  13  14
HETATM   14  C9  UNL     1     -27.842 -13.759 -33.227  1.00  0.00     0.130 C 
BRANCH  14  15
HETATM   15  C10 UNL     1     -28.280 -13.673 -31.789  1.00  0.00     0.021 C 
BRANCH  15  16
HETATM   16  C11 UNL     1     -27.129 -13.318 -30.888  1.00  0.00     0.006 C 
BRANCH  16  17
HETATM   17  C12 UNL     1     -27.545 -12.679 -29.599  1.00  0.00    -0.014 C 
HETATM   18  C13 UNL     1     -27.936 -13.759 -28.616  1.00  0.00     0.004 C 
HETATM   19  C14 UNL     1     -26.824 -14.068 -27.634  1.00  0.00     0.000 C 
HETATM   20  C15 UNL     1     -26.470 -12.845 -26.806  1.00  0.00     0.000 C 
HETATM   21  C16 UNL     1     -26.822 -11.570 -27.552  1.00  0.00     0.000 C 
HETATM   22  C17 UNL     1     -26.483 -11.804 -29.006  1.00  0.00     0.004 C 
ENDBRANCH  16  17
ENDBRANCH  15  16
ENDBRANCH  14  15
ENDBRANCH  13  14
BRANCH   1  23
HETATM   23  C2  UNL     1     -27.270 -19.902 -34.949  1.00  0.00     0.147 C 
BRANCH  23  24
HETATM   24  C1  UNL     1     -27.397 -21.260 -34.253  1.00  0.00     0.183 C 
BRANCH  24  25
HETATM   25  O1  UNL     1     -26.657 -21.175 -33.078  1.00  0.00    -0.399 OA
ATOM     26  H1  UNL     1     -27.274 -21.276 -32.362  1.00  0.00     0.209 HD
ENDBRANCH  24  25
ENDBRANCH  23  24
ENDBRANCH   1  23
TORSDOF 7
ENDMDL
MODEL 4
REMARK VINA RESULT: -6.965366210      2.543      3.885
REMARK  7 active torsions:
REMARK  status: ('A' for Active; 'I' for Inactive)
REMARK    1  A    between atoms: O1_1  and  C1_3 
REMARK    2  A    between atoms: C1_3  and  C2_4 
REMARK    3  A    between atoms: C2_4  and  N1_5 
REMARK    4  A    between atoms: N4_17  and  C9_18 
REMARK    5  A    between atoms: C9_18  and  C10_19 
REMARK    6  A    between atoms: C10_19  and  C11_20 
REMARK    7  A    between atoms: C11_20  and  C12_21 
ROOT
HETATM    1  N1  UNL     1     -26.848 -19.121 -34.885  1.00  0.00    -0.372 N 
ATOM      2  H1  UNL     1     -26.237 -19.907 -35.109  1.00  0.00     0.161 HD
HETATM    3  C3  UNL     1     -26.307 -18.093 -34.330  1.00  0.00     0.130 A 
HETATM    4  N2  UNL     1     -24.986 -18.137 -34.091  1.00  0.00    -0.351 N 
ATOM      5  H2  UNL     1     -24.461 -18.972 -34.353  1.00  0.00     0.166 HD
HETATM    6  C4  UNL     1     -24.332 -17.101 -33.510  1.00  0.00     0.092 A 
HETATM    7  C5  UNL     1     -24.996 -15.950 -33.139  1.00  0.00     0.049 A 
HETATM    8  C6  UNL     1     -26.349 -15.872 -33.370  1.00  0.00     0.067 A 
HETATM    9  C7  UNL     1     -26.980 -16.949 -33.964  1.00  0.00     0.104 A 
HETATM   10  N3  UNL     1     -28.262 -16.615 -34.070  1.00  0.00    -0.347 N 
ATOM     11  H3  UNL     1     -29.001 -17.195 -34.468  1.00  0.00     0.167 HD
HETATM   12  C8  UNL     1     -28.418 -15.373 -33.559  1.00  0.00     0.184 A 
HETATM   13  N4  UNL     1     -27.240 -14.894 -33.120  1.00  0.00    -0.341 N 
ENDROOT
BRANCH  13  14
HETATM   14  C9  UNL     1     -26.981 -13.586 -32.499  1.00  0.00     0.130 C 
BRANCH  14  15
HETATM   15  C10 UNL     1     -27.493 -13.582 -31.082  1.00  0.00     0.021 C 
BRANCH  15  16
HETATM   16  C11 UNL     1     -26.965 -12.401 -30.315  1.00  0.00     0.006 C 
BRANCH  16  17
HETATM   17  C12 UNL     1     -27.317 -12.420 -28.859  1.00  0.00    -0.014 C 
HETATM   18  C13 UNL     1     -27.687 -13.829 -28.458  1.00  0.00     0.004 C 
HETATM   19  C14 UNL     1     -26.542 -14.548 -27.774  1.00  0.00     0.000 C 
HETATM   20  C15 UNL     1     -26.133 -13.834 -26.498  1.00  0.00     0.000 C 
HETATM   21  C16 UNL     1     -26.492 -12.361 -26.566  1.00  0.00     0.000 C 
HETATM   22  C17 UNL     1     -26.216 -11.907 -27.981  1.00  0.00     0.004 C 
ENDBRANCH  16  17
ENDBRANCH  15  16
ENDBRANCH  14  15
ENDBRANCH  13  14
BRANCH   1  23
HETATM   23  C2  UNL     1     -28.234 -19.252 -35.213  1.00  0.00     0.147 C 
BRANCH  23  24
HETATM   24  C1  UNL     1     -28.720 -20.571 -34.607  1.00  0.00     0.183 C 
BRANCH  24  25
HETATM   25  O1  UNL     1     -29.090 -20.293 -33.295  1.00  0.00    -0.399 OA
ATOM     26  H1  UNL     1     -29.514 -21.076 -32.962  1.00  0.00     0.209 HD
ENDBRANCH  24  25
ENDBRANCH  23  24
ENDBRANCH   1  23
TORSDOF 7
ENDMDL
MODEL 5
REMARK VINA RESULT: -6.944314677      0.879      1.367
REMARK  7 active torsions:
REMARK  status: ('A' for Active; 'I' for Inactive)
REMARK    1  A    between atoms: O1_1  and  C1_3 
REMARK    2  A    between atoms: C1_3  and  C2_4 
REMARK    3  A    between atoms: C2_4  and  N1_5 
REMARK    4  A    between atoms: N4_17  and  C9_18 
REMARK    5  A    between atoms: C9_18  and  C10_19 
REMARK    6  A    between atoms: C10_19  and  C11_20 
REMARK    7  A    between atoms: C11_20  and  C12_21 
ROOT
HETATM    1  N1  UNL     1     -24.952 -15.016 -33.966  1.00  0.00    -0.372 N 
ATOM      2  H1  UNL     1     -24.145 -15.126 -34.580  1.00  0.00     0.161 HD
HETATM    3  C3  UNL     1     -25.285 -13.817 -33.638  1.00  0.00     0.130 A 
HETATM    4  N2  UNL     1     -24.546 -12.809 -34.129  1.00  0.00    -0.351 N 
ATOM      5  H2  UNL     1     -23.755 -13.022 -34.737  1.00  0.00     0.166 HD
HETATM    6  C4  UNL     1     -24.824 -11.514 -33.836  1.00  0.00     0.092 A 
HETATM    7  C5  UNL     1     -25.883 -11.172 -33.021  1.00  0.00     0.049 A 
HETATM    8  C6  UNL     1     -26.660 -12.181 -32.502  1.00  0.00     0.067 A 
HETATM    9  C7  UNL     1     -26.345 -13.488 -32.823  1.00  0.00     0.104 A 
HETATM   10  N3  UNL     1     -27.240 -14.248 -32.201  1.00  0.00    -0.347 N 
ATOM     11  H3  UNL     1     -27.286 -15.266 -32.232  1.00  0.00     0.167 HD
HETATM   12  C8  UNL     1     -28.080 -13.437 -31.519  1.00  0.00     0.184 A 
HETATM   13  N4  UNL     1     -27.736 -12.148 -31.694  1.00  0.00    -0.341 N 
ENDROOT
BRANCH  13  14
HETATM   14  C9  UNL     1     -28.392 -10.962 -31.126  1.00  0.00     0.130 C 
BRANCH  14  15
HETATM   15  C10 UNL     1     -28.531 -11.119 -29.634  1.00  0.00     0.021 C 
BRANCH  15  16
HETATM   16  C11 UNL     1     -27.185 -11.208 -28.968  1.00  0.00     0.006 C 
BRANCH  16  17
HETATM   17  C12 UNL     1     -27.222 -11.847 -27.614  1.00  0.00    -0.014 C 
HETATM   18  C13 UNL     1     -27.737 -13.262 -27.750  1.00  0.00     0.004 C 
HETATM   19  C14 UNL     1     -26.615 -14.280 -27.753  1.00  0.00     0.000 C 
HETATM   20  C15 UNL     1     -25.830 -14.234 -26.453  1.00  0.00     0.000 C 
HETATM   21  C16 UNL     1     -25.937 -12.863 -25.809  1.00  0.00     0.000 C 
HETATM   22  C17 UNL     1     -25.890 -11.848 -26.928  1.00  0.00     0.004 C 
ENDBRANCH  16  17
ENDBRANCH  15  16
ENDBRANCH  14  15
ENDBRANCH  13  14
BRANCH   1  23
HETATM   23  C2  UNL     1     -25.620 -16.207 -33.541  1.00  0.00     0.147 C 
BRANCH  23  24
HETATM   24  C1  UNL     1     -24.586 -17.337 -33.557  1.00  0.00     0.183 C 
BRANCH  24  25
HETATM   25  O1  UNL     1     -25.267 -18.494 -33.920  1.00  0.00    -0.399 OA
ATOM     26  H1  UNL     1     -25.479 -18.948 -33.113  1.00  0.00     0.209 HD
ENDBRANCH  24  25
ENDBRANCH  23  24
ENDBRANCH   1  23
TORSDOF 7
ENDMDL
