MODEL 1
REMARK VINA RESULT: -7.547331933      0.000      0.000
REMARK  7 active torsions:
REMARK  status: ('A' for Active; 'I' for Inactive)
REMARK    1  A    between atoms: N1_1  and  C1_5 
REMARK    2  A    between atoms: C1_5  and  C2_6 
REMARK    3  A    between atoms: C2_6  and  C3_7 
REMARK    4  A    between atoms: C3_7  and  C4_8 
REMARK    5  A    between atoms: C4_8  and  C5_9 
REMARK    6  A    between atoms: C12_21  and  O2_22 
REMARK    7  A    between atoms: O2_22  and  C13_23 
ROOT
HETATM    1  C5  UNL     1     -14.447  -0.814  -1.290  1.00  0.00    -0.024 A 
HETATM    2  C6  UNL     1     -13.616  -0.647  -2.405  1.00  0.00     0.025 A 
HETATM    3  C7  UNL     1     -14.104  -0.436  -3.667  1.00  0.00     0.007 A 
HETATM    4  C8  UNL     1     -13.290  -0.271  -4.762  1.00  0.00     0.106 A 
HETATM    5  N2  UNL     1     -13.805  -0.068  -5.988  1.00  0.00    -0.318 N 
ATOM      6  H2  UNL     1     -13.184   0.050  -6.789  1.00  0.00     0.170 HD
HETATM    7  C9  UNL     1     -15.138  -0.019  -6.160  1.00  0.00     0.324 A 
HETATM    8  O1  UNL     1     -15.643   0.169  -7.289  1.00  0.00    -0.247 OA
HETATM    9  N3  UNL     1     -15.977  -0.174  -5.123  1.00  0.00    -0.308 N 
ATOM     10  H3  UNL     1     -16.987  -0.137  -5.266  1.00  0.00     0.170 HD
HETATM   11  C10 UNL     1     -15.465  -0.380  -3.882  1.00  0.00     0.050 A 
HETATM   12  C11 UNL     1     -16.286  -0.539  -2.824  1.00  0.00     0.067 A 
HETATM   13  C12 UNL     1     -15.801  -0.757  -1.508  1.00  0.00     0.077 A 
ENDROOT
BRANCH   1  14
HETATM   14  C4  UNL     1     -13.787  -1.073   0.010  1.00  0.00     0.041 C 
BRANCH  14  15
HETATM   15  C3  UNL     1     -13.444   0.145   0.799  1.00  0.00     0.006 C 
BRANCH  15  16
HETATM   16  C2  UNL     1     -12.569  -0.317   1.958  1.00  0.00     0.027 C 
BRANCH  16  17
HETATM   17  C1  UNL     1     -11.304   0.476   2.064  1.00  0.00     0.229 C 
BRANCH  17  18
HETATM   18  N1  UNL     1     -10.118  -0.301   1.836  1.00  0.00    -0.079 N 
ATOM     19  H13 UNL     1      -9.534   0.134   1.121  1.00  0.00     0.274 HD
ATOM     20  H12 UNL     1      -9.486  -0.238   2.634  1.00  0.00     0.274 HD
ATOM     21  H11 UNL     1     -10.308  -1.276   1.602  1.00  0.00     0.274 HD
ENDBRANCH  17  18
ENDBRANCH  16  17
ENDBRANCH  15  16
ENDBRANCH  14  15
ENDBRANCH   1  14
BRANCH  13  22
HETATM   22  O2  UNL     1     -16.702  -0.890  -0.571  1.00  0.00    -0.345 OA
BRANCH  22  23
HETATM   23  C13 UNL     1     -17.655  -0.476   0.241  1.00  0.00     0.129 C 
HETATM   24  C14 UNL     1     -17.121   0.567   1.218  1.00  0.00     0.032 C 
HETATM   25  C15 UNL     1     -17.971   1.782   1.128  1.00  0.00     0.002 C 
HETATM   26  C16 UNL     1     -18.615   1.690  -0.238  1.00  0.00     0.002 C 
HETATM   27  C17 UNL     1     -18.848   0.205  -0.416  1.00  0.00     0.032 C 
ENDBRANCH  22  23
ENDBRANCH  13  22
TORSDOF 7
ENDMDL
MODEL 2
REMARK VINA RESULT: -7.537083617      1.358      1.784
REMARK  7 active torsions:
REMARK  status: ('A' for Active; 'I' for Inactive)
REMARK    1  A    between atoms: N1_1  and  C1_5 
REMARK    2  A    between atoms: C1_5  and  C2_6 
REMARK    3  A    between atoms: C2_6  and  C3_7 
REMARK    4  A    between atoms: C3_7  and  C4_8 
REMARK    5  A    between atoms: C4_8  and  C5_9 
REMARK    6  A    between atoms: C12_21  and  O2_22 
REMARK    7  A    between atoms: O2_22  and  C13_23 
ROOT
HETATM    1  C5  UNL     1     -14.374  -0.678  -1.722  1.00  0.00    -0.024 A 
HETATM    2  C6  UNL     1     -13.622  -0.470  -2.885  1.00  0.00     0.025 A 
HETATM    3  C7  UNL     1     -14.194  -0.329  -4.121  1.00  0.00     0.007 A 
HETATM    4  C8  UNL     1     -13.456  -0.124  -5.264  1.00  0.00     0.106 A 
HETATM    5  N2  UNL     1     -14.053   0.009  -6.462  1.00  0.00    -0.318 N 
ATOM      6  H2  UNL     1     -13.488   0.158  -7.298  1.00  0.00     0.170 HD
HETATM    7  C9  UNL     1     -15.393  -0.055  -6.560  1.00  0.00     0.324 A 
HETATM    8  O1  UNL     1     -15.972   0.067  -7.662  1.00  0.00    -0.247 OA
HETATM    9  N3  UNL     1     -16.159  -0.252  -5.474  1.00  0.00    -0.308 N 
ATOM     10  H3  UNL     1     -17.174  -0.300  -5.560  1.00  0.00     0.170 HD
HETATM   11  C10 UNL     1     -15.564  -0.388  -4.260  1.00  0.00     0.050 A 
HETATM   12  C11 UNL     1     -16.311  -0.587  -3.155  1.00  0.00     0.067 A 
HETATM   13  C12 UNL     1     -15.739  -0.735  -1.865  1.00  0.00     0.077 A 
ENDROOT
BRANCH   1  14
HETATM   14  C4  UNL     1     -13.625  -0.853  -0.457  1.00  0.00     0.041 C 
BRANCH  14  15
HETATM   15  C3  UNL     1     -13.586  -2.248   0.069  1.00  0.00     0.006 C 
BRANCH  15  16
HETATM   16  C2  UNL     1     -13.113  -3.135  -1.076  1.00  0.00     0.027 C 
BRANCH  16  17
HETATM   17  C1  UNL     1     -12.078  -4.122  -0.637  1.00  0.00     0.229 C 
BRANCH  17  18
HETATM   18  N1  UNL     1     -11.120  -3.578   0.286  1.00  0.00    -0.079 N 
ATOM     19  H13 UNL     1     -11.592  -3.139   1.077  1.00  0.00     0.274 HD
ATOM     20  H12 UNL     1     -10.627  -4.325   0.775  1.00  0.00     0.274 HD
ATOM     21  H11 UNL     1     -10.460  -2.931  -0.145  1.00  0.00     0.274 HD
ENDBRANCH  17  18
ENDBRANCH  16  17
ENDBRANCH  15  16
ENDBRANCH  14  15
ENDBRANCH   1  14
BRANCH  13  22
HETATM   22  O2  UNL     1     -16.573  -0.919  -0.876  1.00  0.00    -0.345 OA
BRANCH  22  23
HETATM   23  C13 UNL     1     -17.467  -0.549   0.021  1.00  0.00     0.129 C 
HETATM   24  C14 UNL     1     -16.892   0.511   0.955  1.00  0.00     0.032 C 
HETATM   25  C15 UNL     1     -17.797   1.689   0.951  1.00  0.00     0.002 C 
HETATM   26  C16 UNL     1     -18.556   1.576  -0.353  1.00  0.00     0.002 C 
HETATM   27  C17 UNL     1     -18.741   0.084  -0.523  1.00  0.00     0.032 C 
ENDBRANCH  22  23
ENDBRANCH  13  22
TORSDOF 7
ENDMDL
MODEL 3
REMARK VINA RESULT: -7.535634153      1.849      2.284
REMARK  7 active torsions:
REMARK  status: ('A' for Active; 'I' for Inactive)
REMARK    1  A    between atoms: N1_1  and  C1_5 
REMARK    2  A    between atoms: C1_5  and  C2_6 
REMARK    3  A    between atoms: C2_6  and  C3_7 
REMARK    4  A    between atoms: C3_7  and  C4_8 
REMARK    5  A    between atoms: C4_8  and  C5_9 
REMARK    6  A    between atoms: C12_21  and  O2_22 
REMARK    7  A    between atoms: O2_22  and  C13_23 
ROOT
HETATM    1  C5  UNL     1     -14.370  -0.666  -1.723  1.00  0.00    -0.024 A 
HETATM    2  C6  UNL     1     -13.619  -0.457  -2.886  1.00  0.00     0.025 A 
HETATM    3  C7  UNL     1     -14.190  -0.325  -4.124  1.00  0.00     0.007 A 
HETATM    4  C8  UNL     1     -13.454  -0.120  -5.266  1.00  0.00     0.106 A 
HETATM    5  N2  UNL     1     -14.051   0.003  -6.465  1.00  0.00    -0.318 N 
ATOM      6  H2  UNL     1     -13.486   0.153  -7.302  1.00  0.00     0.170 HD
HETATM    7  C9  UNL     1     -15.390  -0.070  -6.564  1.00  0.00     0.324 A 
HETATM    8  O1  UNL     1     -15.969   0.043  -7.667  1.00  0.00    -0.247 OA
HETATM    9  N3  UNL     1     -16.155  -0.268  -5.478  1.00  0.00    -0.308 N 
ATOM     10  H3  UNL     1     -17.170  -0.324  -5.565  1.00  0.00     0.170 HD
HETATM   11  C10 UNL     1     -15.560  -0.395  -4.263  1.00  0.00     0.050 A 
HETATM   12  C11 UNL     1     -16.306  -0.595  -3.157  1.00  0.00     0.067 A 
HETATM   13  C12 UNL     1     -15.734  -0.734  -1.866  1.00  0.00     0.077 A 
ENDROOT
BRANCH   1  14
HETATM   14  C4  UNL     1     -13.621  -0.830  -0.457  1.00  0.00     0.041 C 
BRANCH  14  15
HETATM   15  C3  UNL     1     -13.773  -2.159   0.202  1.00  0.00     0.006 C 
BRANCH  15  16
HETATM   16  C2  UNL     1     -13.220  -3.195  -0.769  1.00  0.00     0.027 C 
BRANCH  16  17
HETATM   17  C1  UNL     1     -14.202  -4.289  -1.051  1.00  0.00     0.229 C 
BRANCH  17  18
HETATM   18  N1  UNL     1     -15.529  -4.004  -0.581  1.00  0.00    -0.079 N 
ATOM     19  H13 UNL     1     -16.149  -4.796  -0.751  1.00  0.00     0.274 HD
ATOM     20  H12 UNL     1     -15.555  -3.983   0.438  1.00  0.00     0.274 HD
ATOM     21  H11 UNL     1     -15.924  -3.147  -0.969  1.00  0.00     0.274 HD
ENDBRANCH  17  18
ENDBRANCH  16  17
ENDBRANCH  15  16
ENDBRANCH  14  15
ENDBRANCH   1  14
BRANCH  13  22
HETATM   22  O2  UNL     1     -16.568  -0.919  -0.878  1.00  0.00    -0.345 OA
BRANCH  22  23
HETATM   23  C13 UNL     1     -17.469  -0.553   0.014  1.00  0.00     0.129 C 
HETATM   24  C14 UNL     1     -16.908   0.518   0.944  1.00  0.00     0.032 C 
HETATM   25  C15 UNL     1     -17.824   1.687   0.930  1.00  0.00     0.002 C 
HETATM   26  C16 UNL     1     -18.577   1.559  -0.376  1.00  0.00     0.002 C 
HETATM   27  C17 UNL     1     -18.746   0.064  -0.539  1.00  0.00     0.032 C 
ENDBRANCH  22  23
ENDBRANCH  13  22
TORSDOF 7
ENDMDL
MODEL 4
REMARK VINA RESULT: -7.451475868      1.467      1.633
REMARK  7 active torsions:
REMARK  status: ('A' for Active; 'I' for Inactive)
REMARK    1  A    between atoms: N1_1  and  C1_5 
REMARK    2  A    between atoms: C1_5  and  C2_6 
REMARK    3  A    between atoms: C2_6  and  C3_7 
REMARK    4  A    between atoms: C3_7  and  C4_8 
REMARK    5  A    between atoms: C4_8  and  C5_9 
REMARK    6  A    between atoms: C12_21  and  O2_22 
REMARK    7  A    between atoms: O2_22  and  C13_23 
ROOT
HETATM    1  C5  UNL     1     -14.641  -0.795  -1.230  1.00  0.00    -0.024 A 
HETATM    2  C6  UNL     1     -13.748  -0.695  -2.304  1.00  0.00     0.025 A 
HETATM    3  C7  UNL     1     -14.155  -0.425  -3.584  1.00  0.00     0.007 A 
HETATM    4  C8  UNL     1     -13.279  -0.326  -4.639  1.00  0.00     0.106 A 
HETATM    5  N2  UNL     1     -13.716  -0.060  -5.883  1.00  0.00    -0.318 N 
ATOM      6  H2  UNL     1     -13.050   0.007  -6.653  1.00  0.00     0.170 HD
HETATM    7  C9  UNL     1     -15.029   0.118  -6.113  1.00  0.00     0.324 A 
HETATM    8  O1  UNL     1     -15.461   0.367  -7.261  1.00  0.00    -0.247 OA
HETATM    9  N3  UNL     1     -15.926   0.033  -5.118  1.00  0.00    -0.308 N 
ATOM     10  H3  UNL     1     -16.919   0.168  -5.305  1.00  0.00     0.170 HD
HETATM   11  C10 UNL     1     -15.493  -0.236  -3.858  1.00  0.00     0.050 A 
HETATM   12  C11 UNL     1     -16.374  -0.327  -2.841  1.00  0.00     0.067 A 
HETATM   13  C12 UNL     1     -15.973  -0.606  -1.508  1.00  0.00     0.077 A 
ENDROOT
BRANCH   1  14
HETATM   14  C4  UNL     1     -14.070  -1.130   0.093  1.00  0.00     0.041 C 
BRANCH  14  15
HETATM   15  C3  UNL     1     -13.470   0.017   0.834  1.00  0.00     0.006 C 
BRANCH  15  16
HETATM   16  C2  UNL     1     -14.491   0.446   1.880  1.00  0.00     0.027 C 
BRANCH  16  17
HETATM   17  C1  UNL     1     -14.935   1.862   1.691  1.00  0.00     0.229 C 
BRANCH  17  18
HETATM   18  N1  UNL     1     -15.057   2.595   2.921  1.00  0.00    -0.079 N 
ATOM     19  H13 UNL     1     -15.698   2.124   3.559  1.00  0.00     0.274 HD
ATOM     20  H12 UNL     1     -14.196   2.532   3.465  1.00  0.00     0.274 HD
ATOM     21  H11 UNL     1     -15.330   3.570   2.790  1.00  0.00     0.274 HD
ENDBRANCH  17  18
ENDBRANCH  16  17
ENDBRANCH  15  16
ENDBRANCH  14  15
ENDBRANCH   1  14
BRANCH  13  22
HETATM   22  O2  UNL     1     -16.924  -0.662  -0.615  1.00  0.00    -0.345 OA
BRANCH  22  23
HETATM   23  C13 UNL     1     -18.112  -0.386  -0.111  1.00  0.00     0.129 C 
HETATM   24  C14 UNL     1     -18.041  -0.259   1.408  1.00  0.00     0.032 C 
HETATM   25  C15 UNL     1     -18.613   1.054   1.802  1.00  0.00     0.002 C 
HETATM   26  C16 UNL     1     -18.494   1.905   0.557  1.00  0.00     0.002 C 
HETATM   27  C17 UNL     1     -18.745   0.922  -0.566  1.00  0.00     0.032 C 
ENDBRANCH  22  23
ENDBRANCH  13  22
TORSDOF 7
ENDMDL
MODEL 5
REMARK VINA RESULT: -7.160804943      1.949      2.574
REMARK  7 active torsions:
REMARK  status: ('A' for Active; 'I' for Inactive)
REMARK    1  A    between atoms: N1_1  and  C1_5 
REMARK    2  A    between atoms: C1_5  and  C2_6 
REMARK    3  A    between atoms: C2_6  and  C3_7 
REMARK    4  A    between atoms: C3_7  and  C4_8 
REMARK    5  A    between atoms: C4_8  and  C5_9 
REMARK    6  A    between atoms: C12_21  and  O2_22 
REMARK    7  A    between atoms: O2_22  and  C13_23 
ROOT
HETATM    1  C5  UNL     1     -14.510  -0.749  -1.215  1.00  0.00    -0.024 A 
HETATM    2  C6  UNL     1     -13.660  -0.630  -2.321  1.00  0.00     0.025 A 
HETATM    3  C7  UNL     1     -14.124  -0.421  -3.593  1.00  0.00     0.007 A 
HETATM    4  C8  UNL     1     -13.291  -0.303  -4.680  1.00  0.00     0.106 A 
HETATM    5  N2  UNL     1     -13.784  -0.099  -5.915  1.00  0.00    -0.318 N 
ATOM      6  H2  UNL     1     -13.148  -0.016  -6.709  1.00  0.00     0.170 HD
HETATM    7  C9  UNL     1     -15.112  -0.004  -6.105  1.00  0.00     0.324 A 
HETATM    8  O1  UNL     1     -15.595   0.185  -7.243  1.00  0.00    -0.247 OA
HETATM    9  N3  UNL     1     -15.969  -0.112  -5.077  1.00  0.00    -0.308 N 
ATOM     10  H3  UNL     1     -16.974  -0.040  -5.233  1.00  0.00     0.170 HD
HETATM   11  C10 UNL     1     -15.480  -0.318  -3.826  1.00  0.00     0.050 A 
HETATM   12  C11 UNL     1     -16.319  -0.430  -2.777  1.00  0.00     0.067 A 
HETATM   13  C12 UNL     1     -15.859  -0.646  -1.451  1.00  0.00     0.077 A 
ENDROOT
BRANCH   1  14
HETATM   14  C4  UNL     1     -13.876  -1.012   0.097  1.00  0.00     0.041 C 
BRANCH  14  15
HETATM   15  C3  UNL     1     -13.430   0.202   0.839  1.00  0.00     0.006 C 
BRANCH  15  16
HETATM   16  C2  UNL     1     -14.515   0.514   1.862  1.00  0.00     0.027 C 
BRANCH  16  17
HETATM   17  C1  UNL     1     -15.156   1.845   1.619  1.00  0.00     0.229 C 
BRANCH  17  18
HETATM   18  N1  UNL     1     -16.590   1.790   1.560  1.00  0.00    -0.079 N 
ATOM     19  H13 UNL     1     -16.953   2.508   0.932  1.00  0.00     0.274 HD
ATOM     20  H12 UNL     1     -16.899   0.956   1.062  1.00  0.00     0.274 HD
ATOM     21  H11 UNL     1     -17.038   1.851   2.475  1.00  0.00     0.274 HD
ENDBRANCH  17  18
ENDBRANCH  16  17
ENDBRANCH  15  16
ENDBRANCH  14  15
ENDBRANCH   1  14
BRANCH  13  22
HETATM   22  O2  UNL     1     -16.776  -0.731  -0.525  1.00  0.00    -0.345 OA
BRANCH  22  23
HETATM   23  C13 UNL     1     -17.559  -1.360   0.331  1.00  0.00     0.129 C 
HETATM   24  C14 UNL     1     -18.981  -1.464  -0.210  1.00  0.00     0.032 C 
HETATM   25  C15 UNL     1     -19.395  -2.891  -0.188  1.00  0.00     0.002 C 
HETATM   26  C16 UNL     1     -18.092  -3.660  -0.184  1.00  0.00     0.002 C 
HETATM   27  C17 UNL     1     -17.177  -2.798   0.657  1.00  0.00     0.032 C 
ENDBRANCH  22  23
ENDBRANCH  13  22
TORSDOF 7
ENDMDL
