MODEL 1
REMARK VINA RESULT: -6.274497540      0.000      0.000
REMARK  7 active torsions:
REMARK  status: ('A' for Active; 'I' for Inactive)
REMARK    1  A    between atoms: C1_2  and  C2_3 
REMARK       I    between atoms: C1_2  and  N2_19 
REMARK    2  A    between atoms: C2_3  and  C3_4 
REMARK    3  A    between atoms: C3_4  and  C4_5 
REMARK    4  A    between atoms: C3_4  and  C11_12 
REMARK    5  A    between atoms: C4_5  and  C5_6 
REMARK    6  A    between atoms: C11_12  and  O2_13 
REMARK    7  A    between atoms: N1_15  and  O3_17 
ROOT
HETATM    1  C3  UNL     1     -17.427   0.000  -0.860  1.00  0.00     0.071 C 
ENDROOT
BRANCH   1   2
HETATM    2  C2  UNL     1     -18.703  -0.677  -1.325  1.00  0.00     0.115 C 
BRANCH   2   3
HETATM    3  C1  UNL     1     -19.203  -1.770  -0.524  1.00  0.00     0.220 C 
HETATM    4  O1  UNL     1     -18.669  -2.893  -0.438  1.00  0.00    -0.273 OA
HETATM    5  N2  UNL     1     -20.387  -1.581   0.235  1.00  0.00    -0.348 N 
HETATM    6  C12 UNL     1     -21.067  -0.307   0.193  1.00  0.00     0.152 C 
HETATM    7  C15 UNL     1     -20.960  -2.619   1.063  1.00  0.00     0.152 C 
HETATM    8  C13 UNL     1     -22.558  -0.619   0.349  1.00  0.00     0.187 C 
HETATM    9  O4  UNL     1     -22.815  -1.156   1.587  1.00  0.00    -0.388 OA
HETATM   10  C14 UNL     1     -21.805  -1.917   2.122  1.00  0.00     0.187 C 
ENDBRANCH   2   3
ENDBRANCH   1   2
BRANCH   1  11
HETATM   11  C4  UNL     1     -16.514   0.337  -1.963  1.00  0.00     0.018 C 
BRANCH  11  12
HETATM   12  C5  UNL     1     -16.065  -0.678  -2.922  1.00  0.00    -0.014 C 
HETATM   13  C6  UNL     1     -15.214  -1.800  -2.486  1.00  0.00     0.005 C 
HETATM   14  C7  UNL     1     -13.791  -1.387  -2.163  1.00  0.00     0.000 C 
HETATM   15  C8  UNL     1     -13.263  -0.401  -3.184  1.00  0.00     0.000 C 
HETATM   16  C9  UNL     1     -14.097  -0.510  -4.447  1.00  0.00     0.000 C 
HETATM   17  C10 UNL     1     -15.469   0.046  -4.126  1.00  0.00     0.005 C 
ENDBRANCH  11  12
ENDBRANCH   1  11
BRANCH   1  18
HETATM   18  C11 UNL     1     -17.814   1.019   0.101  1.00  0.00     0.140 C 
HETATM   19  N1  UNL     1     -17.534   0.839   1.382  1.00  0.00    -0.251 N 
ATOM     20  H1  UNL     1     -17.801   1.548   2.064  1.00  0.00     0.196 HD
BRANCH  18  21
HETATM   21  O2  UNL     1     -18.471   2.211  -0.149  1.00  0.00    -0.348 OA
ATOM     22  H2  UNL     1     -18.199   2.914  -0.728  1.00  0.00     0.219 HD
ENDBRANCH  18  21
BRANCH  19  23
HETATM   23  O3  UNL     1     -16.885  -0.298   1.799  1.00  0.00    -0.288 OA
ATOM     24  H3  UNL     1     -17.200  -0.783   2.553  1.00  0.00     0.244 HD
ENDBRANCH  19  23
ENDBRANCH   1  18
TORSDOF 7
ENDMDL
MODEL 2
REMARK VINA RESULT: -6.153830160      1.747      2.055
REMARK  7 active torsions:
REMARK  status: ('A' for Active; 'I' for Inactive)
REMARK    1  A    between atoms: C1_2  and  C2_3 
REMARK       I    between atoms: C1_2  and  N2_19 
REMARK    2  A    between atoms: C2_3  and  C3_4 
REMARK    3  A    between atoms: C3_4  and  C4_5 
REMARK    4  A    between atoms: C3_4  and  C11_12 
REMARK    5  A    between atoms: C4_5  and  C5_6 
REMARK    6  A    between atoms: C11_12  and  O2_13 
REMARK    7  A    between atoms: N1_15  and  O3_17 
ROOT
HETATM    1  C3  UNL     1     -17.161   0.125  -0.159  1.00  0.00     0.071 C 
ENDROOT
BRANCH   1   2
HETATM    2  C2  UNL     1     -17.720  -1.200   0.325  1.00  0.00     0.115 C 
BRANCH   2   3
HETATM    3  C1  UNL     1     -18.669  -1.161   1.413  1.00  0.00     0.220 C 
HETATM    4  O1  UNL     1     -18.619  -0.369   2.373  1.00  0.00    -0.273 OA
HETATM    5  N2  UNL     1     -19.750  -2.079   1.415  1.00  0.00    -0.348 N 
HETATM    6  C12 UNL     1     -19.882  -3.031   0.336  1.00  0.00     0.152 C 
HETATM    7  C15 UNL     1     -20.747  -2.113   2.463  1.00  0.00     0.152 C 
HETATM    8  C13 UNL     1     -20.501  -4.288   0.954  1.00  0.00     0.187 C 
HETATM    9  O4  UNL     1     -21.773  -4.032   1.404  1.00  0.00    -0.388 OA
HETATM   10  C14 UNL     1     -21.993  -2.756   1.862  1.00  0.00     0.187 C 
ENDBRANCH   2   3
ENDBRANCH   1   2
BRANCH   1  11
HETATM   11  C4  UNL     1     -15.921  -0.019  -0.938  1.00  0.00     0.018 C 
BRANCH  11  12
HETATM   12  C5  UNL     1     -15.852  -0.893  -2.114  1.00  0.00    -0.014 C 
HETATM   13  C6  UNL     1     -14.908  -2.026  -2.155  1.00  0.00     0.005 C 
HETATM   14  C7  UNL     1     -13.462  -1.598  -2.311  1.00  0.00     0.000 C 
HETATM   15  C8  UNL     1     -13.328  -0.478  -3.320  1.00  0.00     0.000 C 
HETATM   16  C9  UNL     1     -14.560  -0.466  -4.206  1.00  0.00     0.000 C 
HETATM   17  C10 UNL     1     -15.723  -0.007  -3.349  1.00  0.00     0.005 C 
ENDBRANCH  11  12
ENDBRANCH   1  11
BRANCH   1  18
HETATM   18  C11 UNL     1     -18.275   0.883  -0.700  1.00  0.00     0.140 C 
HETATM   19  N1  UNL     1     -18.677   1.978  -0.072  1.00  0.00    -0.251 N 
ATOM     20  H1  UNL     1     -19.459   2.517  -0.443  1.00  0.00     0.196 HD
BRANCH  18  21
HETATM   21  O2  UNL     1     -19.015   0.606  -1.835  1.00  0.00    -0.348 OA
ATOM     22  H2  UNL     1     -19.851   0.980  -2.090  1.00  0.00     0.219 HD
ENDBRANCH  18  21
BRANCH  19  23
HETATM   23  O3  UNL     1     -18.048   2.391   1.078  1.00  0.00    -0.288 OA
ATOM     24  H3  UNL     1     -18.170   3.276   1.401  1.00  0.00     0.244 HD
ENDBRANCH  19  23
ENDBRANCH   1  18
TORSDOF 7
ENDMDL
MODEL 3
REMARK VINA RESULT: -6.123197236      2.569      3.668
REMARK  7 active torsions:
REMARK  status: ('A' for Active; 'I' for Inactive)
REMARK    1  A    between atoms: C1_2  and  C2_3 
REMARK       I    between atoms: C1_2  and  N2_19 
REMARK    2  A    between atoms: C2_3  and  C3_4 
REMARK    3  A    between atoms: C3_4  and  C4_5 
REMARK    4  A    between atoms: C3_4  and  C11_12 
REMARK    5  A    between atoms: C4_5  and  C5_6 
REMARK    6  A    between atoms: C11_12  and  O2_13 
REMARK    7  A    between atoms: N1_15  and  O3_17 
ROOT
HETATM    1  C3  UNL     1     -17.241   0.021  -0.226  1.00  0.00     0.071 C 
ENDROOT
BRANCH   1   2
HETATM    2  C2  UNL     1     -17.834  -1.327   0.137  1.00  0.00     0.115 C 
BRANCH   2   3
HETATM    3  C1  UNL     1     -17.039  -2.199   0.969  1.00  0.00     0.220 C 
HETATM    4  O1  UNL     1     -16.423  -1.842   1.991  1.00  0.00    -0.273 OA
HETATM    5  N2  UNL     1     -16.933  -3.571   0.623  1.00  0.00    -0.348 N 
HETATM    6  C12 UNL     1     -17.619  -4.068  -0.548  1.00  0.00     0.152 C 
HETATM    7  C15 UNL     1     -16.158  -4.517   1.396  1.00  0.00     0.152 C 
HETATM    8  C13 UNL     1     -16.740  -5.190  -1.109  1.00  0.00     0.187 C 
HETATM    9  O4  UNL     1     -16.668  -6.239  -0.225  1.00  0.00    -0.388 OA
HETATM   10  C14 UNL     1     -16.734  -5.898   1.103  1.00  0.00     0.187 C 
ENDBRANCH   2   3
ENDBRANCH   1   2
BRANCH   1  11
HETATM   11  C4  UNL     1     -15.977  -0.083  -0.973  1.00  0.00     0.018 C 
BRANCH  11  12
HETATM   12  C5  UNL     1     -15.863  -0.924  -2.170  1.00  0.00    -0.014 C 
HETATM   13  C6  UNL     1     -14.906  -2.045  -2.212  1.00  0.00     0.005 C 
HETATM   14  C7  UNL     1     -13.460  -1.599  -2.311  1.00  0.00     0.000 C 
HETATM   15  C8  UNL     1     -13.307  -0.450  -3.284  1.00  0.00     0.000 C 
HETATM   16  C9  UNL     1     -14.511  -0.426  -4.207  1.00  0.00     0.000 C 
HETATM   17  C10 UNL     1     -15.704  -0.003  -3.375  1.00  0.00     0.005 C 
ENDBRANCH  11  12
ENDBRANCH   1  11
BRANCH   1  18
HETATM   18  C11 UNL     1     -18.326   0.836  -0.744  1.00  0.00     0.140 C 
HETATM   19  N1  UNL     1     -18.639   1.964  -0.124  1.00  0.00    -0.251 N 
ATOM     20  H1  UNL     1     -19.399   2.543  -0.480  1.00  0.00     0.196 HD
BRANCH  18  21
HETATM   21  O2  UNL     1     -19.121   0.584  -1.848  1.00  0.00    -0.348 OA
ATOM     22  H2  UNL     1     -19.370   1.191  -2.535  1.00  0.00     0.219 HD
ENDBRANCH  18  21
BRANCH  19  23
HETATM   23  O3  UNL     1     -17.947   2.359   0.994  1.00  0.00    -0.288 OA
ATOM     24  H3  UNL     1     -18.371   2.370   1.844  1.00  0.00     0.244 HD
ENDBRANCH  19  23
ENDBRANCH   1  18
TORSDOF 7
ENDMDL
MODEL 4
REMARK VINA RESULT: -6.090687056      2.002      2.637
REMARK  7 active torsions:
REMARK  status: ('A' for Active; 'I' for Inactive)
REMARK    1  A    between atoms: C1_2  and  C2_3 
REMARK       I    between atoms: C1_2  and  N2_19 
REMARK    2  A    between atoms: C2_3  and  C3_4 
REMARK    3  A    between atoms: C3_4  and  C4_5 
REMARK    4  A    between atoms: C3_4  and  C11_12 
REMARK    5  A    between atoms: C4_5  and  C5_6 
REMARK    6  A    between atoms: C11_12  and  O2_13 
REMARK    7  A    between atoms: N1_15  and  O3_17 
ROOT
HETATM    1  C3  UNL     1     -17.482  -0.313  -1.194  1.00  0.00     0.071 C 
ENDROOT
BRANCH   1   2
HETATM    2  C2  UNL     1     -18.515   0.716  -0.774  1.00  0.00     0.115 C 
BRANCH   2   3
HETATM    3  C1  UNL     1     -19.610   0.258   0.049  1.00  0.00     0.220 C 
HETATM    4  O1  UNL     1     -20.436  -0.613  -0.284  1.00  0.00    -0.273 OA
HETATM    5  N2  UNL     1     -19.783   0.822   1.339  1.00  0.00    -0.348 N 
HETATM    6  C12 UNL     1     -18.866   1.838   1.805  1.00  0.00     0.152 C 
HETATM    7  C15 UNL     1     -20.850   0.426   2.231  1.00  0.00     0.152 C 
HETATM    8  C13 UNL     1     -19.686   2.768   2.702  1.00  0.00     0.187 C 
HETATM    9  O4  UNL     1     -20.126   2.101   3.819  1.00  0.00    -0.388 OA
HETATM   10  C14 UNL     1     -20.389   0.765   3.645  1.00  0.00     0.187 C 
ENDBRANCH   2   3
ENDBRANCH   1   2
BRANCH   1  11
HETATM   11  C4  UNL     1     -16.584   0.167  -2.256  1.00  0.00     0.018 C 
BRANCH  11  12
HETATM   12  C5  UNL     1     -15.997  -0.753  -3.236  1.00  0.00    -0.014 C 
HETATM   13  C6  UNL     1     -15.154  -1.881  -2.798  1.00  0.00     0.005 C 
HETATM   14  C7  UNL     1     -13.790  -1.452  -2.291  1.00  0.00     0.000 C 
HETATM   15  C8  UNL     1     -13.195  -0.372  -3.169  1.00  0.00     0.000 C 
HETATM   16  C9  UNL     1     -13.886  -0.402  -4.520  1.00  0.00     0.000 C 
HETATM   17  C10 UNL     1     -15.305   0.084  -4.307  1.00  0.00     0.005 C 
ENDBRANCH  11  12
ENDBRANCH   1  11
BRANCH   1  18
HETATM   18  C11 UNL     1     -16.930  -0.881   0.024  1.00  0.00     0.140 C 
HETATM   19  N1  UNL     1     -17.244  -2.124   0.357  1.00  0.00    -0.251 N 
ATOM     20  H1  UNL     1     -16.862  -2.532   1.209  1.00  0.00     0.196 HD
BRANCH  18  21
HETATM   21  O2  UNL     1     -16.083  -0.273   0.933  1.00  0.00    -0.348 OA
ATOM     22  H2  UNL     1     -16.282  -0.001   1.821  1.00  0.00     0.219 HD
ENDBRANCH  18  21
BRANCH  19  23
HETATM   23  O3  UNL     1     -18.082  -2.867  -0.440  1.00  0.00    -0.288 OA
ATOM     24  H3  UNL     1     -17.937  -2.916  -1.377  1.00  0.00     0.244 HD
ENDBRANCH  19  23
ENDBRANCH   1  18
TORSDOF 7
ENDMDL
MODEL 5
REMARK VINA RESULT: -6.061909794      2.600      5.207
REMARK  7 active torsions:
REMARK  status: ('A' for Active; 'I' for Inactive)
REMARK    1  A    between atoms: C1_2  and  C2_3 
REMARK       I    between atoms: C1_2  and  N2_19 
REMARK    2  A    between atoms: C2_3  and  C3_4 
REMARK    3  A    between atoms: C3_4  and  C4_5 
REMARK    4  A    between atoms: C3_4  and  C11_12 
REMARK    5  A    between atoms: C4_5  and  C5_6 
REMARK    6  A    between atoms: C11_12  and  O2_13 
REMARK    7  A    between atoms: N1_15  and  O3_17 
ROOT
HETATM    1  C3  UNL     1     -17.308  -0.257  -0.459  1.00  0.00     0.071 C 
ENDROOT
BRANCH   1   2
HETATM    2  C2  UNL     1     -16.782  -0.327   0.962  1.00  0.00     0.115 C 
BRANCH   2   3
HETATM    3  C1  UNL     1     -15.472  -0.903   1.156  1.00  0.00     0.220 C 
HETATM    4  O1  UNL     1     -15.202  -2.114   1.042  1.00  0.00    -0.273 OA
HETATM    5  N2  UNL     1     -14.390  -0.052   1.500  1.00  0.00    -0.348 N 
HETATM    6  C12 UNL     1     -14.617   1.367   1.649  1.00  0.00     0.152 C 
HETATM    7  C15 UNL     1     -13.045  -0.540   1.713  1.00  0.00     0.152 C 
HETATM    8  C13 UNL     1     -13.646   1.839   2.735  1.00  0.00     0.187 C 
HETATM    9  O4  UNL     1     -12.345   1.695   2.319  1.00  0.00    -0.388 OA
HETATM   10  C14 UNL     1     -12.108   0.639   1.474  1.00  0.00     0.187 C 
ENDBRANCH   2   3
ENDBRANCH   1   2
BRANCH   1  11
HETATM   11  C4  UNL     1     -16.267   0.062  -1.448  1.00  0.00     0.018 C 
BRANCH  11  12
HETATM   12  C5  UNL     1     -15.966  -0.843  -2.562  1.00  0.00    -0.014 C 
HETATM   13  C6  UNL     1     -15.015  -1.957  -2.390  1.00  0.00     0.005 C 
HETATM   14  C7  UNL     1     -13.571  -1.505  -2.287  1.00  0.00     0.000 C 
HETATM   15  C8  UNL     1     -13.267  -0.411  -3.288  1.00  0.00     0.000 C 
HETATM   16  C9  UNL     1     -14.311  -0.449  -4.388  1.00  0.00     0.000 C 
HETATM   17  C10 UNL     1     -15.620   0.010  -3.779  1.00  0.00     0.005 C 
ENDBRANCH  11  12
ENDBRANCH   1  11
BRANCH   1  18
HETATM   18  C11 UNL     1     -18.164  -1.415  -0.651  1.00  0.00     0.140 C 
HETATM   19  N1  UNL     1     -19.447  -1.232  -0.922  1.00  0.00    -0.251 N 
ATOM     20  H1  UNL     1     -20.056  -2.038  -1.059  1.00  0.00     0.196 HD
BRANCH  18  21
HETATM   21  O2  UNL     1     -17.808  -2.750  -0.585  1.00  0.00    -0.348 OA
ATOM     22  H2  UNL     1     -16.957  -3.134  -0.762  1.00  0.00     0.219 HD
ENDBRANCH  18  21
BRANCH  19  23
HETATM   23  O3  UNL     1     -19.964   0.037  -1.019  1.00  0.00    -0.288 OA
ATOM     24  H3  UNL     1     -19.473   0.783  -0.694  1.00  0.00     0.244 HD
ENDBRANCH  19  23
ENDBRANCH   1  18
TORSDOF 7
ENDMDL
