MODEL 1
REMARK VINA RESULT: -6.250668878      0.000      0.000
REMARK  7 active torsions:
REMARK  status: ('A' for Active; 'I' for Inactive)
REMARK    1  A    between atoms: C3_3  and  O1_4 
REMARK    2  A    between atoms: N2_9  and  C5_11 
REMARK    3  A    between atoms: C5_11  and  C6_12 
REMARK    4  A    between atoms: C6_12  and  C7_13 
REMARK    5  A    between atoms: C7_13  and  C8_14 
REMARK    6  A    between atoms: C8_14  and  C9_15 
REMARK    7  A    between atoms: C9_15  and  N3_16 
ROOT
HETATM    1  C1  UNL     1     -13.123  -0.374  -3.605  1.00  0.00     0.053 C 
HETATM    2  C2  UNL     1     -14.489  -0.516  -3.061  1.00  0.00    -0.004 A 
HETATM    3  C3  UNL     1     -15.569  -0.479  -3.910  1.00  0.00     0.148 A 
HETATM    4  N1  UNL     1     -16.799  -0.608  -3.428  1.00  0.00    -0.323 N 
ATOM      5  H1  UNL     1     -17.587  -0.578  -4.075  1.00  0.00     0.169 HD
HETATM    6  C4  UNL     1     -17.050  -0.783  -2.065  1.00  0.00     0.109 A 
HETATM    7  N2  UNL     1     -18.233  -0.887  -1.744  1.00  0.00    -0.376 N 
ATOM      8  H2  UNL     1     -18.837  -0.824  -2.563  1.00  0.00     0.161 HD
HETATM    9  C14 UNL     1     -15.955  -0.818  -1.238  1.00  0.00    -0.012 A 
HETATM   10  C15 UNL     1     -16.121  -0.997   0.216  1.00  0.00     0.052 C 
HETATM   11  C16 UNL     1     -14.663  -0.685  -1.712  1.00  0.00    -0.042 A 
HETATM   12  C17 UNL     1     -13.509  -0.722  -0.792  1.00  0.00     0.049 C 
ENDROOT
BRANCH   7  13
HETATM   13  C5  UNL     1     -18.978  -1.064  -0.606  1.00  0.00     0.121 C 
BRANCH  13  14
HETATM   14  C6  UNL     1     -19.845   0.166  -0.251  1.00  0.00     0.020 C 
BRANCH  14  15
HETATM   15  C7  UNL     1     -19.375   0.705   1.077  1.00  0.00     0.003 C 
BRANCH  15  16
HETATM   16  C8  UNL     1     -18.552   1.961   0.868  1.00  0.00     0.030 C 
BRANCH  16  17
HETATM   17  C9  UNL     1     -18.436   2.657   2.205  1.00  0.00     0.272 C 
BRANCH  17  18
HETATM   18  N3  UNL     1     -17.232   2.237   2.854  1.00  0.00     0.092 N 
HETATM   19  C10 UNL     1     -17.146   2.822   4.157  1.00  0.00     0.298 C 
HETATM   20  C11 UNL     1     -15.779   2.626   4.779  1.00  0.00     0.198 C 
HETATM   21  O2  UNL     1     -14.753   2.970   3.879  1.00  0.00    -0.388 OA
HETATM   22  C12 UNL     1     -14.857   2.134   2.789  1.00  0.00     0.198 C 
HETATM   23  C13 UNL     1     -16.107   2.526   2.015  1.00  0.00     0.298 C 
ENDBRANCH  17  18
ENDBRANCH  16  17
ENDBRANCH  15  16
ENDBRANCH  14  15
ENDBRANCH  13  14
ENDBRANCH   7  13
BRANCH   3  24
HETATM   24  O1  UNL     1     -15.418  -0.306  -5.298  1.00  0.00    -0.346 OA
ATOM     25  H1  UNL     1     -16.097   0.089  -5.832  1.00  0.00     0.219 HD
ENDBRANCH   3  24
TORSDOF 7
ENDMDL
MODEL 2
REMARK VINA RESULT: -6.128488864      0.409      1.066
REMARK  7 active torsions:
REMARK  status: ('A' for Active; 'I' for Inactive)
REMARK    1  A    between atoms: C3_3  and  O1_4 
REMARK    2  A    between atoms: N2_9  and  C5_11 
REMARK    3  A    between atoms: C5_11  and  C6_12 
REMARK    4  A    between atoms: C6_12  and  C7_13 
REMARK    5  A    between atoms: C7_13  and  C8_14 
REMARK    6  A    between atoms: C8_14  and  C9_15 
REMARK    7  A    between atoms: C9_15  and  N3_16 
ROOT
HETATM    1  C1  UNL     1     -13.094  -0.410  -3.560  1.00  0.00     0.053 C 
HETATM    2  C2  UNL     1     -14.464  -0.534  -3.021  1.00  0.00    -0.004 A 
HETATM    3  C3  UNL     1     -15.543  -0.321  -3.847  1.00  0.00     0.148 A 
HETATM    4  N1  UNL     1     -16.777  -0.433  -3.369  1.00  0.00    -0.323 N 
ATOM      5  H1  UNL     1     -17.564  -0.272  -3.998  1.00  0.00     0.169 HD
HETATM    6  C4  UNL     1     -17.034  -0.763  -2.036  1.00  0.00     0.109 A 
HETATM    7  N2  UNL     1     -18.219  -0.832  -1.717  1.00  0.00    -0.376 N 
ATOM      8  H2  UNL     1     -18.821  -0.627  -2.515  1.00  0.00     0.161 HD
HETATM    9  C14 UNL     1     -15.939  -0.971  -1.234  1.00  0.00    -0.012 A 
HETATM   10  C15 UNL     1     -16.111  -1.323   0.188  1.00  0.00     0.052 C 
HETATM   11  C16 UNL     1     -14.643  -0.861  -1.703  1.00  0.00    -0.042 A 
HETATM   12  C17 UNL     1     -13.491  -1.087  -0.809  1.00  0.00     0.049 C 
ENDROOT
BRANCH   7  13
HETATM   13  C5  UNL     1     -18.969  -1.104  -0.602  1.00  0.00     0.121 C 
BRANCH  13  14
HETATM   14  C6  UNL     1     -19.965   0.024  -0.250  1.00  0.00     0.020 C 
BRANCH  14  15
HETATM   15  C7  UNL     1     -19.545   0.629   1.066  1.00  0.00     0.003 C 
BRANCH  15  16
HETATM   16  C8  UNL     1     -18.606   1.795   0.828  1.00  0.00     0.030 C 
BRANCH  16  17
HETATM   17  C9  UNL     1     -18.600   2.637   2.085  1.00  0.00     0.272 C 
BRANCH  17  18
HETATM   18  N3  UNL     1     -17.248   2.847   2.506  1.00  0.00     0.092 N 
HETATM   19  C10 UNL     1     -16.362   2.035   1.729  1.00  0.00     0.298 C 
HETATM   20  C11 UNL     1     -14.959   2.017   2.303  1.00  0.00     0.198 C 
HETATM   21  O2  UNL     1     -14.975   1.765   3.687  1.00  0.00    -0.388 OA
HETATM   22  C12 UNL     1     -15.677   2.787   4.290  1.00  0.00     0.198 C 
HETATM   23  C13 UNL     1     -17.144   2.631   3.917  1.00  0.00     0.298 C 
ENDBRANCH  17  18
ENDBRANCH  16  17
ENDBRANCH  15  16
ENDBRANCH  14  15
ENDBRANCH  13  14
ENDBRANCH   7  13
BRANCH   3  24
HETATM   24  O1  UNL     1     -15.387   0.016  -5.203  1.00  0.00    -0.346 OA
ATOM     25  H1  UNL     1     -15.423   0.917  -5.504  1.00  0.00     0.219 HD
ENDBRANCH   3  24
TORSDOF 7
ENDMDL
MODEL 3
REMARK VINA RESULT: -6.052875606      2.421      3.104
REMARK  7 active torsions:
REMARK  status: ('A' for Active; 'I' for Inactive)
REMARK    1  A    between atoms: C3_3  and  O1_4 
REMARK    2  A    between atoms: N2_9  and  C5_11 
REMARK    3  A    between atoms: C5_11  and  C6_12 
REMARK    4  A    between atoms: C6_12  and  C7_13 
REMARK    5  A    between atoms: C7_13  and  C8_14 
REMARK    6  A    between atoms: C8_14  and  C9_15 
REMARK    7  A    between atoms: C9_15  and  N3_16 
ROOT
HETATM    1  C1  UNL     1     -12.992  -0.396  -3.906  1.00  0.00     0.053 C 
HETATM    2  C2  UNL     1     -14.345  -0.496  -3.323  1.00  0.00    -0.004 A 
HETATM    3  C3  UNL     1     -15.448  -0.413  -4.141  1.00  0.00     0.148 A 
HETATM    4  N1  UNL     1     -16.667  -0.503  -3.623  1.00  0.00    -0.323 N 
ATOM      5  H1  UNL     1     -17.472  -0.441  -4.247  1.00  0.00     0.169 HD
HETATM    6  C4  UNL     1     -16.885  -0.682  -2.255  1.00  0.00     0.109 A 
HETATM    7  N2  UNL     1     -18.061  -0.748  -1.901  1.00  0.00    -0.376 N 
ATOM      8  H2  UNL     1     -18.685  -0.656  -2.702  1.00  0.00     0.161 HD
HETATM    9  C14 UNL     1     -15.768  -0.762  -1.461  1.00  0.00    -0.012 A 
HETATM   10  C15 UNL     1     -15.898  -0.949  -0.004  1.00  0.00     0.052 C 
HETATM   11  C16 UNL     1     -14.486  -0.670  -1.971  1.00  0.00    -0.042 A 
HETATM   12  C17 UNL     1     -13.308  -0.756  -1.085  1.00  0.00     0.049 C 
ENDROOT
BRANCH   7  13
HETATM   13  C5  UNL     1     -18.778  -0.909  -0.743  1.00  0.00     0.121 C 
BRANCH  13  14
HETATM   14  C6  UNL     1     -19.552   0.363  -0.327  1.00  0.00     0.020 C 
BRANCH  14  15
HETATM   15  C7  UNL     1     -18.553   1.469  -0.098  1.00  0.00     0.003 C 
BRANCH  15  16
HETATM   16  C8  UNL     1     -18.753   2.077   1.276  1.00  0.00     0.030 C 
BRANCH  16  17
HETATM   17  C9  UNL     1     -19.344   1.007   2.165  1.00  0.00     0.272 C 
BRANCH  17  18
HETATM   18  N3  UNL     1     -20.304   1.601   3.046  1.00  0.00     0.092 N 
HETATM   19  C10 UNL     1     -21.628   1.238   2.645  1.00  0.00     0.298 C 
HETATM   20  C11 UNL     1     -22.684   2.045   3.373  1.00  0.00     0.198 C 
HETATM   21  O2  UNL     1     -22.385   3.420   3.347  1.00  0.00    -0.388 OA
HETATM   22  C12 UNL     1     -21.181   3.598   3.993  1.00  0.00     0.198 C 
HETATM   23  C13 UNL     1     -20.086   3.015   3.112  1.00  0.00     0.298 C 
ENDBRANCH  17  18
ENDBRANCH  16  17
ENDBRANCH  15  16
ENDBRANCH  14  15
ENDBRANCH  13  14
ENDBRANCH   7  13
BRANCH   3  24
HETATM   24  O1  UNL     1     -15.330  -0.233  -5.531  1.00  0.00    -0.346 OA
ATOM     25  H1  UNL     1     -16.082  -0.283  -6.109  1.00  0.00     0.219 HD
ENDBRANCH   3  24
TORSDOF 7
ENDMDL
MODEL 4
REMARK VINA RESULT: -6.029387642      1.957      2.609
REMARK  7 active torsions:
REMARK  status: ('A' for Active; 'I' for Inactive)
REMARK    1  A    between atoms: C3_3  and  O1_4 
REMARK    2  A    between atoms: N2_9  and  C5_11 
REMARK    3  A    between atoms: C5_11  and  C6_12 
REMARK    4  A    between atoms: C6_12  and  C7_13 
REMARK    5  A    between atoms: C7_13  and  C8_14 
REMARK    6  A    between atoms: C8_14  and  C9_15 
REMARK    7  A    between atoms: C9_15  and  N3_16 
ROOT
HETATM    1  C1  UNL     1     -13.234  -0.598  -2.967  1.00  0.00     0.053 C 
HETATM    2  C2  UNL     1     -14.375  -0.618  -2.029  1.00  0.00    -0.004 A 
HETATM    3  C3  UNL     1     -14.144  -0.694  -0.675  1.00  0.00     0.148 A 
HETATM    4  N1  UNL     1     -15.164  -0.711   0.173  1.00  0.00    -0.323 N 
ATOM      5  H1  UNL     1     -14.972  -0.767   1.174  1.00  0.00     0.169 HD
HETATM    6  C4  UNL     1     -16.492  -0.654  -0.256  1.00  0.00     0.109 A 
HETATM    7  N2  UNL     1     -17.346  -0.680   0.628  1.00  0.00    -0.376 N 
ATOM      8  H2  UNL     1     -16.912  -0.741   1.548  1.00  0.00     0.161 HD
HETATM    9  C14 UNL     1     -16.696  -0.578  -1.612  1.00  0.00    -0.012 A 
HETATM   10  C15 UNL     1     -18.063  -0.515  -2.160  1.00  0.00     0.052 C 
HETATM   11  C16 UNL     1     -15.653  -0.559  -2.520  1.00  0.00    -0.042 A 
HETATM   12  C17 UNL     1     -15.911  -0.482  -3.971  1.00  0.00     0.049 C 
ENDROOT
BRANCH   7  13
HETATM   13  C5  UNL     1     -18.713  -0.651   0.738  1.00  0.00     0.121 C 
BRANCH  13  14
HETATM   14  C6  UNL     1     -19.223   0.467   1.677  1.00  0.00     0.020 C 
BRANCH  14  15
HETATM   15  C7  UNL     1     -18.955   1.796   1.015  1.00  0.00     0.003 C 
BRANCH  15  16
HETATM   16  C8  UNL     1     -18.023   2.628   1.873  1.00  0.00     0.030 C 
BRANCH  16  17
HETATM   17  C9  UNL     1     -17.769   1.856   3.149  1.00  0.00     0.272 C 
BRANCH  17  18
HETATM   18  N3  UNL     1     -16.358   1.747   3.362  1.00  0.00     0.092 N 
HETATM   19  C10 UNL     1     -15.650   2.213   2.209  1.00  0.00     0.298 C 
HETATM   20  C11 UNL     1     -14.174   1.877   2.273  1.00  0.00     0.198 C 
HETATM   21  O2  UNL     1     -13.971   0.528   2.621  1.00  0.00    -0.388 OA
HETATM   22  C12 UNL     1     -14.516   0.332   3.871  1.00  0.00     0.198 C 
HETATM   23  C13 UNL     1     -16.030   0.405   3.739  1.00  0.00     0.298 C 
ENDBRANCH  17  18
ENDBRANCH  16  17
ENDBRANCH  15  16
ENDBRANCH  14  15
ENDBRANCH  13  14
ENDBRANCH   7  13
BRANCH   3  24
HETATM   24  O1  UNL     1     -12.842  -0.756  -0.146  1.00  0.00    -0.346 OA
ATOM     25  H1  UNL     1     -12.669  -0.624   0.779  1.00  0.00     0.219 HD
ENDBRANCH   3  24
TORSDOF 7
ENDMDL
MODEL 5
REMARK VINA RESULT: -6.009743823      4.609      7.501
REMARK  7 active torsions:
REMARK  status: ('A' for Active; 'I' for Inactive)
REMARK    1  A    between atoms: C3_3  and  O1_4 
REMARK    2  A    between atoms: N2_9  and  C5_11 
REMARK    3  A    between atoms: C5_11  and  C6_12 
REMARK    4  A    between atoms: C6_12  and  C7_13 
REMARK    5  A    between atoms: C7_13  and  C8_14 
REMARK    6  A    between atoms: C8_14  and  C9_15 
REMARK    7  A    between atoms: C9_15  and  N3_16 
ROOT
HETATM    1  C1  UNL     1     -15.807  -0.421  -4.648  1.00  0.00     0.053 C 
HETATM    2  C2  UNL     1     -15.082  -0.459  -3.361  1.00  0.00    -0.004 A 
HETATM    3  C3  UNL     1     -13.709  -0.527  -3.354  1.00  0.00     0.148 A 
HETATM    4  N1  UNL     1     -13.051  -0.560  -2.202  1.00  0.00    -0.323 N 
ATOM      5  H1  UNL     1     -12.032  -0.609  -2.218  1.00  0.00     0.169 HD
HETATM    6  C4  UNL     1     -13.706  -0.529  -0.968  1.00  0.00     0.109 A 
HETATM    7  N2  UNL     1     -12.984  -0.567   0.027  1.00  0.00    -0.376 N 
ATOM      8  H2  UNL     1     -12.002  -0.617  -0.242  1.00  0.00     0.161 HD
HETATM    9  C14 UNL     1     -15.077  -0.460  -1.003  1.00  0.00    -0.012 A 
HETATM   10  C15 UNL     1     -15.856  -0.424   0.249  1.00  0.00     0.052 C 
HETATM   11  C16 UNL     1     -15.789  -0.426  -2.188  1.00  0.00    -0.042 A 
HETATM   12  C17 UNL     1     -17.264  -0.358  -2.186  1.00  0.00     0.049 C 
ENDROOT
BRANCH   7  13
HETATM   13  C5  UNL     1     -13.114  -0.563   1.392  1.00  0.00     0.121 C 
BRANCH  13  14
HETATM   14  C6  UNL     1     -12.302  -1.682   2.082  1.00  0.00     0.020 C 
BRANCH  14  15
HETATM   15  C7  UNL     1     -12.622  -2.987   1.397  1.00  0.00     0.003 C 
BRANCH  15  16
HETATM   16  C8  UNL     1     -11.359  -3.809   1.224  1.00  0.00     0.030 C 
BRANCH  16  17
HETATM   17  C9  UNL     1     -11.383  -4.392  -0.171  1.00  0.00     0.272 C 
BRANCH  17  18
HETATM   18  N3  UNL     1     -10.201  -5.171  -0.378  1.00  0.00     0.092 N 
HETATM   19  C10 UNL     1      -9.108  -4.606   0.353  1.00  0.00     0.298 C 
HETATM   20  C11 UNL     1      -7.782  -5.229  -0.036  1.00  0.00     0.198 C 
HETATM   21  O2  UNL     1      -7.631  -5.279  -1.434  1.00  0.00    -0.388 OA
HETATM   22  C12 UNL     1      -8.643  -6.067  -1.935  1.00  0.00     0.198 C 
HETATM   23  C13 UNL     1      -9.951  -5.304  -1.781  1.00  0.00     0.298 C 
ENDBRANCH  17  18
ENDBRANCH  16  17
ENDBRANCH  15  16
ENDBRANCH  14  15
ENDBRANCH  13  14
ENDBRANCH   7  13
BRANCH   3  24
HETATM   24  O1  UNL     1     -12.960  -0.563  -4.545  1.00  0.00    -0.346 OA
ATOM     25  H1  UNL     1     -12.334   0.116  -4.764  1.00  0.00     0.219 HD
ENDBRANCH   3  24
TORSDOF 7
ENDMDL
