MODEL 1
REMARK VINA RESULT: -6.911115996      0.000      0.000
REMARK  6 active torsions:
REMARK  status: ('A' for Active; 'I' for Inactive)
REMARK    1  A    between atoms: C2_2  and  C3_3 
REMARK    2  A    between atoms: C3_3  and  C4_4 
REMARK    3  A    between atoms: C4_4  and  C5_5 
REMARK    4  A    between atoms: C5_5  and  C6_6 
REMARK    5  A    between atoms: C6_6  and  C7_7 
REMARK    6  A    between atoms: C8_10  and  C9_11 
ROOT
HETATM    1  C7  UNL     1     -13.592  -2.772  -1.197  1.00  0.00     0.084 A 
HETATM    2  N1  UNL     1     -12.332  -3.154  -1.220  1.00  0.00    -0.343 N 
ATOM      3  H1  UNL     1     -11.537  -2.517  -1.247  1.00  0.00     0.167 HD
HETATM    4  C8  UNL     1     -12.230  -4.529  -1.203  1.00  0.00     0.072 A 
HETATM    5  C14 UNL     1     -13.551  -4.914  -1.170  1.00  0.00     0.132 A 
HETATM    6  N3  UNL     1     -14.386  -3.852  -1.166  1.00  0.00    -0.329 N 
HETATM    7  C15 UNL     1     -15.820  -3.952  -1.119  1.00  0.00     0.150 C 
HETATM    8  C16 UNL     1     -16.327  -5.256  -1.649  1.00  0.00     0.143 C 
HETATM    9  N4  UNL     1     -15.518  -6.365  -1.163  1.00  0.00    -0.354 N 
ATOM     10  H4  UNL     1     -15.965  -7.216  -0.821  1.00  0.00     0.162 HD
HETATM   11  C17 UNL     1     -14.102  -6.253  -1.168  1.00  0.00     0.270 C 
HETATM   12  O1  UNL     1     -13.413  -7.273  -1.173  1.00  0.00    -0.266 OA
ENDROOT
BRANCH   4  13
HETATM   13  C9  UNL     1     -10.952  -5.160  -1.151  1.00  0.00    -0.029 C 
HETATM   14  C10 UNL     1     -10.260  -4.591   0.094  1.00  0.00     0.068 C 
HETATM   15  C11 UNL     1      -9.047  -5.302   0.528  1.00  0.00     0.237 C 
HETATM   16  N2  UNL     1      -8.081  -5.076  -0.575  1.00  0.00    -0.072 N 
HETATM   17  C12 UNL     1      -8.642  -5.826  -1.635  1.00  0.00     0.260 C 
ATOM     18  H22 UNL     1      -7.900  -4.096  -0.793  1.00  0.00     0.277 HD
ATOM     19  H21 UNL     1      -7.113  -5.309  -0.352  1.00  0.00     0.277 HD
HETATM   20  C13 UNL     1      -9.986  -5.344  -2.159  1.00  0.00     0.010 C 
ENDBRANCH   4  13
BRANCH   1  21
HETATM   21  C6  UNL     1     -14.062  -1.378  -1.184  1.00  0.00     0.076 C 
BRANCH  21  22
HETATM   22  C5  UNL     1     -14.396  -0.799  -2.513  1.00  0.00     0.007 C 
BRANCH  22  23
HETATM   23  C4  UNL     1     -13.170  -0.422  -3.347  1.00  0.00     0.000 C 
BRANCH  23  24
HETATM   24  C3  UNL     1     -13.500  -0.346  -4.796  1.00  0.00    -0.000 C 
BRANCH  24  25
HETATM   25  C2  UNL     1     -14.931   0.004  -5.069  1.00  0.00    -0.005 C 
HETATM   26  C1  UNL     1     -15.253   0.085  -6.532  1.00  0.00     0.005 C 
ENDBRANCH  24  25
ENDBRANCH  23  24
ENDBRANCH  22  23
ENDBRANCH  21  22
ENDBRANCH   1  21
TORSDOF 6
ENDMDL
MODEL 2
REMARK VINA RESULT: -6.605331911      5.394      7.003
REMARK  6 active torsions:
REMARK  status: ('A' for Active; 'I' for Inactive)
REMARK    1  A    between atoms: C2_2  and  C3_3 
REMARK    2  A    between atoms: C3_3  and  C4_4 
REMARK    3  A    between atoms: C4_4  and  C5_5 
REMARK    4  A    between atoms: C5_5  and  C6_6 
REMARK    5  A    between atoms: C6_6  and  C7_7 
REMARK    6  A    between atoms: C8_10  and  C9_11 
ROOT
HETATM    1  C7  UNL     1     -16.353   0.292   0.085  1.00  0.00     0.084 A 
HETATM    2  N1  UNL     1     -15.149   0.329   0.618  1.00  0.00    -0.343 N 
ATOM      3  H1  UNL     1     -14.364  -0.242   0.308  1.00  0.00     0.167 HD
HETATM    4  C8  UNL     1     -15.091   1.241   1.651  1.00  0.00     0.072 A 
HETATM    5  C14 UNL     1     -16.376   1.732   1.672  1.00  0.00     0.132 A 
HETATM    6  N3  UNL     1     -17.150   1.162   0.723  1.00  0.00    -0.329 N 
HETATM    7  C15 UNL     1     -18.532   1.492   0.501  1.00  0.00     0.150 C 
HETATM    8  C16 UNL     1     -19.195   2.056   1.718  1.00  0.00     0.143 C 
HETATM    9  N4  UNL     1     -18.329   3.018   2.384  1.00  0.00    -0.354 N 
ATOM     10  H4  UNL     1     -18.707   3.906   2.716  1.00  0.00     0.162 HD
HETATM   11  C17 UNL     1     -16.954   2.713   2.567  1.00  0.00     0.270 C 
HETATM   12  O1  UNL     1     -16.321   3.279   3.457  1.00  0.00    -0.266 OA
ENDROOT
BRANCH   4  13
HETATM   13  C9  UNL     1     -13.860   1.494   2.325  1.00  0.00    -0.029 C 
HETATM   14  C10 UNL     1     -12.797   0.699   1.558  1.00  0.00     0.068 C 
HETATM   15  C11 UNL     1     -11.399   1.030   1.880  1.00  0.00     0.237 C 
HETATM   16  N2  UNL     1     -11.243   0.600   3.292  1.00  0.00    -0.072 N 
HETATM   17  C12 UNL     1     -12.058   1.524   3.987  1.00  0.00     0.260 C 
ATOM     18  H22 UNL     1     -11.462  -0.381   3.468  1.00  0.00     0.277 HD
ATOM     19  H21 UNL     1     -10.278   0.547   3.620  1.00  0.00     0.277 HD
HETATM   20  C13 UNL     1     -13.549   1.453   3.698  1.00  0.00     0.010 C 
ENDBRANCH   4  13
BRANCH   1  21
HETATM   21  C6  UNL     1     -16.760  -0.550  -1.050  1.00  0.00     0.076 C 
BRANCH  21  22
HETATM   22  C5  UNL     1     -16.467   0.003  -2.399  1.00  0.00     0.007 C 
BRANCH  22  23
HETATM   23  C4  UNL     1     -15.482  -0.840  -3.212  1.00  0.00     0.000 C 
BRANCH  23  24
HETATM   24  C3  UNL     1     -14.073  -0.441  -2.945  1.00  0.00    -0.000 C 
BRANCH  24  25
HETATM   25  C2  UNL     1     -13.206  -0.447  -4.165  1.00  0.00    -0.005 C 
HETATM   26  C1  UNL     1     -13.931  -0.031  -5.411  1.00  0.00     0.005 C 
ENDBRANCH  24  25
ENDBRANCH  23  24
ENDBRANCH  22  23
ENDBRANCH  21  22
ENDBRANCH   1  21
TORSDOF 6
ENDMDL
MODEL 3
REMARK VINA RESULT: -6.580707175      4.785      6.664
REMARK  6 active torsions:
REMARK  status: ('A' for Active; 'I' for Inactive)
REMARK    1  A    between atoms: C2_2  and  C3_3 
REMARK    2  A    between atoms: C3_3  and  C4_4 
REMARK    3  A    between atoms: C4_4  and  C5_5 
REMARK    4  A    between atoms: C5_5  and  C6_6 
REMARK    5  A    between atoms: C6_6  and  C7_7 
REMARK    6  A    between atoms: C8_10  and  C9_11 
ROOT
HETATM    1  C7  UNL     1     -15.442  -0.549  -0.674  1.00  0.00     0.084 A 
HETATM    2  N1  UNL     1     -14.634  -0.036   0.230  1.00  0.00    -0.343 N 
ATOM      3  H1  UNL     1     -13.657  -0.305   0.348  1.00  0.00     0.167 HD
HETATM    4  C8  UNL     1     -15.280   0.913   0.995  1.00  0.00     0.072 A 
HETATM    5  C14 UNL     1     -16.545   0.903   0.452  1.00  0.00     0.132 A 
HETATM    6  N3  UNL     1     -16.653   0.018  -0.563  1.00  0.00    -0.329 N 
HETATM    7  C15 UNL     1     -17.854  -0.196  -1.325  1.00  0.00     0.150 C 
HETATM    8  C16 UNL     1     -19.091   0.181  -0.573  1.00  0.00     0.143 C 
HETATM    9  N4  UNL     1     -18.908   1.442   0.132  1.00  0.00    -0.354 N 
ATOM     10  H4  UNL     1     -19.638   2.154   0.109  1.00  0.00     0.162 HD
HETATM   11  C17 UNL     1     -17.704   1.673   0.851  1.00  0.00     0.270 C 
HETATM   12  O1  UNL     1     -17.693   2.498   1.764  1.00  0.00    -0.266 OA
ENDROOT
BRANCH   4  13
HETATM   13  C9  UNL     1     -14.570   1.648   1.989  1.00  0.00    -0.029 C 
HETATM   14  C10 UNL     1     -13.104   1.220   1.852  1.00  0.00     0.068 C 
HETATM   15  C11 UNL     1     -12.129   2.056   2.571  1.00  0.00     0.237 C 
HETATM   16  N2  UNL     1     -12.452   1.838   4.003  1.00  0.00    -0.072 N 
HETATM   17  C12 UNL     1     -13.711   2.467   4.134  1.00  0.00     0.260 C 
ATOM     18  H22 UNL     1     -12.426   0.863   4.304  1.00  0.00     0.277 HD
ATOM     19  H21 UNL     1     -11.740   2.163   4.657  1.00  0.00     0.277 HD
HETATM   20  C13 UNL     1     -14.858   1.843   3.354  1.00  0.00     0.010 C 
ENDBRANCH   4  13
BRANCH   1  21
HETATM   21  C6  UNL     1     -15.075  -1.567  -1.670  1.00  0.00     0.076 C 
BRANCH  21  22
HETATM   22  C5  UNL     1     -13.655  -1.551  -2.113  1.00  0.00     0.007 C 
BRANCH  22  23
HETATM   23  C4  UNL     1     -13.351  -0.485  -3.167  1.00  0.00     0.000 C 
BRANCH  23  24
HETATM   24  C3  UNL     1     -14.441  -0.391  -4.177  1.00  0.00    -0.000 C 
BRANCH  24  25
HETATM   25  C2  UNL     1     -13.963  -0.003  -5.542  1.00  0.00    -0.005 C 
HETATM   26  C1  UNL     1     -15.058   0.035  -6.566  1.00  0.00     0.005 C 
ENDBRANCH  24  25
ENDBRANCH  23  24
ENDBRANCH  22  23
ENDBRANCH  21  22
ENDBRANCH   1  21
TORSDOF 6
ENDMDL
MODEL 4
REMARK VINA RESULT: -6.566226850      3.589      6.729
REMARK  6 active torsions:
REMARK  status: ('A' for Active; 'I' for Inactive)
REMARK    1  A    between atoms: C2_2  and  C3_3 
REMARK    2  A    between atoms: C3_3  and  C4_4 
REMARK    3  A    between atoms: C4_4  and  C5_5 
REMARK    4  A    between atoms: C5_5  and  C6_6 
REMARK    5  A    between atoms: C6_6  and  C7_7 
REMARK    6  A    between atoms: C8_10  and  C9_11 
ROOT
HETATM    1  C7  UNL     1     -17.352  -3.356  -0.654  1.00  0.00     0.084 A 
HETATM    2  N1  UNL     1     -16.256  -2.885  -1.211  1.00  0.00    -0.343 N 
ATOM      3  H1  UNL     1     -15.398  -3.422  -1.339  1.00  0.00     0.167 HD
HETATM    4  C8  UNL     1     -16.419  -1.572  -1.600  1.00  0.00     0.072 A 
HETATM    5  C14 UNL     1     -17.716  -1.319  -1.214  1.00  0.00     0.132 A 
HETATM    6  N3  UNL     1     -18.291  -2.398  -0.638  1.00  0.00    -0.329 N 
HETATM    7  C15 UNL     1     -19.644  -2.430  -0.152  1.00  0.00     0.150 C 
HETATM    8  C16 UNL     1     -20.166  -1.072   0.198  1.00  0.00     0.143 C 
HETATM    9  N4  UNL     1     -19.794  -0.095  -0.815  1.00  0.00    -0.354 N 
ATOM     10  H4  UNL     1     -20.479   0.580  -1.154  1.00  0.00     0.162 HD
HETATM   11  C17 UNL     1     -18.469  -0.088  -1.328  1.00  0.00     0.270 C 
HETATM   12  O1  UNL     1     -18.021   0.939  -1.837  1.00  0.00    -0.266 OA
ENDROOT
BRANCH   4  13
HETATM   13  C9  UNL     1     -15.378  -0.886  -2.291  1.00  0.00    -0.029 C 
HETATM   14  C10 UNL     1     -15.834  -0.807  -3.753  1.00  0.00     0.068 C 
HETATM   15  C11 UNL     1     -15.067   0.113  -4.609  1.00  0.00     0.237 C 
HETATM   16  N2  UNL     1     -13.714  -0.494  -4.670  1.00  0.00    -0.072 N 
HETATM   17  C12 UNL     1     -13.239  -0.322  -3.349  1.00  0.00     0.260 C 
ATOM     18  H22 UNL     1     -13.690  -1.456  -5.012  1.00  0.00     0.277 HD
ATOM     19  H21 UNL     1     -13.106  -0.115  -5.397  1.00  0.00     0.277 HD
HETATM   20  C13 UNL     1     -13.984  -1.084  -2.264  1.00  0.00     0.010 C 
ENDBRANCH   4  13
BRANCH   1  21
HETATM   21  C6  UNL     1     -17.534  -4.724  -0.147  1.00  0.00     0.076 C 
BRANCH  21  22
HETATM   22  C5  UNL     1     -17.387  -5.808  -1.155  1.00  0.00     0.007 C 
BRANCH  22  23
HETATM   23  C4  UNL     1     -16.505  -6.969  -0.690  1.00  0.00     0.000 C 
BRANCH  23  24
HETATM   24  C3  UNL     1     -15.099  -6.532  -0.475  1.00  0.00    -0.000 C 
BRANCH  24  25
HETATM   25  C2  UNL     1     -14.430  -6.029  -1.717  1.00  0.00    -0.005 C 
HETATM   26  C1  UNL     1     -13.308  -5.072  -1.441  1.00  0.00     0.005 C 
ENDBRANCH  24  25
ENDBRANCH  23  24
ENDBRANCH  22  23
ENDBRANCH  21  22
ENDBRANCH   1  21
TORSDOF 6
ENDMDL
MODEL 5
REMARK VINA RESULT: -6.492498191      3.855      5.740
REMARK  6 active torsions:
REMARK  status: ('A' for Active; 'I' for Inactive)
REMARK    1  A    between atoms: C2_2  and  C3_3 
REMARK    2  A    between atoms: C3_3  and  C4_4 
REMARK    3  A    between atoms: C4_4  and  C5_5 
REMARK    4  A    between atoms: C5_5  and  C6_6 
REMARK    5  A    between atoms: C6_6  and  C7_7 
REMARK    6  A    between atoms: C8_10  and  C9_11 
ROOT
HETATM    1  C7  UNL     1     -15.283  -0.366   0.373  1.00  0.00     0.084 A 
HETATM    2  N1  UNL     1     -15.189  -0.060  -0.904  1.00  0.00    -0.343 N 
ATOM      3  H1  UNL     1     -15.083   0.889  -1.263  1.00  0.00     0.167 HD
HETATM    4  C8  UNL     1     -15.250  -1.190  -1.693  1.00  0.00     0.072 A 
HETATM    5  C14 UNL     1     -15.392  -2.186  -0.754  1.00  0.00     0.132 A 
HETATM    6  N3  UNL     1     -15.413  -1.695   0.505  1.00  0.00    -0.329 N 
HETATM    7  C15 UNL     1     -15.535  -2.505   1.686  1.00  0.00     0.150 C 
HETATM    8  C16 UNL     1     -16.203  -3.818   1.422  1.00  0.00     0.143 C 
HETATM    9  N4  UNL     1     -15.703  -4.418   0.194  1.00  0.00    -0.354 N 
ATOM     10  H4  UNL     1     -15.470  -5.411   0.165  1.00  0.00     0.162 HD
HETATM   11  C17 UNL     1     -15.541  -3.611  -0.964  1.00  0.00     0.270 C 
HETATM   12  O1  UNL     1     -15.534  -4.140  -2.075  1.00  0.00    -0.266 OA
ENDROOT
BRANCH   4  13
HETATM   13  C9  UNL     1     -15.096  -1.095  -3.107  1.00  0.00    -0.029 C 
HETATM   14  C10 UNL     1     -13.755  -0.386  -3.330  1.00  0.00     0.068 C 
HETATM   15  C11 UNL     1     -13.232  -0.433  -4.706  1.00  0.00     0.237 C 
HETATM   16  N2  UNL     1     -14.211   0.359  -5.491  1.00  0.00    -0.072 N 
HETATM   17  C12 UNL     1     -15.365  -0.459  -5.460  1.00  0.00     0.260 C 
ATOM     18  H22 UNL     1     -14.354   1.314  -5.161  1.00  0.00     0.277 HD
ATOM     19  H21 UNL     1     -13.898   0.622  -6.426  1.00  0.00     0.277 HD
HETATM   20  C13 UNL     1     -16.003  -0.666  -4.095  1.00  0.00     0.010 C 
ENDBRANCH   4  13
BRANCH   1  21
HETATM   21  C6  UNL     1     -15.231   0.591   1.488  1.00  0.00     0.076 C 
BRANCH  21  22
HETATM   22  C5  UNL     1     -16.322   1.602   1.519  1.00  0.00     0.007 C 
BRANCH  22  23
HETATM   23  C4  UNL     1     -17.723   1.002   1.383  1.00  0.00     0.000 C 
BRANCH  23  24
HETATM   24  C3  UNL     1     -18.541   1.748   0.388  1.00  0.00    -0.000 C 
BRANCH  24  25
HETATM   25  C2  UNL     1     -18.535   1.133  -0.977  1.00  0.00    -0.005 C 
HETATM   26  C1  UNL     1     -18.830  -0.338  -0.966  1.00  0.00     0.005 C 
ENDBRANCH  24  25
ENDBRANCH  23  24
ENDBRANCH  22  23
ENDBRANCH  21  22
ENDBRANCH   1  21
TORSDOF 6
ENDMDL
