MODEL 1
REMARK VINA RESULT: -6.817037943      0.000      0.000
REMARK  9 active torsions:
REMARK  status: ('A' for Active; 'I' for Inactive)
REMARK    1  A    between atoms: C2_2  and  C3_3 
REMARK    2  A    between atoms: C3_3  and  C4_4 
REMARK    3  A    between atoms: C4_4  and  C5_5 
REMARK    4  A    between atoms: C5_5  and  C6_6 
REMARK    5  A    between atoms: C5_5  and  N1_8 
REMARK    6  A    between atoms: N1_8  and  C7_11 
REMARK    7  A    between atoms: C7_11  and  C8_12 
REMARK    8  A    between atoms: C8_12  and  O1_13 
REMARK    9  A    between atoms: C8_12  and  C9_15 
ROOT
HETATM    1  C8  UNL     1     -20.390   7.284   1.943  1.00  0.00     0.195 C 
ENDROOT
BRANCH   1   2
HETATM    2  C7  UNL     1     -19.499   6.720   2.945  1.00  0.00     0.270 C 
BRANCH   2   3
HETATM    3  N1  UNL     1     -19.551   5.477   3.587  1.00  0.00    -0.066 N 
ATOM      4  H12 UNL     1     -18.637   5.057   3.757  1.00  0.00     0.277 HD
ATOM      5  H11 UNL     1     -19.914   4.722   3.007  1.00  0.00     0.277 HD
BRANCH   3   6
HETATM    6  C5  UNL     1     -20.349   5.735   4.830  1.00  0.00     0.214 C 
BRANCH   6   7
HETATM    7  C4  UNL     1     -19.482   5.975   5.998  1.00  0.00     0.035 C 
BRANCH   7   8
HETATM    8  C3  UNL     1     -19.795   5.078   7.139  1.00  0.00     0.002 C 
BRANCH   8   9
HETATM    9  C2  UNL     1     -19.812   5.745   8.503  1.00  0.00    -0.004 C 
HETATM   10  C1  UNL     1     -19.675   4.569   9.488  1.00  0.00     0.005 C 
ENDBRANCH   8   9
ENDBRANCH   7   8
ENDBRANCH   6   7
BRANCH   6  11
HETATM   11  C6  UNL     1     -21.238   4.529   4.925  1.00  0.00     0.255 C 
HETATM   12  F1  UNL     1     -20.976   3.642   3.872  1.00  0.00    -0.253 F 
ENDBRANCH   6  11
ENDBRANCH   3   6
ENDBRANCH   2   3
ENDBRANCH   1   2
BRANCH   1  13
HETATM   13  O1  UNL     1     -20.500   8.696   2.046  1.00  0.00    -0.388 OA
ATOM     14  H1  UNL     1     -21.389   8.980   2.222  1.00  0.00     0.210 HD
ENDBRANCH   1  13
BRANCH   1  15
HETATM   15  C9  UNL     1     -20.158   6.966   0.502  1.00  0.00     0.064 A 
HETATM   16  N2  UNL     1     -19.469   7.581  -0.469  1.00  0.00    -0.358 N 
HETATM   17  C10 UNL     1     -19.393   6.771  -1.567  1.00  0.00     0.029 A 
ATOM     18  H2  UNL     1     -19.062   8.514  -0.399  1.00  0.00     0.165 HD
HETATM   19  C11 UNL     1     -18.725   6.927  -2.864  1.00  0.00     0.070 C 
HETATM   20  C12 UNL     1     -20.065   5.582  -1.289  1.00  0.00     0.080 A 
HETATM   21 CL1  UNL     1     -20.311   4.169  -2.331  1.00  0.00    -0.080 Cl
HETATM   22  C13 UNL     1     -20.535   5.703  -0.007  1.00  0.00     0.083 A 
HETATM   23 CL2  UNL     1     -21.519   4.504   0.841  1.00  0.00    -0.080 Cl
ENDBRANCH   1  15
TORSDOF 9
ENDMDL
MODEL 2
REMARK VINA RESULT: -6.678774967      2.251      2.921
REMARK  9 active torsions:
REMARK  status: ('A' for Active; 'I' for Inactive)
REMARK    1  A    between atoms: C2_2  and  C3_3 
REMARK    2  A    between atoms: C3_3  and  C4_4 
REMARK    3  A    between atoms: C4_4  and  C5_5 
REMARK    4  A    between atoms: C5_5  and  C6_6 
REMARK    5  A    between atoms: C5_5  and  N1_8 
REMARK    6  A    between atoms: N1_8  and  C7_11 
REMARK    7  A    between atoms: C7_11  and  C8_12 
REMARK    8  A    between atoms: C8_12  and  O1_13 
REMARK    9  A    between atoms: C8_12  and  C9_15 
ROOT
HETATM    1  C8  UNL     1     -20.401   7.045   1.573  1.00  0.00     0.195 C 
ENDROOT
BRANCH   1   2
HETATM    2  C7  UNL     1     -19.367   6.096   1.953  1.00  0.00     0.270 C 
BRANCH   2   3
HETATM    3  N1  UNL     1     -19.420   4.699   2.022  1.00  0.00    -0.066 N 
ATOM      4  H12 UNL     1     -18.764   4.289   2.687  1.00  0.00     0.277 HD
ATOM      5  H11 UNL     1     -19.053   4.225   1.197  1.00  0.00     0.277 HD
BRANCH   3   6
HETATM    6  C5  UNL     1     -20.860   4.396   2.314  1.00  0.00     0.214 C 
BRANCH   6   7
HETATM    7  C4  UNL     1     -21.038   3.832   3.664  1.00  0.00     0.035 C 
BRANCH   7   8
HETATM    8  C3  UNL     1     -21.249   4.876   4.698  1.00  0.00     0.002 C 
BRANCH   8   9
HETATM    9  C2  UNL     1     -20.295   4.823   5.878  1.00  0.00    -0.004 C 
HETATM   10  C1  UNL     1     -19.272   5.934   5.574  1.00  0.00     0.005 C 
ENDBRANCH   8   9
ENDBRANCH   7   8
ENDBRANCH   6   7
BRANCH   6  11
HETATM   11  C6  UNL     1     -21.258   3.494   1.181  1.00  0.00     0.255 C 
HETATM   12  F1  UNL     1     -22.152   4.150   0.324  1.00  0.00    -0.253 F 
ENDBRANCH   6  11
ENDBRANCH   3   6
ENDBRANCH   2   3
ENDBRANCH   1   2
BRANCH   1  13
HETATM   13  O1  UNL     1     -20.832   7.845   2.664  1.00  0.00    -0.388 OA
ATOM     14  H1  UNL     1     -20.794   8.775   2.471  1.00  0.00     0.210 HD
ENDBRANCH   1  13
BRANCH   1  15
HETATM   15  C9  UNL     1     -20.155   7.967   0.424  1.00  0.00     0.064 A 
HETATM   16  N2  UNL     1     -19.990   9.295   0.338  1.00  0.00    -0.358 N 
HETATM   17  C10 UNL     1     -19.581   9.629  -0.923  1.00  0.00     0.029 A 
ATOM     18  H2  UNL     1     -20.147   9.956   1.098  1.00  0.00     0.165 HD
HETATM   19  C11 UNL     1     -19.213  10.912  -1.532  1.00  0.00     0.070 C 
HETATM   20  C12 UNL     1     -19.479   8.464  -1.680  1.00  0.00     0.080 A 
HETATM   21 CL1  UNL     1     -19.008   8.275  -3.379  1.00  0.00    -0.080 Cl
HETATM   22  C13 UNL     1     -19.831   7.436  -0.845  1.00  0.00     0.083 A 
HETATM   23 CL2  UNL     1     -19.938   5.733  -1.304  1.00  0.00    -0.080 Cl
ENDBRANCH   1  15
TORSDOF 9
ENDMDL
MODEL 3
REMARK VINA RESULT: -6.539952029      1.610      1.813
REMARK  9 active torsions:
REMARK  status: ('A' for Active; 'I' for Inactive)
REMARK    1  A    between atoms: C2_2  and  C3_3 
REMARK    2  A    between atoms: C3_3  and  C4_4 
REMARK    3  A    between atoms: C4_4  and  C5_5 
REMARK    4  A    between atoms: C5_5  and  C6_6 
REMARK    5  A    between atoms: C5_5  and  N1_8 
REMARK    6  A    between atoms: N1_8  and  C7_11 
REMARK    7  A    between atoms: C7_11  and  C8_12 
REMARK    8  A    between atoms: C8_12  and  O1_13 
REMARK    9  A    between atoms: C8_12  and  C9_15 
ROOT
HETATM    1  C8  UNL     1     -20.875   6.865   1.909  1.00  0.00     0.195 C 
ENDROOT
BRANCH   1   2
HETATM    2  C7  UNL     1     -19.944   6.812   3.026  1.00  0.00     0.270 C 
BRANCH   2   3
HETATM    3  N1  UNL     1     -19.515   5.713   3.779  1.00  0.00    -0.066 N 
ATOM      4  H12 UNL     1     -18.506   5.672   3.920  1.00  0.00     0.277 HD
ATOM      5  H11 UNL     1     -19.597   4.819   3.295  1.00  0.00     0.277 HD
BRANCH   3   6
HETATM    6  C5  UNL     1     -20.310   5.799   5.048  1.00  0.00     0.214 C 
BRANCH   6   7
HETATM    7  C4  UNL     1     -19.442   5.980   6.225  1.00  0.00     0.035 C 
BRANCH   7   8
HETATM    8  C3  UNL     1     -19.828   5.106   7.362  1.00  0.00     0.002 C 
BRANCH   8   9
HETATM    9  C2  UNL     1     -19.818   5.773   8.726  1.00  0.00    -0.004 C 
HETATM   10  C1  UNL     1     -19.465   4.627   9.693  1.00  0.00     0.005 C 
ENDBRANCH   8   9
ENDBRANCH   7   8
ENDBRANCH   6   7
BRANCH   6  11
HETATM   11  C6  UNL     1     -21.120   4.535   5.033  1.00  0.00     0.255 C 
HETATM   12  F1  UNL     1     -20.913   3.833   3.838  1.00  0.00    -0.253 F 
ENDBRANCH   6  11
ENDBRANCH   3   6
ENDBRANCH   2   3
ENDBRANCH   1   2
BRANCH   1  13
HETATM   13  O1  UNL     1     -21.302   8.188   1.619  1.00  0.00    -0.388 OA
ATOM     14  H1  UNL     1     -21.916   8.521   2.264  1.00  0.00     0.210 HD
ENDBRANCH   1  13
BRANCH   1  15
HETATM   15  C9  UNL     1     -20.488   6.236   0.611  1.00  0.00     0.064 A 
HETATM   16  N2  UNL     1     -20.842   5.091   0.011  1.00  0.00    -0.358 N 
HETATM   17  C10 UNL     1     -20.367   5.074  -1.271  1.00  0.00     0.029 A 
ATOM     18  H2  UNL     1     -21.384   4.344   0.445  1.00  0.00     0.165 HD
HETATM   19  C11 UNL     1     -20.506   4.103  -2.362  1.00  0.00     0.070 C 
HETATM   20  C12 UNL     1     -19.676   6.262  -1.503  1.00  0.00     0.080 A 
HETATM   21 CL1  UNL     1     -18.835   6.795  -2.971  1.00  0.00    -0.080 Cl
HETATM   22  C13 UNL     1     -19.754   6.981  -0.340  1.00  0.00     0.083 A 
HETATM   23 CL2  UNL     1     -18.995   8.550  -0.051  1.00  0.00    -0.080 Cl
ENDBRANCH   1  15
TORSDOF 9
ENDMDL
MODEL 4
REMARK VINA RESULT: -6.536650780      2.086      2.590
REMARK  9 active torsions:
REMARK  status: ('A' for Active; 'I' for Inactive)
REMARK    1  A    between atoms: C2_2  and  C3_3 
REMARK    2  A    between atoms: C3_3  and  C4_4 
REMARK    3  A    between atoms: C4_4  and  C5_5 
REMARK    4  A    between atoms: C5_5  and  C6_6 
REMARK    5  A    between atoms: C5_5  and  N1_8 
REMARK    6  A    between atoms: N1_8  and  C7_11 
REMARK    7  A    between atoms: C7_11  and  C8_12 
REMARK    8  A    between atoms: C8_12  and  O1_13 
REMARK    9  A    between atoms: C8_12  and  C9_15 
ROOT
HETATM    1  C8  UNL     1     -20.653   4.233   0.525  1.00  0.00     0.195 C 
ENDROOT
BRANCH   1   2
HETATM    2  C7  UNL     1     -20.397   4.041   1.944  1.00  0.00     0.270 C 
BRANCH   2   3
HETATM    3  N1  UNL     1     -21.256   4.207   3.037  1.00  0.00    -0.066 N 
ATOM      4  H12 UNL     1     -21.647   3.336   3.396  1.00  0.00     0.277 HD
ATOM      5  H11 UNL     1     -22.148   4.642   2.804  1.00  0.00     0.277 HD
BRANCH   3   6
HETATM    6  C5  UNL     1     -20.442   4.973   4.037  1.00  0.00     0.214 C 
BRANCH   6   7
HETATM    7  C4  UNL     1     -20.804   4.621   5.422  1.00  0.00     0.035 C 
BRANCH   7   8
HETATM    8  C3  UNL     1     -20.114   5.467   6.427  1.00  0.00     0.002 C 
BRANCH   8   9
HETATM    9  C2  UNL     1     -19.693   4.752   7.699  1.00  0.00    -0.004 C 
HETATM   10  C1  UNL     1     -19.741   5.855   8.773  1.00  0.00     0.005 C 
ENDBRANCH   8   9
ENDBRANCH   7   8
ENDBRANCH   6   7
BRANCH   6  11
HETATM   11  C6  UNL     1     -20.682   6.404   3.652  1.00  0.00     0.255 C 
HETATM   12  F1  UNL     1     -19.464   7.071   3.459  1.00  0.00    -0.253 F 
ENDBRANCH   6  11
ENDBRANCH   3   6
ENDBRANCH   2   3
ENDBRANCH   1   2
BRANCH   1  13
HETATM   13  O1  UNL     1     -22.007   3.984   0.179  1.00  0.00    -0.388 OA
ATOM     14  H1  UNL     1     -22.543   3.773   0.934  1.00  0.00     0.210 HD
ENDBRANCH   1  13
BRANCH   1  15
HETATM   15  C9  UNL     1     -20.268   5.526  -0.115  1.00  0.00     0.064 A 
HETATM   16  N2  UNL     1     -19.874   6.708   0.381  1.00  0.00    -0.358 N 
HETATM   17  C10 UNL     1     -19.433   7.511  -0.634  1.00  0.00     0.029 A 
ATOM     18  H2  UNL     1     -19.900   6.969   1.366  1.00  0.00     0.165 HD
HETATM   19  C11 UNL     1     -18.855   8.859  -0.644  1.00  0.00     0.070 C 
HETATM   20  C12 UNL     1     -19.550   6.813  -1.835  1.00  0.00     0.080 A 
HETATM   21 CL1  UNL     1     -19.147   7.345  -3.478  1.00  0.00    -0.080 Cl
HETATM   22  C13 UNL     1     -20.063   5.585  -1.511  1.00  0.00     0.083 A 
HETATM   23 CL2  UNL     1     -20.475   4.310  -2.665  1.00  0.00    -0.080 Cl
ENDBRANCH   1  15
TORSDOF 9
ENDMDL
MODEL 5
REMARK VINA RESULT: -6.477248045      4.435      6.041
REMARK  9 active torsions:
REMARK  status: ('A' for Active; 'I' for Inactive)
REMARK    1  A    between atoms: C2_2  and  C3_3 
REMARK    2  A    between atoms: C3_3  and  C4_4 
REMARK    3  A    between atoms: C4_4  and  C5_5 
REMARK    4  A    between atoms: C5_5  and  C6_6 
REMARK    5  A    between atoms: C5_5  and  N1_8 
REMARK    6  A    between atoms: N1_8  and  C7_11 
REMARK    7  A    between atoms: C7_11  and  C8_12 
REMARK    8  A    between atoms: C8_12  and  O1_13 
REMARK    9  A    between atoms: C8_12  and  C9_15 
ROOT
HETATM    1  C8  UNL     1     -20.873   3.082  -2.452  1.00  0.00     0.195 C 
ENDROOT
BRANCH   1   2
HETATM    2  C7  UNL     1     -20.784   4.063  -1.381  1.00  0.00     0.270 C 
BRANCH   2   3
HETATM    3  N1  UNL     1     -20.068   5.265  -1.330  1.00  0.00    -0.066 N 
ATOM      4  H12 UNL     1     -20.487   6.024  -1.868  1.00  0.00     0.277 HD
ATOM      5  H11 UNL     1     -19.183   5.246  -1.834  1.00  0.00     0.277 HD
BRANCH   3   6
HETATM    6  C5  UNL     1     -19.933   5.555   0.136  1.00  0.00     0.214 C 
BRANCH   6   7
HETATM    7  C4  UNL     1     -20.931   4.818   0.933  1.00  0.00     0.035 C 
BRANCH   7   8
HETATM    8  C3  UNL     1     -20.845   5.125   2.383  1.00  0.00     0.002 C 
BRANCH   8   9
HETATM    9  C2  UNL     1     -21.135   3.958   3.311  1.00  0.00    -0.004 C 
HETATM   10  C1  UNL     1     -20.840   4.523   4.714  1.00  0.00     0.005 C 
ENDBRANCH   8   9
ENDBRANCH   7   8
ENDBRANCH   6   7
BRANCH   6  11
HETATM   11  C6  UNL     1     -20.032   7.051   0.202  1.00  0.00     0.255 C 
HETATM   12  F1  UNL     1     -19.067   7.568   1.077  1.00  0.00    -0.253 F 
ENDBRANCH   6  11
ENDBRANCH   3   6
ENDBRANCH   2   3
ENDBRANCH   1   2
BRANCH   1  13
HETATM   13  O1  UNL     1     -20.110   1.915  -2.185  1.00  0.00    -0.388 OA
ATOM     14  H1  UNL     1     -20.639   1.206  -1.839  1.00  0.00     0.210 HD
ENDBRANCH   1  13
BRANCH   1  15
HETATM   15  C9  UNL     1     -22.220   2.630  -2.913  1.00  0.00     0.064 A 
HETATM   16  N2  UNL     1     -23.425   2.608  -2.326  1.00  0.00    -0.358 N 
HETATM   17  C10 UNL     1     -24.382   2.292  -3.250  1.00  0.00     0.029 A 
ATOM     18  H2  UNL     1     -23.602   2.798  -1.340  1.00  0.00     0.165 HD
HETATM   19  C11 UNL     1     -25.843   2.184  -3.159  1.00  0.00     0.070 C 
HETATM   20  C12 UNL     1     -23.764   2.102  -4.484  1.00  0.00     0.080 A 
HETATM   21 CL1  UNL     1     -24.490   1.664  -6.041  1.00  0.00    -0.080 Cl
HETATM   22  C13 UNL     1     -22.426   2.315  -4.274  1.00  0.00     0.083 A 
HETATM   23 CL2  UNL     1     -21.158   2.144  -5.494  1.00  0.00    -0.080 Cl
ENDBRANCH   1  15
TORSDOF 9
ENDMDL
