MODEL 1
REMARK VINA RESULT: -7.999148320      0.000      0.000
REMARK  10 active torsions:
REMARK  status: ('A' for Active; 'I' for Inactive)
REMARK    1  A    between atoms: O1_1  and  C1_3 
REMARK    2  A    between atoms: C1_3  and  C2_4 
REMARK    3  A    between atoms: C2_4  and  C3_5 
REMARK    4  A    between atoms: C3_5  and  C4_6 
REMARK    5  A    between atoms: C4_6  and  N1_7 
REMARK    6  A    between atoms: N1_7  and  C5_10 
REMARK    7  A    between atoms: C5_10  and  C6_11 
REMARK    8  A    between atoms: C6_11  and  O2_12 
REMARK    9  A    between atoms: C6_11  and  C7_14 
REMARK   10  A    between atoms: C7_14  and  C8_15 
ROOT
HETATM    1  C6  UNL     1     -20.966   6.611   2.221  1.00  0.00     0.158 C 
ENDROOT
BRANCH   1   2
HETATM    2  C5  UNL     1     -20.246   6.535   3.525  1.00  0.00     0.264 C 
BRANCH   2   3
HETATM    3  N1  UNL     1     -21.105   6.175   4.632  1.00  0.00    -0.073 N 
ATOM      4  H12 UNL     1     -22.041   5.940   4.305  1.00  0.00     0.277 HD
ATOM      5  H11 UNL     1     -21.326   6.991   5.202  1.00  0.00     0.277 HD
BRANCH   3   6
HETATM    6  C4  UNL     1     -20.568   5.124   5.436  1.00  0.00     0.232 C 
BRANCH   6   7
HETATM    7  C3  UNL     1     -19.697   5.655   6.547  1.00  0.00     0.029 C 
BRANCH   7   8
HETATM    8  C2  UNL     1     -19.691   4.759   7.762  1.00  0.00     0.028 C 
BRANCH   8   9
HETATM    9  C1  UNL     1     -19.737   5.604   9.043  1.00  0.00     0.164 C 
BRANCH   9  10
HETATM   10  O1  UNL     1     -20.553   6.699   8.802  1.00  0.00    -0.401 OA
ATOM     11  H1  UNL     1     -20.281   7.399   9.383  1.00  0.00     0.209 HD
ENDBRANCH   9  10
ENDBRANCH   8   9
ENDBRANCH   7   8
ENDBRANCH   6   7
ENDBRANCH   3   6
ENDBRANCH   2   3
ENDBRANCH   1   2
BRANCH   1  12
HETATM   12  O2  UNL     1     -20.972   7.957   1.845  1.00  0.00    -0.393 OA
ATOM     13  H2  UNL     1     -21.458   8.010   1.030  1.00  0.00     0.210 HD
ENDBRANCH   1  12
BRANCH   1  14
HETATM   14  C7  UNL     1     -20.528   5.673   1.142  1.00  0.00     0.057 C 
HETATM   15  C14 UNL     1     -19.387   4.821   1.676  1.00  0.00     0.024 C 
HETATM   16  C15 UNL     1     -20.013   3.640   0.977  1.00  0.00     0.081 C 
HETATM   17  C16 UNL     1     -21.304   4.406   1.143  1.00  0.00     0.254 C 
HETATM   18  F1  UNL     1     -21.822   4.106   2.381  1.00  0.00    -0.205 F 
HETATM   19  F2  UNL     1     -22.252   4.203   0.197  1.00  0.00    -0.205 F 
BRANCH  14  20
HETATM   20  C8  UNL     1     -20.180   6.252  -0.189  1.00  0.00     0.002 C 
HETATM   21  C9  UNL     1     -20.059   5.240  -1.293  1.00  0.00     0.005 C 
HETATM   22  C10 UNL     1     -19.980   5.793  -2.660  1.00  0.00     0.000 C 
HETATM   23  C11 UNL     1     -19.253   7.107  -2.720  1.00  0.00     0.000 C 
HETATM   24  C12 UNL     1     -18.246   7.081  -1.560  1.00  0.00     0.000 C 
HETATM   25  C13 UNL     1     -19.100   7.239  -0.314  1.00  0.00     0.005 C 
ENDBRANCH  14  20
ENDBRANCH   1  14
TORSDOF 10
ENDMDL
MODEL 2
REMARK VINA RESULT: -7.741179276      3.217      6.928
REMARK  10 active torsions:
REMARK  status: ('A' for Active; 'I' for Inactive)
REMARK    1  A    between atoms: O1_1  and  C1_3 
REMARK    2  A    between atoms: C1_3  and  C2_4 
REMARK    3  A    between atoms: C2_4  and  C3_5 
REMARK    4  A    between atoms: C3_5  and  C4_6 
REMARK    5  A    between atoms: C4_6  and  N1_7 
REMARK    6  A    between atoms: N1_7  and  C5_10 
REMARK    7  A    between atoms: C5_10  and  C6_11 
REMARK    8  A    between atoms: C6_11  and  O2_12 
REMARK    9  A    between atoms: C6_11  and  C7_14 
REMARK   10  A    between atoms: C7_14  and  C8_15 
ROOT
HETATM    1  C6  UNL     1     -19.675   7.614   1.349  1.00  0.00     0.158 C 
ENDROOT
BRANCH   1   2
HETATM    2  C5  UNL     1     -19.736   8.025  -0.083  1.00  0.00     0.264 C 
BRANCH   2   3
HETATM    3  N1  UNL     1     -19.456   9.430  -0.288  1.00  0.00    -0.073 N 
ATOM      4  H12 UNL     1     -18.506   9.658   0.002  1.00  0.00     0.277 HD
ATOM      5  H11 UNL     1     -19.976  10.005   0.375  1.00  0.00     0.277 HD
BRANCH   3   6
HETATM    6  C4  UNL     1     -19.695   9.857  -1.629  1.00  0.00     0.232 C 
BRANCH   6   7
HETATM    7  C3  UNL     1     -19.340  11.309  -1.828  1.00  0.00     0.029 C 
BRANCH   7   8
HETATM    8  C2  UNL     1     -19.778  12.181  -0.676  1.00  0.00     0.028 C 
BRANCH   8   9
HETATM    9  C1  UNL     1     -20.537  13.408  -1.200  1.00  0.00     0.164 C 
BRANCH   9  10
HETATM   10  O1  UNL     1     -20.464  13.396  -2.584  1.00  0.00    -0.401 OA
ATOM     11  H1  UNL     1     -20.806  14.223  -2.902  1.00  0.00     0.209 HD
ENDBRANCH   9  10
ENDBRANCH   8   9
ENDBRANCH   7   8
ENDBRANCH   6   7
ENDBRANCH   3   6
ENDBRANCH   2   3
ENDBRANCH   1   2
BRANCH   1  12
HETATM   12  O2  UNL     1     -20.112   8.710   2.098  1.00  0.00    -0.393 OA
ATOM     13  H2  UNL     1     -19.670   8.659   2.937  1.00  0.00     0.210 HD
ENDBRANCH   1  12
BRANCH   1  14
HETATM   14  C7  UNL     1     -20.324   6.318   1.717  1.00  0.00     0.057 C 
HETATM   15  C14 UNL     1     -21.658   6.223   0.993  1.00  0.00     0.024 C 
HETATM   16  C15 UNL     1     -21.351   4.769   0.731  1.00  0.00     0.081 C 
HETATM   17  C16 UNL     1     -19.908   5.202   0.829  1.00  0.00     0.254 C 
HETATM   18  F1  UNL     1     -19.508   5.638  -0.413  1.00  0.00    -0.205 F 
HETATM   19  F2  UNL     1     -19.029   4.278   1.286  1.00  0.00    -0.205 F 
BRANCH  14  20
HETATM   20  C8  UNL     1     -20.485   6.004   3.167  1.00  0.00     0.002 C 
HETATM   21  C9  UNL     1     -19.212   6.075   3.963  1.00  0.00     0.005 C 
HETATM   22  C10 UNL     1     -19.372   6.033   5.429  1.00  0.00     0.000 C 
HETATM   23  C11 UNL     1     -20.522   5.170   5.869  1.00  0.00     0.000 C 
HETATM   24  C12 UNL     1     -20.674   4.092   4.785  1.00  0.00     0.000 C 
HETATM   25  C13 UNL     1     -21.260   4.832   3.595  1.00  0.00     0.005 C 
ENDBRANCH  14  20
ENDBRANCH   1  14
TORSDOF 10
ENDMDL
MODEL 3
REMARK VINA RESULT: -7.209739968      2.955      7.022
REMARK  10 active torsions:
REMARK  status: ('A' for Active; 'I' for Inactive)
REMARK    1  A    between atoms: O1_1  and  C1_3 
REMARK    2  A    between atoms: C1_3  and  C2_4 
REMARK    3  A    between atoms: C2_4  and  C3_5 
REMARK    4  A    between atoms: C3_5  and  C4_6 
REMARK    5  A    between atoms: C4_6  and  N1_7 
REMARK    6  A    between atoms: N1_7  and  C5_10 
REMARK    7  A    between atoms: C5_10  and  C6_11 
REMARK    8  A    between atoms: C6_11  and  O2_12 
REMARK    9  A    between atoms: C6_11  and  C7_14 
REMARK   10  A    between atoms: C7_14  and  C8_15 
ROOT
HETATM    1  C6  UNL     1     -20.980   4.349   1.503  1.00  0.00     0.158 C 
ENDROOT
BRANCH   1   2
HETATM    2  C5  UNL     1     -20.025   3.532   0.702  1.00  0.00     0.264 C 
BRANCH   2   3
HETATM    3  N1  UNL     1     -20.645   2.861  -0.420  1.00  0.00    -0.073 N 
ATOM      4  H12 UNL     1     -21.079   1.987  -0.126  1.00  0.00     0.277 HD
ATOM      5  H11 UNL     1     -19.940   2.491  -1.058  1.00  0.00     0.277 HD
BRANCH   3   6
HETATM    6  C4  UNL     1     -21.579   3.685  -1.116  1.00  0.00     0.232 C 
BRANCH   6   7
HETATM    7  C3  UNL     1     -20.994   4.251  -2.386  1.00  0.00     0.029 C 
BRANCH   7   8
HETATM    8  C2  UNL     1     -21.482   3.536  -3.623  1.00  0.00     0.028 C 
BRANCH   8   9
HETATM    9  C1  UNL     1     -20.841   2.144  -3.718  1.00  0.00     0.164 C 
BRANCH   9  10
HETATM   10  O1  UNL     1     -19.495   2.273  -3.410  1.00  0.00    -0.401 OA
ATOM     11  H1  UNL     1     -19.312   3.196  -3.280  1.00  0.00     0.209 HD
ENDBRANCH   9  10
ENDBRANCH   8   9
ENDBRANCH   7   8
ENDBRANCH   6   7
ENDBRANCH   3   6
ENDBRANCH   2   3
ENDBRANCH   1   2
BRANCH   1  12
HETATM   12  O2  UNL     1     -21.552   3.488   2.445  1.00  0.00    -0.393 OA
ATOM     13  H2  UNL     1     -21.618   3.978   3.256  1.00  0.00     0.210 HD
ENDBRANCH   1  12
BRANCH   1  14
HETATM   14  C7  UNL     1     -20.471   5.634   2.074  1.00  0.00     0.057 C 
HETATM   15  C14 UNL     1     -19.099   5.915   1.482  1.00  0.00     0.024 C 
HETATM   16  C15 UNL     1     -19.506   7.364   1.366  1.00  0.00     0.081 C 
HETATM   17  C16 UNL     1     -20.911   6.816   1.290  1.00  0.00     0.254 C 
HETATM   18  F1  UNL     1     -21.178   6.508  -0.024  1.00  0.00    -0.205 F 
HETATM   19  F2  UNL     1     -21.895   7.611   1.775  1.00  0.00    -0.205 F 
BRANCH  14  20
HETATM   20  C8  UNL     1     -20.447   5.778   3.559  1.00  0.00     0.002 C 
HETATM   21  C9  UNL     1     -19.071   5.897   4.150  1.00  0.00     0.005 C 
HETATM   22  C10 UNL     1     -19.017   6.304   5.568  1.00  0.00     0.000 C 
HETATM   23  C11 UNL     1     -20.171   5.776   6.373  1.00  0.00     0.000 C 
HETATM   24  C12 UNL     1     -20.589   4.463   5.694  1.00  0.00     0.000 C 
HETATM   25  C13 UNL     1     -21.265   4.901   4.407  1.00  0.00     0.005 C 
ENDBRANCH  14  20
ENDBRANCH   1  14
TORSDOF 10
ENDMDL
MODEL 4
REMARK VINA RESULT: -7.172361947      3.091      7.120
REMARK  10 active torsions:
REMARK  status: ('A' for Active; 'I' for Inactive)
REMARK    1  A    between atoms: O1_1  and  C1_3 
REMARK    2  A    between atoms: C1_3  and  C2_4 
REMARK    3  A    between atoms: C2_4  and  C3_5 
REMARK    4  A    between atoms: C3_5  and  C4_6 
REMARK    5  A    between atoms: C4_6  and  N1_7 
REMARK    6  A    between atoms: N1_7  and  C5_10 
REMARK    7  A    between atoms: C5_10  and  C6_11 
REMARK    8  A    between atoms: C6_11  and  O2_12 
REMARK    9  A    between atoms: C6_11  and  C7_14 
REMARK   10  A    between atoms: C7_14  and  C8_15 
ROOT
HETATM    1  C6  UNL     1     -21.144   4.132   1.593  1.00  0.00     0.158 C 
ENDROOT
BRANCH   1   2
HETATM    2  C5  UNL     1     -20.483   3.463   0.437  1.00  0.00     0.264 C 
BRANCH   2   3
HETATM    3  N1  UNL     1     -21.353   3.308  -0.709  1.00  0.00    -0.073 N 
ATOM      4  H12 UNL     1     -22.139   3.955  -0.659  1.00  0.00     0.277 HD
ATOM      5  H11 UNL     1     -21.861   2.425  -0.664  1.00  0.00     0.277 HD
BRANCH   3   6
HETATM    6  C4  UNL     1     -20.667   3.438  -1.953  1.00  0.00     0.232 C 
BRANCH   6   7
HETATM    7  C3  UNL     1     -21.612   3.745  -3.088  1.00  0.00     0.029 C 
BRANCH   7   8
HETATM    8  C2  UNL     1     -22.109   2.503  -3.787  1.00  0.00     0.028 C 
BRANCH   8   9
HETATM    9  C1  UNL     1     -23.629   2.372  -3.616  1.00  0.00     0.164 C 
BRANCH   9  10
HETATM   10  O1  UNL     1     -23.912   2.422  -2.260  1.00  0.00    -0.401 OA
ATOM     11  H1  UNL     1     -24.783   2.065  -2.130  1.00  0.00     0.209 HD
ENDBRANCH   9  10
ENDBRANCH   8   9
ENDBRANCH   7   8
ENDBRANCH   6   7
ENDBRANCH   3   6
ENDBRANCH   2   3
ENDBRANCH   1   2
BRANCH   1  12
HETATM   12  O2  UNL     1     -21.302   3.158   2.583  1.00  0.00    -0.393 OA
ATOM     13  H2  UNL     1     -20.447   2.765   2.716  1.00  0.00     0.210 HD
ENDBRANCH   1  12
BRANCH   1  14
HETATM   14  C7  UNL     1     -20.541   5.411   2.080  1.00  0.00     0.057 C 
HETATM   15  C14 UNL     1     -19.159   5.560   1.462  1.00  0.00     0.024 C 
HETATM   16  C15 UNL     1     -19.466   7.024   1.260  1.00  0.00     0.081 C 
HETATM   17  C16 UNL     1     -20.907   6.571   1.227  1.00  0.00     0.254 C 
HETATM   18  F1  UNL     1     -21.209   6.203  -0.063  1.00  0.00    -0.205 F 
HETATM   19  F2  UNL     1     -21.828   7.461   1.669  1.00  0.00    -0.205 F 
BRANCH  14  20
HETATM   20  C8  UNL     1     -20.490   5.644   3.553  1.00  0.00     0.002 C 
HETATM   21  C9  UNL     1     -19.105   5.819   4.107  1.00  0.00     0.005 C 
HETATM   22  C10 UNL     1     -19.030   6.311   5.497  1.00  0.00     0.000 C 
HETATM   23  C11 UNL     1     -20.159   5.814   6.356  1.00  0.00     0.000 C 
HETATM   24  C12 UNL     1     -20.569   4.457   5.765  1.00  0.00     0.000 C 
HETATM   25  C13 UNL     1     -21.277   4.807   4.468  1.00  0.00     0.005 C 
ENDBRANCH  14  20
ENDBRANCH   1  14
TORSDOF 10
ENDMDL
MODEL 5
REMARK VINA RESULT: -7.131763519      2.198      2.855
REMARK  10 active torsions:
REMARK  status: ('A' for Active; 'I' for Inactive)
REMARK    1  A    between atoms: O1_1  and  C1_3 
REMARK    2  A    between atoms: C1_3  and  C2_4 
REMARK    3  A    between atoms: C2_4  and  C3_5 
REMARK    4  A    between atoms: C3_5  and  C4_6 
REMARK    5  A    between atoms: C4_6  and  N1_7 
REMARK    6  A    between atoms: N1_7  and  C5_10 
REMARK    7  A    between atoms: C5_10  and  C6_11 
REMARK    8  A    between atoms: C6_11  and  O2_12 
REMARK    9  A    between atoms: C6_11  and  C7_14 
REMARK   10  A    between atoms: C7_14  and  C8_15 
ROOT
HETATM    1  C6  UNL     1     -20.176   4.528   1.769  1.00  0.00     0.158 C 
ENDROOT
BRANCH   1   2
HETATM    2  C5  UNL     1     -21.159   4.416   2.885  1.00  0.00     0.264 C 
BRANCH   2   3
HETATM    3  N1  UNL     1     -20.538   4.329   4.189  1.00  0.00    -0.073 N 
ATOM      4  H12 UNL     1     -19.766   3.664   4.180  1.00  0.00     0.277 HD
ATOM      5  H11 UNL     1     -21.154   3.863   4.855  1.00  0.00     0.277 HD
BRANCH   3   6
HETATM    6  C4  UNL     1     -20.112   5.596   4.690  1.00  0.00     0.232 C 
BRANCH   6   7
HETATM    7  C3  UNL     1     -20.552   5.813   6.116  1.00  0.00     0.029 C 
BRANCH   7   8
HETATM    8  C2  UNL     1     -19.747   5.004   7.105  1.00  0.00     0.028 C 
BRANCH   8   9
HETATM    9  C1  UNL     1     -19.834   5.635   8.501  1.00  0.00     0.164 C 
BRANCH   9  10
HETATM   10  O1  UNL     1     -20.711   6.707   8.431  1.00  0.00    -0.401 OA
ATOM     11  H1  UNL     1     -21.328   6.627   9.149  1.00  0.00     0.209 HD
ENDBRANCH   9  10
ENDBRANCH   8   9
ENDBRANCH   7   8
ENDBRANCH   6   7
ENDBRANCH   3   6
ENDBRANCH   2   3
ENDBRANCH   1   2
BRANCH   1  12
HETATM   12  O2  UNL     1     -19.975   3.234   1.281  1.00  0.00    -0.393 OA
ATOM     13  H2  UNL     1     -19.315   2.834   1.834  1.00  0.00     0.210 HD
ENDBRANCH   1  12
BRANCH   1  14
HETATM   14  C7  UNL     1     -20.454   5.549   0.712  1.00  0.00     0.057 C 
HETATM   15  C14 UNL     1     -21.377   6.608   1.294  1.00  0.00     0.024 C 
HETATM   16  C15 UNL     1     -20.550   7.647   0.576  1.00  0.00     0.081 C 
HETATM   17  C16 UNL     1     -19.437   6.632   0.688  1.00  0.00     0.254 C 
HETATM   18  F1  UNL     1     -18.823   6.806   1.906  1.00  0.00    -0.205 F 
HETATM   19  F2  UNL     1     -18.503   6.650  -0.293  1.00  0.00    -0.205 F 
BRANCH  14  20
HETATM   20  C8  UNL     1     -20.961   5.069  -0.607  1.00  0.00     0.002 C 
HETATM   21  C9  UNL     1     -21.691   3.757  -0.551  1.00  0.00     0.005 C 
HETATM   22  C10 UNL     1     -22.430   3.385  -1.774  1.00  0.00     0.000 C 
HETATM   23  C11 UNL     1     -21.753   3.851  -3.032  1.00  0.00     0.000 C 
HETATM   24  C12 UNL     1     -20.251   3.894  -2.709  1.00  0.00     0.000 C 
HETATM   25  C13 UNL     1     -20.095   5.094  -1.793  1.00  0.00     0.005 C 
ENDBRANCH  14  20
ENDBRANCH   1  14
TORSDOF 10
ENDMDL
