MODEL 1
REMARK VINA RESULT: -6.963458486      0.000      0.000
REMARK  9 active torsions:
REMARK  status: ('A' for Active; 'I' for Inactive)
REMARK    1  A    between atoms: C2_2  and  C3_3 
REMARK    2  A    between atoms: C3_3  and  C4_4 
REMARK    3  A    between atoms: C4_4  and  N1_5 
REMARK    4  A    between atoms: N1_5  and  C5_7 
REMARK    5  A    between atoms: C5_7  and  C6_8 
REMARK    6  A    between atoms: C6_8  and  O1_9 
REMARK    7  A    between atoms: C6_8  and  C7_11 
REMARK    8  A    between atoms: C7_11  and  O2_12 
REMARK    9  A    between atoms: O2_12  and  C8_13 
ROOT
HETATM    1  C7  UNL     1     -19.229   7.255   0.338  1.00  0.00     0.176 C 
ENDROOT
BRANCH   1   2
HETATM    2  C6  UNL     1     -20.034   8.150   1.202  1.00  0.00     0.082 C 
BRANCH   2   3
HETATM    3  C5  UNL     1     -20.936   7.480   2.189  1.00  0.00     0.180 C 
BRANCH   3   4
HETATM    4  N1  UNL     1     -20.184   6.694   3.134  1.00  0.00    -0.415 N 
ATOM      5  H1  UNL     1     -19.214   6.426   2.972  1.00  0.00     0.153 HD
BRANCH   4   6
HETATM    6  C4  UNL     1     -20.896   6.315   4.314  1.00  0.00     0.114 C 
BRANCH   6   7
HETATM    7  C3  UNL     1     -20.715   4.828   4.550  1.00  0.00     0.019 C 
BRANCH   7   8
HETATM    8  C2  UNL     1     -20.357   4.581   6.023  1.00  0.00    -0.003 C 
HETATM    9  C1  UNL     1     -19.864   5.861   6.663  1.00  0.00     0.005 C 
ENDBRANCH   7   8
ENDBRANCH   6   7
ENDBRANCH   4   6
ENDBRANCH   3   4
ENDBRANCH   2   3
BRANCH   2  10
HETATM   10  O1  UNL     1     -20.661   9.208   0.589  1.00  0.00    -0.361 OA
ATOM     11  H1  UNL     1     -20.214  10.027   0.770  1.00  0.00     0.217 HD
ENDBRANCH   2  10
ENDBRANCH   1   2
BRANCH   1  12
HETATM   12  O2  UNL     1     -19.585   6.008   0.015  1.00  0.00    -0.317 OA
BRANCH  12  13
HETATM   13  C8  UNL     1     -20.194   5.294  -0.950  1.00  0.00     0.118 A 
HETATM   14  C9  UNL     1     -20.099   5.459  -2.309  1.00  0.00     0.071 A 
HETATM   15 CL1  UNL     1     -19.116   6.739  -3.013  1.00  0.00    -0.081 Cl
HETATM   16  C10 UNL     1     -20.786   4.652  -3.224  1.00  0.00     0.050 A 
HETATM   17  C11 UNL     1     -21.582   3.661  -2.709  1.00  0.00     0.037 A 
HETATM   18 CL2  UNL     1     -22.445   2.650  -3.857  1.00  0.00    -0.084 Cl
HETATM   19  C12 UNL     1     -21.693   3.473  -1.340  1.00  0.00     0.050 A 
HETATM   20  C13 UNL     1     -21.023   4.258  -0.455  1.00  0.00     0.071 A 
HETATM   21 CL3  UNL     1     -21.190   3.984   1.278  1.00  0.00    -0.081 Cl
ENDBRANCH  12  13
ENDBRANCH   1  12
TORSDOF 9
ENDMDL
MODEL 2
REMARK VINA RESULT: -6.952479101      0.164      2.101
REMARK  9 active torsions:
REMARK  status: ('A' for Active; 'I' for Inactive)
REMARK    1  A    between atoms: C2_2  and  C3_3 
REMARK    2  A    between atoms: C3_3  and  C4_4 
REMARK    3  A    between atoms: C4_4  and  N1_5 
REMARK    4  A    between atoms: N1_5  and  C5_7 
REMARK    5  A    between atoms: C5_7  and  C6_8 
REMARK    6  A    between atoms: C6_8  and  O1_9 
REMARK    7  A    between atoms: C6_8  and  C7_11 
REMARK    8  A    between atoms: C7_11  and  O2_12 
REMARK    9  A    between atoms: O2_12  and  C8_13 
ROOT
HETATM    1  C7  UNL     1     -19.272   7.421   0.150  1.00  0.00     0.176 C 
ENDROOT
BRANCH   1   2
HETATM    2  C6  UNL     1     -20.091   8.244   1.071  1.00  0.00     0.082 C 
BRANCH   2   3
HETATM    3  C5  UNL     1     -20.977   7.497   2.015  1.00  0.00     0.180 C 
BRANCH   3   4
HETATM    4  N1  UNL     1     -20.209   6.668   2.909  1.00  0.00    -0.415 N 
ATOM      5  H1  UNL     1     -19.277   6.328   2.674  1.00  0.00     0.153 HD
BRANCH   4   6
HETATM    6  C4  UNL     1     -20.847   6.357   4.150  1.00  0.00     0.114 C 
BRANCH   6   7
HETATM    7  C3  UNL     1     -20.783   4.859   4.381  1.00  0.00     0.019 C 
BRANCH   7   8
HETATM    8  C2  UNL     1     -20.440   4.580   5.852  1.00  0.00    -0.003 C 
HETATM    9  C1  UNL     1     -19.810   5.803   6.483  1.00  0.00     0.005 C 
ENDBRANCH   7   8
ENDBRANCH   6   7
ENDBRANCH   4   6
ENDBRANCH   3   4
ENDBRANCH   2   3
BRANCH   2  10
HETATM   10  O1  UNL     1     -20.737   9.328   0.529  1.00  0.00    -0.361 OA
ATOM     11  H1  UNL     1     -20.962   9.967   1.196  1.00  0.00     0.217 HD
ENDBRANCH   2  10
ENDBRANCH   1   2
BRANCH   1  12
HETATM   12  O2  UNL     1     -19.489   6.123  -0.086  1.00  0.00    -0.317 OA
BRANCH  12  13
HETATM   13  C8  UNL     1     -20.199   5.290  -0.869  1.00  0.00     0.118 A 
HETATM   14  C9  UNL     1     -21.037   4.275  -0.479  1.00  0.00     0.071 A 
HETATM   15 CL1  UNL     1     -21.287   3.892   1.221  1.00  0.00    -0.081 Cl
HETATM   16  C10 UNL     1     -21.725   3.465  -1.390  1.00  0.00     0.050 A 
HETATM   17  C11 UNL     1     -21.533   3.719  -2.724  1.00  0.00     0.037 A 
HETATM   18 CL2  UNL     1     -22.395   2.700  -3.865  1.00  0.00    -0.084 Cl
HETATM   19  C12 UNL     1     -20.692   4.739  -3.142  1.00  0.00     0.050 A 
HETATM   20  C13 UNL     1     -20.026   5.524  -2.254  1.00  0.00     0.071 A 
HETATM   21 CL3  UNL     1     -18.969   6.812  -2.829  1.00  0.00    -0.081 Cl
ENDBRANCH  12  13
ENDBRANCH   1  12
TORSDOF 9
ENDMDL
MODEL 3
REMARK VINA RESULT: -6.738055547      2.759      6.625
REMARK  9 active torsions:
REMARK  status: ('A' for Active; 'I' for Inactive)
REMARK    1  A    between atoms: C2_2  and  C3_3 
REMARK    2  A    between atoms: C3_3  and  C4_4 
REMARK    3  A    between atoms: C4_4  and  N1_5 
REMARK    4  A    between atoms: N1_5  and  C5_7 
REMARK    5  A    between atoms: C5_7  and  C6_8 
REMARK    6  A    between atoms: C6_8  and  O1_9 
REMARK    7  A    between atoms: C6_8  and  C7_11 
REMARK    8  A    between atoms: C7_11  and  O2_12 
REMARK    9  A    between atoms: O2_12  and  C8_13 
ROOT
HETATM    1  C7  UNL     1     -21.591   4.484   0.134  1.00  0.00     0.176 C 
ENDROOT
BRANCH   1   2
HETATM    2  C6  UNL     1     -21.105   3.896  -1.136  1.00  0.00     0.082 C 
BRANCH   2   3
HETATM    3  C5  UNL     1     -20.528   4.853  -2.129  1.00  0.00     0.180 C 
BRANCH   3   4
HETATM    4  N1  UNL     1     -19.629   5.786  -1.497  1.00  0.00    -0.415 N 
ATOM      5  H1  UNL     1     -19.394   5.731  -0.506  1.00  0.00     0.153 HD
BRANCH   4   6
HETATM    6  C4  UNL     1     -19.091   6.792  -2.357  1.00  0.00     0.114 C 
BRANCH   6   7
HETATM    7  C3  UNL     1     -18.677   7.990  -1.524  1.00  0.00     0.019 C 
BRANCH   7   8
HETATM    8  C2  UNL     1     -19.694   9.125  -1.714  1.00  0.00    -0.003 C 
HETATM    9  C1  UNL     1     -19.227  10.373  -0.995  1.00  0.00     0.005 C 
ENDBRANCH   7   8
ENDBRANCH   6   7
ENDBRANCH   4   6
ENDBRANCH   3   4
ENDBRANCH   2   3
BRANCH   2  10
HETATM   10  O1  UNL     1     -21.918   2.972  -1.746  1.00  0.00    -0.361 OA
ATOM     11  H1  UNL     1     -22.496   2.552  -1.119  1.00  0.00     0.217 HD
ENDBRANCH   2  10
ENDBRANCH   1   2
BRANCH   1  12
HETATM   12  O2  UNL     1     -20.792   4.999   1.074  1.00  0.00    -0.317 OA
BRANCH  12  13
HETATM   13  C8  UNL     1     -20.637   5.079   2.409  1.00  0.00     0.118 A 
HETATM   14  C9  UNL     1     -20.920   4.121   3.350  1.00  0.00     0.071 A 
HETATM   15 CL1  UNL     1     -21.598   2.561   2.897  1.00  0.00    -0.081 Cl
HETATM   16  C10 UNL     1     -20.720   4.319   4.721  1.00  0.00     0.050 A 
HETATM   17  C11 UNL     1     -20.217   5.534   5.112  1.00  0.00     0.037 A 
HETATM   18 CL2  UNL     1     -19.968   5.782   6.832  1.00  0.00    -0.084 Cl
HETATM   19  C12 UNL     1     -19.922   6.517   4.179  1.00  0.00     0.050 A 
HETATM   20  C13 UNL     1     -20.117   6.321   2.848  1.00  0.00     0.071 A 
HETATM   21 CL3  UNL     1     -19.726   7.596   1.697  1.00  0.00    -0.081 Cl
ENDBRANCH  12  13
ENDBRANCH   1  12
TORSDOF 9
ENDMDL
MODEL 4
REMARK VINA RESULT: -6.725467737      1.473      2.792
REMARK  9 active torsions:
REMARK  status: ('A' for Active; 'I' for Inactive)
REMARK    1  A    between atoms: C2_2  and  C3_3 
REMARK    2  A    between atoms: C3_3  and  C4_4 
REMARK    3  A    between atoms: C4_4  and  N1_5 
REMARK    4  A    between atoms: N1_5  and  C5_7 
REMARK    5  A    between atoms: C5_7  and  C6_8 
REMARK    6  A    between atoms: C6_8  and  O1_9 
REMARK    7  A    between atoms: C6_8  and  C7_11 
REMARK    8  A    between atoms: C7_11  and  O2_12 
REMARK    9  A    between atoms: O2_12  and  C8_13 
ROOT
HETATM    1  C7  UNL     1     -19.372   5.945   2.036  1.00  0.00     0.176 C 
ENDROOT
BRANCH   1   2
HETATM    2  C6  UNL     1     -20.081   6.827   2.993  1.00  0.00     0.082 C 
BRANCH   2   3
HETATM    3  C5  UNL     1     -20.686   6.157   4.185  1.00  0.00     0.180 C 
BRANCH   3   4
HETATM    4  N1  UNL     1     -19.691   5.876   5.189  1.00  0.00    -0.415 N 
ATOM      5  H1  UNL     1     -18.745   6.253   5.141  1.00  0.00     0.153 HD
BRANCH   4   6
HETATM    6  C4  UNL     1     -20.125   5.031   6.257  1.00  0.00     0.114 C 
BRANCH   6   7
HETATM    7  C3  UNL     1     -19.768   5.679   7.581  1.00  0.00     0.019 C 
BRANCH   7   8
HETATM    8  C2  UNL     1     -19.782   4.619   8.692  1.00  0.00    -0.003 C 
HETATM    9  C1  UNL     1     -19.263   5.209   9.986  1.00  0.00     0.005 C 
ENDBRANCH   7   8
ENDBRANCH   6   7
ENDBRANCH   4   6
ENDBRANCH   3   4
ENDBRANCH   2   3
BRANCH   2  10
HETATM   10  O1  UNL     1     -20.930   7.767   2.463  1.00  0.00    -0.361 OA
ATOM     11  H1  UNL     1     -20.459   8.403   1.937  1.00  0.00     0.217 HD
ENDBRANCH   2  10
ENDBRANCH   1   2
BRANCH   1  12
HETATM   12  O2  UNL     1     -19.560   5.974   0.713  1.00  0.00    -0.317 OA
BRANCH  12  13
HETATM   13  C8  UNL     1     -20.151   5.299  -0.291  1.00  0.00     0.118 A 
HETATM   14  C9  UNL     1     -21.006   4.230  -0.200  1.00  0.00     0.071 A 
HETATM   15 CL1  UNL     1     -21.450   3.539   1.356  1.00  0.00    -0.081 Cl
HETATM   16  C10 UNL     1     -21.560   3.602  -1.322  1.00  0.00     0.050 A 
HETATM   17  C11 UNL     1     -21.215   4.098  -2.552  1.00  0.00     0.037 A 
HETATM   18 CL2  UNL     1     -21.909   3.308  -3.959  1.00  0.00    -0.084 Cl
HETATM   19  C12 UNL     1     -20.354   5.179  -2.670  1.00  0.00     0.050 A 
HETATM   20  C13 UNL     1     -19.818   5.787  -1.578  1.00  0.00     0.071 A 
HETATM   21 CL3  UNL     1     -18.730   7.159  -1.773  1.00  0.00    -0.081 Cl
ENDBRANCH  12  13
ENDBRANCH   1  12
TORSDOF 9
ENDMDL
MODEL 5
REMARK VINA RESULT: -6.618907439      2.658      6.498
REMARK  9 active torsions:
REMARK  status: ('A' for Active; 'I' for Inactive)
REMARK    1  A    between atoms: C2_2  and  C3_3 
REMARK    2  A    between atoms: C3_3  and  C4_4 
REMARK    3  A    between atoms: C4_4  and  N1_5 
REMARK    4  A    between atoms: N1_5  and  C5_7 
REMARK    5  A    between atoms: C5_7  and  C6_8 
REMARK    6  A    between atoms: C6_8  and  O1_9 
REMARK    7  A    between atoms: C6_8  and  C7_11 
REMARK    8  A    between atoms: C7_11  and  O2_12 
REMARK    9  A    between atoms: O2_12  and  C8_13 
ROOT
HETATM    1  C7  UNL     1     -19.264   6.484  -0.912  1.00  0.00     0.176 C 
ENDROOT
BRANCH   1   2
HETATM    2  C6  UNL     1     -19.364   6.446  -2.391  1.00  0.00     0.082 C 
BRANCH   2   3
HETATM    3  C5  UNL     1     -20.317   5.447  -2.963  1.00  0.00     0.180 C 
BRANCH   3   4
HETATM    4  N1  UNL     1     -20.068   4.127  -2.441  1.00  0.00    -0.415 N 
ATOM      5  H1  UNL     1     -19.461   3.963  -1.638  1.00  0.00     0.153 HD
BRANCH   4   6
HETATM    6  C4  UNL     1     -20.733   3.064  -3.127  1.00  0.00     0.114 C 
BRANCH   6   7
HETATM    7  C3  UNL     1     -22.203   3.071  -2.751  1.00  0.00     0.019 C 
BRANCH   7   8
HETATM    8  C2  UNL     1     -23.046   2.656  -3.967  1.00  0.00    -0.003 C 
HETATM    9  C1  UNL     1     -22.421   3.183  -5.241  1.00  0.00     0.005 C 
ENDBRANCH   7   8
ENDBRANCH   6   7
ENDBRANCH   4   6
ENDBRANCH   3   4
ENDBRANCH   2   3
BRANCH   2  10
HETATM   10  O1  UNL     1     -18.185   6.474  -3.095  1.00  0.00    -0.361 OA
ATOM     11  H1  UNL     1     -17.792   7.339  -3.079  1.00  0.00     0.217 HD
ENDBRANCH   2  10
ENDBRANCH   1   2
BRANCH   1  12
HETATM   12  O2  UNL     1     -20.218   6.044  -0.087  1.00  0.00    -0.317 OA
BRANCH  12  13
HETATM   13  C8  UNL     1     -20.427   5.659   1.186  1.00  0.00     0.118 A 
HETATM   14  C9  UNL     1     -20.505   4.380   1.678  1.00  0.00     0.071 A 
HETATM   15 CL1  UNL     1     -20.356   2.979   0.622  1.00  0.00    -0.081 Cl
HETATM   16  C10 UNL     1     -20.730   4.097   3.030  1.00  0.00     0.050 A 
HETATM   17  C11 UNL     1     -20.877   5.165   3.877  1.00  0.00     0.037 A 
HETATM   18 CL2  UNL     1     -21.163   4.810   5.573  1.00  0.00    -0.084 Cl
HETATM   19  C12 UNL     1     -20.801   6.466   3.404  1.00  0.00     0.050 A 
HETATM   20  C13 UNL     1     -20.581   6.737   2.090  1.00  0.00     0.071 A 
HETATM   21 CL3  UNL     1     -20.488   8.406   1.532  1.00  0.00    -0.081 Cl
ENDBRANCH  12  13
ENDBRANCH   1  12
TORSDOF 9
ENDMDL
