MODEL 1
REMARK VINA RESULT: -7.389413071      0.000      0.000
REMARK  8 active torsions:
REMARK  status: ('A' for Active; 'I' for Inactive)
REMARK    1  A    between atoms: C4_6  and  C5_7 
REMARK    2  A    between atoms: C5_7  and  C6_8 
REMARK    3  A    between atoms: C6_8  and  N1_9 
REMARK    4  A    between atoms: N1_9  and  C7_12 
REMARK    5  A    between atoms: C7_12  and  C8_13 
REMARK    6  A    between atoms: C8_13  and  C9_14 
REMARK    7  A    between atoms: C8_13  and  N2_16 
REMARK    8  A    between atoms: N2_16  and  C10_18 
ROOT
HETATM    1  N1  UNL     1     -20.303   8.729   1.114  1.00  0.00    -0.073 N 
ATOM      2  H11 UNL     1     -19.920   9.201   1.933  1.00  0.00     0.277 HD
ATOM      3  H12 UNL     1     -20.819   9.529   0.749  1.00  0.00     0.277 HD
ENDROOT
BRANCH   1   4
HETATM    4  C6  UNL     1     -21.151   7.566   1.435  1.00  0.00     0.237 C 
BRANCH   4   5
HETATM    5  C5  UNL     1     -20.309   6.347   1.506  1.00  0.00     0.068 C 
BRANCH   5   6
HETATM    6  C4  UNL     1     -20.333   5.768   2.881  1.00  0.00    -0.032 A 
HETATM    7  C3  UNL     1     -20.887   4.551   3.126  1.00  0.00     0.043 A 
HETATM    8  C2  UNL     1     -20.861   3.985   4.406  1.00  0.00     0.070 A 
HETATM    9 CL1  UNL     1     -21.658   3.644   1.805  1.00  0.00    -0.084 Cl
HETATM   10  C1  UNL     1     -20.259   4.661   5.462  1.00  0.00     0.156 A 
HETATM   11  F1  UNL     1     -20.195   4.144   6.728  1.00  0.00    -0.203 F 
HETATM   12  C14 UNL     1     -19.705   5.893   5.197  1.00  0.00     0.155 A 
HETATM   13  C13 UNL     1     -19.738   6.437   3.939  1.00  0.00     0.054 A 
HETATM   14  F2  UNL     1     -19.108   6.593   6.217  1.00  0.00    -0.203 F 
ENDBRANCH   5   6
ENDBRANCH   4   5
ENDBRANCH   1   4
BRANCH   1  15
HETATM   15  C7  UNL     1     -19.303   8.216   0.213  1.00  0.00     0.257 C 
BRANCH  15  16
HETATM   16  C8  UNL     1     -18.984   9.287  -0.821  1.00  0.00     0.112 C 
BRANCH  16  17
HETATM   17  C9  UNL     1     -19.522   8.697  -2.131  1.00  0.00     0.112 C 
HETATM   18  S1  UNL     1     -18.973   7.005  -2.381  1.00  0.00    -0.096 SA
ENDBRANCH  16  17
BRANCH  16  19
HETATM   19  N2  UNL     1     -19.588  10.494  -0.484  1.00  0.00    -0.411 N 
ATOM     20  H2  UNL     1     -20.081  10.556   0.406  1.00  0.00     0.154 HD
BRANCH  19  21
HETATM   21  C10 UNL     1     -19.554  11.619  -1.300  1.00  0.00     0.077 A 
HETATM   22  C11 UNL     1     -20.264  12.866  -0.886  1.00  0.00     0.027 A 
HETATM   23  C12 UNL     1     -18.751  12.783  -0.876  1.00  0.00     0.027 A 
ENDBRANCH  19  21
ENDBRANCH  16  19
ENDBRANCH  15  16
ENDBRANCH   1  15
TORSDOF 8
ENDMDL
MODEL 2
REMARK VINA RESULT: -7.192446575      1.624      2.708
REMARK  8 active torsions:
REMARK  status: ('A' for Active; 'I' for Inactive)
REMARK    1  A    between atoms: C4_6  and  C5_7 
REMARK    2  A    between atoms: C5_7  and  C6_8 
REMARK    3  A    between atoms: C6_8  and  N1_9 
REMARK    4  A    between atoms: N1_9  and  C7_12 
REMARK    5  A    between atoms: C7_12  and  C8_13 
REMARK    6  A    between atoms: C8_13  and  C9_14 
REMARK    7  A    between atoms: C8_13  and  N2_16 
REMARK    8  A    between atoms: N2_16  and  C10_18 
ROOT
HETATM    1  N1  UNL     1     -19.795   8.602   1.160  1.00  0.00    -0.073 N 
ATOM      2  H11 UNL     1     -18.879   8.197   0.965  1.00  0.00     0.277 HD
ATOM      3  H12 UNL     1     -19.508   9.152   1.970  1.00  0.00     0.277 HD
ENDROOT
BRANCH   1   4
HETATM    4  C6  UNL     1     -20.842   7.606   1.452  1.00  0.00     0.237 C 
BRANCH   4   5
HETATM    5  C5  UNL     1     -20.235   6.254   1.507  1.00  0.00     0.068 C 
BRANCH   5   6
HETATM    6  C4  UNL     1     -20.285   5.709   2.896  1.00  0.00    -0.032 A 
HETATM    7  C3  UNL     1     -20.847   4.500   3.160  1.00  0.00     0.043 A 
HETATM    8  C2  UNL     1     -20.845   3.965   4.453  1.00  0.00     0.070 A 
HETATM    9 CL1  UNL     1     -21.595   3.562   1.847  1.00  0.00    -0.084 Cl
HETATM   10  C1  UNL     1     -20.261   4.666   5.504  1.00  0.00     0.156 A 
HETATM   11  F1  UNL     1     -20.222   4.180   6.784  1.00  0.00    -0.203 F 
HETATM   12  C14 UNL     1     -19.700   5.890   5.219  1.00  0.00     0.155 A 
HETATM   13  C13 UNL     1     -19.709   6.404   3.948  1.00  0.00     0.054 A 
HETATM   14  F2  UNL     1     -19.121   6.614   6.233  1.00  0.00    -0.203 F 
ENDBRANCH   5   6
ENDBRANCH   4   5
ENDBRANCH   1   4
BRANCH   1  15
HETATM   15  C7  UNL     1     -20.329   9.389   0.077  1.00  0.00     0.257 C 
BRANCH  15  16
HETATM   16  C8  UNL     1     -19.411   9.244  -1.129  1.00  0.00     0.112 C 
BRANCH  16  17
HETATM   17  C9  UNL     1     -18.696  10.599  -1.204  1.00  0.00     0.112 C 
HETATM   18  S1  UNL     1     -19.816  11.968  -0.888  1.00  0.00    -0.096 SA
ENDBRANCH  16  17
BRANCH  16  19
HETATM   19  N2  UNL     1     -18.532   8.179  -0.955  1.00  0.00    -0.411 N 
ATOM     20  H2  UNL     1     -17.912   8.191  -0.146  1.00  0.00     0.154 HD
BRANCH  19  21
HETATM   21  C10 UNL     1     -18.457   7.100  -1.828  1.00  0.00     0.077 A 
HETATM   22  C11 UNL     1     -19.657   6.244  -2.067  1.00  0.00     0.027 A 
HETATM   23  C12 UNL     1     -19.141   7.189  -3.133  1.00  0.00     0.027 A 
ENDBRANCH  19  21
ENDBRANCH  16  19
ENDBRANCH  15  16
ENDBRANCH   1  15
TORSDOF 8
ENDMDL
MODEL 3
REMARK VINA RESULT: -7.143743862      5.215      6.624
REMARK  8 active torsions:
REMARK  status: ('A' for Active; 'I' for Inactive)
REMARK    1  A    between atoms: C4_6  and  C5_7 
REMARK    2  A    between atoms: C5_7  and  C6_8 
REMARK    3  A    between atoms: C6_8  and  N1_9 
REMARK    4  A    between atoms: N1_9  and  C7_12 
REMARK    5  A    between atoms: C7_12  and  C8_13 
REMARK    6  A    between atoms: C8_13  and  C9_14 
REMARK    7  A    between atoms: C8_13  and  N2_16 
REMARK    8  A    between atoms: N2_16  and  C10_18 
ROOT
HETATM    1  N1  UNL     1     -21.805   3.371  -1.466  1.00  0.00    -0.073 N 
ATOM      2  H11 UNL     1     -22.600   3.946  -1.185  1.00  0.00     0.277 HD
ATOM      3  H12 UNL     1     -22.272   2.470  -1.360  1.00  0.00     0.277 HD
ENDROOT
BRANCH   1   4
HETATM    4  C6  UNL     1     -20.615   3.534  -0.611  1.00  0.00     0.237 C 
BRANCH   4   5
HETATM    5  C5  UNL     1     -20.323   4.978  -0.443  1.00  0.00     0.068 C 
BRANCH   5   6
HETATM    6  C4  UNL     1     -20.448   5.378   0.990  1.00  0.00    -0.032 A 
HETATM    7  C3  UNL     1     -20.272   6.668   1.381  1.00  0.00     0.043 A 
HETATM    8  C2  UNL     1     -20.443   7.053   2.715  1.00  0.00     0.070 A 
HETATM    9 CL1  UNL     1     -19.825   7.906   0.184  1.00  0.00    -0.084 Cl
HETATM   10  C1  UNL     1     -20.801   6.114   3.677  1.00  0.00     0.156 A 
HETATM   11  F1  UNL     1     -20.994   6.442   4.993  1.00  0.00    -0.203 F 
HETATM   12  C14 UNL     1     -20.972   4.812   3.265  1.00  0.00     0.155 A 
HETATM   13  C13 UNL     1     -20.801   4.448   1.954  1.00  0.00     0.054 A 
HETATM   14  F2  UNL     1     -21.319   3.856   4.189  1.00  0.00    -0.203 F 
ENDBRANCH   5   6
ENDBRANCH   4   5
ENDBRANCH   1   4
BRANCH   1  15
HETATM   15  C7  UNL     1     -21.336   3.635  -2.803  1.00  0.00     0.257 C 
BRANCH  15  16
HETATM   16  C8  UNL     1     -22.262   2.937  -3.790  1.00  0.00     0.112 C 
BRANCH  16  17
HETATM   17  C9  UNL     1     -21.300   2.193  -4.724  1.00  0.00     0.112 C 
HETATM   18  S1  UNL     1     -20.520   0.795  -3.909  1.00  0.00    -0.096 SA
ENDBRANCH  16  17
BRANCH  16  19
HETATM   19  N2  UNL     1     -23.139   2.085  -3.127  1.00  0.00    -0.411 N 
ATOM     20  H2  UNL     1     -22.910   1.800  -2.175  1.00  0.00     0.154 HD
BRANCH  19  21
HETATM   21  C10 UNL     1     -24.311   1.601  -3.697  1.00  0.00     0.077 A 
HETATM   22  C11 UNL     1     -25.635   2.126  -3.247  1.00  0.00     0.027 A 
HETATM   23  C12 UNL     1     -25.073   2.474  -4.611  1.00  0.00     0.027 A 
ENDBRANCH  19  21
ENDBRANCH  16  19
ENDBRANCH  15  16
ENDBRANCH   1  15
TORSDOF 8
ENDMDL
MODEL 4
REMARK VINA RESULT: -7.105573194      5.430      7.004
REMARK  8 active torsions:
REMARK  status: ('A' for Active; 'I' for Inactive)
REMARK    1  A    between atoms: C4_6  and  C5_7 
REMARK    2  A    between atoms: C5_7  and  C6_8 
REMARK    3  A    between atoms: C6_8  and  N1_9 
REMARK    4  A    between atoms: N1_9  and  C7_12 
REMARK    5  A    between atoms: C7_12  and  C8_13 
REMARK    6  A    between atoms: C8_13  and  C9_14 
REMARK    7  A    between atoms: C8_13  and  N2_16 
REMARK    8  A    between atoms: N2_16  and  C10_18 
ROOT
HETATM    1  N1  UNL     1     -20.957   2.971  -1.948  1.00  0.00    -0.073 N 
ATOM      2  H11 UNL     1     -21.176   1.978  -1.864  1.00  0.00     0.277 HD
ATOM      3  H12 UNL     1     -19.946   2.861  -2.017  1.00  0.00     0.277 HD
ENDROOT
BRANCH   1   4
HETATM    4  C6  UNL     1     -21.395   3.781  -0.797  1.00  0.00     0.237 C 
BRANCH   4   5
HETATM    5  C5  UNL     1     -20.386   4.833  -0.522  1.00  0.00     0.068 C 
BRANCH   5   6
HETATM    6  C4  UNL     1     -20.450   5.267   0.904  1.00  0.00    -0.032 A 
HETATM    7  C3  UNL     1     -20.086   6.522   1.278  1.00  0.00     0.043 A 
HETATM    8  C2  UNL     1     -20.198   6.946   2.607  1.00  0.00     0.070 A 
HETATM    9 CL1  UNL     1     -19.462   7.664   0.066  1.00  0.00    -0.084 Cl
HETATM   10  C1  UNL     1     -20.691   6.083   3.581  1.00  0.00     0.156 A 
HETATM   11  F1  UNL     1     -20.833   6.454   4.892  1.00  0.00    -0.203 F 
HETATM   12  C14 UNL     1     -21.052   4.815   3.186  1.00  0.00     0.155 A 
HETATM   13  C13 UNL     1     -20.937   4.412   1.881  1.00  0.00     0.054 A 
HETATM   14  F2  UNL     1     -21.536   3.934   4.122  1.00  0.00    -0.203 F 
ENDBRANCH   5   6
ENDBRANCH   4   5
ENDBRANCH   1   4
BRANCH   1  15
HETATM   15  C7  UNL     1     -21.557   3.608  -3.094  1.00  0.00     0.257 C 
BRANCH  15  16
HETATM   16  C8  UNL     1     -22.623   2.681  -3.663  1.00  0.00     0.112 C 
BRANCH  16  17
HETATM   17  C9  UNL     1     -22.679   3.064  -5.148  1.00  0.00     0.112 C 
HETATM   18  S1  UNL     1     -24.313   2.803  -5.847  1.00  0.00    -0.096 SA
ENDBRANCH  16  17
BRANCH  16  19
HETATM   19  N2  UNL     1     -22.278   1.349  -3.461  1.00  0.00    -0.411 N 
ATOM     20  H2  UNL     1     -22.498   0.923  -2.561  1.00  0.00     0.154 HD
BRANCH  19  21
HETATM   21  C10 UNL     1     -21.650   0.568  -4.425  1.00  0.00     0.077 A 
HETATM   22  C11 UNL     1     -20.171   0.365  -4.377  1.00  0.00     0.027 A 
HETATM   23  C12 UNL     1     -21.131  -0.759  -4.040  1.00  0.00     0.027 A 
ENDBRANCH  19  21
ENDBRANCH  16  19
ENDBRANCH  15  16
ENDBRANCH   1  15
TORSDOF 8
ENDMDL
MODEL 5
REMARK VINA RESULT: -7.076449436      2.465      3.933
REMARK  8 active torsions:
REMARK  status: ('A' for Active; 'I' for Inactive)
REMARK    1  A    between atoms: C4_6  and  C5_7 
REMARK    2  A    between atoms: C5_7  and  C6_8 
REMARK    3  A    between atoms: C6_8  and  N1_9 
REMARK    4  A    between atoms: N1_9  and  C7_12 
REMARK    5  A    between atoms: C7_12  and  C8_13 
REMARK    6  A    between atoms: C8_13  and  C9_14 
REMARK    7  A    between atoms: C8_13  and  N2_16 
REMARK    8  A    between atoms: N2_16  and  C10_18 
ROOT
HETATM    1  N1  UNL     1     -19.636   7.946  -0.181  1.00  0.00    -0.073 N 
ATOM      2  H11 UNL     1     -19.168   8.844  -0.306  1.00  0.00     0.277 HD
ATOM      3  H12 UNL     1     -20.510   8.207  -0.638  1.00  0.00     0.277 HD
ENDROOT
BRANCH   1   4
HETATM    4  C6  UNL     1     -19.794   7.544   1.229  1.00  0.00     0.237 C 
BRANCH   4   5
HETATM    5  C5  UNL     1     -19.710   6.067   1.333  1.00  0.00     0.068 C 
BRANCH   5   6
HETATM    6  C4  UNL     1     -19.987   5.619   2.729  1.00  0.00    -0.032 A 
HETATM    7  C3  UNL     1     -20.747   4.520   2.981  1.00  0.00     0.043 A 
HETATM    8  C2  UNL     1     -20.962   4.069   4.288  1.00  0.00     0.070 A 
HETATM    9 CL1  UNL     1     -21.483   3.622   1.634  1.00  0.00    -0.084 Cl
HETATM   10  C1  UNL     1     -20.394   4.741   5.366  1.00  0.00     0.156 A 
HETATM   11  F1  UNL     1     -20.562   4.332   6.662  1.00  0.00    -0.203 F 
HETATM   12  C14 UNL     1     -19.630   5.853   5.094  1.00  0.00     0.155 A 
HETATM   13  C13 UNL     1     -19.428   6.285   3.808  1.00  0.00     0.054 A 
HETATM   14  F2  UNL     1     -19.059   6.546   6.133  1.00  0.00    -0.203 F 
ENDBRANCH   5   6
ENDBRANCH   4   5
ENDBRANCH   1   4
BRANCH   1  15
HETATM   15  C7  UNL     1     -18.956   6.839  -0.804  1.00  0.00     0.257 C 
BRANCH  15  16
HETATM   16  C8  UNL     1     -19.651   6.519  -2.121  1.00  0.00     0.112 C 
BRANCH  16  17
HETATM   17  C9  UNL     1     -18.735   7.152  -3.176  1.00  0.00     0.112 C 
HETATM   18  S1  UNL     1     -19.573   8.440  -4.108  1.00  0.00    -0.096 SA
ENDBRANCH  16  17
BRANCH  16  19
HETATM   19  N2  UNL     1     -19.794   5.145  -2.283  1.00  0.00    -0.411 N 
ATOM     20  H2  UNL     1     -19.018   4.543  -2.009  1.00  0.00     0.154 HD
BRANCH  19  21
HETATM   21  C10 UNL     1     -20.939   4.551  -2.800  1.00  0.00     0.077 A 
HETATM   22  C11 UNL     1     -20.928   3.109  -3.184  1.00  0.00     0.027 A 
HETATM   23  C12 UNL     1     -21.685   3.591  -1.963  1.00  0.00     0.027 A 
ENDBRANCH  19  21
ENDBRANCH  16  19
ENDBRANCH  15  16
ENDBRANCH   1  15
TORSDOF 8
ENDMDL
