MODEL 1
REMARK VINA RESULT: -7.073528293      0.000      0.000
REMARK  8 active torsions:
REMARK  status: ('A' for Active; 'I' for Inactive)
REMARK    1  A    between atoms: C2_2  and  C3_3 
REMARK    2  A    between atoms: C2_2  and  N1_5 
REMARK    3  A    between atoms: N1_5  and  C4_7 
REMARK    4  A    between atoms: C9_14  and  C10_15 
REMARK    5  A    between atoms: C10_15  and  N2_16 
REMARK    6  A    between atoms: N2_16  and  C11_19 
REMARK    7  A    between atoms: C11_19  and  C12_20 
REMARK    8  A    between atoms: C12_20  and  O1_21 
ROOT
HETATM    1  C4  UNL     1     -20.032   5.432   0.228  1.00  0.00     0.058 A 
HETATM    2  C5  UNL     1     -20.892   4.367   0.339  1.00  0.00     0.062 A 
HETATM    3 CL2  UNL     1     -21.373   3.666   1.891  1.00  0.00    -0.082 Cl
HETATM    4  C6  UNL     1     -21.385   3.817  -0.842  1.00  0.00     0.050 A 
HETATM    5  C7  UNL     1     -21.041   4.297  -2.082  1.00  0.00     0.036 A 
HETATM    6 CL3  UNL     1     -21.684   3.577  -3.565  1.00  0.00    -0.084 Cl
HETATM    7  C8  UNL     1     -20.178   5.365  -2.187  1.00  0.00     0.035 A 
HETATM    8  C9  UNL     1     -19.673   5.930  -1.018  1.00  0.00    -0.003 A 
ENDROOT
BRANCH   8   9
HETATM    9  C10 UNL     1     -18.733   7.074  -1.128  1.00  0.00     0.273 C 
BRANCH   9  10
HETATM   10  N2  UNL     1     -19.497   8.285  -1.440  1.00  0.00    -0.069 N 
ATOM     11  H22 UNL     1     -19.501   8.482  -2.441  1.00  0.00     0.277 HD
ATOM     12  H21 UNL     1     -20.498   8.145  -1.307  1.00  0.00     0.277 HD
BRANCH  10  13
HETATM   13  C11 UNL     1     -19.004   9.414  -0.671  1.00  0.00     0.258 C 
BRANCH  13  14
HETATM   14  C12 UNL     1     -19.415  10.664  -1.438  1.00  0.00     0.191 C 
BRANCH  14  15
HETATM   15  O1  UNL     1     -19.991  11.549  -0.523  1.00  0.00    -0.399 OA
ATOM     16  H1  UNL     1     -20.757  11.123  -0.158  1.00  0.00     0.209 HD
ENDBRANCH  14  15
ENDBRANCH  13  14
ENDBRANCH  10  13
ENDBRANCH   9  10
ENDBRANCH   8   9
BRANCH   1  17
HETATM   17  N1  UNL     1     -19.515   6.027   1.409  1.00  0.00    -0.383 N 
ATOM     18  H1  UNL     1     -18.619   5.672   1.744  1.00  0.00     0.160 HD
BRANCH  17  19
HETATM   19  C2  UNL     1     -20.112   7.064   2.176  1.00  0.00     0.091 C 
HETATM   20  C1  UNL     1     -21.273   7.771   1.551  1.00  0.00     0.033 C 
BRANCH  19  21
HETATM   21  C3  UNL     1     -20.651   6.468   3.489  1.00  0.00     0.139 C 
HETATM   22 CL1  UNL     1     -19.280   6.069   4.556  1.00  0.00    -0.128 Cl
ENDBRANCH  19  21
ENDBRANCH  17  19
ENDBRANCH   1  17
TORSDOF 8
ENDMDL
MODEL 2
REMARK VINA RESULT: -6.856397378      1.621      2.093
REMARK  8 active torsions:
REMARK  status: ('A' for Active; 'I' for Inactive)
REMARK    1  A    between atoms: C2_2  and  C3_3 
REMARK    2  A    between atoms: C2_2  and  N1_5 
REMARK    3  A    between atoms: N1_5  and  C4_7 
REMARK    4  A    between atoms: C9_14  and  C10_15 
REMARK    5  A    between atoms: C10_15  and  N2_16 
REMARK    6  A    between atoms: N2_16  and  C11_19 
REMARK    7  A    between atoms: C11_19  and  C12_20 
REMARK    8  A    between atoms: C12_20  and  O1_21 
ROOT
HETATM    1  C4  UNL     1     -20.595   5.456   1.874  1.00  0.00     0.058 A 
HETATM    2  C5  UNL     1     -21.003   4.179   1.575  1.00  0.00     0.062 A 
HETATM    3 CL2  UNL     1     -21.555   3.026   2.799  1.00  0.00    -0.082 Cl
HETATM    4  C6  UNL     1     -20.956   3.790   0.240  1.00  0.00     0.050 A 
HETATM    5  C7  UNL     1     -20.522   4.625  -0.761  1.00  0.00     0.036 A 
HETATM    6 CL3  UNL     1     -20.474   4.100  -2.450  1.00  0.00    -0.084 Cl
HETATM    7  C8  UNL     1     -20.113   5.904  -0.455  1.00  0.00     0.035 A 
HETATM    8  C9  UNL     1     -20.152   6.314   0.876  1.00  0.00    -0.003 A 
ENDROOT
BRANCH   8   9
HETATM    9  C10 UNL     1     -19.702   7.689   1.210  1.00  0.00     0.273 C 
BRANCH   9  10
HETATM   10  N2  UNL     1     -20.167   8.606   0.167  1.00  0.00    -0.069 N 
ATOM     11  H22 UNL     1     -20.867   8.171  -0.435  1.00  0.00     0.277 HD
ATOM     12  H21 UNL     1     -20.741   9.356   0.551  1.00  0.00     0.277 HD
BRANCH  10  13
HETATM   13  C11 UNL     1     -19.046   9.123  -0.599  1.00  0.00     0.258 C 
BRANCH  13  14
HETATM   14  C12 UNL     1     -19.427  10.540  -1.008  1.00  0.00     0.191 C 
BRANCH  14  15
HETATM   15  O1  UNL     1     -19.862  10.492  -2.335  1.00  0.00    -0.399 OA
ATOM     16  H1  UNL     1     -19.614  11.312  -2.747  1.00  0.00     0.209 HD
ENDBRANCH  14  15
ENDBRANCH  13  14
ENDBRANCH  10  13
ENDBRANCH   9  10
ENDBRANCH   8   9
BRANCH   1  17
HETATM   17  N1  UNL     1     -20.637   5.895   3.225  1.00  0.00    -0.383 N 
ATOM     18  H1  UNL     1     -21.288   6.652   3.438  1.00  0.00     0.160 HD
BRANCH  17  19
HETATM   19  C2  UNL     1     -19.869   5.395   4.311  1.00  0.00     0.091 C 
HETATM   20  C1  UNL     1     -18.876   6.336   4.915  1.00  0.00     0.033 C 
BRANCH  19  21
HETATM   21  C3  UNL     1     -20.820   5.008   5.458  1.00  0.00     0.139 C 
HETATM   22 CL1  UNL     1     -19.906   4.971   6.988  1.00  0.00    -0.128 Cl
ENDBRANCH  19  21
ENDBRANCH  17  19
ENDBRANCH   1  17
TORSDOF 8
ENDMDL
MODEL 3
REMARK VINA RESULT: -6.791264622      1.181      1.435
REMARK  8 active torsions:
REMARK  status: ('A' for Active; 'I' for Inactive)
REMARK    1  A    between atoms: C2_2  and  C3_3 
REMARK    2  A    between atoms: C2_2  and  N1_5 
REMARK    3  A    between atoms: N1_5  and  C4_7 
REMARK    4  A    between atoms: C9_14  and  C10_15 
REMARK    5  A    between atoms: C10_15  and  N2_16 
REMARK    6  A    between atoms: N2_16  and  C11_19 
REMARK    7  A    between atoms: C11_19  and  C12_20 
REMARK    8  A    between atoms: C12_20  and  O1_21 
ROOT
HETATM    1  C4  UNL     1     -20.067   5.273   0.009  1.00  0.00     0.058 A 
HETATM    2  C5  UNL     1     -20.931   4.207   0.058  1.00  0.00     0.062 A 
HETATM    3 CL2  UNL     1     -21.410   3.416   1.567  1.00  0.00    -0.082 Cl
HETATM    4  C6  UNL     1     -21.429   3.731  -1.151  1.00  0.00     0.050 A 
HETATM    5  C7  UNL     1     -21.087   4.284  -2.362  1.00  0.00     0.036 A 
HETATM    6 CL3  UNL     1     -21.737   3.657  -3.883  1.00  0.00    -0.084 Cl
HETATM    7  C8  UNL     1     -20.219   5.352  -2.405  1.00  0.00     0.035 A 
HETATM    8  C9  UNL     1     -19.709   5.844  -1.206  1.00  0.00    -0.003 A 
ENDROOT
BRANCH   8   9
HETATM    9  C10 UNL     1     -18.765   6.988  -1.250  1.00  0.00     0.273 C 
BRANCH   9  10
HETATM   10  N2  UNL     1     -19.527   8.222  -1.459  1.00  0.00    -0.069 N 
ATOM     11  H22 UNL     1     -19.703   8.395  -2.449  1.00  0.00     0.277 HD
ATOM     12  H21 UNL     1     -20.492   8.128  -1.146  1.00  0.00     0.277 HD
BRANCH  10  13
HETATM   13  C11 UNL     1     -18.862   9.349  -0.826  1.00  0.00     0.258 C 
BRANCH  13  14
HETATM   14  C12 UNL     1     -19.437  10.602  -1.475  1.00  0.00     0.191 C 
BRANCH  14  15
HETATM   15  O1  UNL     1     -20.043  11.356  -0.468  1.00  0.00    -0.399 OA
ATOM     16  H1  UNL     1     -20.057  12.261  -0.758  1.00  0.00     0.209 HD
ENDBRANCH  14  15
ENDBRANCH  13  14
ENDBRANCH  10  13
ENDBRANCH   9  10
ENDBRANCH   8   9
BRANCH   1  17
HETATM   17  N1  UNL     1     -19.544   5.794   1.223  1.00  0.00    -0.383 N 
ATOM     18  H1  UNL     1     -18.535   5.718   1.354  1.00  0.00     0.160 HD
BRANCH  17  19
HETATM   19  C2  UNL     1     -20.275   6.409   2.275  1.00  0.00     0.091 C 
HETATM   20  C1  UNL     1     -19.837   6.086   3.669  1.00  0.00     0.033 C 
BRANCH  19  21
HETATM   21  C3  UNL     1     -20.145   7.937   2.146  1.00  0.00     0.139 C 
HETATM   22 CL1  UNL     1     -21.593   8.580   1.328  1.00  0.00    -0.128 Cl
ENDBRANCH  19  21
ENDBRANCH  17  19
ENDBRANCH   1  17
TORSDOF 8
ENDMDL
MODEL 4
REMARK VINA RESULT: -6.434874390      3.073      5.306
REMARK  8 active torsions:
REMARK  status: ('A' for Active; 'I' for Inactive)
REMARK    1  A    between atoms: C2_2  and  C3_3 
REMARK    2  A    between atoms: C2_2  and  N1_5 
REMARK    3  A    between atoms: N1_5  and  C4_7 
REMARK    4  A    between atoms: C9_14  and  C10_15 
REMARK    5  A    between atoms: C10_15  and  N2_16 
REMARK    6  A    between atoms: N2_16  and  C11_19 
REMARK    7  A    between atoms: C11_19  and  C12_20 
REMARK    8  A    between atoms: C12_20  and  O1_21 
ROOT
HETATM    1  C4  UNL     1     -19.638   6.897  -0.537  1.00  0.00     0.058 A 
HETATM    2  C5  UNL     1     -19.097   7.512  -1.640  1.00  0.00     0.062 A 
HETATM    3 CL2  UNL     1     -18.356   6.623  -2.979  1.00  0.00    -0.082 Cl
HETATM    4  C6  UNL     1     -19.130   8.903  -1.677  1.00  0.00     0.050 A 
HETATM    5  C7  UNL     1     -19.674   9.658  -0.666  1.00  0.00     0.036 A 
HETATM    6 CL3  UNL     1     -19.700  11.426  -0.742  1.00  0.00    -0.084 Cl
HETATM    7  C8  UNL     1     -20.213   9.037   0.438  1.00  0.00     0.035 A 
HETATM    8  C9  UNL     1     -20.191   7.645   0.495  1.00  0.00    -0.003 A 
ENDROOT
BRANCH   8   9
HETATM    9  C10 UNL     1     -20.762   6.972   1.688  1.00  0.00     0.273 C 
BRANCH   9  10
HETATM   10  N2  UNL     1     -19.813   7.091   2.798  1.00  0.00    -0.069 N 
ATOM     11  H22 UNL     1     -18.876   7.329   2.471  1.00  0.00     0.277 HD
ATOM     12  H21 UNL     1     -19.993   7.921   3.362  1.00  0.00     0.277 HD
BRANCH  10  13
HETATM   13  C11 UNL     1     -19.811   5.882   3.604  1.00  0.00     0.258 C 
BRANCH  13  14
HETATM   14  C12 UNL     1     -20.961   6.027   4.592  1.00  0.00     0.191 C 
BRANCH  14  15
HETATM   15  O1  UNL     1     -20.409   6.095   5.873  1.00  0.00    -0.399 OA
ATOM     16  H1  UNL     1     -20.742   6.883   6.286  1.00  0.00     0.209 HD
ENDBRANCH  14  15
ENDBRANCH  13  14
ENDBRANCH  10  13
ENDBRANCH   9  10
ENDBRANCH   8   9
BRANCH   1  17
HETATM   17  N1  UNL     1     -19.632   5.478  -0.466  1.00  0.00    -0.383 N 
ATOM     18  H1  UNL     1     -18.763   5.041  -0.160  1.00  0.00     0.160 HD
BRANCH  17  19
HETATM   19  C2  UNL     1     -20.708   4.602  -0.775  1.00  0.00     0.091 C 
HETATM   20  C1  UNL     1     -20.840   4.188  -2.206  1.00  0.00     0.033 C 
BRANCH  19  21
HETATM   21  C3  UNL     1     -20.531   3.295   0.018  1.00  0.00     0.139 C 
HETATM   22 CL1  UNL     1     -21.298   3.473   1.617  1.00  0.00    -0.128 Cl
ENDBRANCH  19  21
ENDBRANCH  17  19
ENDBRANCH   1  17
TORSDOF 8
ENDMDL
MODEL 5
REMARK VINA RESULT: -6.388992475      1.700      4.912
REMARK  8 active torsions:
REMARK  status: ('A' for Active; 'I' for Inactive)
REMARK    1  A    between atoms: C2_2  and  C3_3 
REMARK    2  A    between atoms: C2_2  and  N1_5 
REMARK    3  A    between atoms: N1_5  and  C4_7 
REMARK    4  A    between atoms: C9_14  and  C10_15 
REMARK    5  A    between atoms: C10_15  and  N2_16 
REMARK    6  A    between atoms: N2_16  and  C11_19 
REMARK    7  A    between atoms: C11_19  and  C12_20 
REMARK    8  A    between atoms: C12_20  and  O1_21 
ROOT
HETATM    1  C4  UNL     1     -20.703   5.217   2.479  1.00  0.00     0.058 A 
HETATM    2  C5  UNL     1     -21.007   4.191   3.341  1.00  0.00     0.062 A 
HETATM    3 CL2  UNL     1     -21.782   2.687   2.822  1.00  0.00    -0.082 Cl
HETATM    4  C6  UNL     1     -20.697   4.373   4.685  1.00  0.00     0.050 A 
HETATM    5  C7  UNL     1     -20.111   5.520   5.162  1.00  0.00     0.036 A 
HETATM    6 CL3  UNL     1     -19.729   5.721   6.878  1.00  0.00    -0.084 Cl
HETATM    7  C8  UNL     1     -19.809   6.546   4.295  1.00  0.00     0.035 A 
HETATM    8  C9  UNL     1     -20.111   6.385   2.944  1.00  0.00    -0.003 A 
ENDROOT
BRANCH   8   9
HETATM    9  C10 UNL     1     -19.797   7.493   2.007  1.00  0.00     0.273 C 
BRANCH   9  10
HETATM   10  N2  UNL     1     -21.029   8.233   1.720  1.00  0.00    -0.069 N 
ATOM     11  H22 UNL     1     -21.838   7.614   1.664  1.00  0.00     0.277 HD
ATOM     12  H21 UNL     1     -21.324   8.798   2.516  1.00  0.00     0.277 HD
BRANCH  10  13
HETATM   13  C11 UNL     1     -20.877   9.033   0.517  1.00  0.00     0.258 C 
BRANCH  13  14
HETATM   14  C12 UNL     1     -19.474   8.756  -0.006  1.00  0.00     0.191 C 
BRANCH  14  15
HETATM   15  O1  UNL     1     -19.011   9.927  -0.610  1.00  0.00    -0.399 OA
ATOM     16  H1  UNL     1     -18.156  10.120  -0.245  1.00  0.00     0.209 HD
ENDBRANCH  14  15
ENDBRANCH  13  14
ENDBRANCH  10  13
ENDBRANCH   9  10
ENDBRANCH   8   9
BRANCH   1  17
HETATM   17  N1  UNL     1     -20.995   5.067   1.097  1.00  0.00    -0.383 N 
ATOM     18  H1  UNL     1     -21.903   5.411   0.784  1.00  0.00     0.160 HD
BRANCH  17  19
HETATM   19  C2  UNL     1     -20.159   4.488   0.104  1.00  0.00     0.091 C 
HETATM   20  C1  UNL     1     -20.606   3.179  -0.463  1.00  0.00     0.033 C 
BRANCH  19  21
HETATM   21  C3  UNL     1     -20.071   5.448  -1.095  1.00  0.00     0.139 C 
HETATM   22 CL1  UNL     1     -20.771   4.657  -2.531  1.00  0.00    -0.128 Cl
ENDBRANCH  19  21
ENDBRANCH  17  19
ENDBRANCH   1  17
TORSDOF 8
ENDMDL
