MODEL 1
REMARK VINA RESULT: -8.675637087      0.000      0.000
REMARK  9 active torsions:
REMARK  status: ('A' for Active; 'I' for Inactive)
REMARK    1  A    between atoms: N1_1  and  C1_4 
REMARK    2  A    between atoms: C2_7  and  C3_8 
REMARK    3  A    between atoms: C3_8  and  C4_9 
REMARK    4  A    between atoms: C4_9  and  C5_10 
REMARK    5  A    between atoms: C5_10  and  O1_11 
REMARK    6  A    between atoms: O1_11  and  C6_12 
REMARK    7  A    between atoms: C6_12  and  C7_13 
REMARK    8  A    between atoms: C7_13  and  C8_14 
REMARK    9  A    between atoms: C8_14  and  C9_15 
ROOT
HETATM    1  C4  UNL     1       9.683  62.424  23.844  1.00  0.00     0.034 C 
ENDROOT
BRANCH   1   2
HETATM    2  C3  UNL     1       9.323  63.875  24.083  1.00  0.00     0.080 C 
BRANCH   2   3
HETATM    3  C2  UNL     1       8.080  63.970  24.899  1.00  0.00     0.112 A 
HETATM    4  N2  UNL     1       7.781  63.399  26.075  1.00  0.00    -0.178 N 
HETATM    5  C1  UNL     1       6.540  63.763  26.443  1.00  0.00     0.691 A 
ATOM      6  H2  UNL     1       8.398  62.784  26.607  1.00  0.00     0.185 HD
HETATM    7  N4  UNL     1       6.050  64.574  25.486  1.00  0.00    -0.131 N 
HETATM    8  N3  UNL     1       7.000  64.687  24.557  1.00  0.00    -0.274 N 
ATOM      9  H4  UNL     1       5.131  65.016  25.475  1.00  0.00     0.205 HD
ATOM     10  H3  UNL     1       6.916  65.242  23.706  1.00  0.00     0.189 HD
BRANCH   5  11
HETATM   11  N1  UNL     1       5.904  63.405  27.532  1.00  0.00    -0.233 N 
ATOM     12  H12 UNL     1       6.340  63.216  28.434  1.00  0.00     0.174 HD
ATOM     13  H11 UNL     1       4.899  63.264  27.637  1.00  0.00     0.174 HD
ENDBRANCH   5  11
ENDBRANCH   2   3
ENDBRANCH   1   2
BRANCH   1  14
HETATM   14  C5  UNL     1      11.142  62.397  23.449  1.00  0.00     0.168 C 
BRANCH  14  15
HETATM   15  O1  UNL     1      11.711  61.151  23.450  1.00  0.00    -0.391 OA
BRANCH  15  16
HETATM   16  C6  UNL     1      10.887  60.113  23.816  1.00  0.00     0.167 C 
BRANCH  16  17
HETATM   17  C7  UNL     1      11.784  59.059  24.488  1.00  0.00     0.027 C 
BRANCH  17  18
HETATM   18  C8  UNL     1      12.320  58.200  23.395  1.00  0.00     0.013 C 
BRANCH  18  19
HETATM   19  C9  UNL     1      11.841  56.770  23.414  1.00  0.00     0.058 C 
HETATM   20  C10 UNL     1      12.982  55.901  22.945  1.00  0.00     0.010 C 
HETATM   21  C11 UNL     1      12.556  54.478  22.702  1.00  0.00     0.001 C 
HETATM   22  C12 UNL     1      11.072  54.289  22.931  1.00  0.00     0.006 C 
HETATM   23  C13 UNL     1      10.365  55.268  22.026  1.00  0.00     0.079 C 
HETATM   24  C14 UNL     1      10.623  56.651  22.562  1.00  0.00     0.247 C 
HETATM   25  F1  UNL     1       9.526  56.989  23.345  1.00  0.00    -0.206 F 
HETATM   26  F2  UNL     1      10.627  57.525  21.489  1.00  0.00    -0.206 F 
ENDBRANCH  18  19
ENDBRANCH  17  18
ENDBRANCH  16  17
ENDBRANCH  15  16
ENDBRANCH  14  15
ENDBRANCH   1  14
TORSDOF 9
ENDMDL
MODEL 2
REMARK VINA RESULT: -8.630759213      4.116      4.823
REMARK  9 active torsions:
REMARK  status: ('A' for Active; 'I' for Inactive)
REMARK    1  A    between atoms: N1_1  and  C1_4 
REMARK    2  A    between atoms: C2_7  and  C3_8 
REMARK    3  A    between atoms: C3_8  and  C4_9 
REMARK    4  A    between atoms: C4_9  and  C5_10 
REMARK    5  A    between atoms: C5_10  and  O1_11 
REMARK    6  A    between atoms: O1_11  and  C6_12 
REMARK    7  A    between atoms: C6_12  and  C7_13 
REMARK    8  A    between atoms: C7_13  and  C8_14 
REMARK    9  A    between atoms: C8_14  and  C9_15 
ROOT
HETATM    1  C4  UNL     1      10.980  63.011  21.863  1.00  0.00     0.034 C 
ENDROOT
BRANCH   1   2
HETATM    2  C3  UNL     1      11.742  63.550  20.670  1.00  0.00     0.080 C 
BRANCH   2   3
HETATM    3  C2  UNL     1      11.081  63.128  19.404  1.00  0.00     0.112 A 
HETATM    4  N2  UNL     1      10.937  61.903  18.878  1.00  0.00    -0.178 N 
HETATM    5  C1  UNL     1      10.270  61.993  17.715  1.00  0.00     0.691 A 
ATOM      6  H2  UNL     1      11.281  61.037  19.296  1.00  0.00     0.185 HD
HETATM    7  N4  UNL     1       9.989  63.293  17.503  1.00  0.00    -0.131 N 
HETATM    8  N3  UNL     1      10.489  63.966  18.540  1.00  0.00    -0.274 N 
ATOM      9  H4  UNL     1       9.489  63.686  16.706  1.00  0.00     0.205 HD
ATOM     10  H3  UNL     1      10.431  64.977  18.658  1.00  0.00     0.189 HD
BRANCH   5  11
HETATM   11  N1  UNL     1       9.942  61.007  16.915  1.00  0.00    -0.233 N 
ATOM     12  H12 UNL     1       9.164  60.364  17.061  1.00  0.00     0.174 HD
ATOM     13  H11 UNL     1      10.406  60.740  16.047  1.00  0.00     0.174 HD
ENDBRANCH   5  11
ENDBRANCH   2   3
ENDBRANCH   1   2
BRANCH   1  14
HETATM   14  C5  UNL     1      11.888  62.014  22.545  1.00  0.00     0.168 C 
BRANCH  14  15
HETATM   15  O1  UNL     1      11.427  60.724  22.539  1.00  0.00    -0.391 OA
BRANCH  15  16
HETATM   16  C6  UNL     1      10.683  60.346  23.632  1.00  0.00     0.167 C 
BRANCH  16  17
HETATM   17  C7  UNL     1      11.506  59.279  24.374  1.00  0.00     0.027 C 
BRANCH  17  18
HETATM   18  C8  UNL     1      12.114  58.409  23.329  1.00  0.00     0.013 C 
BRANCH  18  19
HETATM   19  C9  UNL     1      11.699  56.960  23.385  1.00  0.00     0.058 C 
HETATM   20  C10 UNL     1      12.907  56.127  23.031  1.00  0.00     0.010 C 
HETATM   21  C11 UNL     1      12.561  54.675  22.829  1.00  0.00     0.001 C 
HETATM   22  C12 UNL     1      11.076  54.426  22.973  1.00  0.00     0.006 C 
HETATM   23  C13 UNL     1      10.386  55.329  21.979  1.00  0.00     0.079 C 
HETATM   24  C14 UNL     1      10.546  56.745  22.465  1.00  0.00     0.247 C 
HETATM   25  F1  UNL     1       9.387  57.065  23.160  1.00  0.00    -0.206 F 
HETATM   26  F2  UNL     1      10.580  57.569  21.354  1.00  0.00    -0.206 F 
ENDBRANCH  18  19
ENDBRANCH  17  18
ENDBRANCH  16  17
ENDBRANCH  15  16
ENDBRANCH  14  15
ENDBRANCH   1  14
TORSDOF 9
ENDMDL
MODEL 3
REMARK VINA RESULT: -8.526317276      0.869      1.058
REMARK  9 active torsions:
REMARK  status: ('A' for Active; 'I' for Inactive)
REMARK    1  A    between atoms: N1_1  and  C1_4 
REMARK    2  A    between atoms: C2_7  and  C3_8 
REMARK    3  A    between atoms: C3_8  and  C4_9 
REMARK    4  A    between atoms: C4_9  and  C5_10 
REMARK    5  A    between atoms: C5_10  and  O1_11 
REMARK    6  A    between atoms: O1_11  and  C6_12 
REMARK    7  A    between atoms: C6_12  and  C7_13 
REMARK    8  A    between atoms: C7_13  and  C8_14 
REMARK    9  A    between atoms: C8_14  and  C9_15 
ROOT
HETATM    1  C4  UNL     1      10.027  61.910  23.854  1.00  0.00     0.034 C 
ENDROOT
BRANCH   1   2
HETATM    2  C3  UNL     1      10.203  63.414  23.840  1.00  0.00     0.080 C 
BRANCH   2   3
HETATM    3  C2  UNL     1       8.941  64.084  24.261  1.00  0.00     0.112 A 
HETATM    4  N2  UNL     1       7.961  63.639  25.062  1.00  0.00    -0.178 N 
HETATM    5  C1  UNL     1       7.009  64.583  25.165  1.00  0.00     0.691 A 
ATOM      6  H2  UNL     1       7.941  62.728  25.520  1.00  0.00     0.185 HD
HETATM    7  N4  UNL     1       7.393  65.637  24.420  1.00  0.00    -0.131 N 
HETATM    8  N3  UNL     1       8.569  65.314  23.879  1.00  0.00    -0.274 N 
ATOM      9  H4  UNL     1       6.885  66.511  24.294  1.00  0.00     0.205 HD
ATOM     10  H3  UNL     1       9.109  65.919  23.261  1.00  0.00     0.189 HD
BRANCH   5  11
HETATM   11  N1  UNL     1       5.899  64.511  25.860  1.00  0.00    -0.233 N 
ATOM     12  H12 UNL     1       5.485  63.652  26.221  1.00  0.00     0.174 HD
ATOM     13  H11 UNL     1       5.297  65.286  26.138  1.00  0.00     0.174 HD
ENDBRANCH   5  11
ENDBRANCH   2   3
ENDBRANCH   1   2
BRANCH   1  14
HETATM   14  C5  UNL     1      11.152  61.334  23.024  1.00  0.00     0.168 C 
BRANCH  14  15
HETATM   15  O1  UNL     1      11.422  60.013  23.267  1.00  0.00    -0.391 OA
BRANCH  15  16
HETATM   16  C6  UNL     1      11.582  59.664  24.587  1.00  0.00     0.167 C 
BRANCH  16  17
HETATM   17  C7  UNL     1      12.715  58.625  24.631  1.00  0.00     0.027 C 
BRANCH  17  18
HETATM   18  C8  UNL     1      12.681  57.905  23.328  1.00  0.00     0.013 C 
BRANCH  18  19
HETATM   19  C9  UNL     1      12.068  56.527  23.376  1.00  0.00     0.058 C 
HETATM   20  C10 UNL     1      13.077  55.559  22.808  1.00  0.00     0.010 C 
HETATM   21  C11 UNL     1      12.496  54.188  22.591  1.00  0.00     0.001 C 
HETATM   22  C12 UNL     1      11.025  54.139  22.941  1.00  0.00     0.006 C 
HETATM   23  C13 UNL     1      10.345  55.195  22.104  1.00  0.00     0.079 C 
HETATM   24  C14 UNL     1      10.778  56.539  22.628  1.00  0.00     0.247 C 
HETATM   25  F1  UNL     1       9.788  56.969  23.501  1.00  0.00    -0.206 F 
HETATM   26  F2  UNL     1      10.779  57.424  21.564  1.00  0.00    -0.206 F 
ENDBRANCH  18  19
ENDBRANCH  17  18
ENDBRANCH  16  17
ENDBRANCH  15  16
ENDBRANCH  14  15
ENDBRANCH   1  14
TORSDOF 9
ENDMDL
MODEL 4
REMARK VINA RESULT: -8.419252009      6.303      9.262
REMARK  9 active torsions:
REMARK  status: ('A' for Active; 'I' for Inactive)
REMARK    1  A    between atoms: N1_1  and  C1_4 
REMARK    2  A    between atoms: C2_7  and  C3_8 
REMARK    3  A    between atoms: C3_8  and  C4_9 
REMARK    4  A    between atoms: C4_9  and  C5_10 
REMARK    5  A    between atoms: C5_10  and  O1_11 
REMARK    6  A    between atoms: O1_11  and  C6_12 
REMARK    7  A    between atoms: C6_12  and  C7_13 
REMARK    8  A    between atoms: C7_13  and  C8_14 
REMARK    9  A    between atoms: C8_14  and  C9_15 
ROOT
HETATM    1  C4  UNL     1      11.140  54.081  23.059  1.00  0.00     0.034 C 
ENDROOT
BRANCH   1   2
HETATM    2  C3  UNL     1      12.405  53.898  22.247  1.00  0.00     0.080 C 
BRANCH   2   3
HETATM    3  C2  UNL     1      13.323  52.946  22.933  1.00  0.00     0.112 A 
HETATM    4  N2  UNL     1      13.776  51.750  22.529  1.00  0.00    -0.178 N 
HETATM    5  C1  UNL     1      14.587  51.240  23.473  1.00  0.00     0.691 A 
ATOM      6  H2  UNL     1      13.542  51.298  21.645  1.00  0.00     0.185 HD
HETATM    7  N4  UNL     1      14.646  52.126  24.485  1.00  0.00    -0.131 N 
HETATM    8  N3  UNL     1      13.872  53.155  24.139  1.00  0.00    -0.274 N 
ATOM      9  H4  UNL     1      15.179  52.029  25.349  1.00  0.00     0.205 HD
ATOM     10  H3  UNL     1      13.718  53.985  24.711  1.00  0.00     0.189 HD
BRANCH   5  11
HETATM   11  N1  UNL     1      15.216  50.090  23.434  1.00  0.00    -0.233 N 
ATOM     12  H12 UNL     1      14.842  49.202  23.768  1.00  0.00     0.174 HD
ATOM     13  H11 UNL     1      16.154  49.915  23.072  1.00  0.00     0.174 HD
ENDBRANCH   5  11
ENDBRANCH   2   3
ENDBRANCH   1   2
BRANCH   1  14
HETATM   14  C5  UNL     1      10.465  55.329  22.536  1.00  0.00     0.168 C 
BRANCH  14  15
HETATM   15  O1  UNL     1      11.315  56.248  21.981  1.00  0.00    -0.391 OA
BRANCH  15  16
HETATM   16  C6  UNL     1      11.329  57.490  22.572  1.00  0.00     0.167 C 
BRANCH  16  17
HETATM   17  C7  UNL     1      12.577  57.533  23.471  1.00  0.00     0.027 C 
BRANCH  17  18
HETATM   18  C8  UNL     1      12.464  58.768  24.295  1.00  0.00     0.013 C 
BRANCH  18  19
HETATM   19  C9  UNL     1      12.150  60.025  23.521  1.00  0.00     0.058 C 
HETATM   20  C10 UNL     1      13.347  60.937  23.629  1.00  0.00     0.010 C 
HETATM   21  C11 UNL     1      13.067  62.315  23.091  1.00  0.00     0.001 C 
HETATM   22  C12 UNL     1      11.633  62.458  22.630  1.00  0.00     0.006 C 
HETATM   23  C13 UNL     1      10.761  62.109  23.812  1.00  0.00     0.079 C 
HETATM   24  C14 UNL     1      10.898  60.630  24.058  1.00  0.00     0.247 C 
HETATM   25  F1  UNL     1       9.826  60.016  23.423  1.00  0.00    -0.206 F 
HETATM   26  F2  UNL     1      10.731  60.412  25.414  1.00  0.00    -0.206 F 
ENDBRANCH  18  19
ENDBRANCH  17  18
ENDBRANCH  16  17
ENDBRANCH  15  16
ENDBRANCH  14  15
ENDBRANCH   1  14
TORSDOF 9
ENDMDL
MODEL 5
REMARK VINA RESULT: -8.343417332      4.171      4.898
REMARK  9 active torsions:
REMARK  status: ('A' for Active; 'I' for Inactive)
REMARK    1  A    between atoms: N1_1  and  C1_4 
REMARK    2  A    between atoms: C2_7  and  C3_8 
REMARK    3  A    between atoms: C3_8  and  C4_9 
REMARK    4  A    between atoms: C4_9  and  C5_10 
REMARK    5  A    between atoms: C5_10  and  O1_11 
REMARK    6  A    between atoms: O1_11  and  C6_12 
REMARK    7  A    between atoms: C6_12  and  C7_13 
REMARK    8  A    between atoms: C7_13  and  C8_14 
REMARK    9  A    between atoms: C8_14  and  C9_15 
ROOT
HETATM    1  C4  UNL     1      11.106  62.997  21.768  1.00  0.00     0.034 C 
ENDROOT
BRANCH   1   2
HETATM    2  C3  UNL     1      11.682  62.371  20.515  1.00  0.00     0.080 C 
BRANCH   2   3
HETATM    3  C2  UNL     1      11.150  63.058  19.305  1.00  0.00     0.112 A 
HETATM    4  N2  UNL     1      11.397  64.292  18.842  1.00  0.00    -0.178 N 
HETATM    5  C1  UNL     1      10.696  64.492  17.713  1.00  0.00     0.691 A 
ATOM      6  H2  UNL     1      12.019  64.973  19.279  1.00  0.00     0.185 HD
HETATM    7  N4  UNL     1       9.997  63.368  17.460  1.00  0.00    -0.131 N 
HETATM    8  N3  UNL     1      10.286  62.510  18.438  1.00  0.00    -0.274 N 
ATOM      9  H4  UNL     1       9.370  63.206  16.673  1.00  0.00     0.205 HD
ATOM     10  H3  UNL     1       9.904  61.568  18.516  1.00  0.00     0.189 HD
BRANCH   5  11
HETATM   11  N1  UNL     1      10.680  65.576  16.976  1.00  0.00    -0.233 N 
ATOM     12  H12 UNL     1      11.452  65.906  16.396  1.00  0.00     0.174 HD
ATOM     13  H11 UNL     1       9.910  66.238  16.873  1.00  0.00     0.174 HD
ENDBRANCH   5  11
ENDBRANCH   2   3
ENDBRANCH   1   2
BRANCH   1  14
HETATM   14  C5  UNL     1      11.762  62.305  22.941  1.00  0.00     0.168 C 
BRANCH  14  15
HETATM   15  O1  UNL     1      11.723  60.937  22.891  1.00  0.00    -0.391 OA
BRANCH  15  16
HETATM   16  C6  UNL     1      10.800  60.330  23.711  1.00  0.00     0.167 C 
BRANCH  16  17
HETATM   17  C7  UNL     1      11.551  59.224  24.473  1.00  0.00     0.027 C 
BRANCH  17  18
HETATM   18  C8  UNL     1      12.196  58.363  23.443  1.00  0.00     0.013 C 
BRANCH  18  19
HETATM   19  C9  UNL     1      11.733  56.927  23.430  1.00  0.00     0.058 C 
HETATM   20  C10 UNL     1      12.918  56.070  23.057  1.00  0.00     0.010 C 
HETATM   21  C11 UNL     1      12.528  54.641  22.788  1.00  0.00     0.001 C 
HETATM   22  C12 UNL     1      11.034  54.435  22.901  1.00  0.00     0.006 C 
HETATM   23  C13 UNL     1      10.388  55.402  21.939  1.00  0.00     0.079 C 
HETATM   24  C14 UNL     1      10.587  56.790  22.488  1.00  0.00     0.247 C 
HETATM   25  F1  UNL     1       9.429  57.118  23.181  1.00  0.00    -0.206 F 
HETATM   26  F2  UNL     1      10.664  57.660  21.414  1.00  0.00    -0.206 F 
ENDBRANCH  18  19
ENDBRANCH  17  18
ENDBRANCH  16  17
ENDBRANCH  15  16
ENDBRANCH  14  15
ENDBRANCH   1  14
TORSDOF 9
ENDMDL
