MODEL 1
REMARK VINA RESULT: -6.631867636      0.000      0.000
REMARK  10 active torsions:
REMARK  status: ('A' for Active; 'I' for Inactive)
REMARK    1  A    between atoms: C2_2  and  C3_3 
REMARK    2  A    between atoms: C3_3  and  C4_4 
REMARK    3  A    between atoms: C4_4  and  C5_5 
REMARK    4  A    between atoms: C5_5  and  C6_6 
REMARK    5  A    between atoms: C5_5  and  C13_21 
REMARK    6  A    between atoms: C8_11  and  N2_12 
REMARK    7  A    between atoms: C9_17  and  C10_18 
REMARK    8  A    between atoms: C10_18  and  C11_19 
REMARK    9  A    between atoms: C13_21  and  O1_22 
REMARK   10  A    between atoms: C13_21  and  C14_24 
ROOT
HETATM    1  C6  UNL     1      11.108  61.749  22.863  1.00  0.00     0.040 A 
HETATM    2  N1  UNL     1      11.694  61.941  21.638  1.00  0.00    -0.345 N 
ATOM      3  H1  UNL     1      12.271  61.205  21.232  1.00  0.00     0.167 HD
HETATM    4  C7  UNL     1      11.514  63.085  20.973  1.00  0.00     0.147 A 
HETATM    5 CL1  UNL     1      12.251  63.352  19.398  1.00  0.00    -0.060 Cl
HETATM    6  C8  UNL     1      10.745  64.119  21.467  1.00  0.00     0.138 A 
HETATM    7  N3  UNL     1      10.178  63.907  22.671  1.00  0.00    -0.342 N 
ATOM      8  H3  UNL     1       9.602  64.648  23.070  1.00  0.00     0.167 HD
HETATM    9  C9  UNL     1      10.333  62.750  23.385  1.00  0.00     0.034 A 
ENDROOT
BRANCH   1  10
HETATM   10  C5  UNL     1      11.439  60.547  23.661  1.00  0.00     0.072 C 
BRANCH  10  11
HETATM   11  C4  UNL     1      11.414  59.297  22.799  1.00  0.00     0.013 C 
BRANCH  11  12
HETATM   12  C3  UNL     1      10.381  58.342  23.383  1.00  0.00     0.000 C 
BRANCH  12  13
HETATM   13  C2  UNL     1      10.758  56.896  23.183  1.00  0.00    -0.005 C 
HETATM   14  C1  UNL     1      12.265  56.724  23.123  1.00  0.00     0.005 C 
ENDBRANCH  12  13
ENDBRANCH  11  12
ENDBRANCH  10  11
BRANCH  10  15
HETATM   15  C13 UNL     1      12.770  60.599  24.322  1.00  0.00     0.193 C 
BRANCH  15  16
HETATM   16  O1  UNL     1      13.852  60.918  23.535  1.00  0.00    -0.389 OA
ATOM     17  H1  UNL     1      14.621  60.365  23.608  1.00  0.00     0.210 HD
ENDBRANCH  15  16
BRANCH  15  18
HETATM   18  C14 UNL     1      13.182  59.515  25.236  1.00  0.00     0.382 C 
HETATM   19  F1  UNL     1      14.411  59.565  25.792  1.00  0.00    -0.212 F 
HETATM   20  F2  UNL     1      12.185  59.240  26.187  1.00  0.00    -0.212 F 
ENDBRANCH  15  18
ENDBRANCH  10  15
ENDBRANCH   1  10
BRANCH   9  21
HETATM   21  C10 UNL     1       9.540  62.582  24.624  1.00  0.00     0.059 C 
BRANCH  21  22
HETATM   22  C11 UNL     1       8.778  63.873  24.947  1.00  0.00     0.002 C 
HETATM   23  C12 UNL     1       7.283  63.608  24.915  1.00  0.00     0.005 C 
ENDBRANCH  21  22
ENDBRANCH   9  21
BRANCH   6  24
HETATM   24  N2  UNL     1      10.554  65.228  20.867  1.00  0.00    -0.383 N 
ATOM     25  H22 UNL     1      11.167  66.019  21.063  1.00  0.00     0.157 HD
ATOM     26  H21 UNL     1       9.815  65.395  20.184  1.00  0.00     0.157 HD
ENDBRANCH   6  24
TORSDOF 10
ENDMDL
MODEL 2
REMARK VINA RESULT: -6.566535318      3.465      5.685
REMARK  10 active torsions:
REMARK  status: ('A' for Active; 'I' for Inactive)
REMARK    1  A    between atoms: C2_2  and  C3_3 
REMARK    2  A    between atoms: C3_3  and  C4_4 
REMARK    3  A    between atoms: C4_4  and  C5_5 
REMARK    4  A    between atoms: C5_5  and  C6_6 
REMARK    5  A    between atoms: C5_5  and  C13_21 
REMARK    6  A    between atoms: C8_11  and  N2_12 
REMARK    7  A    between atoms: C9_17  and  C10_18 
REMARK    8  A    between atoms: C10_18  and  C11_19 
REMARK    9  A    between atoms: C13_21  and  O1_22 
REMARK   10  A    between atoms: C13_21  and  C14_24 
ROOT
HETATM    1  C6  UNL     1      12.147  62.555  22.912  1.00  0.00     0.040 A 
HETATM    2  N1  UNL     1      13.275  63.330  22.819  1.00  0.00    -0.345 N 
ATOM      3  H1  UNL     1      13.202  64.296  22.498  1.00  0.00     0.167 HD
HETATM    4  C7  UNL     1      14.470  62.829  23.144  1.00  0.00     0.147 A 
HETATM    5 CL1  UNL     1      15.929  63.804  23.037  1.00  0.00    -0.060 Cl
HETATM    6  C8  UNL     1      14.637  61.532  23.583  1.00  0.00     0.138 A 
HETATM    7  N3  UNL     1      13.515  60.791  23.670  1.00  0.00    -0.342 N 
ATOM      8  H3  UNL     1      13.597  59.826  23.991  1.00  0.00     0.167 HD
HETATM    9  C9  UNL     1      12.271  61.264  23.349  1.00  0.00     0.034 A 
ENDROOT
BRANCH   1  10
HETATM   10  C5  UNL     1      10.855  63.066  22.402  1.00  0.00     0.072 C 
BRANCH  10  11
HETATM   11  C4  UNL     1      10.152  63.912  23.450  1.00  0.00     0.013 C 
BRANCH  11  12
HETATM   12  C3  UNL     1       9.148  63.024  24.175  1.00  0.00     0.000 C 
BRANCH  12  13
HETATM   13  C2  UNL     1       8.320  63.791  25.175  1.00  0.00    -0.005 C 
HETATM   14  C1  UNL     1       6.837  63.660  24.875  1.00  0.00     0.005 C 
ENDBRANCH  12  13
ENDBRANCH  11  12
ENDBRANCH  10  11
BRANCH  10  15
HETATM   15  C13 UNL     1      10.967  63.894  21.172  1.00  0.00     0.193 C 
BRANCH  15  16
HETATM   16  O1  UNL     1      10.063  64.918  21.017  1.00  0.00    -0.389 OA
ATOM     17  H1  UNL     1       9.542  64.922  20.223  1.00  0.00     0.210 HD
ENDBRANCH  15  16
BRANCH  15  18
HETATM   18  C14 UNL     1      11.138  63.241  19.858  1.00  0.00     0.382 C 
HETATM   19  F1  UNL     1      11.165  61.893  19.801  1.00  0.00    -0.212 F 
HETATM   20  F2  UNL     1      10.272  63.791  18.897  1.00  0.00    -0.212 F 
ENDBRANCH  15  18
ENDBRANCH  10  15
ENDBRANCH   1  10
BRANCH   9  21
HETATM   21  C10 UNL     1      11.102  60.399  23.627  1.00  0.00     0.059 C 
BRANCH  21  22
HETATM   22  C11 UNL     1      11.551  58.948  23.841  1.00  0.00     0.002 C 
HETATM   23  C12 UNL     1      11.124  58.099  22.657  1.00  0.00     0.005 C 
ENDBRANCH  21  22
ENDBRANCH   9  21
BRANCH   6  24
HETATM   24  N2  UNL     1      15.759  61.014  23.897  1.00  0.00    -0.383 N 
ATOM     25  H22 UNL     1      16.622  61.503  23.663  1.00  0.00     0.157 HD
ATOM     26  H21 UNL     1      15.869  60.123  24.382  1.00  0.00     0.157 HD
ENDBRANCH   6  24
TORSDOF 10
ENDMDL
MODEL 3
REMARK VINA RESULT: -6.547156122      3.414      5.688
REMARK  10 active torsions:
REMARK  status: ('A' for Active; 'I' for Inactive)
REMARK    1  A    between atoms: C2_2  and  C3_3 
REMARK    2  A    between atoms: C3_3  and  C4_4 
REMARK    3  A    between atoms: C4_4  and  C5_5 
REMARK    4  A    between atoms: C5_5  and  C6_6 
REMARK    5  A    between atoms: C5_5  and  C13_21 
REMARK    6  A    between atoms: C8_11  and  N2_12 
REMARK    7  A    between atoms: C9_17  and  C10_18 
REMARK    8  A    between atoms: C10_18  and  C11_19 
REMARK    9  A    between atoms: C13_21  and  O1_22 
REMARK   10  A    between atoms: C13_21  and  C14_24 
ROOT
HETATM    1  C6  UNL     1      12.163  62.177  23.038  1.00  0.00     0.040 A 
HETATM    2  N1  UNL     1      13.254  62.991  22.865  1.00  0.00    -0.345 N 
ATOM      3  H1  UNL     1      13.131  63.926  22.476  1.00  0.00     0.167 HD
HETATM    4  C7  UNL     1      14.475  62.569  23.203  1.00  0.00     0.147 A 
HETATM    5 CL1  UNL     1      15.887  63.596  22.995  1.00  0.00    -0.060 Cl
HETATM    6  C8  UNL     1      14.708  61.316  23.733  1.00  0.00     0.138 A 
HETATM    7  N3  UNL     1      13.622  60.535  23.896  1.00  0.00    -0.342 N 
ATOM      8  H3  UNL     1      13.753  59.602  24.286  1.00  0.00     0.167 HD
HETATM    9  C9  UNL     1      12.353  60.928  23.567  1.00  0.00     0.034 A 
ENDROOT
BRANCH   1  10
HETATM   10  C5  UNL     1      10.841  62.591  22.517  1.00  0.00     0.072 C 
BRANCH  10  11
HETATM   11  C4  UNL     1      10.204  63.634  23.418  1.00  0.00     0.013 C 
BRANCH  11  12
HETATM   12  C3  UNL     1       9.205  62.926  24.325  1.00  0.00     0.000 C 
BRANCH  12  13
HETATM   13  C2  UNL     1       8.339  63.894  25.092  1.00  0.00    -0.005 C 
HETATM   14  C1  UNL     1       6.865  63.629  24.843  1.00  0.00     0.005 C 
ENDBRANCH  12  13
ENDBRANCH  11  12
ENDBRANCH  10  11
BRANCH  10  15
HETATM   15  C13 UNL     1      10.876  63.157  21.143  1.00  0.00     0.193 C 
BRANCH  15  16
HETATM   16  O1  UNL     1      11.834  62.672  20.285  1.00  0.00    -0.389 OA
ATOM     17  H1  UNL     1      11.709  62.831  19.357  1.00  0.00     0.210 HD
ENDBRANCH  15  16
BRANCH  15  18
HETATM   18  C14 UNL     1      10.795  64.619  20.947  1.00  0.00     0.382 C 
HETATM   19  F1  UNL     1      11.856  65.380  21.287  1.00  0.00    -0.212 F 
HETATM   20  F2  UNL     1      10.308  64.938  19.668  1.00  0.00    -0.212 F 
ENDBRANCH  15  18
ENDBRANCH  10  15
ENDBRANCH   1  10
BRANCH   9  21
HETATM   21  C10 UNL     1      11.229  60.036  23.930  1.00  0.00     0.059 C 
BRANCH  21  22
HETATM   22  C11 UNL     1      11.662  58.568  23.835  1.00  0.00     0.002 C 
HETATM   23  C12 UNL     1      11.066  57.936  22.590  1.00  0.00     0.005 C 
ENDBRANCH  21  22
ENDBRANCH   9  21
BRANCH   6  24
HETATM   24  N2  UNL     1      15.857  60.873  24.063  1.00  0.00    -0.383 N 
ATOM     25  H22 UNL     1      16.690  61.416  23.834  1.00  0.00     0.157 HD
ATOM     26  H21 UNL     1      16.019  59.994  24.553  1.00  0.00     0.157 HD
ENDBRANCH   6  24
TORSDOF 10
ENDMDL
MODEL 4
REMARK VINA RESULT: -6.489350882      3.672      5.769
REMARK  10 active torsions:
REMARK  status: ('A' for Active; 'I' for Inactive)
REMARK    1  A    between atoms: C2_2  and  C3_3 
REMARK    2  A    between atoms: C3_3  and  C4_4 
REMARK    3  A    between atoms: C4_4  and  C5_5 
REMARK    4  A    between atoms: C5_5  and  C6_6 
REMARK    5  A    between atoms: C5_5  and  C13_21 
REMARK    6  A    between atoms: C8_11  and  N2_12 
REMARK    7  A    between atoms: C9_17  and  C10_18 
REMARK    8  A    between atoms: C10_18  and  C11_19 
REMARK    9  A    between atoms: C13_21  and  O1_22 
REMARK   10  A    between atoms: C13_21  and  C14_24 
ROOT
HETATM    1  C6  UNL     1      12.311  62.426  22.216  1.00  0.00     0.040 A 
HETATM    2  N1  UNL     1      13.523  63.067  22.170  1.00  0.00    -0.345 N 
ATOM      3  H1  UNL     1      13.647  63.873  21.556  1.00  0.00     0.167 HD
HETATM    4  C7  UNL     1      14.542  62.646  22.923  1.00  0.00     0.147 A 
HETATM    5 CL1  UNL     1      16.103  63.455  22.885  1.00  0.00    -0.060 Cl
HETATM    6  C8  UNL     1      14.439  61.564  23.774  1.00  0.00     0.138 A 
HETATM    7  N3  UNL     1      13.239  60.951  23.804  1.00  0.00    -0.342 N 
ATOM      8  H3  UNL     1      13.123  60.147  24.420  1.00  0.00     0.167 HD
HETATM    9  C9  UNL     1      12.168  61.351  23.052  1.00  0.00     0.034 A 
ENDROOT
BRANCH   1  10
HETATM   10  C5  UNL     1      11.239  62.801  21.266  1.00  0.00     0.072 C 
BRANCH  10  11
HETATM   11  C4  UNL     1      10.716  64.196  21.558  1.00  0.00     0.013 C 
BRANCH  11  12
HETATM   12  C3  UNL     1      10.705  64.388  23.069  1.00  0.00     0.000 C 
BRANCH  12  13
HETATM   13  C2  UNL     1       9.314  64.315  23.648  1.00  0.00    -0.005 C 
HETATM   14  C1  UNL     1       9.301  63.534  24.950  1.00  0.00     0.005 C 
ENDBRANCH  12  13
ENDBRANCH  11  12
ENDBRANCH  10  11
BRANCH  10  15
HETATM   15  C13 UNL     1      11.652  62.776  19.839  1.00  0.00     0.193 C 
BRANCH  15  16
HETATM   16  O1  UNL     1      12.510  63.763  19.413  1.00  0.00    -0.389 OA
ATOM     17  H1  UNL     1      12.616  63.873  18.475  1.00  0.00     0.210 HD
ENDBRANCH  15  16
BRANCH  15  18
HETATM   18  C14 UNL     1      10.640  62.573  18.782  1.00  0.00     0.382 C 
HETATM   19  F1  UNL     1      10.414  63.569  17.899  1.00  0.00    -0.212 F 
HETATM   20  F2  UNL     1      10.806  61.333  18.144  1.00  0.00    -0.212 F 
ENDBRANCH  15  18
ENDBRANCH  10  15
ENDBRANCH   1  10
BRANCH   9  21
HETATM   21  C10 UNL     1      10.865  60.689  23.285  1.00  0.00     0.059 C 
BRANCH  21  22
HETATM   22  C11 UNL     1      11.078  59.272  23.832  1.00  0.00     0.002 C 
HETATM   23  C12 UNL     1      11.082  58.274  22.688  1.00  0.00     0.005 C 
ENDBRANCH  21  22
ENDBRANCH   9  21
BRANCH   6  24
HETATM   24  N2  UNL     1      15.388  61.126  24.504  1.00  0.00    -0.383 N 
ATOM     25  H22 UNL     1      16.055  60.459  24.116  1.00  0.00     0.157 HD
ATOM     26  H21 UNL     1      15.543  61.397  25.474  1.00  0.00     0.157 HD
ENDBRANCH   6  24
TORSDOF 10
ENDMDL
MODEL 5
REMARK VINA RESULT: -6.355845519      1.967      3.794
REMARK  10 active torsions:
REMARK  status: ('A' for Active; 'I' for Inactive)
REMARK    1  A    between atoms: C2_2  and  C3_3 
REMARK    2  A    between atoms: C3_3  and  C4_4 
REMARK    3  A    between atoms: C4_4  and  C5_5 
REMARK    4  A    between atoms: C5_5  and  C6_6 
REMARK    5  A    between atoms: C5_5  and  C13_21 
REMARK    6  A    between atoms: C8_11  and  N2_12 
REMARK    7  A    between atoms: C9_17  and  C10_18 
REMARK    8  A    between atoms: C10_18  and  C11_19 
REMARK    9  A    between atoms: C13_21  and  O1_22 
REMARK   10  A    between atoms: C13_21  and  C14_24 
ROOT
HETATM    1  C6  UNL     1      10.892  63.459  21.854  1.00  0.00     0.040 A 
HETATM    2  N1  UNL     1      10.895  62.522  20.853  1.00  0.00    -0.345 N 
ATOM      3  H1  UNL     1      10.947  61.530  21.087  1.00  0.00     0.167 HD
HETATM    4  C7  UNL     1      10.833  62.898  19.573  1.00  0.00     0.147 A 
HETATM    5 CL1  UNL     1      10.831  61.715  18.271  1.00  0.00    -0.060 Cl
HETATM    6  C8  UNL     1      10.762  64.222  19.190  1.00  0.00     0.138 A 
HETATM    7  N3  UNL     1      10.758  65.124  20.191  1.00  0.00    -0.342 N 
ATOM      8  H3  UNL     1      10.707  66.113  19.949  1.00  0.00     0.167 HD
HETATM    9  C9  UNL     1      10.818  64.783  21.515  1.00  0.00     0.034 A 
ENDROOT
BRANCH   1  10
HETATM   10  C5  UNL     1      11.120  63.043  23.257  1.00  0.00     0.072 C 
BRANCH  10  11
HETATM   11  C4  UNL     1       9.895  62.350  23.825  1.00  0.00     0.013 C 
BRANCH  11  12
HETATM   12  C3  UNL     1       9.319  63.236  24.922  1.00  0.00     0.000 C 
BRANCH  12  13
HETATM   13  C2  UNL     1       7.842  63.483  24.745  1.00  0.00    -0.005 C 
HETATM   14  C1  UNL     1       7.124  63.502  26.083  1.00  0.00     0.005 C 
ENDBRANCH  12  13
ENDBRANCH  11  12
ENDBRANCH  10  11
BRANCH  10  15
HETATM   15  C13 UNL     1      12.272  62.122  23.441  1.00  0.00     0.193 C 
BRANCH  15  16
HETATM   16  O1  UNL     1      13.319  62.237  22.557  1.00  0.00    -0.389 OA
ATOM     17  H1  UNL     1      13.510  61.485  22.009  1.00  0.00     0.210 HD
ENDBRANCH  15  16
BRANCH  15  18
HETATM   18  C14 UNL     1      12.035  60.682  23.673  1.00  0.00     0.382 C 
HETATM   19  F1  UNL     1      11.657  59.910  22.632  1.00  0.00    -0.212 F 
HETATM   20  F2  UNL     1      13.084  60.101  24.404  1.00  0.00    -0.212 F 
ENDBRANCH  15  18
ENDBRANCH  10  15
ENDBRANCH   1  10
BRANCH   9  21
HETATM   21  C10 UNL     1      10.657  65.857  22.521  1.00  0.00     0.059 C 
BRANCH  21  22
HETATM   22  C11 UNL     1       9.188  66.290  22.607  1.00  0.00     0.002 C 
HETATM   23  C12 UNL     1       8.922  66.935  23.955  1.00  0.00     0.005 C 
ENDBRANCH  21  22
ENDBRANCH   9  21
BRANCH   6  24
HETATM   24  N2  UNL     1      10.707  64.623  17.981  1.00  0.00    -0.383 N 
ATOM     25  H22 UNL     1      10.221  64.057  17.285  1.00  0.00     0.157 HD
ATOM     26  H21 UNL     1      11.119  65.491  17.641  1.00  0.00     0.157 HD
ENDBRANCH   6  24
TORSDOF 10
ENDMDL
