MODEL 1
REMARK VINA RESULT: -7.367215857      0.000      0.000
REMARK  10 active torsions:
REMARK  status: ('A' for Active; 'I' for Inactive)
REMARK    1  A    between atoms: C2_2  and  C4_4 
REMARK    2  A    between atoms: C4_4  and  C5_6 
REMARK    3  A    between atoms: C5_6  and  O1_7 
REMARK    4  A    between atoms: C5_6  and  C6_9 
REMARK    5  A    between atoms: C6_9  and  N1_11 
REMARK    6  A    between atoms: N1_11  and  C8_14 
REMARK    7  A    between atoms: C8_14  and  C9_15 
REMARK    8  A    between atoms: C9_15  and  O2_17 
REMARK    9  A    between atoms: C9_15  and  C11_19 
REMARK   10  A    between atoms: C11_19  and  C12_20 
ROOT
HETATM    1  N1  UNL     1      12.684  61.955  23.494  1.00  0.00    -0.066 N 
ATOM      2  H11 UNL     1      11.713  62.222  23.331  1.00  0.00     0.277 HD
ATOM      3  H12 UNL     1      12.855  62.463  24.361  1.00  0.00     0.277 HD
ENDROOT
BRANCH   1   4
HETATM    4  C6  UNL     1      13.546  62.451  22.421  1.00  0.00     0.213 C 
HETATM    5  C7  UNL     1      14.788  62.931  23.085  1.00  0.00     0.043 C 
BRANCH   4   6
HETATM    6  C5  UNL     1      12.784  63.466  21.615  1.00  0.00     0.182 C 
BRANCH   6   7
HETATM    7  C4  UNL     1      11.649  62.911  20.820  1.00  0.00     0.204 C 
HETATM    8  F1  UNL     1      10.464  63.366  21.371  1.00  0.00    -0.246 F 
BRANCH   7   9
HETATM    9  C2  UNL     1      11.640  63.167  19.360  1.00  0.00     0.014 C 
HETATM   10  C1  UNL     1      10.940  64.462  18.997  1.00  0.00     0.012 C 
HETATM   11  C3  UNL     1      10.834  62.032  18.708  1.00  0.00     0.012 C 
ENDBRANCH   7   9
ENDBRANCH   6   7
BRANCH   6  12
HETATM   12  O1  UNL     1      12.118  64.241  22.635  1.00  0.00    -0.391 OA
ATOM     13  H1  UNL     1      12.578  65.072  22.606  1.00  0.00     0.210 HD
ENDBRANCH   6  12
ENDBRANCH   4   6
ENDBRANCH   1   4
BRANCH   1  14
HETATM   14  C8  UNL     1      12.796  60.531  23.703  1.00  0.00     0.270 C 
BRANCH  14  15
HETATM   15  C9  UNL     1      11.433  59.884  23.829  1.00  0.00     0.079 C 
HETATM   16  C10 UNL     1      10.434  61.036  23.848  1.00  0.00     0.047 C 
BRANCH  15  17
HETATM   17  O2  UNL     1      11.327  59.270  25.077  1.00  0.00    -0.389 OA
ATOM     18  H2  UNL     1      10.413  59.232  25.333  1.00  0.00     0.210 HD
ENDBRANCH  15  17
BRANCH  15  19
HETATM   19  C11 UNL     1      11.199  58.978  22.676  1.00  0.00     0.048 C 
BRANCH  19  20
HETATM   20  C12 UNL     1      11.330  57.514  23.050  1.00  0.00    -0.030 C 
HETATM   21  C13 UNL     1      12.583  57.217  23.849  1.00  0.00     0.015 C 
HETATM   22  C14 UNL     1      10.102  56.819  23.522  1.00  0.00     0.088 C 
HETATM   23  C15 UNL     1      10.448  55.675  22.563  1.00  0.00     0.245 C 
HETATM   24  F2  UNL     1       9.343  55.191  21.882  1.00  0.00    -0.206 F 
HETATM   25  F3  UNL     1      11.136  54.643  23.139  1.00  0.00    -0.206 F 
HETATM   26  C16 UNL     1      11.288  56.669  21.801  1.00  0.00     0.088 C 
ENDBRANCH  19  20
ENDBRANCH  15  19
ENDBRANCH  14  15
ENDBRANCH   1  14
TORSDOF 10
ENDMDL
MODEL 2
REMARK VINA RESULT: -7.205037558      1.611      2.355
REMARK  10 active torsions:
REMARK  status: ('A' for Active; 'I' for Inactive)
REMARK    1  A    between atoms: C2_2  and  C4_4 
REMARK    2  A    between atoms: C4_4  and  C5_6 
REMARK    3  A    between atoms: C5_6  and  O1_7 
REMARK    4  A    between atoms: C5_6  and  C6_9 
REMARK    5  A    between atoms: C6_9  and  N1_11 
REMARK    6  A    between atoms: N1_11  and  C8_14 
REMARK    7  A    between atoms: C8_14  and  C9_15 
REMARK    8  A    between atoms: C9_15  and  O2_17 
REMARK    9  A    between atoms: C9_15  and  C11_19 
REMARK   10  A    between atoms: C11_19  and  C12_20 
ROOT
HETATM    1  N1  UNL     1      11.220  61.160  22.744  1.00  0.00    -0.066 N 
ATOM      2  H11 UNL     1      12.178  60.850  22.583  1.00  0.00     0.277 HD
ATOM      3  H12 UNL     1      10.889  61.191  21.780  1.00  0.00     0.277 HD
ENDROOT
BRANCH   1   4
HETATM    4  C6  UNL     1      11.198  62.494  23.345  1.00  0.00     0.213 C 
HETATM    5  C7  UNL     1       9.812  62.692  23.847  1.00  0.00     0.043 C 
BRANCH   4   6
HETATM    6  C5  UNL     1      11.693  63.491  22.334  1.00  0.00     0.182 C 
BRANCH   6   7
HETATM    7  C4  UNL     1      10.855  63.605  21.104  1.00  0.00     0.204 C 
HETATM    8  F1  UNL     1      10.185  64.815  21.141  1.00  0.00    -0.246 F 
BRANCH   7   9
HETATM    9  C2  UNL     1      11.532  63.459  19.794  1.00  0.00     0.014 C 
HETATM   10  C1  UNL     1      11.075  62.230  19.034  1.00  0.00     0.012 C 
HETATM   11  C3  UNL     1      13.030  63.269  20.078  1.00  0.00     0.012 C 
ENDBRANCH   7   9
ENDBRANCH   6   7
BRANCH   6  12
HETATM   12  O1  UNL     1      11.464  64.752  23.001  1.00  0.00    -0.391 OA
ATOM     13  H1  UNL     1      11.255  65.338  22.282  1.00  0.00     0.210 HD
ENDBRANCH   6  12
ENDBRANCH   4   6
ENDBRANCH   1   4
BRANCH   1  14
HETATM   14  C8  UNL     1      10.485  60.179  23.506  1.00  0.00     0.270 C 
BRANCH  14  15
HETATM   15  C9  UNL     1      11.378  59.036  23.940  1.00  0.00     0.079 C 
HETATM   16  C10 UNL     1      11.812  59.374  25.362  1.00  0.00     0.047 C 
BRANCH  15  17
HETATM   17  O2  UNL     1      12.544  59.045  23.174  1.00  0.00    -0.389 OA
ATOM     18  H2  UNL     1      13.209  58.524  23.608  1.00  0.00     0.210 HD
ENDBRANCH  15  17
BRANCH  15  19
HETATM   19  C11 UNL     1      10.620  57.760  23.890  1.00  0.00     0.048 C 
BRANCH  19  20
HETATM   20  C12 UNL     1      11.137  56.818  22.820  1.00  0.00    -0.030 C 
HETATM   21  C13 UNL     1      10.546  57.093  21.453  1.00  0.00     0.015 C 
HETATM   22  C14 UNL     1      12.593  56.511  22.827  1.00  0.00     0.088 C 
HETATM   23  C15 UNL     1      12.226  55.031  22.682  1.00  0.00     0.245 C 
HETATM   24  F2  UNL     1      12.991  54.206  23.490  1.00  0.00    -0.206 F 
HETATM   25  F3  UNL     1      12.234  54.570  21.394  1.00  0.00    -0.206 F 
HETATM   26  C16 UNL     1      10.869  55.391  23.233  1.00  0.00     0.088 C 
ENDBRANCH  19  20
ENDBRANCH  15  19
ENDBRANCH  14  15
ENDBRANCH   1  14
TORSDOF 10
ENDMDL
MODEL 3
REMARK VINA RESULT: -7.147603023      2.275      7.278
REMARK  10 active torsions:
REMARK  status: ('A' for Active; 'I' for Inactive)
REMARK    1  A    between atoms: C2_2  and  C4_4 
REMARK    2  A    between atoms: C4_4  and  C5_6 
REMARK    3  A    between atoms: C5_6  and  O1_7 
REMARK    4  A    between atoms: C5_6  and  C6_9 
REMARK    5  A    between atoms: C6_9  and  N1_11 
REMARK    6  A    between atoms: N1_11  and  C8_14 
REMARK    7  A    between atoms: C8_14  and  C9_15 
REMARK    8  A    between atoms: C9_15  and  O2_17 
REMARK    9  A    between atoms: C9_15  and  C11_19 
REMARK   10  A    between atoms: C11_19  and  C12_20 
ROOT
HETATM    1  N1  UNL     1      11.182  57.971  22.334  1.00  0.00    -0.066 N 
ATOM      2  H11 UNL     1      10.980  58.835  21.831  1.00  0.00     0.277 HD
ATOM      3  H12 UNL     1      11.970  57.635  21.782  1.00  0.00     0.277 HD
ENDROOT
BRANCH   1   4
HETATM    4  C6  UNL     1      10.054  57.044  22.250  1.00  0.00     0.213 C 
HETATM    5  C7  UNL     1       9.526  56.917  23.634  1.00  0.00     0.043 C 
BRANCH   4   6
HETATM    6  C5  UNL     1      10.516  55.774  21.591  1.00  0.00     0.182 C 
BRANCH   6   7
HETATM    7  C4  UNL     1      11.131  54.776  22.514  1.00  0.00     0.204 C 
HETATM    8  F1  UNL     1      10.317  53.658  22.557  1.00  0.00    -0.246 F 
BRANCH   7   9
HETATM    9  C2  UNL     1      12.527  54.357  22.246  1.00  0.00     0.014 C 
HETATM   10  C1  UNL     1      12.829  52.964  22.762  1.00  0.00     0.012 C 
HETATM   11  C3  UNL     1      13.444  55.320  23.016  1.00  0.00     0.012 C 
ENDBRANCH   7   9
ENDBRANCH   6   7
BRANCH   6  12
HETATM   12  O1  UNL     1       9.271  55.145  21.216  1.00  0.00    -0.391 OA
ATOM     13  H1  UNL     1       9.103  55.503  20.352  1.00  0.00     0.210 HD
ENDBRANCH   6  12
ENDBRANCH   4   6
ENDBRANCH   1   4
BRANCH   1  14
HETATM   14  C8  UNL     1      11.590  58.252  23.690  1.00  0.00     0.270 C 
BRANCH  14  15
HETATM   15  C9  UNL     1      11.791  59.736  23.909  1.00  0.00     0.079 C 
HETATM   16  C10 UNL     1      13.296  59.924  24.074  1.00  0.00     0.047 C 
BRANCH  15  17
HETATM   17  O2  UNL     1      11.226  60.104  25.130  1.00  0.00    -0.389 OA
ATOM     18  H2  UNL     1      11.891  60.508  25.675  1.00  0.00     0.210 HD
ENDBRANCH  15  17
BRANCH  15  19
HETATM   19  C11 UNL     1      11.274  60.491  22.739  1.00  0.00     0.048 C 
BRANCH  19  20
HETATM   20  C12 UNL     1      11.448  61.990  22.891  1.00  0.00    -0.030 C 
HETATM   21  C13 UNL     1      10.379  62.625  23.759  1.00  0.00     0.015 C 
HETATM   22  C14 UNL     1      12.827  62.497  23.119  1.00  0.00     0.088 C 
HETATM   23  C15 UNL     1      12.562  63.545  22.034  1.00  0.00     0.245 C 
HETATM   24  F2  UNL     1      13.636  63.714  21.176  1.00  0.00    -0.206 F 
HETATM   25  F3  UNL     1      12.143  64.758  22.510  1.00  0.00    -0.206 F 
HETATM   26  C16 UNL     1      11.472  62.636  21.527  1.00  0.00     0.088 C 
ENDBRANCH  19  20
ENDBRANCH  15  19
ENDBRANCH  14  15
ENDBRANCH   1  14
TORSDOF 10
ENDMDL
MODEL 4
REMARK VINA RESULT: -7.080683327      1.388      1.988
REMARK  10 active torsions:
REMARK  status: ('A' for Active; 'I' for Inactive)
REMARK    1  A    between atoms: C2_2  and  C4_4 
REMARK    2  A    between atoms: C4_4  and  C5_6 
REMARK    3  A    between atoms: C5_6  and  O1_7 
REMARK    4  A    between atoms: C5_6  and  C6_9 
REMARK    5  A    between atoms: C6_9  and  N1_11 
REMARK    6  A    between atoms: N1_11  and  C8_14 
REMARK    7  A    between atoms: C8_14  and  C9_15 
REMARK    8  A    between atoms: C9_15  and  O2_17 
REMARK    9  A    between atoms: C9_15  and  C11_19 
REMARK   10  A    between atoms: C11_19  and  C12_20 
ROOT
HETATM    1  N1  UNL     1      11.707  61.298  22.640  1.00  0.00    -0.066 N 
ATOM      2  H11 UNL     1      12.030  61.385  21.676  1.00  0.00     0.277 HD
ATOM      3  H12 UNL     1      10.836  60.793  22.482  1.00  0.00     0.277 HD
ENDROOT
BRANCH   1   4
HETATM    4  C6  UNL     1      11.446  62.615  23.221  1.00  0.00     0.213 C 
HETATM    5  C7  UNL     1      10.033  62.583  23.686  1.00  0.00     0.043 C 
BRANCH   4   6
HETATM    6  C5  UNL     1      11.793  63.671  22.210  1.00  0.00     0.182 C 
BRANCH   6   7
HETATM    7  C4  UNL     1      10.888  63.726  21.024  1.00  0.00     0.204 C 
HETATM    8  F1  UNL     1      10.194  64.923  21.056  1.00  0.00    -0.246 F 
BRANCH   7   9
HETATM    9  C2  UNL     1      11.496  63.547  19.684  1.00  0.00     0.014 C 
HETATM   10  C1  UNL     1      11.005  62.296  18.982  1.00  0.00     0.012 C 
HETATM   11  C3  UNL     1      13.008  63.369  19.894  1.00  0.00     0.012 C 
ENDBRANCH   7   9
ENDBRANCH   6   7
BRANCH   6  12
HETATM   12  O1  UNL     1      11.480  64.894  22.913  1.00  0.00    -0.391 OA
ATOM     13  H1  UNL     1      10.897  65.343  22.311  1.00  0.00     0.210 HD
ENDBRANCH   6  12
ENDBRANCH   4   6
ENDBRANCH   1   4
BRANCH   1  14
HETATM   14  C8  UNL     1      12.626  60.503  23.418  1.00  0.00     0.270 C 
BRANCH  14  15
HETATM   15  C9  UNL     1      12.050  59.138  23.725  1.00  0.00     0.079 C 
HETATM   16  C10 UNL     1      11.317  59.293  25.054  1.00  0.00     0.047 C 
BRANCH  15  17
HETATM   17  O2  UNL     1      13.091  58.241  23.969  1.00  0.00    -0.389 OA
ATOM     18  H2  UNL     1      12.843  57.379  23.655  1.00  0.00     0.210 HD
ENDBRANCH  15  17
BRANCH  15  19
HETATM   19  C11 UNL     1      11.126  58.726  22.638  1.00  0.00     0.048 C 
BRANCH  19  20
HETATM   20  C12 UNL     1      10.715  57.270  22.743  1.00  0.00    -0.030 C 
HETATM   21  C13 UNL     1       9.693  57.020  23.833  1.00  0.00     0.015 C 
HETATM   22  C14 UNL     1      10.474  56.537  21.472  1.00  0.00     0.088 C 
HETATM   23  C15 UNL     1      11.336  55.399  22.029  1.00  0.00     0.245 C 
HETATM   24  F2  UNL     1      12.206  54.873  21.087  1.00  0.00    -0.206 F 
HETATM   25  F3  UNL     1      10.628  54.394  22.629  1.00  0.00    -0.206 F 
HETATM   26  C16 UNL     1      11.940  56.416  22.964  1.00  0.00     0.088 C 
ENDBRANCH  19  20
ENDBRANCH  15  19
ENDBRANCH  14  15
ENDBRANCH   1  14
TORSDOF 10
ENDMDL
MODEL 5
REMARK VINA RESULT: -7.051447073      2.512      3.771
REMARK  10 active torsions:
REMARK  status: ('A' for Active; 'I' for Inactive)
REMARK    1  A    between atoms: C2_2  and  C4_4 
REMARK    2  A    between atoms: C4_4  and  C5_6 
REMARK    3  A    between atoms: C5_6  and  O1_7 
REMARK    4  A    between atoms: C5_6  and  C6_9 
REMARK    5  A    between atoms: C6_9  and  N1_11 
REMARK    6  A    between atoms: N1_11  and  C8_14 
REMARK    7  A    between atoms: C8_14  and  C9_15 
REMARK    8  A    between atoms: C9_15  and  O2_17 
REMARK    9  A    between atoms: C9_15  and  C11_19 
REMARK   10  A    between atoms: C11_19  and  C12_20 
ROOT
HETATM    1  N1  UNL     1      10.577  61.192  24.070  1.00  0.00    -0.066 N 
ATOM      2  H11 UNL     1       9.857  61.404  24.761  1.00  0.00     0.277 HD
ATOM      3  H12 UNL     1      11.394  61.167  24.681  1.00  0.00     0.277 HD
ENDROOT
BRANCH   1   4
HETATM    4  C6  UNL     1      10.694  62.272  23.091  1.00  0.00     0.213 C 
HETATM    5  C7  UNL     1      12.128  62.667  23.089  1.00  0.00     0.043 C 
BRANCH   4   6
HETATM    6  C5  UNL     1       9.705  63.350  23.435  1.00  0.00     0.182 C 
BRANCH   6   7
HETATM    7  C4  UNL     1       8.967  63.140  24.716  1.00  0.00     0.204 C 
HETATM    8  F1  UNL     1       9.608  63.853  25.713  1.00  0.00    -0.246 F 
BRANCH   7   9
HETATM    9  C2  UNL     1       7.520  63.458  24.738  1.00  0.00     0.014 C 
HETATM   10  C1  UNL     1       7.224  64.868  24.267  1.00  0.00     0.012 C 
HETATM   11  C3  UNL     1       7.063  63.378  26.204  1.00  0.00     0.012 C 
ENDBRANCH   7   9
ENDBRANCH   6   7
BRANCH   6  12
HETATM   12  O1  UNL     1      10.558  64.476  23.734  1.00  0.00    -0.391 OA
ATOM     13  H1  UNL     1      11.409  64.072  23.858  1.00  0.00     0.210 HD
ENDBRANCH   6  12
ENDBRANCH   4   6
ENDBRANCH   1   4
BRANCH   1  14
HETATM   14  C8  UNL     1      10.347  59.900  23.470  1.00  0.00     0.270 C 
BRANCH  14  15
HETATM   15  C9  UNL     1      11.361  58.882  23.948  1.00  0.00     0.079 C 
HETATM   16  C10 UNL     1      11.772  59.339  25.344  1.00  0.00     0.047 C 
BRANCH  15  17
HETATM   17  O2  UNL     1      12.512  58.974  23.164  1.00  0.00    -0.389 OA
ATOM     18  H2  UNL     1      12.974  59.777  23.377  1.00  0.00     0.210 HD
ENDBRANCH  15  17
BRANCH  15  19
HETATM   19  C11 UNL     1      10.743  57.533  23.976  1.00  0.00     0.048 C 
BRANCH  19  20
HETATM   20  C12 UNL     1      11.265  56.630  22.874  1.00  0.00    -0.030 C 
HETATM   21  C13 UNL     1      10.652  56.932  21.521  1.00  0.00     0.015 C 
HETATM   22  C14 UNL     1      12.726  56.352  22.856  1.00  0.00     0.088 C 
HETATM   23  C15 UNL     1      12.385  54.869  22.673  1.00  0.00     0.245 C 
HETATM   24  F2  UNL     1      13.175  54.036  23.449  1.00  0.00    -0.206 F 
HETATM   25  F3  UNL     1      12.387  54.445  21.373  1.00  0.00    -0.206 F 
HETATM   26  C16 UNL     1      11.028  55.188  23.250  1.00  0.00     0.088 C 
ENDBRANCH  19  20
ENDBRANCH  15  19
ENDBRANCH  14  15
ENDBRANCH   1  14
TORSDOF 10
ENDMDL
