MODEL 1
REMARK VINA RESULT: -8.199968923      0.000      0.000
REMARK  13 active torsions:
REMARK  status: ('A' for Active; 'I' for Inactive)
REMARK    1  A    between atoms: C2_2  and  C3_3 
REMARK    2  A    between atoms: C2_2  and  C16_32 
REMARK    3  A    between atoms: C3_3  and  C4_5 
REMARK    4  A    between atoms: C4_5  and  C6_7 
REMARK    5  A    between atoms: C6_7  and  C7_9 
REMARK    6  A    between atoms: C7_9  and  C8_12 
REMARK    7  A    between atoms: C8_12  and  C9_14 
REMARK    8  A    between atoms: C9_14  and  O1_15 
REMARK    9  A    between atoms: C9_14  and  C10_17 
REMARK   10  A    between atoms: C10_17  and  C11_19 
REMARK   11  A    between atoms: C10_17  and  C15_28 
REMARK   12  A    between atoms: C11_19  and  C12_21 
REMARK   13  A    between atoms: C12_21  and  N1_24 
ROOT
HETATM    1  C9  UNL     1      63.802  10.469 -23.835  1.00  0.00     0.214 C 
ENDROOT
BRANCH   1   2
HETATM    2  C8  UNL     1      62.883  11.381 -24.473  1.00  0.00     0.277 C 
HETATM    3  F5  UNL     1      63.609  12.555 -24.886  1.00  0.00    -0.240 F 
BRANCH   2   4
HETATM    4  C7  UNL     1      61.671  11.948 -23.809  1.00  0.00     0.306 C 
HETATM    5  F3  UNL     1      61.867  11.720 -22.404  1.00  0.00    -0.200 F 
HETATM    6  F4  UNL     1      61.619  13.295 -23.906  1.00  0.00    -0.200 F 
BRANCH   4   7
HETATM    7  C6  UNL     1      60.402  11.257 -24.213  1.00  0.00     0.252 C 
HETATM    8  F2  UNL     1      60.530  10.639 -25.429  1.00  0.00    -0.242 F 
BRANCH   7   9
HETATM    9  C4  UNL     1      59.170  12.092 -24.260  1.00  0.00     0.060 C 
HETATM   10  C5  UNL     1      59.205  13.229 -25.254  1.00  0.00     0.016 C 
BRANCH   9  11
HETATM   11  C3  UNL     1      57.899  11.334 -24.268  1.00  0.00     0.213 C 
HETATM   12  F1  UNL     1      58.138   9.989 -24.053  1.00  0.00    -0.244 F 
BRANCH  11  13
HETATM   13  C2  UNL     1      56.863  11.771 -23.321  1.00  0.00     0.050 C 
HETATM   14  C1  UNL     1      56.419  13.016 -23.366  1.00  0.00     0.026 C 
BRANCH  13  15
HETATM   15  C16 UNL     1      56.279  10.875 -22.294  1.00  0.00     0.415 C 
HETATM   16  F11 UNL     1      55.465   9.909 -22.861  1.00  0.00    -0.166 F 
HETATM   17  F12 UNL     1      57.198  10.316 -21.440  1.00  0.00    -0.166 F 
HETATM   18  F13 UNL     1      55.407  11.601 -21.457  1.00  0.00    -0.166 F 
ENDBRANCH  13  15
ENDBRANCH  11  13
ENDBRANCH   9  11
ENDBRANCH   7   9
ENDBRANCH   4   7
ENDBRANCH   2   4
ENDBRANCH   1   2
BRANCH   1  19
HETATM   19  O1  UNL     1      65.050  11.230 -23.596  1.00  0.00    -0.388 OA
ATOM     20  H1  UNL     1      65.308  11.050 -22.700  1.00  0.00     0.210 HD
ENDBRANCH   1  19
BRANCH   1  21
HETATM   21  C10 UNL     1      64.327   9.219 -24.508  1.00  0.00     0.279 C 
HETATM   22  F6  UNL     1      65.054   8.456 -23.673  1.00  0.00    -0.223 F 
BRANCH  21  23
HETATM   23  C11 UNL     1      65.261   9.806 -25.574  1.00  0.00     0.158 C 
HETATM   24  F7  UNL     1      64.569  10.324 -26.612  1.00  0.00    -0.209 F 
BRANCH  23  25
HETATM   25  C12 UNL     1      66.453   9.097 -25.992  1.00  0.00     0.169 C 
HETATM   26  C13 UNL     1      67.681   9.304 -25.122  1.00  0.00     0.053 C 
HETATM   27  C14 UNL     1      66.405   7.717 -26.498  1.00  0.00     0.053 C 
BRANCH  25  28
HETATM   28  N1  UNL     1      66.872   9.888 -27.232  1.00  0.00    -0.065 N 
ATOM     29  H13 UNL     1      66.650   9.444 -28.123  1.00  0.00     0.275 HD
ATOM     30  H12 UNL     1      66.331  10.734 -27.408  1.00  0.00     0.275 HD
ATOM     31  H11 UNL     1      67.867  10.038 -27.060  1.00  0.00     0.275 HD
ENDBRANCH  25  28
ENDBRANCH  23  25
ENDBRANCH  21  23
BRANCH  21  32
HETATM   32  C15 UNL     1      63.205   8.450 -25.088  1.00  0.00     0.432 C 
HETATM   33  F8  UNL     1      62.013   8.479 -24.392  1.00  0.00    -0.167 F 
HETATM   34  F9  UNL     1      63.490   7.059 -25.068  1.00  0.00    -0.167 F 
HETATM   35  F10 UNL     1      62.911   8.743 -26.397  1.00  0.00    -0.167 F 
ENDBRANCH  21  32
ENDBRANCH   1  21
TORSDOF 13
ENDMDL
MODEL 2
REMARK VINA RESULT: -8.010981497      1.175      1.751
REMARK  13 active torsions:
REMARK  status: ('A' for Active; 'I' for Inactive)
REMARK    1  A    between atoms: C2_2  and  C3_3 
REMARK    2  A    between atoms: C2_2  and  C16_32 
REMARK    3  A    between atoms: C3_3  and  C4_5 
REMARK    4  A    between atoms: C4_5  and  C6_7 
REMARK    5  A    between atoms: C6_7  and  C7_9 
REMARK    6  A    between atoms: C7_9  and  C8_12 
REMARK    7  A    between atoms: C8_12  and  C9_14 
REMARK    8  A    between atoms: C9_14  and  O1_15 
REMARK    9  A    between atoms: C9_14  and  C10_17 
REMARK   10  A    between atoms: C10_17  and  C11_19 
REMARK   11  A    between atoms: C10_17  and  C15_28 
REMARK   12  A    between atoms: C11_19  and  C12_21 
REMARK   13  A    between atoms: C12_21  and  N1_24 
ROOT
HETATM    1  C9  UNL     1      64.024   9.599 -23.844  1.00  0.00     0.214 C 
ENDROOT
BRANCH   1   2
HETATM    2  C8  UNL     1      63.563  10.939 -24.120  1.00  0.00     0.277 C 
HETATM    3  F5  UNL     1      64.432  11.872 -23.450  1.00  0.00    -0.240 F 
BRANCH   2   4
HETATM    4  C7  UNL     1      62.198  11.441 -23.780  1.00  0.00     0.306 C 
HETATM    5  F3  UNL     1      61.314  10.337 -24.032  1.00  0.00    -0.200 F 
HETATM    6  F4  UNL     1      62.053  11.664 -22.455  1.00  0.00    -0.200 F 
BRANCH   4   7
HETATM    7  C6  UNL     1      61.760  12.586 -24.643  1.00  0.00     0.252 C 
HETATM    8  F2  UNL     1      62.738  13.541 -24.748  1.00  0.00    -0.242 F 
BRANCH   7   9
HETATM    9  C4  UNL     1      60.499  13.276 -24.254  1.00  0.00     0.060 C 
HETATM   10  C5  UNL     1      60.604  14.778 -24.129  1.00  0.00     0.016 C 
BRANCH   9  11
HETATM   11  C3  UNL     1      59.288  12.822 -24.973  1.00  0.00     0.213 C 
HETATM   12  F1  UNL     1      59.593  11.766 -25.812  1.00  0.00    -0.244 F 
BRANCH  11  13
HETATM   13  C2  UNL     1      58.136  12.432 -24.147  1.00  0.00     0.050 C 
HETATM   14  C1  UNL     1      57.022  13.143 -24.199  1.00  0.00     0.026 C 
BRANCH  13  15
HETATM   15  C16 UNL     1      58.157  11.263 -23.235  1.00  0.00     0.415 C 
HETATM   16  F11 UNL     1      58.138  10.068 -23.934  1.00  0.00    -0.166 F 
HETATM   17  F12 UNL     1      59.172  11.285 -22.309  1.00  0.00    -0.166 F 
HETATM   18  F13 UNL     1      56.974  11.225 -22.469  1.00  0.00    -0.166 F 
ENDBRANCH  13  15
ENDBRANCH  11  13
ENDBRANCH   9  11
ENDBRANCH   7   9
ENDBRANCH   4   7
ENDBRANCH   2   4
ENDBRANCH   1   2
BRANCH   1  19
HETATM   19  O1  UNL     1      65.142   9.729 -22.883  1.00  0.00    -0.388 OA
ATOM     20  H1  UNL     1      65.105   8.965 -22.321  1.00  0.00     0.210 HD
ENDBRANCH   1  19
BRANCH   1  21
HETATM   21  C10 UNL     1      64.626   8.698 -24.901  1.00  0.00     0.279 C 
HETATM   22  F6  UNL     1      65.484   7.803 -24.380  1.00  0.00    -0.223 F 
BRANCH  21  23
HETATM   23  C11 UNL     1      65.419   9.699 -25.750  1.00  0.00     0.158 C 
HETATM   24  F7  UNL     1      64.675  10.191 -26.766  1.00  0.00    -0.209 F 
BRANCH  23  25
HETATM   25  C12 UNL     1      66.788   9.428 -26.139  1.00  0.00     0.169 C 
HETATM   26  C13 UNL     1      67.849   9.821 -25.125  1.00  0.00     0.053 C 
HETATM   27  C14 UNL     1      67.172   8.191 -26.835  1.00  0.00     0.053 C 
BRANCH  25  28
HETATM   28  N1  UNL     1      67.032  10.496 -27.204  1.00  0.00    -0.065 N 
ATOM     29  H13 UNL     1      67.859  10.348 -27.784  1.00  0.00     0.275 HD
ATOM     30  H12 UNL     1      66.370  10.493 -27.980  1.00  0.00     0.275 HD
ATOM     31  H11 UNL     1      67.042  11.351 -26.648  1.00  0.00     0.275 HD
ENDBRANCH  25  28
ENDBRANCH  23  25
ENDBRANCH  21  23
BRANCH  21  32
HETATM   32  C15 UNL     1      63.552   8.023 -25.661  1.00  0.00     0.432 C 
HETATM   33  F8  UNL     1      62.546   8.830 -26.154  1.00  0.00    -0.167 F 
HETATM   34  F9  UNL     1      62.808   7.159 -24.814  1.00  0.00    -0.167 F 
HETATM   35  F10 UNL     1      63.979   7.236 -26.702  1.00  0.00    -0.167 F 
ENDBRANCH  21  32
ENDBRANCH   1  21
TORSDOF 13
ENDMDL
MODEL 3
REMARK VINA RESULT: -7.897774054      1.560      2.328
REMARK  13 active torsions:
REMARK  status: ('A' for Active; 'I' for Inactive)
REMARK    1  A    between atoms: C2_2  and  C3_3 
REMARK    2  A    between atoms: C2_2  and  C16_32 
REMARK    3  A    between atoms: C3_3  and  C4_5 
REMARK    4  A    between atoms: C4_5  and  C6_7 
REMARK    5  A    between atoms: C6_7  and  C7_9 
REMARK    6  A    between atoms: C7_9  and  C8_12 
REMARK    7  A    between atoms: C8_12  and  C9_14 
REMARK    8  A    between atoms: C9_14  and  O1_15 
REMARK    9  A    between atoms: C9_14  and  C10_17 
REMARK   10  A    between atoms: C10_17  and  C11_19 
REMARK   11  A    between atoms: C10_17  and  C15_28 
REMARK   12  A    between atoms: C11_19  and  C12_21 
REMARK   13  A    between atoms: C12_21  and  N1_24 
ROOT
HETATM    1  C9  UNL     1      64.488  12.063 -23.407  1.00  0.00     0.214 C 
ENDROOT
BRANCH   1   2
HETATM    2  C8  UNL     1      63.200  12.101 -24.058  1.00  0.00     0.277 C 
HETATM    3  F5  UNL     1      63.206  13.165 -25.030  1.00  0.00    -0.240 F 
BRANCH   2   4
HETATM    4  C7  UNL     1      61.906  12.304 -23.341  1.00  0.00     0.306 C 
HETATM    5  F3  UNL     1      62.152  11.884 -21.989  1.00  0.00    -0.200 F 
HETATM    6  F4  UNL     1      61.594  13.613 -23.212  1.00  0.00    -0.200 F 
BRANCH   4   7
HETATM    7  C6  UNL     1      60.792  11.462 -23.887  1.00  0.00     0.252 C 
HETATM    8  F2  UNL     1      61.208  10.703 -24.950  1.00  0.00    -0.242 F 
BRANCH   7   9
HETATM    9  C4  UNL     1      59.553  12.176 -24.304  1.00  0.00     0.060 C 
HETATM   10  C5  UNL     1      59.705  13.070 -25.512  1.00  0.00     0.016 C 
BRANCH   9  11
HETATM   11  C3  UNL     1      58.328  11.345 -24.327  1.00  0.00     0.213 C 
HETATM   12  F1  UNL     1      58.635  10.027 -24.044  1.00  0.00    -0.244 F 
BRANCH  11  13
HETATM   13  C2  UNL     1      57.232  11.761 -23.442  1.00  0.00     0.050 C 
HETATM   14  C1  UNL     1      56.770  12.999 -23.507  1.00  0.00     0.026 C 
BRANCH  13  15
HETATM   15  C16 UNL     1      56.602  10.851 -22.455  1.00  0.00     0.415 C 
HETATM   16  F11 UNL     1      55.893   9.836 -23.074  1.00  0.00    -0.166 F 
HETATM   17  F12 UNL     1      57.469  10.351 -21.512  1.00  0.00    -0.166 F 
HETATM   18  F13 UNL     1      55.624  11.542 -21.712  1.00  0.00    -0.166 F 
ENDBRANCH  13  15
ENDBRANCH  11  13
ENDBRANCH   9  11
ENDBRANCH   7   9
ENDBRANCH   4   7
ENDBRANCH   2   4
ENDBRANCH   1   2
BRANCH   1  19
HETATM   19  O1  UNL     1      65.304  13.131 -24.029  1.00  0.00    -0.388 OA
ATOM     20  H1  UNL     1      65.448  12.870 -24.931  1.00  0.00     0.210 HD
ENDBRANCH   1  19
BRANCH   1  21
HETATM   21  C10 UNL     1      65.421  10.874 -23.488  1.00  0.00     0.279 C 
HETATM   22  F6  UNL     1      66.586  11.178 -24.086  1.00  0.00    -0.223 F 
BRANCH  21  23
HETATM   23  C11 UNL     1      64.636   9.923 -24.401  1.00  0.00     0.158 C 
HETATM   24  F7  UNL     1      63.892   9.049 -23.688  1.00  0.00    -0.209 F 
BRANCH  23  25
HETATM   25  C12 UNL     1      65.261   9.315 -25.557  1.00  0.00     0.169 C 
HETATM   26  C13 UNL     1      65.534  10.249 -26.724  1.00  0.00     0.053 C 
HETATM   27  C14 UNL     1      66.335   8.318 -25.432  1.00  0.00     0.053 C 
BRANCH  25  28
HETATM   28  N1  UNL     1      64.113   8.492 -26.141  1.00  0.00    -0.065 N 
ATOM     29  H13 UNL     1      64.198   7.483 -26.017  1.00  0.00     0.275 HD
ATOM     30  H12 UNL     1      63.226   8.575 -25.646  1.00  0.00     0.275 HD
ATOM     31  H11 UNL     1      64.098   8.808 -27.111  1.00  0.00     0.275 HD
ENDBRANCH  25  28
ENDBRANCH  23  25
ENDBRANCH  21  23
BRANCH  21  32
HETATM   32  C15 UNL     1      65.647  10.317 -22.137  1.00  0.00     0.432 C 
HETATM   33  F8  UNL     1      64.566  10.325 -21.279  1.00  0.00    -0.167 F 
HETATM   34  F9  UNL     1      66.566  11.122 -21.413  1.00  0.00    -0.167 F 
HETATM   35  F10 UNL     1      66.171   9.048 -22.108  1.00  0.00    -0.167 F 
ENDBRANCH  21  32
ENDBRANCH   1  21
TORSDOF 13
ENDMDL
MODEL 4
REMARK VINA RESULT: -7.874054058      2.496      3.767
REMARK  13 active torsions:
REMARK  status: ('A' for Active; 'I' for Inactive)
REMARK    1  A    between atoms: C2_2  and  C3_3 
REMARK    2  A    between atoms: C2_2  and  C16_32 
REMARK    3  A    between atoms: C3_3  and  C4_5 
REMARK    4  A    between atoms: C4_5  and  C6_7 
REMARK    5  A    between atoms: C6_7  and  C7_9 
REMARK    6  A    between atoms: C7_9  and  C8_12 
REMARK    7  A    between atoms: C8_12  and  C9_14 
REMARK    8  A    between atoms: C9_14  and  O1_15 
REMARK    9  A    between atoms: C9_14  and  C10_17 
REMARK   10  A    between atoms: C10_17  and  C11_19 
REMARK   11  A    between atoms: C10_17  and  C15_28 
REMARK   12  A    between atoms: C11_19  and  C12_21 
REMARK   13  A    between atoms: C12_21  and  N1_24 
ROOT
HETATM    1  C9  UNL     1      63.322  10.990 -24.603  1.00  0.00     0.214 C 
ENDROOT
BRANCH   1   2
HETATM    2  C8  UNL     1      62.028  10.746 -24.011  1.00  0.00     0.277 C 
HETATM    3  F5  UNL     1      61.491   9.528 -24.562  1.00  0.00    -0.240 F 
BRANCH   2   4
HETATM    4  C7  UNL     1      60.876  11.694 -24.096  1.00  0.00     0.306 C 
HETATM    5  F3  UNL     1      60.673  12.166 -22.754  1.00  0.00    -0.200 F 
HETATM    6  F4  UNL     1      61.190  12.817 -24.780  1.00  0.00    -0.200 F 
BRANCH   4   7
HETATM    7  C6  UNL     1      59.607  11.038 -24.549  1.00  0.00     0.252 C 
HETATM    8  F2  UNL     1      59.432  11.158 -25.904  1.00  0.00    -0.242 F 
BRANCH   7   9
HETATM    9  C4  UNL     1      58.348  11.486 -23.893  1.00  0.00     0.060 C 
HETATM   10  C5  UNL     1      57.945  12.912 -24.188  1.00  0.00     0.016 C 
BRANCH   9  11
HETATM   11  C3  UNL     1      57.225  10.524 -23.964  1.00  0.00     0.213 C 
HETATM   12  F1  UNL     1      57.701   9.226 -23.938  1.00  0.00    -0.244 F 
BRANCH  11  13
HETATM   13  C2  UNL     1      56.181  10.649 -22.937  1.00  0.00     0.050 C 
HETATM   14  C1  UNL     1      56.398  10.174 -21.722  1.00  0.00     0.026 C 
BRANCH  13  15
HETATM   15  C16 UNL     1      54.870  11.291 -23.195  1.00  0.00     0.415 C 
HETATM   16  F11 UNL     1      54.487  12.114 -22.149  1.00  0.00    -0.166 F 
HETATM   17  F12 UNL     1      54.785  11.944 -24.401  1.00  0.00    -0.166 F 
HETATM   18  F13 UNL     1      53.854  10.314 -23.244  1.00  0.00    -0.166 F 
ENDBRANCH  13  15
ENDBRANCH  11  13
ENDBRANCH   9  11
ENDBRANCH   7   9
ENDBRANCH   4   7
ENDBRANCH   2   4
ENDBRANCH   1   2
BRANCH   1  19
HETATM   19  O1  UNL     1      63.792   9.691 -25.134  1.00  0.00    -0.388 OA
ATOM     20  H1  UNL     1      64.709   9.806 -25.356  1.00  0.00     0.210 HD
ENDBRANCH   1  19
BRANCH   1  21
HETATM   21  C10 UNL     1      64.522  11.452 -23.804  1.00  0.00     0.279 C 
HETATM   22  F6  UNL     1      65.048  10.466 -23.057  1.00  0.00    -0.223 F 
BRANCH  21  23
HETATM   23  C11 UNL     1      63.894  12.493 -22.869  1.00  0.00     0.158 C 
HETATM   24  F7  UNL     1      63.753  13.690 -23.480  1.00  0.00    -0.209 F 
BRANCH  23  25
HETATM   25  C12 UNL     1      64.325  12.613 -21.492  1.00  0.00     0.169 C 
HETATM   26  C13 UNL     1      63.579  11.747 -20.491  1.00  0.00     0.053 C 
HETATM   27  C14 UNL     1      65.745  12.721 -21.123  1.00  0.00     0.053 C 
BRANCH  25  28
HETATM   28  N1  UNL     1      63.779  13.989 -21.109  1.00  0.00    -0.065 N 
ATOM     29  H13 UNL     1      62.765  14.085 -21.174  1.00  0.00     0.275 HD
ATOM     30  H12 UNL     1      63.833  14.214 -20.116  1.00  0.00     0.275 HD
ATOM     31  H11 UNL     1      64.312  14.606 -21.722  1.00  0.00     0.275 HD
ENDBRANCH  25  28
ENDBRANCH  23  25
ENDBRANCH  21  23
BRANCH  21  32
HETATM   32  C15 UNL     1      65.538  12.031 -24.710  1.00  0.00     0.432 C 
HETATM   33  F8  UNL     1      66.208  13.147 -24.250  1.00  0.00    -0.167 F 
HETATM   34  F9  UNL     1      64.924  12.553 -25.879  1.00  0.00    -0.167 F 
HETATM   35  F10 UNL     1      66.490  11.150 -25.160  1.00  0.00    -0.167 F 
ENDBRANCH  21  32
ENDBRANCH   1  21
TORSDOF 13
ENDMDL
MODEL 5
REMARK VINA RESULT: -7.843335848      1.868      2.502
REMARK  13 active torsions:
REMARK  status: ('A' for Active; 'I' for Inactive)
REMARK    1  A    between atoms: C2_2  and  C3_3 
REMARK    2  A    between atoms: C2_2  and  C16_32 
REMARK    3  A    between atoms: C3_3  and  C4_5 
REMARK    4  A    between atoms: C4_5  and  C6_7 
REMARK    5  A    between atoms: C6_7  and  C7_9 
REMARK    6  A    between atoms: C7_9  and  C8_12 
REMARK    7  A    between atoms: C8_12  and  C9_14 
REMARK    8  A    between atoms: C9_14  and  O1_15 
REMARK    9  A    between atoms: C9_14  and  C10_17 
REMARK   10  A    between atoms: C10_17  and  C11_19 
REMARK   11  A    between atoms: C10_17  and  C15_28 
REMARK   12  A    between atoms: C11_19  and  C12_21 
REMARK   13  A    between atoms: C12_21  and  N1_24 
ROOT
HETATM    1  C9  UNL     1      62.385  11.457 -23.256  1.00  0.00     0.214 C 
ENDROOT
BRANCH   1   2
HETATM    2  C8  UNL     1      61.844  12.644 -23.875  1.00  0.00     0.277 C 
HETATM    3  F5  UNL     1      62.044  13.759 -22.986  1.00  0.00    -0.240 F 
BRANCH   2   4
HETATM    4  C7  UNL     1      60.418  12.793 -24.292  1.00  0.00     0.306 C 
HETATM    5  F3  UNL     1      60.014  14.085 -23.810  1.00  0.00    -0.200 F 
HETATM    6  F4  UNL     1      60.287  12.902 -25.633  1.00  0.00    -0.200 F 
BRANCH   4   7
HETATM    7  C6  UNL     1      59.514  11.769 -23.672  1.00  0.00     0.252 C 
HETATM    8  F2  UNL     1      59.468  10.620 -24.417  1.00  0.00    -0.242 F 
BRANCH   7   9
HETATM    9  C4  UNL     1      58.110  12.187 -23.405  1.00  0.00     0.060 C 
HETATM   10  C5  UNL     1      57.498  13.083 -24.457  1.00  0.00     0.016 C 
BRANCH   9  11
HETATM   11  C3  UNL     1      57.209  11.106 -22.947  1.00  0.00     0.213 C 
HETATM   12  F1  UNL     1      57.590  10.660 -21.695  1.00  0.00    -0.244 F 
BRANCH  11  13
HETATM   13  C2  UNL     1      55.773  11.416 -22.905  1.00  0.00     0.050 C 
HETATM   14  C1  UNL     1      55.278  12.092 -21.882  1.00  0.00     0.026 C 
BRANCH  13  15
HETATM   15  C16 UNL     1      54.827  11.001 -23.969  1.00  0.00     0.415 C 
HETATM   16  F11 UNL     1      54.192  12.089 -24.543  1.00  0.00    -0.166 F 
HETATM   17  F12 UNL     1      55.375  10.180 -24.926  1.00  0.00    -0.166 F 
HETATM   18  F13 UNL     1      53.772  10.249 -23.413  1.00  0.00    -0.166 F 
ENDBRANCH  13  15
ENDBRANCH  11  13
ENDBRANCH   9  11
ENDBRANCH   7   9
ENDBRANCH   4   7
ENDBRANCH   2   4
ENDBRANCH   1   2
BRANCH   1  19
HETATM   19  O1  UNL     1      62.806  11.849 -21.892  1.00  0.00    -0.388 OA
ATOM     20  H1  UNL     1      62.017  11.873 -21.363  1.00  0.00     0.210 HD
ENDBRANCH   1  19
BRANCH   1  21
HETATM   21  C10 UNL     1      63.621  10.747 -23.769  1.00  0.00     0.279 C 
HETATM   22  F6  UNL     1      64.323  10.165 -22.780  1.00  0.00    -0.223 F 
BRANCH  21  23
HETATM   23  C11 UNL     1      64.442  11.915 -24.330  1.00  0.00     0.158 C 
HETATM   24  F7  UNL     1      64.144  12.156 -25.626  1.00  0.00    -0.209 F 
BRANCH  23  25
HETATM   25  C12 UNL     1      65.857  12.034 -24.049  1.00  0.00     0.169 C 
HETATM   26  C13 UNL     1      66.211  12.635 -22.699  1.00  0.00     0.053 C 
HETATM   27  C14 UNL     1      66.818  10.982 -24.413  1.00  0.00     0.053 C 
BRANCH  25  28
HETATM   28  N1  UNL     1      66.266  13.187 -24.966  1.00  0.00    -0.065 N 
ATOM     29  H13 UNL     1      65.788  14.070 -24.790  1.00  0.00     0.275 HD
ATOM     30  H12 UNL     1      67.205  13.553 -24.807  1.00  0.00     0.275 HD
ATOM     31  H11 UNL     1      66.109  12.787 -25.891  1.00  0.00     0.275 HD
ENDBRANCH  25  28
ENDBRANCH  23  25
ENDBRANCH  21  23
BRANCH  21  32
HETATM   32  C15 UNL     1      63.243   9.761 -24.803  1.00  0.00     0.432 C 
HETATM   33  F8  UNL     1      61.965   9.863 -25.315  1.00  0.00    -0.167 F 
HETATM   34  F9  UNL     1      63.204   8.452 -24.254  1.00  0.00    -0.167 F 
HETATM   35  F10 UNL     1      64.098   9.682 -25.875  1.00  0.00    -0.167 F 
ENDBRANCH  21  32
ENDBRANCH   1  21
TORSDOF 13
ENDMDL
