MODEL 1
REMARK VINA RESULT: -7.480414457      0.000      0.000
REMARK  9 active torsions:
REMARK  status: ('A' for Active; 'I' for Inactive)
REMARK       I    between atoms: C1_2  and  N1_3 
REMARK       I    between atoms: C1_2  and  N2_9 
REMARK    1  A    between atoms: N1_3  and  C2_5 
REMARK    2  A    between atoms: C2_5  and  C3_6 
REMARK    3  A    between atoms: C3_6  and  O2_7 
REMARK    4  A    between atoms: N2_9  and  C4_11 
REMARK    5  A    between atoms: C9_20  and  C10_21 
REMARK    6  A    between atoms: C10_21  and  C11_23 
REMARK    7  A    between atoms: C11_23  and  C12_26 
REMARK    8  A    between atoms: C12_26  and  C13_29 
REMARK    9  A    between atoms: C14_31  and  C15_32 
ROOT
HETATM    1  C4  UNL     1      63.442  11.383 -22.980  1.00  0.00     0.091 A 
HETATM    2  C5  UNL     1      64.551  10.632 -22.693  1.00  0.00     0.185 A 
HETATM    3  F1  UNL     1      65.417  11.009 -21.709  1.00  0.00    -0.200 F 
HETATM    4  C6  UNL     1      64.756   9.494 -23.428  1.00  0.00     0.198 A 
HETATM    5  F2  UNL     1      65.859   8.740 -23.149  1.00  0.00    -0.199 F 
HETATM    6  C7  UNL     1      63.902   9.095 -24.419  1.00  0.00     0.197 A 
HETATM    7  F3  UNL     1      64.101   7.965 -25.152  1.00  0.00    -0.199 F 
HETATM    8  C8  UNL     1      62.763   9.862 -24.716  1.00  0.00     0.169 A 
HETATM    9  F4  UNL     1      61.950   9.382 -25.721  1.00  0.00    -0.202 F 
HETATM   10  C9  UNL     1      62.531  10.997 -24.005  1.00  0.00     0.053 A 
ENDROOT
BRANCH  10  11
HETATM   11  C10 UNL     1      61.380  11.860 -24.178  1.00  0.00     0.287 C 
HETATM   12  F5  UNL     1      61.780  12.830 -25.138  1.00  0.00    -0.237 F 
BRANCH  11  13
HETATM   13  C11 UNL     1      60.035  11.385 -24.482  1.00  0.00     0.349 C 
HETATM   14  F6  UNL     1      59.549  11.489 -25.739  1.00  0.00    -0.195 F 
HETATM   15  F7  UNL     1      59.872  10.052 -24.063  1.00  0.00    -0.195 F 
BRANCH  13  16
HETATM   16  C12 UNL     1      59.006  12.129 -23.579  1.00  0.00     0.363 C 
HETATM   17  F8  UNL     1      59.439  13.451 -23.420  1.00  0.00    -0.191 F 
HETATM   18  F9  UNL     1      59.056  11.477 -22.392  1.00  0.00    -0.191 F 
BRANCH  16  19
HETATM   19  C13 UNL     1      57.717  12.151 -24.262  1.00  0.00     0.173 C 
HETATM   20  F10 UNL     1      57.492  13.177 -25.203  1.00  0.00    -0.204 F 
HETATM   21  C14 UNL     1      56.703  11.340 -24.134  1.00  0.00     0.087 C 
BRANCH  21  22
HETATM   22  C15 UNL     1      56.667  10.186 -23.225  1.00  0.00     0.379 C 
HETATM   23  F11 UNL     1      55.372   9.836 -22.833  1.00  0.00    -0.210 F 
HETATM   24  F12 UNL     1      57.230   9.072 -23.859  1.00  0.00    -0.210 F 
ENDBRANCH  21  22
ENDBRANCH  16  19
ENDBRANCH  13  16
ENDBRANCH  11  13
ENDBRANCH  10  11
BRANCH   1  25
HETATM   25  N2  UNL     1      63.232  12.531 -22.176  1.00  0.00    -0.305 N 
HETATM   26  C1  UNL     1      63.634  13.850 -22.490  1.00  0.00     0.320 C 
HETATM   27  O1  UNL     1      64.253  14.110 -23.549  1.00  0.00    -0.247 OA
HETATM   28  N1  UNL     1      63.346  14.908 -21.612  1.00  0.00    -0.341 N 
ATOM     29  H1  UNL     1      62.844  14.706 -20.748  1.00  0.00     0.164 HD
ATOM     30  H2  UNL     1      62.747  12.394 -21.291  1.00  0.00     0.171 HD
BRANCH  28  31
HETATM   31  C2  UNL     1      63.732  16.267 -21.885  1.00  0.00     0.150 C 
BRANCH  31  32
HETATM   32  C3  UNL     1      62.639  17.045 -22.556  1.00  0.00     0.183 C 
BRANCH  32  33
HETATM   33  O2  UNL     1      62.438  16.588 -23.874  1.00  0.00    -0.399 OA
ATOM     34  H2  UNL     1      62.014  17.255 -24.401  1.00  0.00     0.209 HD
ENDBRANCH  32  33
ENDBRANCH  31  32
ENDBRANCH  28  31
ENDBRANCH   1  25
TORSDOF 9
ENDMDL
MODEL 2
REMARK VINA RESULT: -7.318600184      2.788      5.132
REMARK  9 active torsions:
REMARK  status: ('A' for Active; 'I' for Inactive)
REMARK       I    between atoms: C1_2  and  N1_3 
REMARK       I    between atoms: C1_2  and  N2_9 
REMARK    1  A    between atoms: N1_3  and  C2_5 
REMARK    2  A    between atoms: C2_5  and  C3_6 
REMARK    3  A    between atoms: C3_6  and  O2_7 
REMARK    4  A    between atoms: N2_9  and  C4_11 
REMARK    5  A    between atoms: C9_20  and  C10_21 
REMARK    6  A    between atoms: C10_21  and  C11_23 
REMARK    7  A    between atoms: C11_23  and  C12_26 
REMARK    8  A    between atoms: C12_26  and  C13_29 
REMARK    9  A    between atoms: C14_31  and  C15_32 
ROOT
HETATM    1  C4  UNL     1      61.901  11.788 -23.888  1.00  0.00     0.091 A 
HETATM    2  C5  UNL     1      63.084  12.338 -23.471  1.00  0.00     0.185 A 
HETATM    3  F1  UNL     1      64.150  11.550 -23.152  1.00  0.00    -0.200 F 
HETATM    4  C6  UNL     1      63.155  13.704 -23.388  1.00  0.00     0.198 A 
HETATM    5  F2  UNL     1      64.330  14.261 -22.973  1.00  0.00    -0.199 F 
HETATM    6  C7  UNL     1      62.100  14.516 -23.702  1.00  0.00     0.197 A 
HETATM    7  F3  UNL     1      62.166  15.873 -23.621  1.00  0.00    -0.199 F 
HETATM    8  C8  UNL     1      60.886  13.956 -24.131  1.00  0.00     0.169 A 
HETATM    9  F4  UNL     1      59.879  14.846 -24.439  1.00  0.00    -0.202 F 
HETATM   10  C9  UNL     1      60.782  12.603 -24.225  1.00  0.00     0.053 A 
ENDROOT
BRANCH  10  11
HETATM   11  C10 UNL     1      59.606  11.894 -24.687  1.00  0.00     0.287 C 
HETATM   12  F5  UNL     1      60.054  11.095 -25.775  1.00  0.00    -0.237 F 
BRANCH  11  13
HETATM   13  C11 UNL     1      58.725  11.115 -23.826  1.00  0.00     0.349 C 
HETATM   14  F6  UNL     1      58.685   9.768 -23.941  1.00  0.00    -0.195 F 
HETATM   15  F7  UNL     1      58.947  11.427 -22.473  1.00  0.00    -0.195 F 
BRANCH  13  16
HETATM   16  C12 UNL     1      57.254  11.589 -24.023  1.00  0.00     0.363 C 
HETATM   17  F8  UNL     1      56.654  10.766 -24.983  1.00  0.00    -0.191 F 
HETATM   18  F9  UNL     1      57.361  12.854 -24.497  1.00  0.00    -0.191 F 
BRANCH  16  19
HETATM   19  C13 UNL     1      56.537  11.418 -22.764  1.00  0.00     0.173 C 
HETATM   20  F10 UNL     1      57.134  10.610 -21.775  1.00  0.00    -0.204 F 
HETATM   21  C14 UNL     1      55.387  11.914 -22.398  1.00  0.00     0.087 C 
BRANCH  21  22
HETATM   22  C15 UNL     1      54.550  12.787 -23.233  1.00  0.00     0.379 C 
HETATM   23  F11 UNL     1      54.240  12.226 -24.474  1.00  0.00    -0.210 F 
HETATM   24  F12 UNL     1      53.342  13.046 -22.575  1.00  0.00    -0.210 F 
ENDBRANCH  21  22
ENDBRANCH  16  19
ENDBRANCH  13  16
ENDBRANCH  11  13
ENDBRANCH  10  11
BRANCH   1  25
HETATM   25  N2  UNL     1      61.869  10.376 -24.006  1.00  0.00    -0.305 N 
HETATM   26  C1  UNL     1      62.667   9.595 -24.872  1.00  0.00     0.320 C 
HETATM   27  O1  UNL     1      63.494  10.124 -25.653  1.00  0.00    -0.247 OA
HETATM   28  N1  UNL     1      62.551   8.195 -24.877  1.00  0.00    -0.341 N 
ATOM     29  H1  UNL     1      61.880   7.756 -24.247  1.00  0.00     0.164 HD
ATOM     30  H2  UNL     1      61.208   9.877 -23.411  1.00  0.00     0.171 HD
BRANCH  28  31
HETATM   31  C2  UNL     1      63.341   7.356 -25.739  1.00  0.00     0.150 C 
BRANCH  31  32
HETATM   32  C3  UNL     1      64.423   6.633 -24.992  1.00  0.00     0.183 C 
BRANCH  32  33
HETATM   33  O2  UNL     1      65.187   5.836 -25.868  1.00  0.00    -0.399 OA
ATOM     34  H2  UNL     1      65.993   5.555 -25.450  1.00  0.00     0.209 HD
ENDBRANCH  32  33
ENDBRANCH  31  32
ENDBRANCH  28  31
ENDBRANCH   1  25
TORSDOF 9
ENDMDL
MODEL 3
REMARK VINA RESULT: -7.294438074      1.276      1.724
REMARK  9 active torsions:
REMARK  status: ('A' for Active; 'I' for Inactive)
REMARK       I    between atoms: C1_2  and  N1_3 
REMARK       I    between atoms: C1_2  and  N2_9 
REMARK    1  A    between atoms: N1_3  and  C2_5 
REMARK    2  A    between atoms: C2_5  and  C3_6 
REMARK    3  A    between atoms: C3_6  and  O2_7 
REMARK    4  A    between atoms: N2_9  and  C4_11 
REMARK    5  A    between atoms: C9_20  and  C10_21 
REMARK    6  A    between atoms: C10_21  and  C11_23 
REMARK    7  A    between atoms: C11_23  and  C12_26 
REMARK    8  A    between atoms: C12_26  and  C13_29 
REMARK    9  A    between atoms: C14_31  and  C15_32 
ROOT
HETATM    1  C4  UNL     1      63.038  12.102 -23.077  1.00  0.00     0.091 A 
HETATM    2  C5  UNL     1      64.238  11.558 -22.702  1.00  0.00     0.185 A 
HETATM    3  F1  UNL     1      65.078  12.226 -21.860  1.00  0.00    -0.200 F 
HETATM    4  C6  UNL     1      64.561  10.323 -23.201  1.00  0.00     0.198 A 
HETATM    5  F2  UNL     1      65.754   9.774 -22.833  1.00  0.00    -0.199 F 
HETATM    6  C7  UNL     1      63.735   9.634 -24.046  1.00  0.00     0.197 A 
HETATM    7  F3  UNL     1      64.051   8.407 -24.545  1.00  0.00    -0.199 F 
HETATM    8  C8  UNL     1      62.504  10.188 -24.433  1.00  0.00     0.169 A 
HETATM    9  F4  UNL     1      61.728   9.421 -25.277  1.00  0.00    -0.202 F 
HETATM   10  C9  UNL     1      62.154  11.412 -23.955  1.00  0.00     0.053 A 
ENDROOT
BRANCH  10  11
HETATM   11  C10 UNL     1      60.902  12.084 -24.239  1.00  0.00     0.287 C 
HETATM   12  F5  UNL     1      61.231  13.115 -25.161  1.00  0.00    -0.237 F 
BRANCH  11  13
HETATM   13  C11 UNL     1      59.684  11.405 -24.665  1.00  0.00     0.349 C 
HETATM   14  F6  UNL     1      59.483  11.136 -25.975  1.00  0.00    -0.195 F 
HETATM   15  F7  UNL     1      59.501  10.210 -23.945  1.00  0.00    -0.195 F 
BRANCH  13  16
HETATM   16  C12 UNL     1      58.444  12.236 -24.220  1.00  0.00     0.363 C 
HETATM   17  F8  UNL     1      58.152  13.161 -25.229  1.00  0.00    -0.191 F 
HETATM   18  F9  UNL     1      58.847  12.882 -23.100  1.00  0.00    -0.191 F 
BRANCH  16  19
HETATM   19  C13 UNL     1      57.303  11.336 -24.085  1.00  0.00     0.173 C 
HETATM   20  F10 UNL     1      57.421  10.043 -24.633  1.00  0.00    -0.204 F 
HETATM   21  C14 UNL     1      56.150  11.548 -23.514  1.00  0.00     0.087 C 
BRANCH  21  22
HETATM   22  C15 UNL     1      55.760  12.808 -22.863  1.00  0.00     0.379 C 
HETATM   23  F11 UNL     1      54.991  13.635 -23.687  1.00  0.00    -0.210 F 
HETATM   24  F12 UNL     1      55.000  12.528 -21.721  1.00  0.00    -0.210 F 
ENDBRANCH  21  22
ENDBRANCH  16  19
ENDBRANCH  13  16
ENDBRANCH  11  13
ENDBRANCH  10  11
BRANCH   1  25
HETATM   25  N2  UNL     1      62.712  13.360 -22.512  1.00  0.00    -0.305 N 
HETATM   26  C1  UNL     1      63.064  14.624 -23.038  1.00  0.00     0.320 C 
HETATM   27  O1  UNL     1      63.741  14.729 -24.088  1.00  0.00    -0.247 OA
HETATM   28  N1  UNL     1      62.659  15.802 -22.388  1.00  0.00    -0.341 N 
ATOM     29  H1  UNL     1      62.108  15.726 -21.533  1.00  0.00     0.164 HD
ATOM     30  H2  UNL     1      62.173  13.353 -21.647  1.00  0.00     0.171 HD
BRANCH  28  31
HETATM   31  C2  UNL     1      62.991  17.112 -22.883  1.00  0.00     0.150 C 
BRANCH  31  32
HETATM   32  C3  UNL     1      64.386  17.522 -22.513  1.00  0.00     0.183 C 
BRANCH  32  33
HETATM   33  O2  UNL     1      65.275  17.289 -23.582  1.00  0.00    -0.399 OA
ATOM     34  H2  UNL     1      66.174  17.276 -23.275  1.00  0.00     0.209 HD
ENDBRANCH  32  33
ENDBRANCH  31  32
ENDBRANCH  28  31
ENDBRANCH   1  25
TORSDOF 9
ENDMDL
MODEL 4
REMARK VINA RESULT: -7.261923475      1.776      2.180
REMARK  9 active torsions:
REMARK  status: ('A' for Active; 'I' for Inactive)
REMARK       I    between atoms: C1_2  and  N1_3 
REMARK       I    between atoms: C1_2  and  N2_9 
REMARK    1  A    between atoms: N1_3  and  C2_5 
REMARK    2  A    between atoms: C2_5  and  C3_6 
REMARK    3  A    between atoms: C3_6  and  O2_7 
REMARK    4  A    between atoms: N2_9  and  C4_11 
REMARK    5  A    between atoms: C9_20  and  C10_21 
REMARK    6  A    between atoms: C10_21  and  C11_23 
REMARK    7  A    between atoms: C11_23  and  C12_26 
REMARK    8  A    between atoms: C12_26  and  C13_29 
REMARK    9  A    between atoms: C14_31  and  C15_32 
ROOT
HETATM    1  C4  UNL     1      63.401  12.159 -24.555  1.00  0.00     0.091 A 
HETATM    2  C5  UNL     1      64.593  11.967 -25.203  1.00  0.00     0.185 A 
HETATM    3  F1  UNL     1      65.441  13.009 -25.435  1.00  0.00    -0.200 F 
HETATM    4  C6  UNL     1      64.899  10.693 -25.605  1.00  0.00     0.198 A 
HETATM    5  F2  UNL     1      66.085  10.493 -26.251  1.00  0.00    -0.199 F 
HETATM    6  C7  UNL     1      64.066   9.632 -25.383  1.00  0.00     0.197 A 
HETATM    7  F3  UNL     1      64.366   8.365 -25.782  1.00  0.00    -0.199 F 
HETATM    8  C8  UNL     1      62.844   9.825 -24.720  1.00  0.00     0.169 A 
HETATM    9  F4  UNL     1      62.070   8.700 -24.527  1.00  0.00    -0.202 F 
HETATM   10  C9  UNL     1      62.510  11.077 -24.307  1.00  0.00     0.053 A 
ENDROOT
BRANCH  10  11
HETATM   11  C10 UNL     1      61.302  11.413 -23.579  1.00  0.00     0.287 C 
HETATM   12  F5  UNL     1      61.748  11.925 -22.330  1.00  0.00    -0.237 F 
BRANCH  11  13
HETATM   13  C11 UNL     1      60.232  12.250 -24.107  1.00  0.00     0.349 C 
HETATM   14  F6  UNL     1      60.114  13.534 -23.701  1.00  0.00    -0.195 F 
HETATM   15  F7  UNL     1      60.238  12.240 -25.514  1.00  0.00    -0.195 F 
BRANCH  13  16
HETATM   16  C12 UNL     1      58.855  11.591 -23.792  1.00  0.00     0.363 C 
HETATM   17  F8  UNL     1      58.771  11.392 -22.410  1.00  0.00    -0.191 F 
HETATM   18  F9  UNL     1      58.890  10.399 -24.433  1.00  0.00    -0.191 F 
BRANCH  16  19
HETATM   19  C13 UNL     1      57.796  12.516 -24.184  1.00  0.00     0.173 C 
HETATM   20  F10 UNL     1      58.064  13.411 -25.239  1.00  0.00    -0.204 F 
HETATM   21  C14 UNL     1      56.595  12.649 -23.691  1.00  0.00     0.087 C 
BRANCH  21  22
HETATM   22  C15 UNL     1      56.053  11.846 -22.585  1.00  0.00     0.379 C 
HETATM   23  F11 UNL     1      55.057  12.509 -21.863  1.00  0.00    -0.210 F 
HETATM   24  F12 UNL     1      55.491  10.669 -23.094  1.00  0.00    -0.210 F 
ENDBRANCH  21  22
ENDBRANCH  16  19
ENDBRANCH  13  16
ENDBRANCH  11  13
ENDBRANCH  10  11
BRANCH   1  25
HETATM   25  N2  UNL     1      63.129  13.478 -24.112  1.00  0.00    -0.305 N 
HETATM   26  C1  UNL     1      63.699  14.111 -22.984  1.00  0.00     0.320 C 
HETATM   27  O1  UNL     1      64.517  13.514 -22.244  1.00  0.00    -0.247 OA
HETATM   28  N1  UNL     1      63.358  15.436 -22.664  1.00  0.00    -0.341 N 
ATOM     29  H1  UNL     1      62.693  15.928 -23.260  1.00  0.00     0.164 HD
ATOM     30  H2  UNL     1      62.461  14.020 -24.659  1.00  0.00     0.171 HD
BRANCH  28  31
HETATM   31  C2  UNL     1      63.910  16.124 -21.528  1.00  0.00     0.150 C 
BRANCH  31  32
HETATM   32  C3  UNL     1      63.085  15.930 -20.290  1.00  0.00     0.183 C 
BRANCH  32  33
HETATM   33  O2  UNL     1      63.462  14.749 -19.619  1.00  0.00    -0.399 OA
ATOM     34  H2  UNL     1      64.403  14.721 -19.490  1.00  0.00     0.209 HD
ENDBRANCH  32  33
ENDBRANCH  31  32
ENDBRANCH  28  31
ENDBRANCH   1  25
TORSDOF 9
ENDMDL
MODEL 5
REMARK VINA RESULT: -7.241427084      2.805      4.880
REMARK  9 active torsions:
REMARK  status: ('A' for Active; 'I' for Inactive)
REMARK       I    between atoms: C1_2  and  N1_3 
REMARK       I    between atoms: C1_2  and  N2_9 
REMARK    1  A    between atoms: N1_3  and  C2_5 
REMARK    2  A    between atoms: C2_5  and  C3_6 
REMARK    3  A    between atoms: C3_6  and  O2_7 
REMARK    4  A    between atoms: N2_9  and  C4_11 
REMARK    5  A    between atoms: C9_20  and  C10_21 
REMARK    6  A    between atoms: C10_21  and  C11_23 
REMARK    7  A    between atoms: C11_23  and  C12_26 
REMARK    8  A    between atoms: C12_26  and  C13_29 
REMARK    9  A    between atoms: C14_31  and  C15_32 
ROOT
HETATM    1  C4  UNL     1      63.503  12.124 -24.916  1.00  0.00     0.091 A 
HETATM    2  C5  UNL     1      64.730  12.630 -25.256  1.00  0.00     0.185 A 
HETATM    3  F1  UNL     1      65.596  11.908 -26.024  1.00  0.00    -0.200 F 
HETATM    4  C6  UNL     1      65.051  13.881 -24.800  1.00  0.00     0.198 A 
HETATM    5  F2  UNL     1      66.272  14.392 -25.135  1.00  0.00    -0.199 F 
HETATM    6  C7  UNL     1      64.200  14.624 -24.030  1.00  0.00     0.197 A 
HETATM    7  F3  UNL     1      64.514  15.867 -23.573  1.00  0.00    -0.199 F 
HETATM    8  C8  UNL     1      62.941  14.110 -23.678  1.00  0.00     0.169 A 
HETATM    9  F4  UNL     1      62.140  14.929 -22.910  1.00  0.00    -0.202 F 
HETATM   10  C9  UNL     1      62.591  12.871 -24.115  1.00  0.00     0.053 A 
ENDROOT
BRANCH  10  11
HETATM   11  C10 UNL     1      61.313  12.234 -23.861  1.00  0.00     0.287 C 
HETATM   12  F5  UNL     1      61.315  11.935 -22.471  1.00  0.00    -0.237 F 
BRANCH  11  13
HETATM   13  C11 UNL     1      60.025  12.796 -24.249  1.00  0.00     0.349 C 
HETATM   14  F6  UNL     1      59.607  13.963 -23.710  1.00  0.00    -0.195 F 
HETATM   15  F7  UNL     1      59.930  12.906 -25.648  1.00  0.00    -0.195 F 
BRANCH  13  16
HETATM   16  C12 UNL     1      58.896  11.769 -23.934  1.00  0.00     0.363 C 
HETATM   17  F8  UNL     1      58.986  11.421 -22.581  1.00  0.00    -0.191 F 
HETATM   18  F9  UNL     1      59.182  10.696 -24.710  1.00  0.00    -0.191 F 
BRANCH  16  19
HETATM   19  C13 UNL     1      57.605  12.413 -24.154  1.00  0.00     0.173 C 
HETATM   20  F10 UNL     1      57.527  13.395 -25.163  1.00  0.00    -0.204 F 
HETATM   21  C14 UNL     1      56.471  12.216 -23.540  1.00  0.00     0.087 C 
BRANCH  21  22
HETATM   22  C15 UNL     1      56.270  11.252 -22.448  1.00  0.00     0.379 C 
HETATM   23  F11 UNL     1      55.308  11.667 -21.523  1.00  0.00    -0.210 F 
HETATM   24  F12 UNL     1      55.845  10.028 -22.977  1.00  0.00    -0.210 F 
ENDBRANCH  21  22
ENDBRANCH  16  19
ENDBRANCH  13  16
ENDBRANCH  11  13
ENDBRANCH  10  11
BRANCH   1  25
HETATM   25  N2  UNL     1      63.179  10.846 -25.436  1.00  0.00    -0.305 N 
HETATM   26  C1  UNL     1      63.498   9.603 -24.845  1.00  0.00     0.320 C 
HETATM   27  O1  UNL     1      64.139   9.536 -23.768  1.00  0.00    -0.247 OA
HETATM   28  N1  UNL     1      63.100   8.402 -25.456  1.00  0.00    -0.341 N 
ATOM     29  H1  UNL     1      62.579   8.447 -26.332  1.00  0.00     0.164 HD
ATOM     30  H2  UNL     1      62.670  10.822 -26.319  1.00  0.00     0.171 HD
BRANCH  28  31
HETATM   31  C2  UNL     1      63.399   7.112 -24.895  1.00  0.00     0.150 C 
BRANCH  31  32
HETATM   32  C3  UNL     1      64.689   6.550 -25.416  1.00  0.00     0.183 C 
BRANCH  32  33
HETATM   33  O2  UNL     1      65.776   6.985 -24.632  1.00  0.00    -0.399 OA
ATOM     34  H2  UNL     1      66.550   6.463 -24.810  1.00  0.00     0.209 HD
ENDBRANCH  32  33
ENDBRANCH  31  32
ENDBRANCH  28  31
ENDBRANCH   1  25
TORSDOF 9
ENDMDL
