MODEL 1
REMARK VINA RESULT: -7.908709958      0.000      0.000
REMARK  11 active torsions:
REMARK  status: ('A' for Active; 'I' for Inactive)
REMARK    1  A    between atoms: C2_2  and  C4_4 
REMARK    2  A    between atoms: C2_2  and  C5_8 
REMARK    3  A    between atoms: C4_4  and  O1_5 
REMARK    4  A    between atoms: C5_8  and  O2_9 
REMARK    5  A    between atoms: C5_8  and  N1_11 
REMARK    6  A    between atoms: C9_17  and  C10_18 
REMARK    7  A    between atoms: C10_18  and  O3_19 
REMARK    8  A    between atoms: C10_18  and  C11_22 
REMARK    9  A    between atoms: C11_22  and  C12_25 
REMARK   10  A    between atoms: C12_25  and  C13_28 
REMARK   11  A    between atoms: C13_28  and  C14_31 
ROOT
HETATM    1  N1  UNL     1      62.139  13.093 -23.847  1.00  0.00     0.134 N 
HETATM    2  C6  UNL     1      62.630  14.199 -23.032  1.00  0.00     0.355 C 
HETATM    3  C7  UNL     1      61.984  15.411 -23.667  1.00  0.00     0.272 C 
HETATM    4  F2  UNL     1      62.889  16.199 -24.337  1.00  0.00    -0.204 F 
HETATM    5  F3  UNL     1      61.288  16.168 -22.738  1.00  0.00    -0.204 F 
HETATM    6  C8  UNL     1      60.928  14.845 -24.618  1.00  0.00     0.123 C 
HETATM    7  C9  UNL     1      60.788  13.451 -23.982  1.00  0.00     0.305 C 
ENDROOT
BRANCH   7   8
HETATM    8  C10 UNL     1      59.798  12.620 -24.668  1.00  0.00     0.307 C 
HETATM    9  F4  UNL     1      60.593  11.841 -25.565  1.00  0.00    -0.202 F 
BRANCH   8  10
HETATM   10  O3  UNL     1      59.053  13.390 -25.538  1.00  0.00    -0.355 OA
ATOM     11  H3  UNL     1      58.353  12.872 -25.917  1.00  0.00     0.213 HD
ENDBRANCH   8  10
BRANCH   8  12
HETATM   12  C11 UNL     1      59.026  11.629 -23.887  1.00  0.00     0.375 C 
HETATM   13  F5  UNL     1      59.288  10.319 -24.242  1.00  0.00    -0.193 F 
HETATM   14  F6  UNL     1      59.591  11.626 -22.552  1.00  0.00    -0.193 F 
BRANCH  12  15
HETATM   15  C12 UNL     1      57.591  11.801 -23.665  1.00  0.00     0.383 C 
HETATM   16  F7  UNL     1      57.370  13.059 -23.046  1.00  0.00    -0.192 F 
HETATM   17  F8  UNL     1      56.842  11.933 -24.835  1.00  0.00    -0.192 F 
BRANCH  15  18
HETATM   18  C13 UNL     1      56.851  10.829 -22.806  1.00  0.00     0.371 C 
HETATM   19  F9  UNL     1      56.833   9.570 -23.492  1.00  0.00    -0.193 F 
HETATM   20  F10 UNL     1      57.478  10.503 -21.622  1.00  0.00    -0.193 F 
BRANCH  18  21
HETATM   21  C14 UNL     1      55.402  11.192 -22.636  1.00  0.00     0.431 C 
HETATM   22  F11 UNL     1      55.183  11.844 -21.427  1.00  0.00    -0.208 F 
HETATM   23  F12 UNL     1      54.643  10.013 -22.674  1.00  0.00    -0.208 F 
ENDBRANCH  18  21
ENDBRANCH  15  18
ENDBRANCH  12  15
ENDBRANCH   8  12
ENDBRANCH   7   8
BRANCH   1  24
HETATM   24  C5  UNL     1      62.468  11.812 -23.359  1.00  0.00     0.370 C 
BRANCH  24  25
HETATM   25  C2  UNL     1      63.604  11.092 -24.003  1.00  0.00     0.061 C 
HETATM   26  C1  UNL     1      64.704  10.981 -22.927  1.00  0.00     0.025 C 
HETATM   27  C3  UNL     1      64.249  11.816 -25.156  1.00  0.00     0.025 C 
BRANCH  25  28
HETATM   28  C4  UNL     1      63.297   9.693 -24.434  1.00  0.00     0.316 C 
HETATM   29  F1  UNL     1      61.932   9.466 -24.440  1.00  0.00    -0.219 F 
BRANCH  28  30
HETATM   30  O1  UNL     1      63.737   9.429 -25.737  1.00  0.00    -0.366 OA
ATOM     31  H1  UNL     1      63.168   9.811 -26.396  1.00  0.00     0.213 HD
ENDBRANCH  28  30
ENDBRANCH  25  28
ENDBRANCH  24  25
BRANCH  24  32
HETATM   32  O2  UNL     1      62.645  11.783 -21.979  1.00  0.00    -0.367 OA
ATOM     33  H2  UNL     1      61.953  11.257 -21.594  1.00  0.00     0.212 HD
ENDBRANCH  24  32
ENDBRANCH   1  24
TORSDOF 11
ENDMDL
MODEL 2
REMARK VINA RESULT: -7.893105096      0.869      1.146
REMARK  11 active torsions:
REMARK  status: ('A' for Active; 'I' for Inactive)
REMARK    1  A    between atoms: C2_2  and  C4_4 
REMARK    2  A    between atoms: C2_2  and  C5_8 
REMARK    3  A    between atoms: C4_4  and  O1_5 
REMARK    4  A    between atoms: C5_8  and  O2_9 
REMARK    5  A    between atoms: C5_8  and  N1_11 
REMARK    6  A    between atoms: C9_17  and  C10_18 
REMARK    7  A    between atoms: C10_18  and  O3_19 
REMARK    8  A    between atoms: C10_18  and  C11_22 
REMARK    9  A    between atoms: C11_22  and  C12_25 
REMARK   10  A    between atoms: C12_25  and  C13_28 
REMARK   11  A    between atoms: C13_28  and  C14_31 
ROOT
HETATM    1  N1  UNL     1      62.072  13.073 -23.777  1.00  0.00     0.134 N 
HETATM    2  C6  UNL     1      62.597  14.191 -23.001  1.00  0.00     0.355 C 
HETATM    3  C7  UNL     1      62.031  15.401 -23.711  1.00  0.00     0.272 C 
HETATM    4  F2  UNL     1      62.992  16.110 -24.392  1.00  0.00    -0.204 F 
HETATM    5  F3  UNL     1      61.350  16.236 -22.839  1.00  0.00    -0.204 F 
HETATM    6  C8  UNL     1      60.972  14.843 -24.665  1.00  0.00     0.123 C 
HETATM    7  C9  UNL     1      60.745  13.490 -23.967  1.00  0.00     0.305 C 
ENDROOT
BRANCH   7   8
HETATM    8  C10 UNL     1      59.732  12.677 -24.642  1.00  0.00     0.307 C 
HETATM    9  F4  UNL     1      60.492  11.946 -25.607  1.00  0.00    -0.202 F 
BRANCH   8  10
HETATM   10  O3  UNL     1      58.940  13.474 -25.442  1.00  0.00    -0.355 OA
ATOM     11  H3  UNL     1      59.079  14.390 -25.232  1.00  0.00     0.213 HD
ENDBRANCH   8  10
BRANCH   8  12
HETATM   12  C11 UNL     1      59.008  11.644 -23.869  1.00  0.00     0.375 C 
HETATM   13  F5  UNL     1      59.333  10.351 -24.234  1.00  0.00    -0.193 F 
HETATM   14  F6  UNL     1      59.572  11.657 -22.534  1.00  0.00    -0.193 F 
BRANCH  12  15
HETATM   15  C12 UNL     1      57.567  11.746 -23.647  1.00  0.00     0.383 C 
HETATM   16  F7  UNL     1      57.284  12.992 -23.028  1.00  0.00    -0.192 F 
HETATM   17  F8  UNL     1      56.812  11.842 -24.817  1.00  0.00    -0.192 F 
BRANCH  15  18
HETATM   18  C13 UNL     1      56.875  10.739 -22.788  1.00  0.00     0.371 C 
HETATM   19  F9  UNL     1      56.941   9.475 -23.462  1.00  0.00    -0.193 F 
HETATM   20  F10 UNL     1      57.505  10.461 -21.593  1.00  0.00    -0.193 F 
BRANCH  18  21
HETATM   21  C14 UNL     1      55.405  11.015 -22.640  1.00  0.00     0.431 C 
HETATM   22  F11 UNL     1      55.143  11.754 -21.490  1.00  0.00    -0.208 F 
HETATM   23  F12 UNL     1      54.728   9.789 -22.570  1.00  0.00    -0.208 F 
ENDBRANCH  18  21
ENDBRANCH  15  18
ENDBRANCH  12  15
ENDBRANCH   8  12
ENDBRANCH   7   8
BRANCH   1  24
HETATM   24  C5  UNL     1      62.322  11.802 -23.219  1.00  0.00     0.370 C 
BRANCH  24  25
HETATM   25  C2  UNL     1      63.250  10.892 -23.950  1.00  0.00     0.061 C 
HETATM   26  C1  UNL     1      63.903  11.746 -25.056  1.00  0.00     0.025 C 
HETATM   27  C3  UNL     1      62.588   9.747 -24.671  1.00  0.00     0.025 C 
BRANCH  25  28
HETATM   28  C4  UNL     1      64.372  10.345 -23.125  1.00  0.00     0.316 C 
HETATM   29  F1  UNL     1      64.851   9.164 -23.663  1.00  0.00    -0.219 F 
BRANCH  28  30
HETATM   30  O1  UNL     1      65.468  11.216 -23.071  1.00  0.00    -0.366 OA
ATOM     31  H1  UNL     1      66.052  11.017 -22.349  1.00  0.00     0.213 HD
ENDBRANCH  28  30
ENDBRANCH  25  28
ENDBRANCH  24  25
BRANCH  24  32
HETATM   32  O2  UNL     1      62.710  11.859 -21.884  1.00  0.00    -0.367 OA
ATOM     33  H2  UNL     1      62.325  11.123 -21.423  1.00  0.00     0.212 HD
ENDBRANCH  24  32
ENDBRANCH   1  24
TORSDOF 11
ENDMDL
MODEL 3
REMARK VINA RESULT: -7.641298839      1.318      2.148
REMARK  11 active torsions:
REMARK  status: ('A' for Active; 'I' for Inactive)
REMARK    1  A    between atoms: C2_2  and  C4_4 
REMARK    2  A    between atoms: C2_2  and  C5_8 
REMARK    3  A    between atoms: C4_4  and  O1_5 
REMARK    4  A    between atoms: C5_8  and  O2_9 
REMARK    5  A    between atoms: C5_8  and  N1_11 
REMARK    6  A    between atoms: C9_17  and  C10_18 
REMARK    7  A    between atoms: C10_18  and  O3_19 
REMARK    8  A    between atoms: C10_18  and  C11_22 
REMARK    9  A    between atoms: C11_22  and  C12_25 
REMARK   10  A    between atoms: C12_25  and  C13_28 
REMARK   11  A    between atoms: C13_28  and  C14_31 
ROOT
HETATM    1  N1  UNL     1      62.218  13.011 -23.627  1.00  0.00     0.134 N 
HETATM    2  C6  UNL     1      62.742  14.204 -22.970  1.00  0.00     0.355 C 
HETATM    3  C7  UNL     1      62.039  15.333 -23.690  1.00  0.00     0.272 C 
HETATM    4  F2  UNL     1      62.887  16.052 -24.499  1.00  0.00    -0.204 F 
HETATM    5  F3  UNL     1      61.392  16.181 -22.805  1.00  0.00    -0.204 F 
HETATM    6  C8  UNL     1      60.933  14.658 -24.504  1.00  0.00     0.123 C 
HETATM    7  C9  UNL     1      60.856  13.341 -23.712  1.00  0.00     0.305 C 
ENDROOT
BRANCH   7   8
HETATM    8  C10 UNL     1      59.837  12.432 -24.238  1.00  0.00     0.307 C 
HETATM    9  F4  UNL     1      60.068  11.226 -23.506  1.00  0.00    -0.202 F 
BRANCH   8  10
HETATM   10  O3  UNL     1      60.158  12.053 -25.526  1.00  0.00    -0.355 OA
ATOM     11  H3  UNL     1      59.754  12.644 -26.151  1.00  0.00     0.213 HD
ENDBRANCH   8  10
BRANCH   8  12
HETATM   12  C11 UNL     1      58.409  12.744 -24.012  1.00  0.00     0.375 C 
HETATM   13  F5  UNL     1      58.204  13.909 -23.296  1.00  0.00    -0.193 F 
HETATM   14  F6  UNL     1      57.871  13.160 -25.292  1.00  0.00    -0.193 F 
BRANCH  12  15
HETATM   15  C12 UNL     1      57.479  11.714 -23.554  1.00  0.00     0.383 C 
HETATM   16  F7  UNL     1      57.586  10.585 -24.408  1.00  0.00    -0.192 F 
HETATM   17  F8  UNL     1      57.807  11.156 -22.317  1.00  0.00    -0.192 F 
BRANCH  15  18
HETATM   18  C13 UNL     1      56.015  12.004 -23.503  1.00  0.00     0.371 C 
HETATM   19  F9  UNL     1      55.649  12.149 -22.124  1.00  0.00    -0.193 F 
HETATM   20  F10 UNL     1      55.645  13.225 -24.029  1.00  0.00    -0.193 F 
BRANCH  18  21
HETATM   21  C14 UNL     1      55.179  10.859 -24.001  1.00  0.00     0.431 C 
HETATM   22  F11 UNL     1      54.190  11.298 -24.876  1.00  0.00    -0.208 F 
HETATM   23  F12 UNL     1      54.581  10.234 -22.897  1.00  0.00    -0.208 F 
ENDBRANCH  18  21
ENDBRANCH  15  18
ENDBRANCH  12  15
ENDBRANCH   8  12
ENDBRANCH   7   8
BRANCH   1  24
HETATM   24  C5  UNL     1      62.597  11.795 -23.025  1.00  0.00     0.370 C 
BRANCH  24  25
HETATM   25  C2  UNL     1      63.451  10.862 -23.817  1.00  0.00     0.061 C 
HETATM   26  C1  UNL     1      64.096  11.715 -24.929  1.00  0.00     0.025 C 
HETATM   27  C3  UNL     1      62.706   9.768 -24.537  1.00  0.00     0.025 C 
BRANCH  25  28
HETATM   28  C4  UNL     1      64.579  10.243 -23.054  1.00  0.00     0.316 C 
HETATM   29  F1  UNL     1      64.981   9.057 -23.643  1.00  0.00    -0.219 F 
BRANCH  28  30
HETATM   30  O1  UNL     1      65.715  11.062 -23.025  1.00  0.00    -0.366 OA
ATOM     31  H1  UNL     1      66.109  11.103 -22.161  1.00  0.00     0.213 HD
ENDBRANCH  28  30
ENDBRANCH  25  28
ENDBRANCH  24  25
BRANCH  24  32
HETATM   32  O2  UNL     1      63.167  11.962 -21.766  1.00  0.00    -0.367 OA
ATOM     33  H2  UNL     1      62.883  12.796 -21.412  1.00  0.00     0.212 HD
ENDBRANCH  24  32
ENDBRANCH   1  24
TORSDOF 11
ENDMDL
MODEL 4
REMARK VINA RESULT: -7.228861791      2.012      3.984
REMARK  11 active torsions:
REMARK  status: ('A' for Active; 'I' for Inactive)
REMARK    1  A    between atoms: C2_2  and  C4_4 
REMARK    2  A    between atoms: C2_2  and  C5_8 
REMARK    3  A    between atoms: C4_4  and  O1_5 
REMARK    4  A    between atoms: C5_8  and  O2_9 
REMARK    5  A    between atoms: C5_8  and  N1_11 
REMARK    6  A    between atoms: C9_17  and  C10_18 
REMARK    7  A    between atoms: C10_18  and  O3_19 
REMARK    8  A    between atoms: C10_18  and  C11_22 
REMARK    9  A    between atoms: C11_22  and  C12_25 
REMARK   10  A    between atoms: C12_25  and  C13_28 
REMARK   11  A    between atoms: C13_28  and  C14_31 
ROOT
HETATM    1  N1  UNL     1      63.633  11.090 -24.585  1.00  0.00     0.134 N 
HETATM    2  C6  UNL     1      64.239  10.089 -25.457  1.00  0.00     0.355 C 
HETATM    3  C7  UNL     1      63.349   8.881 -25.268  1.00  0.00     0.272 C 
HETATM    4  F2  UNL     1      63.968   7.875 -24.564  1.00  0.00    -0.204 F 
HETATM    5  F3  UNL     1      62.877   8.396 -26.478  1.00  0.00    -0.204 F 
HETATM    6  C8  UNL     1      62.120   9.406 -24.522  1.00  0.00     0.123 C 
HETATM    7  C9  UNL     1      62.274  10.895 -24.875  1.00  0.00     0.305 C 
ENDROOT
BRANCH   7   8
HETATM    8  C10 UNL     1      61.203  11.716 -24.310  1.00  0.00     0.307 C 
HETATM    9  F4  UNL     1      61.521  13.031 -24.773  1.00  0.00    -0.202 F 
BRANCH   8  10
HETATM   10  O3  UNL     1      61.370  11.842 -22.946  1.00  0.00    -0.355 OA
ATOM     11  H3  UNL     1      61.408  12.760 -22.704  1.00  0.00     0.213 HD
ENDBRANCH   8  10
BRANCH   8  12
HETATM   12  C11 UNL     1      59.810  11.487 -24.753  1.00  0.00     0.375 C 
HETATM   13  F5  UNL     1      59.707  11.105 -26.078  1.00  0.00    -0.193 F 
HETATM   14  F6  UNL     1      59.375  10.256 -24.122  1.00  0.00    -0.193 F 
BRANCH  12  15
HETATM   15  C12 UNL     1      58.752  12.443 -24.432  1.00  0.00     0.383 C 
HETATM   16  F7  UNL     1      59.258  13.393 -23.506  1.00  0.00    -0.192 F 
HETATM   17  F8  UNL     1      58.382  13.266 -25.497  1.00  0.00    -0.192 F 
BRANCH  15  18
HETATM   18  C13 UNL     1      57.480  11.964 -23.816  1.00  0.00     0.371 C 
HETATM   19  F9  UNL     1      57.083  10.774 -24.510  1.00  0.00    -0.193 F 
HETATM   20  F10 UNL     1      57.594  11.516 -22.517  1.00  0.00    -0.193 F 
BRANCH  18  21
HETATM   21  C14 UNL     1      56.340  12.923 -24.021  1.00  0.00     0.431 C 
HETATM   22  F11 UNL     1      56.110  13.687 -22.881  1.00  0.00    -0.208 F 
HETATM   23  F12 UNL     1      55.188  12.182 -24.325  1.00  0.00    -0.208 F 
ENDBRANCH  18  21
ENDBRANCH  15  18
ENDBRANCH  12  15
ENDBRANCH   8  12
ENDBRANCH   7   8
BRANCH   1  24
HETATM   24  C5  UNL     1      64.186  12.382 -24.703  1.00  0.00     0.370 C 
BRANCH  24  25
HETATM   25  C2  UNL     1      64.767  13.004 -23.478  1.00  0.00     0.061 C 
HETATM   26  C1  UNL     1      66.243  13.303 -23.812  1.00  0.00     0.025 C 
HETATM   27  C3  UNL     1      64.808  12.112 -22.265  1.00  0.00     0.025 C 
BRANCH  25  28
HETATM   28  C4  UNL     1      64.153  14.310 -23.085  1.00  0.00     0.316 C 
HETATM   29  F1  UNL     1      63.683  14.989 -24.196  1.00  0.00    -0.219 F 
BRANCH  28  30
HETATM   30  O1  UNL     1      63.050  14.147 -22.238  1.00  0.00    -0.366 OA
ATOM     31  H1  UNL     1      63.291  13.765 -21.401  1.00  0.00     0.213 HD
ENDBRANCH  28  30
ENDBRANCH  25  28
ENDBRANCH  24  25
BRANCH  24  32
HETATM   32  O2  UNL     1      65.107  12.490 -25.740  1.00  0.00    -0.367 OA
ATOM     33  H2  UNL     1      65.270  11.624 -26.095  1.00  0.00     0.212 HD
ENDBRANCH  24  32
ENDBRANCH   1  24
TORSDOF 11
ENDMDL
MODEL 5
REMARK VINA RESULT: -7.152075297      1.913      4.048
REMARK  11 active torsions:
REMARK  status: ('A' for Active; 'I' for Inactive)
REMARK    1  A    between atoms: C2_2  and  C4_4 
REMARK    2  A    between atoms: C2_2  and  C5_8 
REMARK    3  A    between atoms: C4_4  and  O1_5 
REMARK    4  A    between atoms: C5_8  and  O2_9 
REMARK    5  A    between atoms: C5_8  and  N1_11 
REMARK    6  A    between atoms: C9_17  and  C10_18 
REMARK    7  A    between atoms: C10_18  and  O3_19 
REMARK    8  A    between atoms: C10_18  and  C11_22 
REMARK    9  A    between atoms: C11_22  and  C12_25 
REMARK   10  A    between atoms: C12_25  and  C13_28 
REMARK   11  A    between atoms: C13_28  and  C14_31 
ROOT
HETATM    1  N1  UNL     1      63.625  11.157 -24.601  1.00  0.00     0.134 N 
HETATM    2  C6  UNL     1      64.267  10.168 -25.460  1.00  0.00     0.355 C 
HETATM    3  C7  UNL     1      63.421   8.931 -25.255  1.00  0.00     0.272 C 
HETATM    4  F2  UNL     1      64.076   7.957 -24.539  1.00  0.00    -0.204 F 
HETATM    5  F3  UNL     1      62.967   8.414 -26.459  1.00  0.00    -0.204 F 
HETATM    6  C8  UNL     1      62.174   9.420 -24.515  1.00  0.00     0.123 C 
HETATM    7  C9  UNL     1      62.273  10.910 -24.888  1.00  0.00     0.305 C 
ENDROOT
BRANCH   7   8
HETATM    8  C10 UNL     1      61.173  11.699 -24.332  1.00  0.00     0.307 C 
HETATM    9  F4  UNL     1      61.463  13.024 -24.784  1.00  0.00    -0.202 F 
BRANCH   8  10
HETATM   10  O3  UNL     1      61.319  11.821 -22.965  1.00  0.00    -0.355 OA
ATOM     11  H3  UNL     1      61.069  12.694 -22.686  1.00  0.00     0.213 HD
ENDBRANCH   8  10
BRANCH   8  12
HETATM   12  C11 UNL     1      59.793  11.434 -24.795  1.00  0.00     0.375 C 
HETATM   13  F5  UNL     1      59.719  11.046 -26.120  1.00  0.00    -0.193 F 
HETATM   14  F6  UNL     1      59.377  10.197 -24.166  1.00  0.00    -0.193 F 
BRANCH  12  15
HETATM   15  C12 UNL     1      58.708  12.367 -24.494  1.00  0.00     0.383 C 
HETATM   16  F7  UNL     1      59.101  13.193 -23.408  1.00  0.00    -0.192 F 
HETATM   17  F8  UNL     1      58.476  13.316 -25.492  1.00  0.00    -0.192 F 
BRANCH  15  18
HETATM   18  C13 UNL     1      57.368  11.844 -24.098  1.00  0.00     0.371 C 
HETATM   19  F9  UNL     1      56.390  12.821 -24.480  1.00  0.00    -0.193 F 
HETATM   20  F10 UNL     1      56.948  10.730 -24.794  1.00  0.00    -0.193 F 
BRANCH  18  21
HETATM   21  C14 UNL     1      57.213  11.713 -22.608  1.00  0.00     0.431 C 
HETATM   22  F11 UNL     1      57.280  10.382 -22.208  1.00  0.00    -0.208 F 
HETATM   23  F12 UNL     1      55.969  12.248 -22.243  1.00  0.00    -0.208 F 
ENDBRANCH  18  21
ENDBRANCH  15  18
ENDBRANCH  12  15
ENDBRANCH   8  12
ENDBRANCH   7   8
BRANCH   1  24
HETATM   24  C5  UNL     1      64.130  12.467 -24.735  1.00  0.00     0.370 C 
BRANCH  24  25
HETATM   25  C2  UNL     1      64.701  13.120 -23.522  1.00  0.00     0.061 C 
HETATM   26  C1  UNL     1      66.169  13.445 -23.864  1.00  0.00     0.025 C 
HETATM   27  C3  UNL     1      64.762  12.249 -22.295  1.00  0.00     0.025 C 
BRANCH  25  28
HETATM   28  C4  UNL     1      64.060  14.419 -23.148  1.00  0.00     0.316 C 
HETATM   29  F1  UNL     1      63.573  15.070 -24.268  1.00  0.00    -0.219 F 
BRANCH  28  30
HETATM   30  O1  UNL     1      62.963  14.246 -22.295  1.00  0.00    -0.366 OA
ATOM     31  H1  UNL     1      62.804  13.332 -22.092  1.00  0.00     0.213 HD
ENDBRANCH  28  30
ENDBRANCH  25  28
ENDBRANCH  24  25
BRANCH  24  32
HETATM   32  O2  UNL     1      65.037  12.598 -25.782  1.00  0.00    -0.367 OA
ATOM     33  H2  UNL     1      65.917  12.502 -25.438  1.00  0.00     0.212 HD
ENDBRANCH  24  32
ENDBRANCH   1  24
TORSDOF 11
ENDMDL
