MODEL 1
REMARK VINA RESULT: -6.302996094      0.000      0.000
REMARK  11 active torsions:
REMARK  status: ('A' for Active; 'I' for Inactive)
REMARK    1  A    between atoms: C2_2  and  C3_4 
REMARK    2  A    between atoms: C2_2  and  C9_23 
REMARK    3  A    between atoms: C3_4  and  N1_5 
REMARK    4  A    between atoms: C3_4  and  C8_19 
REMARK    5  A    between atoms: N1_5  and  C4_7 
REMARK    6  A    between atoms: C4_7  and  O1_8 
REMARK    7  A    between atoms: C4_7  and  C5_10 
REMARK    8  A    between atoms: C5_10  and  C6_12 
REMARK    9  A    between atoms: C6_12  and  C7_15 
REMARK   10  A    between atoms: C9_23  and  C10_26 
REMARK   11  A    between atoms: C10_26  and  N2_27 
ROOT
HETATM    1  C3  UNL     1      60.888  12.896 -23.963  1.00  0.00     0.085 C 
ENDROOT
BRANCH   1   2
HETATM    2  C2  UNL     1      59.596  12.454 -24.518  1.00  0.00     0.211 C 
HETATM    3  C1  UNL     1      59.683  11.511 -25.697  1.00  0.00     0.065 C 
HETATM    4  F1  UNL     1      58.994  13.600 -25.108  1.00  0.00    -0.230 F 
BRANCH   2   5
HETATM    5  C9  UNL     1      58.530  12.056 -23.523  1.00  0.00     0.339 C 
HETATM    6  F6  UNL     1      57.742  13.141 -23.221  1.00  0.00    -0.197 F 
HETATM    7  F7  UNL     1      58.952  11.385 -22.430  1.00  0.00    -0.197 F 
BRANCH   5   8
HETATM    8  C10 UNL     1      57.524  11.066 -24.180  1.00  0.00     0.440 C 
HETATM    9  F8  UNL     1      57.751   9.781 -23.820  1.00  0.00    -0.213 F 
BRANCH   8  10
HETATM   10  N2  UNL     1      56.189  11.540 -24.077  1.00  0.00    -0.042 N 
ATOM     11  H23 UNL     1      55.575  10.840 -23.659  1.00  0.00     0.278 HD
ATOM     12  H22 UNL     1      56.104  12.268 -23.367  1.00  0.00     0.278 HD
ATOM     13  H21 UNL     1      55.836  11.855 -24.981  1.00  0.00     0.278 HD
ENDBRANCH   8  10
ENDBRANCH   5   8
ENDBRANCH   2   5
ENDBRANCH   1   2
BRANCH   1  14
HETATM   14  N1  UNL     1      61.412  14.137 -24.394  1.00  0.00    -0.358 N 
ATOM     15  H1  UNL     1      61.684  14.207 -25.374  1.00  0.00     0.162 HD
BRANCH  14  16
HETATM   16  C4  UNL     1      61.591  15.262 -23.616  1.00  0.00     0.294 C 
BRANCH  16  17
HETATM   17  O1  UNL     1      60.846  16.307 -24.274  1.00  0.00    -0.369 OA
ATOM     18  H1  UNL     1      61.191  17.121 -23.927  1.00  0.00     0.212 HD
ENDBRANCH  16  17
BRANCH  16  19
HETATM   19  C5  UNL     1      62.971  15.820 -23.504  1.00  0.00     0.239 C 
HETATM   20  O2  UNL     1      63.665  15.891 -24.472  1.00  0.00    -0.288 OA
BRANCH  19  21
HETATM   21  C6  UNL     1      63.473  16.291 -22.169  1.00  0.00     0.339 C 
HETATM   22  F2  UNL     1      62.521  15.920 -21.241  1.00  0.00    -0.207 F 
HETATM   23 CL1  UNL     1      64.988  15.468 -21.726  1.00  0.00    -0.065 Cl
BRANCH  21  24
HETATM   24  C7  UNL     1      63.728  17.763 -22.139  1.00  0.00     0.445 C 
HETATM   25  F3  UNL     1      64.989  18.093 -22.597  1.00  0.00    -0.166 F 
HETATM   26  F4  UNL     1      63.675  18.151 -20.804  1.00  0.00    -0.166 F 
HETATM   27  F5  UNL     1      62.828  18.508 -22.842  1.00  0.00    -0.166 F 
ENDBRANCH  21  24
ENDBRANCH  19  21
ENDBRANCH  16  19
ENDBRANCH  14  16
ENDBRANCH   1  14
BRANCH   1  28
HETATM   28  C8  UNL     1      62.036  11.942 -23.905  1.00  0.00     0.230 C 
HETATM   29 CL2  UNL     1      61.774  10.269 -24.242  1.00  0.00    -0.077 Cl
HETATM   30 CL3  UNL     1      62.679  11.963 -22.211  1.00  0.00    -0.077 Cl
HETATM   31 CL4  UNL     1      63.410  12.502 -24.900  1.00  0.00    -0.077 Cl
ENDBRANCH   1  28
TORSDOF 11
ENDMDL
MODEL 2
REMARK VINA RESULT: -6.174382222      4.072      6.165
REMARK  11 active torsions:
REMARK  status: ('A' for Active; 'I' for Inactive)
REMARK    1  A    between atoms: C2_2  and  C3_4 
REMARK    2  A    between atoms: C2_2  and  C9_23 
REMARK    3  A    between atoms: C3_4  and  N1_5 
REMARK    4  A    between atoms: C3_4  and  C8_19 
REMARK    5  A    between atoms: N1_5  and  C4_7 
REMARK    6  A    between atoms: C4_7  and  O1_8 
REMARK    7  A    between atoms: C4_7  and  C5_10 
REMARK    8  A    between atoms: C5_10  and  C6_12 
REMARK    9  A    between atoms: C6_12  and  C7_15 
REMARK   10  A    between atoms: C9_23  and  C10_26 
REMARK   11  A    between atoms: C10_26  and  N2_27 
ROOT
HETATM    1  C3  UNL     1      64.290  10.937 -24.479  1.00  0.00     0.085 C 
ENDROOT
BRANCH   1   2
HETATM    2  C2  UNL     1      64.521   9.541 -24.891  1.00  0.00     0.211 C 
HETATM    3  C1  UNL     1      65.516   8.771 -24.053  1.00  0.00     0.065 C 
HETATM    4  F1  UNL     1      65.182   9.593 -26.150  1.00  0.00    -0.230 F 
BRANCH   2   5
HETATM    5  C9  UNL     1      63.299   8.727 -25.249  1.00  0.00     0.339 C 
HETATM    6  F6  UNL     1      62.845   9.085 -26.497  1.00  0.00    -0.197 F 
HETATM    7  F7  UNL     1      62.319   8.680 -24.321  1.00  0.00    -0.197 F 
BRANCH   5   8
HETATM    8  C10 UNL     1      63.685   7.230 -25.433  1.00  0.00     0.440 C 
HETATM    9  F8  UNL     1      63.174   6.440 -24.461  1.00  0.00    -0.213 F 
BRANCH   8  10
HETATM   10  N2  UNL     1      63.494   6.808 -26.776  1.00  0.00    -0.042 N 
ATOM     11  H23 UNL     1      64.312   6.313 -27.133  1.00  0.00     0.278 HD
ATOM     12  H22 UNL     1      62.813   6.050 -26.837  1.00  0.00     0.278 HD
ATOM     13  H21 UNL     1      63.237   7.590 -27.379  1.00  0.00     0.278 HD
ENDBRANCH   8  10
ENDBRANCH   5   8
ENDBRANCH   2   5
ENDBRANCH   1   2
BRANCH   1  14
HETATM   14  N1  UNL     1      63.117  11.584 -24.933  1.00  0.00    -0.358 N 
ATOM     15  H1  UNL     1      62.992  11.657 -25.942  1.00  0.00     0.162 HD
BRANCH  14  16
HETATM   16  C4  UNL     1      62.125  12.126 -24.141  1.00  0.00     0.294 C 
BRANCH  16  17
HETATM   17  O1  UNL     1      62.287  11.510 -22.847  1.00  0.00    -0.369 OA
ATOM     18  H1  UNL     1      61.406  11.386 -22.514  1.00  0.00     0.212 HD
ENDBRANCH  16  17
BRANCH  16  19
HETATM   19  C5  UNL     1      60.707  11.832 -24.503  1.00  0.00     0.239 C 
HETATM   20  O2  UNL     1      60.409  10.756 -24.923  1.00  0.00    -0.288 OA
BRANCH  19  21
HETATM   21  C6  UNL     1      59.664  12.900 -24.332  1.00  0.00     0.339 C 
HETATM   22  F2  UNL     1      60.245  13.895 -23.572  1.00  0.00    -0.207 F 
HETATM   23 CL1  UNL     1      59.225  13.625 -25.897  1.00  0.00    -0.065 Cl
BRANCH  21  24
HETATM   24  C7  UNL     1      58.413  12.383 -23.702  1.00  0.00     0.445 C 
HETATM   25  F3  UNL     1      58.664  11.551 -22.629  1.00  0.00    -0.166 F 
HETATM   26  F4  UNL     1      57.769  11.610 -24.664  1.00  0.00    -0.166 F 
HETATM   27  F5  UNL     1      57.550  13.351 -23.277  1.00  0.00    -0.166 F 
ENDBRANCH  21  24
ENDBRANCH  19  21
ENDBRANCH  16  19
ENDBRANCH  14  16
ENDBRANCH   1  14
BRANCH   1  28
HETATM   28  C8  UNL     1      65.397  11.934 -24.583  1.00  0.00     0.230 C 
HETATM   29 CL2  UNL     1      67.034  11.388 -24.657  1.00  0.00    -0.077 Cl
HETATM   30 CL3  UNL     1      65.338  12.974 -23.099  1.00  0.00    -0.077 Cl
HETATM   31 CL4  UNL     1      65.131  13.079 -25.928  1.00  0.00    -0.077 Cl
ENDBRANCH   1  28
TORSDOF 11
ENDMDL
MODEL 3
REMARK VINA RESULT: -6.080789754      5.659      8.177
REMARK  11 active torsions:
REMARK  status: ('A' for Active; 'I' for Inactive)
REMARK    1  A    between atoms: C2_2  and  C3_4 
REMARK    2  A    between atoms: C2_2  and  C9_23 
REMARK    3  A    between atoms: C3_4  and  N1_5 
REMARK    4  A    between atoms: C3_4  and  C8_19 
REMARK    5  A    between atoms: N1_5  and  C4_7 
REMARK    6  A    between atoms: C4_7  and  O1_8 
REMARK    7  A    between atoms: C4_7  and  C5_10 
REMARK    8  A    between atoms: C5_10  and  C6_12 
REMARK    9  A    between atoms: C6_12  and  C7_15 
REMARK   10  A    between atoms: C9_23  and  C10_26 
REMARK   11  A    between atoms: C10_26  and  N2_27 
ROOT
HETATM    1  C3  UNL     1      65.041  10.990 -21.614  1.00  0.00     0.085 C 
ENDROOT
BRANCH   1   2
HETATM    2  C2  UNL     1      65.636  11.187 -20.281  1.00  0.00     0.211 C 
HETATM    3  C1  UNL     1      66.752  12.204 -20.210  1.00  0.00     0.065 C 
HETATM    4  F1  UNL     1      66.322   9.982 -19.960  1.00  0.00    -0.230 F 
BRANCH   2   5
HETATM    5  C9  UNL     1      64.677  11.284 -19.116  1.00  0.00     0.339 C 
HETATM    6  F6  UNL     1      63.478  10.697 -19.446  1.00  0.00    -0.197 F 
HETATM    7  F7  UNL     1      64.535  12.505 -18.559  1.00  0.00    -0.197 F 
BRANCH   5   8
HETATM    8  C10 UNL     1      65.180  10.409 -17.931  1.00  0.00     0.440 C 
HETATM    9  F8  UNL     1      66.031  11.078 -17.118  1.00  0.00    -0.213 F 
BRANCH   8  10
HETATM   10  N2  UNL     1      64.109   9.710 -17.312  1.00  0.00    -0.042 N 
ATOM     11  H23 UNL     1      64.091   9.870 -16.305  1.00  0.00     0.278 HD
ATOM     12  H22 UNL     1      63.207  10.121 -17.552  1.00  0.00     0.278 HD
ATOM     13  H21 UNL     1      64.138   8.715 -17.533  1.00  0.00     0.278 HD
ENDBRANCH   8  10
ENDBRANCH   5   8
ENDBRANCH   2   5
ENDBRANCH   1   2
BRANCH   1  14
HETATM   14  N1  UNL     1      65.814  10.335 -22.602  1.00  0.00    -0.358 N 
ATOM     15  H1  UNL     1      66.616  10.845 -22.973  1.00  0.00     0.162 HD
BRANCH  14  16
HETATM   16  C4  UNL     1      65.588   9.073 -23.112  1.00  0.00     0.294 C 
BRANCH  16  17
HETATM   17  O1  UNL     1      66.587   8.229 -22.505  1.00  0.00    -0.369 OA
ATOM     18  H1  UNL     1      67.296   8.182 -23.135  1.00  0.00     0.212 HD
ENDBRANCH  16  17
BRANCH  16  19
HETATM   19  C5  UNL     1      65.787   8.868 -24.577  1.00  0.00     0.239 C 
HETATM   20  O2  UNL     1      66.758   9.308 -25.115  1.00  0.00    -0.288 OA
BRANCH  19  21
HETATM   21  C6  UNL     1      64.760   8.104 -25.364  1.00  0.00     0.339 C 
HETATM   22  F2  UNL     1      65.319   7.861 -26.602  1.00  0.00    -0.207 F 
HETATM   23 CL1  UNL     1      64.426   6.523 -24.619  1.00  0.00    -0.065 Cl
BRANCH  21  24
HETATM   24  C7  UNL     1      63.465   8.838 -25.479  1.00  0.00     0.445 C 
HETATM   25  F3  UNL     1      62.790   8.545 -26.648  1.00  0.00    -0.166 F 
HETATM   26  F4  UNL     1      63.775  10.193 -25.527  1.00  0.00    -0.166 F 
HETATM   27  F5  UNL     1      62.601   8.629 -24.444  1.00  0.00    -0.166 F 
ENDBRANCH  21  24
ENDBRANCH  19  21
ENDBRANCH  16  19
ENDBRANCH  14  16
ENDBRANCH   1  14
BRANCH   1  28
HETATM   28  C8  UNL     1      64.350  12.126 -22.294  1.00  0.00     0.230 C 
HETATM   29 CL2  UNL     1      63.965  13.550 -21.397  1.00  0.00    -0.077 Cl
HETATM   30 CL3  UNL     1      62.746  11.517 -22.881  1.00  0.00    -0.077 Cl
HETATM   31 CL4  UNL     1      65.200  12.620 -23.785  1.00  0.00    -0.077 Cl
ENDBRANCH   1  28
TORSDOF 11
ENDMDL
MODEL 4
REMARK VINA RESULT: -6.074832067      2.297      6.650
REMARK  11 active torsions:
REMARK  status: ('A' for Active; 'I' for Inactive)
REMARK    1  A    between atoms: C2_2  and  C3_4 
REMARK    2  A    between atoms: C2_2  and  C9_23 
REMARK    3  A    between atoms: C3_4  and  N1_5 
REMARK    4  A    between atoms: C3_4  and  C8_19 
REMARK    5  A    between atoms: N1_5  and  C4_7 
REMARK    6  A    between atoms: C4_7  and  O1_8 
REMARK    7  A    between atoms: C4_7  and  C5_10 
REMARK    8  A    between atoms: C5_10  and  C6_12 
REMARK    9  A    between atoms: C6_12  and  C7_15 
REMARK   10  A    between atoms: C9_23  and  C10_26 
REMARK   11  A    between atoms: C10_26  and  N2_27 
ROOT
HETATM    1  C3  UNL     1      63.803  13.174 -21.829  1.00  0.00     0.085 C 
ENDROOT
BRANCH   1   2
HETATM    2  C2  UNL     1      63.882  14.600 -21.470  1.00  0.00     0.211 C 
HETATM    3  C1  UNL     1      63.804  14.904 -19.991  1.00  0.00     0.065 C 
HETATM    4  F1  UNL     1      62.689  15.207 -21.952  1.00  0.00    -0.230 F 
BRANCH   2   5
HETATM    5  C9  UNL     1      64.926  15.425 -22.186  1.00  0.00     0.339 C 
HETATM    6  F6  UNL     1      65.786  14.601 -22.872  1.00  0.00    -0.197 F 
HETATM    7  F7  UNL     1      65.562  16.358 -21.445  1.00  0.00    -0.197 F 
BRANCH   5   8
HETATM    8  C10 UNL     1      64.265  16.263 -23.319  1.00  0.00     0.440 C 
HETATM    9  F8  UNL     1      64.608  17.571 -23.264  1.00  0.00    -0.213 F 
BRANCH   8  10
HETATM   10  N2  UNL     1      64.385  15.616 -24.578  1.00  0.00    -0.042 N 
ATOM     11  H23 UNL     1      63.757  16.024 -25.270  1.00  0.00     0.278 HD
ATOM     12  H22 UNL     1      65.275  15.833 -25.027  1.00  0.00     0.278 HD
ATOM     13  H21 UNL     1      64.245  14.609 -24.493  1.00  0.00     0.278 HD
ENDBRANCH   8  10
ENDBRANCH   5   8
ENDBRANCH   2   5
ENDBRANCH   1   2
BRANCH   1  14
HETATM   14  N1  UNL     1      62.558  12.658 -22.256  1.00  0.00    -0.358 N 
ATOM     15  H1  UNL     1      61.857  12.489 -21.534  1.00  0.00     0.162 HD
BRANCH  14  16
HETATM   16  C4  UNL     1      62.198  12.362 -23.555  1.00  0.00     0.294 C 
BRANCH  16  17
HETATM   17  O1  UNL     1      63.289  12.833 -24.372  1.00  0.00    -0.369 OA
ATOM     18  H1  UNL     1      62.934  13.555 -24.877  1.00  0.00     0.212 HD
ENDBRANCH  16  17
BRANCH  16  19
HETATM   19  C5  UNL     1      61.002  13.053 -24.121  1.00  0.00     0.239 C 
HETATM   20  O2  UNL     1      60.920  14.242 -24.071  1.00  0.00    -0.288 OA
BRANCH  19  21
HETATM   21  C6  UNL     1      59.908  12.239 -24.753  1.00  0.00     0.339 C 
HETATM   22  F2  UNL     1      59.625  12.840 -25.963  1.00  0.00    -0.207 F 
HETATM   23 CL1  UNL     1      60.460  10.584 -25.105  1.00  0.00    -0.065 Cl
BRANCH  21  24
HETATM   24  C7  UNL     1      58.694  12.141 -23.889  1.00  0.00     0.445 C 
HETATM   25  F3  UNL     1      57.680  11.413 -24.478  1.00  0.00    -0.166 F 
HETATM   26  F4  UNL     1      58.212  13.437 -23.727  1.00  0.00    -0.166 F 
HETATM   27  F5  UNL     1      58.919  11.607 -22.655  1.00  0.00    -0.166 F 
ENDBRANCH  21  24
ENDBRANCH  19  21
ENDBRANCH  16  19
ENDBRANCH  14  16
ENDBRANCH   1  14
BRANCH   1  28
HETATM   28  C8  UNL     1      64.406  12.147 -20.927  1.00  0.00     0.230 C 
HETATM   29 CL2  UNL     1      65.908  12.476 -20.142  1.00  0.00    -0.077 Cl
HETATM   30 CL3  UNL     1      64.735  10.669 -21.923  1.00  0.00    -0.077 Cl
HETATM   31 CL4  UNL     1      63.243  11.589 -19.691  1.00  0.00    -0.077 Cl
ENDBRANCH   1  28
TORSDOF 11
ENDMDL
MODEL 5
REMARK VINA RESULT: -6.039868896      5.128      6.431
REMARK  11 active torsions:
REMARK  status: ('A' for Active; 'I' for Inactive)
REMARK    1  A    between atoms: C2_2  and  C3_4 
REMARK    2  A    between atoms: C2_2  and  C9_23 
REMARK    3  A    between atoms: C3_4  and  N1_5 
REMARK    4  A    between atoms: C3_4  and  C8_19 
REMARK    5  A    between atoms: N1_5  and  C4_7 
REMARK    6  A    between atoms: C4_7  and  O1_8 
REMARK    7  A    between atoms: C4_7  and  C5_10 
REMARK    8  A    between atoms: C5_10  and  C6_12 
REMARK    9  A    between atoms: C6_12  and  C7_15 
REMARK   10  A    between atoms: C9_23  and  C10_26 
REMARK   11  A    between atoms: C10_26  and  N2_27 
ROOT
HETATM    1  C3  UNL     1      65.133   9.078 -24.217  1.00  0.00     0.085 C 
ENDROOT
BRANCH   1   2
HETATM    2  C2  UNL     1      65.179   8.244 -25.430  1.00  0.00     0.211 C 
HETATM    3  C1  UNL     1      66.552   8.046 -26.032  1.00  0.00     0.065 C 
HETATM    4  F1  UNL     1      64.518   8.979 -26.453  1.00  0.00    -0.230 F 
BRANCH   2   5
HETATM    5  C9  UNL     1      64.354   6.977 -25.416  1.00  0.00     0.339 C 
HETATM    6  F6  UNL     1      63.017   7.286 -25.508  1.00  0.00    -0.197 F 
HETATM    7  F7  UNL     1      64.629   6.095 -24.432  1.00  0.00    -0.197 F 
BRANCH   5   8
HETATM    8  C10 UNL     1      64.612   6.154 -26.712  1.00  0.00     0.440 C 
HETATM    9  F8  UNL     1      65.143   4.936 -26.455  1.00  0.00    -0.213 F 
BRANCH   8  10
HETATM   10  N2  UNL     1      63.492   6.199 -27.586  1.00  0.00    -0.042 N 
ATOM     11  H23 UNL     1      63.341   5.301 -28.046  1.00  0.00     0.278 HD
ATOM     12  H22 UNL     1      62.616   6.260 -27.067  1.00  0.00     0.278 HD
ATOM     13  H21 UNL     1      63.580   6.957 -28.263  1.00  0.00     0.278 HD
ENDBRANCH   8  10
ENDBRANCH   5   8
ENDBRANCH   2   5
ENDBRANCH   1   2
BRANCH   1  14
HETATM   14  N1  UNL     1      64.688  10.415 -24.339  1.00  0.00    -0.358 N 
ATOM     15  H1  UNL     1      65.308  11.064 -24.824  1.00  0.00     0.162 HD
BRANCH  14  16
HETATM   16  C4  UNL     1      63.497  10.927 -23.867  1.00  0.00     0.294 C 
BRANCH  16  17
HETATM   17  O1  UNL     1      62.465  10.138 -24.492  1.00  0.00    -0.369 OA
ATOM     18  H1  UNL     1      62.850   9.808 -25.295  1.00  0.00     0.212 HD
ENDBRANCH  16  17
BRANCH  16  19
HETATM   19  C5  UNL     1      63.147  12.331 -24.234  1.00  0.00     0.239 C 
HETATM   20  O2  UNL     1      63.687  12.858 -25.159  1.00  0.00    -0.288 OA
BRANCH  19  21
HETATM   21  C6  UNL     1      62.112  13.069 -23.433  1.00  0.00     0.339 C 
HETATM   22  F2  UNL     1      62.127  12.513 -22.170  1.00  0.00    -0.207 F 
HETATM   23 CL1  UNL     1      62.543  14.787 -23.256  1.00  0.00    -0.065 Cl
BRANCH  21  24
HETATM   24  C7  UNL     1      60.754  13.001 -24.050  1.00  0.00     0.445 C 
HETATM   25  F3  UNL     1      60.098  14.215 -24.026  1.00  0.00    -0.166 F 
HETATM   26  F4  UNL     1      60.003  12.127 -23.269  1.00  0.00    -0.166 F 
HETATM   27  F5  UNL     1      60.738  12.551 -25.337  1.00  0.00    -0.166 F 
ENDBRANCH  21  24
ENDBRANCH  19  21
ENDBRANCH  16  19
ENDBRANCH  14  16
ENDBRANCH   1  14
BRANCH   1  28
HETATM   28  C8  UNL     1      66.300   9.098 -23.284  1.00  0.00     0.230 C 
HETATM   29 CL2  UNL     1      67.023   7.610 -22.791  1.00  0.00    -0.077 Cl
HETATM   30 CL3  UNL     1      65.750   9.864 -21.736  1.00  0.00    -0.077 Cl
HETATM   31 CL4  UNL     1      67.594  10.179 -23.870  1.00  0.00    -0.077 Cl
ENDBRANCH   1  28
TORSDOF 11
ENDMDL
