MODEL 1
REMARK VINA RESULT: -7.587705443      0.000      0.000
REMARK  8 active torsions:
REMARK  status: ('A' for Active; 'I' for Inactive)
REMARK    1  A    between atoms: C2_2  and  N1_3 
REMARK    2  A    between atoms: N1_3  and  C3_5 
REMARK    3  A    between atoms: C4_8  and  N3_9 
REMARK    4  A    between atoms: N5_15  and  C6_17 
REMARK    5  A    between atoms: C6_17  and  C7_18 
REMARK    6  A    between atoms: C7_18  and  C8_19 
REMARK    7  A    between atoms: C8_19  and  C9_20 
REMARK    8  A    between atoms: C9_20  and  N6_21 
ROOT
HETATM    1  C3  UNL     1     -86.149 -47.810 110.054  1.00  0.00     0.707 A 
HETATM    2  N2  UNL     1     -85.871 -48.072 108.764  1.00  0.00    -0.022 N 
ATOM      3  H2  UNL     1     -86.632 -48.343 108.140  1.00  0.00     0.203 HD
HETATM    4  C4  UNL     1     -84.621 -47.990 108.270  1.00  0.00     0.705 A 
HETATM    5  N4  UNL     1     -83.597 -47.638 109.059  1.00  0.00    -0.022 N 
ATOM      6  H4  UNL     1     -82.650 -47.576 108.685  1.00  0.00     0.203 HD
HETATM    7  C5  UNL     1     -83.838 -47.370 110.351  1.00  0.00     0.707 A 
HETATM    8  N5  UNL     1     -82.957 -47.025 111.211  1.00  0.00    -0.225 N 
ATOM      9  H5  UNL     1     -83.317 -46.860 112.151  1.00  0.00     0.177 HD
HETATM   10  N9  UNL     1     -85.118 -47.461 110.834  1.00  0.00    -0.022 N 
ATOM     11  H9  UNL     1     -85.291 -47.256 111.818  1.00  0.00     0.203 HD
ENDROOT
BRANCH   8  12
HETATM   12  C6  UNL     1     -81.564 -46.836 111.069  1.00  0.00     0.138 C 
BRANCH  12  13
HETATM   13  C7  UNL     1     -81.065 -45.445 110.961  1.00  0.00     0.022 C 
BRANCH  13  14
HETATM   14  C8  UNL     1     -81.710 -44.686 109.831  1.00  0.00     0.021 C 
BRANCH  14  15
HETATM   15  C9  UNL     1     -80.872 -43.548 109.377  1.00  0.00     0.122 C 
BRANCH  15  16
HETATM   16  N6  UNL     1     -80.031 -43.933 108.250  1.00  0.00    -0.367 N 
HETATM   17  C10 UNL     1     -78.760 -43.980 108.310  1.00  0.00     0.196 C 
HETATM   18  N7  UNL     1     -78.024 -44.367 107.164  1.00  0.00    -0.067 NA
HETATM   19  N8  UNL     1     -78.065 -43.657 109.496  1.00  0.00    -0.067 NA
ATOM     20  H6  UNL     1     -80.484 -44.176 107.370  1.00  0.00     0.161 HD
ENDBRANCH  15  16
ENDBRANCH  14  15
ENDBRANCH  13  14
ENDBRANCH  12  13
ENDBRANCH   8  12
BRANCH   4  21
HETATM   21  N3  UNL     1     -84.394 -48.253 107.006  1.00  0.00    -0.234 N 
ATOM     22  H32 UNL     1     -84.137 -47.494 106.376  1.00  0.00     0.174 HD
ATOM     23  H31 UNL     1     -84.477 -49.209 106.660  1.00  0.00     0.174 HD
ENDBRANCH   4  21
BRANCH   1  24
HETATM   24  N1  UNL     1     -87.362 -47.904 110.476  1.00  0.00    -0.225 N 
ATOM     25  H1  UNL     1     -88.055 -47.248 110.116  1.00  0.00     0.177 HD
BRANCH  24  26
HETATM   26  C2  UNL     1     -87.787 -48.900 111.438  1.00  0.00     0.133 C 
HETATM   27  C1  UNL     1     -87.468 -50.292 111.010  1.00  0.00     0.027 C 
ENDBRANCH  24  26
ENDBRANCH   1  24
TORSDOF 8
ENDMDL
MODEL 2
REMARK VINA RESULT: -7.202849946      1.349      2.246
REMARK  8 active torsions:
REMARK  status: ('A' for Active; 'I' for Inactive)
REMARK    1  A    between atoms: C2_2  and  N1_3 
REMARK    2  A    between atoms: N1_3  and  C3_5 
REMARK    3  A    between atoms: C4_8  and  N3_9 
REMARK    4  A    between atoms: N5_15  and  C6_17 
REMARK    5  A    between atoms: C6_17  and  C7_18 
REMARK    6  A    between atoms: C7_18  and  C8_19 
REMARK    7  A    between atoms: C8_19  and  C9_20 
REMARK    8  A    between atoms: C9_20  and  N6_21 
ROOT
HETATM    1  C3  UNL     1     -85.634 -47.964 110.882  1.00  0.00     0.707 A 
HETATM    2  N2  UNL     1     -85.186 -48.559 112.003  1.00  0.00    -0.022 N 
ATOM      3  H2  UNL     1     -85.838 -49.106 112.567  1.00  0.00     0.203 HD
HETATM    4  C4  UNL     1     -83.904 -48.455 112.405  1.00  0.00     0.705 A 
HETATM    5  N4  UNL     1     -83.020 -47.746 111.691  1.00  0.00    -0.022 N 
ATOM      6  H4  UNL     1     -82.050 -47.669 111.996  1.00  0.00     0.203 HD
HETATM    7  C5  UNL     1     -83.433 -47.140 110.568  1.00  0.00     0.707 A 
HETATM    8  N5  UNL     1     -82.697 -46.434 109.797  1.00  0.00    -0.225 N 
ATOM      9  H5  UNL     1     -83.177 -46.046 108.984  1.00  0.00     0.177 HD
HETATM   10  N9  UNL     1     -84.742 -47.257 110.177  1.00  0.00    -0.022 N 
ATOM     11  H9  UNL     1     -85.046 -46.791 109.322  1.00  0.00     0.203 HD
ENDROOT
BRANCH   8  12
HETATM   12  C6  UNL     1     -81.326 -46.106 109.887  1.00  0.00     0.138 C 
BRANCH  12  13
HETATM   13  C7  UNL     1     -80.970 -44.790 110.468  1.00  0.00     0.022 C 
BRANCH  13  14
HETATM   14  C8  UNL     1     -81.631 -43.644 109.750  1.00  0.00     0.021 C 
BRANCH  14  15
HETATM   15  C9  UNL     1     -80.640 -42.744 109.108  1.00  0.00     0.122 C 
BRANCH  15  16
HETATM   16  N6  UNL     1     -79.873 -43.452 108.090  1.00  0.00    -0.367 N 
HETATM   17  C10 UNL     1     -78.667 -43.826 108.256  1.00  0.00     0.196 C 
HETATM   18  N7  UNL     1     -78.000 -44.509 107.211  1.00  0.00    -0.067 NA
HETATM   19  N8  UNL     1     -77.977 -43.574 109.462  1.00  0.00    -0.067 NA
ATOM     20  H6  UNL     1     -80.325 -43.659 107.200  1.00  0.00     0.161 HD
ENDBRANCH  15  16
ENDBRANCH  14  15
ENDBRANCH  13  14
ENDBRANCH  12  13
ENDBRANCH   8  12
BRANCH   4  21
HETATM   21  N3  UNL     1     -83.510 -49.052 113.504  1.00  0.00    -0.234 N 
ATOM     22  H32 UNL     1     -84.122 -49.051 114.319  1.00  0.00     0.174 HD
ATOM     23  H31 UNL     1     -82.599 -49.511 113.538  1.00  0.00     0.174 HD
ENDBRANCH   4  21
BRANCH   1  24
HETATM   24  N1  UNL     1     -86.869 -48.094 110.543  1.00  0.00    -0.225 N 
ATOM     25  H1  UNL     1     -87.235 -47.500 109.800  1.00  0.00     0.177 HD
BRANCH  24  26
HETATM   26  C2  UNL     1     -87.762 -49.047 111.170  1.00  0.00     0.133 C 
HETATM   27  C1  UNL     1     -88.833 -48.394 111.975  1.00  0.00     0.027 C 
ENDBRANCH  24  26
ENDBRANCH   1  24
TORSDOF 8
ENDMDL
MODEL 3
REMARK VINA RESULT: -6.983229343      1.939      7.436
REMARK  8 active torsions:
REMARK  status: ('A' for Active; 'I' for Inactive)
REMARK    1  A    between atoms: C2_2  and  N1_3 
REMARK    2  A    between atoms: N1_3  and  C3_5 
REMARK    3  A    between atoms: C4_8  and  N3_9 
REMARK    4  A    between atoms: N5_15  and  C6_17 
REMARK    5  A    between atoms: C6_17  and  C7_18 
REMARK    6  A    between atoms: C7_18  and  C8_19 
REMARK    7  A    between atoms: C8_19  and  C9_20 
REMARK    8  A    between atoms: C9_20  and  N6_21 
ROOT
HETATM    1  C3  UNL     1     -81.046 -42.483 108.567  1.00  0.00     0.707 A 
HETATM    2  N2  UNL     1     -79.756 -42.782 108.325  1.00  0.00    -0.022 N 
ATOM      3  H2  UNL     1     -79.223 -42.189 107.688  1.00  0.00     0.203 HD
HETATM    4  C4  UNL     1     -79.148 -43.839 108.897  1.00  0.00     0.705 A 
HETATM    5  N4  UNL     1     -79.816 -44.640 109.738  1.00  0.00    -0.022 N 
ATOM      6  H4  UNL     1     -79.354 -45.440 110.170  1.00  0.00     0.203 HD
HETATM    7  C5  UNL     1     -81.103 -44.371 110.001  1.00  0.00     0.707 A 
HETATM    8  N5  UNL     1     -81.855 -45.050 110.780  1.00  0.00    -0.225 N 
ATOM      9  H5  UNL     1     -82.810 -44.703 110.864  1.00  0.00     0.177 HD
HETATM   10  N9  UNL     1     -81.704 -43.290 109.408  1.00  0.00    -0.022 N 
ATOM     11  H9  UNL     1     -82.684 -43.095 109.614  1.00  0.00     0.203 HD
ENDROOT
BRANCH   8  12
HETATM   12  C6  UNL     1     -81.576 -46.206 111.545  1.00  0.00     0.138 C 
BRANCH  12  13
HETATM   13  C7  UNL     1     -82.443 -47.390 111.344  1.00  0.00     0.022 C 
BRANCH  13  14
HETATM   14  C8  UNL     1     -82.488 -47.837 109.908  1.00  0.00     0.021 C 
BRANCH  14  15
HETATM   15  C9  UNL     1     -83.828 -47.626 109.302  1.00  0.00     0.122 C 
BRANCH  15  16
HETATM   16  N6  UNL     1     -84.860 -47.551 110.328  1.00  0.00    -0.367 N 
HETATM   17  C10 UNL     1     -86.005 -48.097 110.211  1.00  0.00     0.196 C 
HETATM   18  N7  UNL     1     -86.946 -47.971 111.261  1.00  0.00    -0.067 NA
HETATM   19  N8  UNL     1     -86.358 -48.827 109.055  1.00  0.00    -0.067 NA
ATOM     20  H6  UNL     1     -84.656 -47.034 111.183  1.00  0.00     0.161 HD
ENDBRANCH  15  16
ENDBRANCH  14  15
ENDBRANCH  13  14
ENDBRANCH  12  13
ENDBRANCH   8  12
BRANCH   4  21
HETATM   21  N3  UNL     1     -77.888 -44.094 108.634  1.00  0.00    -0.234 N 
ATOM     22  H32 UNL     1     -77.658 -44.751 107.889  1.00  0.00     0.174 HD
ATOM     23  H31 UNL     1     -77.151 -43.638 109.171  1.00  0.00     0.174 HD
ENDBRANCH   4  21
BRANCH   1  24
HETATM   24  N1  UNL     1     -81.580 -41.461 107.994  1.00  0.00    -0.225 N 
ATOM     25  H1  UNL     1     -82.336 -41.617 107.327  1.00  0.00     0.177 HD
BRANCH  24  26
HETATM   26  C2  UNL     1     -81.156 -40.101 108.255  1.00  0.00     0.133 C 
HETATM   27  C1  UNL     1     -81.960 -39.091 107.509  1.00  0.00     0.027 C 
ENDBRANCH  24  26
ENDBRANCH   1  24
TORSDOF 8
ENDMDL
MODEL 4
REMARK VINA RESULT: -6.939095670      2.280      3.102
REMARK  8 active torsions:
REMARK  status: ('A' for Active; 'I' for Inactive)
REMARK    1  A    between atoms: C2_2  and  N1_3 
REMARK    2  A    between atoms: N1_3  and  C3_5 
REMARK    3  A    between atoms: C4_8  and  N3_9 
REMARK    4  A    between atoms: N5_15  and  C6_17 
REMARK    5  A    between atoms: C6_17  and  C7_18 
REMARK    6  A    between atoms: C7_18  and  C8_19 
REMARK    7  A    between atoms: C8_19  and  C9_20 
REMARK    8  A    between atoms: C9_20  and  N6_21 
ROOT
HETATM    1  C3  UNL     1     -84.140 -48.650 112.730  1.00  0.00     0.707 A 
HETATM    2  N2  UNL     1     -85.300 -48.616 112.047  1.00  0.00    -0.022 N 
ATOM      3  H2  UNL     1     -86.081 -49.185 112.373  1.00  0.00     0.203 HD
HETATM    4  C4  UNL     1     -85.461 -47.855 110.948  1.00  0.00     0.705 A 
HETATM    5  N4  UNL     1     -84.457 -47.094 110.490  1.00  0.00    -0.022 N 
ATOM      6  H4  UNL     1     -84.580 -46.518 109.658  1.00  0.00     0.203 HD
HETATM    7  C5  UNL     1     -83.287 -47.105 111.145  1.00  0.00     0.707 A 
HETATM    8  N5  UNL     1     -82.252 -46.430 110.818  1.00  0.00    -0.225 N 
ATOM      9  H5  UNL     1     -81.446 -46.559 111.430  1.00  0.00     0.177 HD
HETATM   10  N9  UNL     1     -83.143 -47.887 112.262  1.00  0.00    -0.022 N 
ATOM     11  H9  UNL     1     -82.249 -47.888 112.753  1.00  0.00     0.203 HD
ENDROOT
BRANCH   8  12
HETATM   12  C6  UNL     1     -82.043 -45.535 109.745  1.00  0.00     0.138 C 
BRANCH  12  13
HETATM   13  C7  UNL     1     -82.538 -44.147 109.900  1.00  0.00     0.022 C 
BRANCH  13  14
HETATM   14  C8  UNL     1     -81.432 -43.128 109.833  1.00  0.00     0.021 C 
BRANCH  14  15
HETATM   15  C9  UNL     1     -80.593 -43.297 108.620  1.00  0.00     0.122 C 
BRANCH  15  16
HETATM   16  N6  UNL     1     -79.239 -43.704 108.972  1.00  0.00    -0.367 N 
HETATM   17  C10 UNL     1     -78.664 -44.727 108.478  1.00  0.00     0.196 C 
HETATM   18  N7  UNL     1     -77.344 -45.046 108.879  1.00  0.00    -0.067 NA
HETATM   19  N8  UNL     1     -79.314 -45.554 107.535  1.00  0.00    -0.067 NA
ATOM     20  H6  UNL     1     -78.725 -43.141 109.650  1.00  0.00     0.161 HD
ENDBRANCH  15  16
ENDBRANCH  14  15
ENDBRANCH  13  14
ENDBRANCH  12  13
ENDBRANCH   8  12
BRANCH   4  21
HETATM   21  N3  UNL     1     -86.609 -47.851 110.314  1.00  0.00    -0.234 N 
ATOM     22  H32 UNL     1     -86.720 -48.429 109.481  1.00  0.00     0.174 HD
ATOM     23  H31 UNL     1     -87.378 -47.274 110.653  1.00  0.00     0.174 HD
ENDBRANCH   4  21
BRANCH   1  24
HETATM   24  N1  UNL     1     -84.038 -49.395 113.774  1.00  0.00    -0.225 N 
ATOM     25  H1  UNL     1     -84.890 -49.662 114.267  1.00  0.00     0.177 HD
BRANCH  24  26
HETATM   26  C2  UNL     1     -82.768 -49.872 114.281  1.00  0.00     0.133 C 
HETATM   27  C1  UNL     1     -82.918 -50.954 115.296  1.00  0.00     0.027 C 
ENDBRANCH  24  26
ENDBRANCH   1  24
TORSDOF 8
ENDMDL
MODEL 5
REMARK VINA RESULT: -6.562283992      2.145      3.220
REMARK  8 active torsions:
REMARK  status: ('A' for Active; 'I' for Inactive)
REMARK    1  A    between atoms: C2_2  and  N1_3 
REMARK    2  A    between atoms: N1_3  and  C3_5 
REMARK    3  A    between atoms: C4_8  and  N3_9 
REMARK    4  A    between atoms: N5_15  and  C6_17 
REMARK    5  A    between atoms: C6_17  and  C7_18 
REMARK    6  A    between atoms: C7_18  and  C8_19 
REMARK    7  A    between atoms: C8_19  and  C9_20 
REMARK    8  A    between atoms: C9_20  and  N6_21 
ROOT
HETATM    1  C3  UNL     1     -84.842 -47.490 110.662  1.00  0.00     0.707 A 
HETATM    2  N2  UNL     1     -84.317 -48.224 111.661  1.00  0.00    -0.022 N 
ATOM      3  H2  UNL     1     -84.917 -48.882 112.159  1.00  0.00     0.203 HD
HETATM    4  C4  UNL     1     -83.024 -48.116 112.024  1.00  0.00     0.705 A 
HETATM    5  N4  UNL     1     -82.206 -47.263 111.394  1.00  0.00    -0.022 N 
ATOM      6  H4  UNL     1     -81.227 -47.182 111.669  1.00  0.00     0.203 HD
HETATM    7  C5  UNL     1     -82.697 -46.516 110.394  1.00  0.00     0.707 A 
HETATM    8  N5  UNL     1     -82.029 -45.665 109.712  1.00  0.00    -0.225 N 
ATOM      9  H5  UNL     1     -82.563 -45.184 108.987  1.00  0.00     0.177 HD
HETATM   10  N9  UNL     1     -84.016 -46.640 110.040  1.00  0.00    -0.022 N 
ATOM     11  H9  UNL     1     -84.379 -46.066 109.278  1.00  0.00     0.203 HD
ENDROOT
BRANCH   8  12
HETATM   12  C6  UNL     1     -80.672 -45.284 109.799  1.00  0.00     0.138 C 
BRANCH  12  13
HETATM   13  C7  UNL     1     -79.927 -45.096 108.532  1.00  0.00     0.022 C 
BRANCH  13  14
HETATM   14  C8  UNL     1     -79.720 -43.644 108.193  1.00  0.00     0.021 C 
BRANCH  14  15
HETATM   15  C9  UNL     1     -80.582 -42.754 109.010  1.00  0.00     0.122 C 
BRANCH  15  16
HETATM   16  N6  UNL     1     -81.397 -41.892 108.164  1.00  0.00    -0.367 N 
HETATM   17  C10 UNL     1     -81.386 -40.621 108.241  1.00  0.00     0.196 C 
HETATM   18  N7  UNL     1     -82.212 -39.864 107.376  1.00  0.00    -0.067 NA
HETATM   19  N8  UNL     1     -80.565 -39.947 109.172  1.00  0.00    -0.067 NA
ATOM     20  H6  UNL     1     -82.008 -42.329 107.474  1.00  0.00     0.161 HD
ENDBRANCH  15  16
ENDBRANCH  14  15
ENDBRANCH  13  14
ENDBRANCH  12  13
ENDBRANCH   8  12
BRANCH   4  21
HETATM   21  N3  UNL     1     -82.553 -48.851 113.003  1.00  0.00    -0.234 N 
ATOM     22  H32 UNL     1     -82.361 -49.839 112.837  1.00  0.00     0.174 HD
ATOM     23  H31 UNL     1     -82.384 -48.435 113.919  1.00  0.00     0.174 HD
ENDBRANCH   4  21
BRANCH   1  24
HETATM   24  N1  UNL     1     -86.084 -47.631 110.355  1.00  0.00    -0.225 N 
ATOM     25  H1  UNL     1     -86.520 -46.931 109.755  1.00  0.00     0.177 HD
BRANCH  24  26
HETATM   26  C2  UNL     1     -86.890 -48.740 110.822  1.00  0.00     0.133 C 
HETATM   27  C1  UNL     1     -88.104 -48.300 111.568  1.00  0.00     0.027 C 
ENDBRANCH  24  26
ENDBRANCH   1  24
TORSDOF 8
ENDMDL
