MODEL 1
REMARK VINA RESULT: -8.815867468      0.000      0.000
REMARK  5 active torsions:
REMARK  status: ('A' for Active; 'I' for Inactive)
REMARK    1  A    between atoms: C2_2  and  C3_3 
REMARK    2  A    between atoms: C3_3  and  S1_4 
REMARK    3  A    between atoms: S1_4  and  O1_5 
REMARK    4  A    between atoms: O1_5  and  C4_6 
REMARK    5  A    between atoms: C4_6  and  C5_7 
ROOT
HETATM    1  S1  UNL     1      22.510  46.400  60.014  1.00  0.00     0.048 SA
HETATM    2  O2  UNL     1      23.614  44.644  59.811  1.00  0.00    -0.271 OA
HETATM    3  C9  UNL     1      24.334  44.781  60.982  1.00  0.00     0.181 C 
HETATM    4  C10 UNL     1      24.713  43.338  61.367  1.00  0.00     0.080 C 
HETATM    5  C11 UNL     1      25.654  45.487  60.773  1.00  0.00     0.098 C 
HETATM    6  C12 UNL     1      26.166  45.902  62.146  1.00  0.00     0.215 C 
HETATM    7  O3  UNL     1      25.408  46.961  62.671  1.00  0.00    -0.237 OA
HETATM    8  O4  UNL     1      24.563  47.312  61.740  1.00  0.00    -0.186 OA
HETATM    9  C13 UNL     1      23.403  46.631  61.853  1.00  0.00     0.276 C 
HETATM   10  C14 UNL     1      22.407  47.179  62.803  1.00  0.00     0.099 C 
HETATM   11  O5  UNL     1      23.584  45.244  62.008  1.00  0.00    -0.305 OA
ENDROOT
BRANCH   1  12
HETATM   12  C3  UNL     1      22.562  47.553  58.580  1.00  0.00     0.056 C 
BRANCH  12  13
HETATM   13  C2  UNL     1      22.812  47.083  57.180  1.00  0.00     0.032 C 
HETATM   14  C1  UNL     1      22.114  45.809  56.798  1.00  0.00     0.010 C 
ENDBRANCH  12  13
ENDBRANCH   1  12
BRANCH   1  15
HETATM   15  O1  UNL     1      20.667  45.586  60.343  1.00  0.00    -0.309 OA
BRANCH  15  16
HETATM   16  C4  UNL     1      19.833  46.622  59.915  1.00  0.00     0.195 C 
BRANCH  16  17
HETATM   17  C5  UNL     1      18.625  46.632  60.805  1.00  0.00    -0.021 A 
HETATM   18  C6  UNL     1      18.862  46.181  62.236  1.00  0.00     0.017 C 
HETATM   19  C7  UNL     1      17.268  46.350  60.268  1.00  0.00     0.012 A 
HETATM   20  C8  UNL     1      17.660  47.753  60.551  1.00  0.00     0.012 A 
ENDBRANCH  16  17
ENDBRANCH  15  16
ENDBRANCH   1  15
TORSDOF 5
ENDMDL
MODEL 2
REMARK VINA RESULT: -8.537537239      1.963      5.171
REMARK  5 active torsions:
REMARK  status: ('A' for Active; 'I' for Inactive)
REMARK    1  A    between atoms: C2_2  and  C3_3 
REMARK    2  A    between atoms: C3_3  and  S1_4 
REMARK    3  A    between atoms: S1_4  and  O1_5 
REMARK    4  A    between atoms: O1_5  and  C4_6 
REMARK    5  A    between atoms: C4_6  and  C5_7 
ROOT
HETATM    1  S1  UNL     1      22.523  45.338  59.618  1.00  0.00     0.048 SA
HETATM    2  O2  UNL     1      23.250  46.909  60.779  1.00  0.00    -0.271 OA
HETATM    3  C9  UNL     1      22.566  46.574  61.932  1.00  0.00     0.181 C 
HETATM    4  C10 UNL     1      23.422  47.170  63.068  1.00  0.00     0.080 C 
HETATM    5  C11 UNL     1      21.233  47.276  62.041  1.00  0.00     0.098 C 
HETATM    6  C12 UNL     1      20.434  46.563  63.125  1.00  0.00     0.215 C 
HETATM    7  O3  UNL     1      20.006  45.299  62.689  1.00  0.00    -0.237 OA
HETATM    8  O4  UNL     1      20.355  45.198  61.435  1.00  0.00    -0.186 OA
HETATM    9  C13 UNL     1      21.583  44.651  61.314  1.00  0.00     0.276 C 
HETATM   10  C14 UNL     1      21.651  43.172  61.333  1.00  0.00     0.099 C 
HETATM   11  O5  UNL     1      22.542  45.241  62.159  1.00  0.00    -0.305 OA
ENDROOT
BRANCH   1  12
HETATM   12  C3  UNL     1      21.756  45.812  58.013  1.00  0.00     0.056 C 
BRANCH  12  13
HETATM   13  C2  UNL     1      22.466  46.658  57.002  1.00  0.00     0.032 C 
HETATM   14  C1  UNL     1      22.649  48.099  57.388  1.00  0.00     0.010 C 
ENDBRANCH  12  13
ENDBRANCH   1  12
BRANCH   1  15
HETATM   15  O1  UNL     1      24.248  44.264  59.415  1.00  0.00    -0.309 OA
BRANCH  15  16
HETATM   16  C4  UNL     1      25.208  45.233  59.719  1.00  0.00     0.195 C 
BRANCH  16  17
HETATM   17  C5  UNL     1      26.002  44.736  60.892  1.00  0.00    -0.021 A 
HETATM   18  C6  UNL     1      25.626  43.355  61.399  1.00  0.00     0.017 C 
HETATM   19  C7  UNL     1      26.519  45.671  61.925  1.00  0.00     0.012 A 
HETATM   20  C8  UNL     1      27.447  45.140  60.895  1.00  0.00     0.012 A 
ENDBRANCH  16  17
ENDBRANCH  15  16
ENDBRANCH   1  15
TORSDOF 5
ENDMDL
MODEL 3
REMARK VINA RESULT: -8.520387643      1.978      4.017
REMARK  5 active torsions:
REMARK  status: ('A' for Active; 'I' for Inactive)
REMARK    1  A    between atoms: C2_2  and  C3_3 
REMARK    2  A    between atoms: C3_3  and  S1_4 
REMARK    3  A    between atoms: S1_4  and  O1_5 
REMARK    4  A    between atoms: O1_5  and  C4_6 
REMARK    5  A    between atoms: C4_6  and  C5_7 
ROOT
HETATM    1  S1  UNL     1      22.807  46.185  59.887  1.00  0.00     0.048 SA
HETATM    2  O2  UNL     1      22.406  47.234  58.132  1.00  0.00    -0.271 OA
HETATM    3  C9  UNL     1      23.113  46.399  57.290  1.00  0.00     0.181 C 
HETATM    4  C10 UNL     1      22.439  46.583  55.916  1.00  0.00     0.080 C 
HETATM    5  C11 UNL     1      24.541  46.852  57.087  1.00  0.00     0.098 C 
HETATM    6  C12 UNL     1      25.301  45.686  56.468  1.00  0.00     0.215 C 
HETATM    7  O3  UNL     1      25.506  44.661  57.405  1.00  0.00    -0.237 OA
HETATM    8  O4  UNL     1      25.056  45.103  58.547  1.00  0.00    -0.186 OA
HETATM    9  C13 UNL     1      23.755  44.785  58.716  1.00  0.00     0.276 C 
HETATM   10  C14 UNL     1      23.471  43.436  59.257  1.00  0.00     0.099 C 
HETATM   11  O5  UNL     1      22.957  45.091  57.597  1.00  0.00    -0.305 OA
ENDROOT
BRANCH   1  12
HETATM   12  C3  UNL     1      23.518  47.171  61.270  1.00  0.00     0.056 C 
BRANCH  12  13
HETATM   13  C2  UNL     1      24.677  46.690  62.087  1.00  0.00     0.032 C 
HETATM   14  C1  UNL     1      25.176  47.657  63.122  1.00  0.00     0.010 C 
ENDBRANCH  12  13
ENDBRANCH   1  12
BRANCH   1  15
HETATM   15  O1  UNL     1      20.933  45.471  60.271  1.00  0.00    -0.309 OA
BRANCH  15  16
HETATM   16  C4  UNL     1      20.145  46.559  59.885  1.00  0.00     0.195 C 
BRANCH  16  17
HETATM   17  C5  UNL     1      18.962  46.616  60.808  1.00  0.00    -0.021 A 
HETATM   18  C6  UNL     1      19.251  46.293  62.263  1.00  0.00     0.017 C 
HETATM   19  C7  UNL     1      17.599  46.256  60.338  1.00  0.00     0.012 A 
HETATM   20  C8  UNL     1      17.961  47.687  60.489  1.00  0.00     0.012 A 
ENDBRANCH  16  17
ENDBRANCH  15  16
ENDBRANCH   1  15
TORSDOF 5
ENDMDL
MODEL 4
REMARK VINA RESULT: -8.414722973      1.911      3.226
REMARK  5 active torsions:
REMARK  status: ('A' for Active; 'I' for Inactive)
REMARK    1  A    between atoms: C2_2  and  C3_3 
REMARK    2  A    between atoms: C3_3  and  S1_4 
REMARK    3  A    between atoms: S1_4  and  O1_5 
REMARK    4  A    between atoms: O1_5  and  C4_6 
REMARK    5  A    between atoms: C4_6  and  C5_7 
ROOT
HETATM    1  S1  UNL     1      22.633  45.606  60.864  1.00  0.00     0.048 SA
HETATM    2  O2  UNL     1      22.694  45.384  58.793  1.00  0.00    -0.271 OA
HETATM    3  C9  UNL     1      23.481  44.248  58.785  1.00  0.00     0.181 C 
HETATM    4  C10 UNL     1      23.121  43.544  57.462  1.00  0.00     0.080 C 
HETATM    5  C11 UNL     1      24.955  44.562  58.670  1.00  0.00     0.098 C 
HETATM    6  C12 UNL     1      25.717  43.297  59.042  1.00  0.00     0.215 C 
HETATM    7  O3  UNL     1      25.633  43.042  60.420  1.00  0.00    -0.237 OA
HETATM    8  O4  UNL     1      25.001  44.054  60.949  1.00  0.00    -0.186 OA
HETATM    9  C13 UNL     1      23.670  43.833  60.986  1.00  0.00     0.276 C 
HETATM   10  C14 UNL     1      23.162  43.060  62.141  1.00  0.00     0.099 C 
HETATM   11  O5  UNL     1      23.148  43.374  59.762  1.00  0.00    -0.305 OA
ENDROOT
BRANCH   1  12
HETATM   12  C3  UNL     1      23.133  47.255  61.512  1.00  0.00     0.056 C 
BRANCH  12  13
HETATM   13  C2  UNL     1      23.877  47.420  62.801  1.00  0.00     0.032 C 
HETATM   14  C1  UNL     1      25.345  47.103  62.738  1.00  0.00     0.010 C 
ENDBRANCH  12  13
ENDBRANCH   1  12
BRANCH   1  15
HETATM   15  O1  UNL     1      20.664  45.167  61.177  1.00  0.00    -0.309 OA
BRANCH  15  16
HETATM   16  C4  UNL     1      20.041  46.158  60.412  1.00  0.00     0.195 C 
BRANCH  16  17
HETATM   17  C5  UNL     1      18.714  46.457  61.047  1.00  0.00    -0.021 A 
HETATM   18  C6  UNL     1      18.633  46.207  62.542  1.00  0.00     0.017 C 
HETATM   19  C7  UNL     1      17.442  46.267  60.302  1.00  0.00     0.012 A 
HETATM   20  C8  UNL     1      17.988  47.637  60.470  1.00  0.00     0.012 A 
ENDBRANCH  16  17
ENDBRANCH  15  16
ENDBRANCH   1  15
TORSDOF 5
ENDMDL
MODEL 5
REMARK VINA RESULT: -8.279694119      1.297      1.470
REMARK  5 active torsions:
REMARK  status: ('A' for Active; 'I' for Inactive)
REMARK    1  A    between atoms: C2_2  and  C3_3 
REMARK    2  A    between atoms: C3_3  and  S1_4 
REMARK    3  A    between atoms: S1_4  and  O1_5 
REMARK    4  A    between atoms: O1_5  and  C4_6 
REMARK    5  A    between atoms: C4_6  and  C5_7 
ROOT
HETATM    1  S1  UNL     1      22.554  46.265  59.949  1.00  0.00     0.048 SA
HETATM    2  O2  UNL     1      22.225  44.247  60.350  1.00  0.00    -0.271 OA
HETATM    3  C9  UNL     1      23.300  44.083  61.201  1.00  0.00     0.181 C 
HETATM    4  C10 UNL     1      22.893  42.906  62.109  1.00  0.00     0.080 C 
HETATM    5  C11 UNL     1      24.543  43.609  60.484  1.00  0.00     0.098 C 
HETATM    6  C12 UNL     1      25.719  43.824  61.427  1.00  0.00     0.215 C 
HETATM    7  O3  UNL     1      26.022  45.189  61.556  1.00  0.00    -0.237 OA
HETATM    8  O4  UNL     1      25.242  45.825  60.725  1.00  0.00    -0.186 OA
HETATM    9  C13 UNL     1      24.086  46.185  61.320  1.00  0.00     0.276 C 
HETATM   10  C14 UNL     1      24.107  47.451  62.088  1.00  0.00     0.099 C 
HETATM   11  O5  UNL     1      23.475  45.136  62.032  1.00  0.00    -0.305 OA
ENDROOT
BRANCH   1  12
HETATM   12  C3  UNL     1      22.652  46.726  58.169  1.00  0.00     0.056 C 
BRANCH  12  13
HETATM   13  C2  UNL     1      22.513  48.140  57.697  1.00  0.00     0.032 C 
HETATM   14  C1  UNL     1      22.873  48.372  56.257  1.00  0.00     0.010 C 
ENDBRANCH  12  13
ENDBRANCH   1  12
BRANCH   1  15
HETATM   15  O1  UNL     1      20.934  47.053  60.909  1.00  0.00    -0.309 OA
BRANCH  15  16
HETATM   16  C4  UNL     1      19.896  46.651  60.064  1.00  0.00     0.195 C 
BRANCH  16  17
HETATM   17  C5  UNL     1      18.634  46.614  60.877  1.00  0.00    -0.021 A 
HETATM   18  C6  UNL     1      18.798  46.172  62.320  1.00  0.00     0.017 C 
HETATM   19  C7  UNL     1      17.326  46.280  60.256  1.00  0.00     0.012 A 
HETATM   20  C8  UNL     1      17.646  47.698  60.560  1.00  0.00     0.012 A 
ENDBRANCH  16  17
ENDBRANCH  15  16
ENDBRANCH   1  15
TORSDOF 5
ENDMDL
