MODEL 1
REMARK VINA RESULT: -7.994056912      0.000      0.000
REMARK  6 active torsions:
REMARK  status: ('A' for Active; 'I' for Inactive)
REMARK    1  A    between atoms: C2_2  and  N1_4 
REMARK    2  A    between atoms: N1_4  and  C4_5 
REMARK    3  A    between atoms: N1_4  and  C9_14 
REMARK    4  A    between atoms: C4_5  and  C5_6 
REMARK    5  A    between atoms: C9_14  and  C10_15 
REMARK    6  A    between atoms: C11_19  and  C12_20 
ROOT
HETATM    1  C9  UNL     1      26.296  43.159  60.138  1.00  0.00     0.351 C 
ENDROOT
BRANCH   1   2
HETATM    2  N1  UNL     1      25.972  44.548  60.094  1.00  0.00     0.103 N 
BRANCH   2   3
HETATM    3  C2  UNL     1      25.527  45.046  58.817  1.00  0.00     0.216 C 
HETATM    4  C1  UNL     1      24.294  44.336  58.288  1.00  0.00     0.042 C 
HETATM    5  C3  UNL     1      26.570  45.241  57.783  1.00  0.00     0.042 C 
ENDBRANCH   2   3
BRANCH   2   6
HETATM    6  C4  UNL     1      24.811  44.761  60.989  1.00  0.00     0.314 C 
BRANCH   6   7
HETATM    7  C5  UNL     1      25.000  45.900  61.886  1.00  0.00     0.001 A 
HETATM    8  C6  UNL     1      23.987  46.800  62.176  1.00  0.00     0.099 A 
HETATM    9  N2  UNL     1      24.192  47.831  63.013  1.00  0.00    -0.361 N 
HETATM   10  C7  UNL     1      25.403  47.987  63.574  1.00  0.00     0.180 A 
ATOM     11  H2  UNL     1      23.437  48.486  63.220  1.00  0.00     0.166 HD
HETATM   12  N3  UNL     1      26.403  47.116  63.303  1.00  0.00    -0.361 N 
HETATM   13  C8  UNL     1      26.240  46.074  62.473  1.00  0.00     0.099 A 
ATOM     14  H3  UNL     1      27.311  47.257  63.744  1.00  0.00     0.166 HD
ENDBRANCH   6   7
ENDBRANCH   2   6
ENDBRANCH   1   2
BRANCH   1  15
HETATM   15  C10 UNL     1      27.350  42.767  61.089  1.00  0.00     0.132 A 
HETATM   16  N4  UNL     1      28.673  42.864  60.837  1.00  0.00    -0.245 N 
HETATM   17  O1  UNL     1      29.335  42.453  61.866  1.00  0.00    -0.222 OA
ATOM     18  H4  UNL     1      29.085  43.208  59.969  1.00  0.00     0.196 HD
HETATM   19  C11 UNL     1      28.520  42.074  62.829  1.00  0.00     0.152 A 
HETATM   20  N5  UNL     1      27.287  42.272  62.339  1.00  0.00    -0.325 N 
ATOM     21  H5  UNL     1      26.423  42.075  62.843  1.00  0.00     0.169 HD
BRANCH  19  22
HETATM   22  C12 UNL     1      28.963  41.553  64.139  1.00  0.00     0.063 C 
HETATM   23  C13 UNL     1      27.957  40.627  64.783  1.00  0.00     0.013 C 
HETATM   24  C14 UNL     1      28.308  40.492  66.247  1.00  0.00     0.001 C 
HETATM   25  C15 UNL     1      29.729  40.043  66.373  1.00  0.00     0.000 C 
HETATM   26  C16 UNL     1      30.351  39.666  65.049  1.00  0.00     0.001 C 
HETATM   27  C17 UNL     1      30.272  40.818  64.056  1.00  0.00     0.013 C 
ENDBRANCH  19  22
ENDBRANCH   1  15
TORSDOF 6
ENDMDL
MODEL 2
REMARK VINA RESULT: -7.985766884      0.726      1.611
REMARK  6 active torsions:
REMARK  status: ('A' for Active; 'I' for Inactive)
REMARK    1  A    between atoms: C2_2  and  N1_4 
REMARK    2  A    between atoms: N1_4  and  C4_5 
REMARK    3  A    between atoms: N1_4  and  C9_14 
REMARK    4  A    between atoms: C4_5  and  C5_6 
REMARK    5  A    between atoms: C9_14  and  C10_15 
REMARK    6  A    between atoms: C11_19  and  C12_20 
ROOT
HETATM    1  C9  UNL     1      25.991  43.169  60.866  1.00  0.00     0.351 C 
ENDROOT
BRANCH   1   2
HETATM    2  N1  UNL     1      25.946  44.548  60.500  1.00  0.00     0.103 N 
BRANCH   2   3
HETATM    3  C2  UNL     1      25.897  44.818  59.085  1.00  0.00     0.216 C 
HETATM    4  C1  UNL     1      25.010  43.855  58.316  1.00  0.00     0.042 C 
HETATM    5  C3  UNL     1      27.194  45.068  58.413  1.00  0.00     0.042 C 
ENDBRANCH   2   3
BRANCH   2   6
HETATM    6  C4  UNL     1      24.674  45.103  61.017  1.00  0.00     0.314 C 
BRANCH   6   7
HETATM    7  C5  UNL     1      24.887  46.148  62.017  1.00  0.00     0.001 A 
HETATM    8  C6  UNL     1      26.126  46.400  62.584  1.00  0.00     0.099 A 
HETATM    9  N2  UNL     1      26.289  47.375  63.493  1.00  0.00    -0.361 N 
HETATM   10  C7  UNL     1      25.227  48.115  63.856  1.00  0.00     0.180 A 
ATOM     11  H2  UNL     1      27.207  47.552  63.902  1.00  0.00     0.166 HD
HETATM   12  N3  UNL     1      24.010  47.882  63.312  1.00  0.00    -0.361 N 
HETATM   13  C8  UNL     1      23.805  46.919  62.401  1.00  0.00     0.099 A 
ATOM     14  H3  UNL     1      23.222  48.459  63.604  1.00  0.00     0.166 HD
ENDBRANCH   6   7
ENDBRANCH   2   6
ENDBRANCH   1   2
BRANCH   1  15
HETATM   15  C10 UNL     1      27.229  42.710  61.518  1.00  0.00     0.132 A 
HETATM   16  N4  UNL     1      28.472  42.985  61.065  1.00  0.00    -0.245 N 
HETATM   17  O1  UNL     1      29.341  42.454  61.857  1.00  0.00    -0.222 OA
ATOM     18  H4  UNL     1      28.688  43.528  60.228  1.00  0.00     0.196 HD
HETATM   19  C11 UNL     1      28.750  41.818  62.848  1.00  0.00     0.152 A 
HETATM   20  N5  UNL     1      27.436  41.982  62.631  1.00  0.00    -0.325 N 
ATOM     21  H5  UNL     1      26.698  41.608  63.226  1.00  0.00     0.169 HD
BRANCH  19  22
HETATM   22  C12 UNL     1      29.466  41.104  63.926  1.00  0.00     0.063 C 
HETATM   23  C13 UNL     1      30.896  41.562  64.097  1.00  0.00     0.013 C 
HETATM   24  C14 UNL     1      31.633  40.520  64.905  1.00  0.00     0.001 C 
HETATM   25  C15 UNL     1      30.902  40.285  66.189  1.00  0.00     0.000 C 
HETATM   26  C16 UNL     1      29.773  41.262  66.415  1.00  0.00     0.001 C 
HETATM   27  C17 UNL     1      28.782  41.236  65.258  1.00  0.00     0.013 C 
ENDBRANCH  19  22
ENDBRANCH   1  15
TORSDOF 6
ENDMDL
MODEL 3
REMARK VINA RESULT: -7.936032114      4.024      7.913
REMARK  6 active torsions:
REMARK  status: ('A' for Active; 'I' for Inactive)
REMARK    1  A    between atoms: C2_2  and  N1_4 
REMARK    2  A    between atoms: N1_4  and  C4_5 
REMARK    3  A    between atoms: N1_4  and  C9_14 
REMARK    4  A    between atoms: C4_5  and  C5_6 
REMARK    5  A    between atoms: C9_14  and  C10_15 
REMARK    6  A    between atoms: C11_19  and  C12_20 
ROOT
HETATM    1  C9  UNL     1      23.658  43.483  60.356  1.00  0.00     0.351 C 
ENDROOT
BRANCH   1   2
HETATM    2  N1  UNL     1      24.821  43.907  61.067  1.00  0.00     0.103 N 
BRANCH   2   3
HETATM    3  C2  UNL     1      26.030  43.177  60.780  1.00  0.00     0.216 C 
HETATM    4  C1  UNL     1      26.864  42.881  62.014  1.00  0.00     0.042 C 
HETATM    5  C3  UNL     1      26.841  43.664  59.639  1.00  0.00     0.042 C 
ENDBRANCH   2   3
BRANCH   2   6
HETATM    6  C4  UNL     1      25.124  45.291  60.637  1.00  0.00     0.314 C 
BRANCH   6   7
HETATM    7  C5  UNL     1      25.134  46.233  61.754  1.00  0.00     0.001 A 
HETATM    8  C6  UNL     1      24.023  46.978  62.116  1.00  0.00     0.099 A 
HETATM    9  N2  UNL     1      24.064  47.827  63.155  1.00  0.00    -0.361 N 
HETATM   10  C7  UNL     1      25.207  47.954  63.852  1.00  0.00     0.180 A 
ATOM     11  H2  UNL     1      23.239  48.369  63.413  1.00  0.00     0.166 HD
HETATM   12  N3  UNL     1      26.301  47.234  63.512  1.00  0.00    -0.361 N 
HETATM   13  C8  UNL     1      26.302  46.375  62.482  1.00  0.00     0.099 A 
ATOM     14  H3  UNL     1      27.154  47.348  64.059  1.00  0.00     0.166 HD
ENDBRANCH   6   7
ENDBRANCH   2   6
ENDBRANCH   1   2
BRANCH   1  15
HETATM   15  C10 UNL     1      22.371  44.007  60.844  1.00  0.00     0.132 A 
HETATM   16  N4  UNL     1      21.643  43.435  61.827  1.00  0.00    -0.245 N 
HETATM   17  O1  UNL     1      20.577  44.135  62.030  1.00  0.00    -0.222 OA
ATOM     18  H4  UNL     1      21.896  42.585  62.330  1.00  0.00     0.196 HD
HETATM   19  C11 UNL     1      20.537  45.175  61.223  1.00  0.00     0.152 A 
HETATM   20  N5  UNL     1      21.655  45.090  60.488  1.00  0.00    -0.325 N 
ATOM     21  H5  UNL     1      21.926  45.753  59.762  1.00  0.00     0.169 HD
BRANCH  19  22
HETATM   22  C12 UNL     1      19.447  46.173  61.204  1.00  0.00     0.063 C 
HETATM   23  C13 UNL     1      19.475  47.063  59.982  1.00  0.00     0.013 C 
HETATM   24  C14 UNL     1      18.610  48.272  60.258  1.00  0.00     0.001 C 
HETATM   25  C15 UNL     1      17.242  47.816  60.658  1.00  0.00     0.000 C 
HETATM   26  C16 UNL     1      17.041  46.328  60.494  1.00  0.00     0.001 C 
HETATM   27  C17 UNL     1      18.084  45.541  61.277  1.00  0.00     0.013 C 
ENDBRANCH  19  22
ENDBRANCH   1  15
TORSDOF 6
ENDMDL
MODEL 4
REMARK VINA RESULT: -7.749770243      3.166      7.604
REMARK  6 active torsions:
REMARK  status: ('A' for Active; 'I' for Inactive)
REMARK    1  A    between atoms: C2_2  and  N1_4 
REMARK    2  A    between atoms: N1_4  and  C4_5 
REMARK    3  A    between atoms: N1_4  and  C9_14 
REMARK    4  A    between atoms: C4_5  and  C5_6 
REMARK    5  A    between atoms: C9_14  and  C10_15 
REMARK    6  A    between atoms: C11_19  and  C12_20 
ROOT
HETATM    1  C9  UNL     1      23.866  43.389  60.376  1.00  0.00     0.351 C 
ENDROOT
BRANCH   1   2
HETATM    2  N1  UNL     1      25.041  43.758  61.096  1.00  0.00     0.103 N 
BRANCH   2   3
HETATM    3  C2  UNL     1      26.214  42.963  60.830  1.00  0.00     0.216 C 
HETATM    4  C1  UNL     1      27.055  42.695  62.066  1.00  0.00     0.042 C 
HETATM    5  C3  UNL     1      27.026  43.355  59.654  1.00  0.00     0.042 C 
ENDBRANCH   2   3
BRANCH   2   6
HETATM    6  C4  UNL     1      25.422  45.121  60.657  1.00  0.00     0.314 C 
BRANCH   6   7
HETATM    7  C5  UNL     1      25.352  46.097  61.743  1.00  0.00     0.001 A 
HETATM    8  C6  UNL     1      26.409  46.333  62.606  1.00  0.00     0.099 A 
HETATM    9  N2  UNL     1      26.314  47.246  63.587  1.00  0.00    -0.361 N 
HETATM   10  C7  UNL     1      25.171  47.937  63.729  1.00  0.00     0.180 A 
ATOM     11  H2  UNL     1      27.101  47.412  64.216  1.00  0.00     0.166 HD
HETATM   12  N3  UNL     1      24.129  47.720  62.893  1.00  0.00    -0.361 N 
HETATM   13  C8  UNL     1      24.182  46.818  61.901  1.00  0.00     0.099 A 
ATOM     14  H3  UNL     1      23.274  48.260  63.022  1.00  0.00     0.166 HD
ENDBRANCH   6   7
ENDBRANCH   2   6
ENDBRANCH   1   2
BRANCH   1  15
HETATM   15  C10 UNL     1      23.695  44.009  59.050  1.00  0.00     0.132 A 
HETATM   16  N4  UNL     1      23.552  43.313  57.901  1.00  0.00    -0.245 N 
HETATM   17  O1  UNL     1      23.413  44.139  56.918  1.00  0.00    -0.222 OA
ATOM     18  H4  UNL     1      23.552  42.296  57.823  1.00  0.00     0.196 HD
HETATM   19  C11 UNL     1      23.454  45.385  57.341  1.00  0.00     0.152 A 
HETATM   20  N5  UNL     1      23.630  45.297  58.668  1.00  0.00    -0.325 N 
ATOM     21  H5  UNL     1      23.703  46.095  59.299  1.00  0.00     0.169 HD
BRANCH  19  22
HETATM   22  C12 UNL     1      23.325  46.568  56.464  1.00  0.00     0.063 C 
HETATM   23  C13 UNL     1      22.866  47.807  57.198  1.00  0.00     0.013 C 
HETATM   24  C14 UNL     1      22.379  48.809  56.177  1.00  0.00     0.001 C 
HETATM   25  C15 UNL     1      23.461  49.052  55.171  1.00  0.00     0.000 C 
HETATM   26  C16 UNL     1      24.773  48.405  55.545  1.00  0.00     0.001 C 
HETATM   27  C17 UNL     1      24.608  46.905  55.757  1.00  0.00     0.013 C 
ENDBRANCH  19  22
ENDBRANCH   1  15
TORSDOF 6
ENDMDL
MODEL 5
REMARK VINA RESULT: -7.671247043      3.162      5.743
REMARK  6 active torsions:
REMARK  status: ('A' for Active; 'I' for Inactive)
REMARK    1  A    between atoms: C2_2  and  N1_4 
REMARK    2  A    between atoms: N1_4  and  C4_5 
REMARK    3  A    between atoms: N1_4  and  C9_14 
REMARK    4  A    between atoms: C4_5  and  C5_6 
REMARK    5  A    between atoms: C9_14  and  C10_15 
REMARK    6  A    between atoms: C11_19  and  C12_20 
ROOT
HETATM    1  C9  UNL     1      22.501  47.088  61.545  1.00  0.00     0.351 C 
ENDROOT
BRANCH   1   2
HETATM    2  N1  UNL     1      21.641  46.144  60.909  1.00  0.00     0.103 N 
BRANCH   2   3
HETATM    3  C2  UNL     1      20.402  45.867  61.592  1.00  0.00     0.216 C 
HETATM    4  C1  UNL     1      19.172  46.124  60.740  1.00  0.00     0.042 C 
HETATM    5  C3  UNL     1      20.272  46.399  62.969  1.00  0.00     0.042 C 
ENDBRANCH   2   3
BRANCH   2   6
HETATM    6  C4  UNL     1      21.216  46.730  59.617  1.00  0.00     0.314 C 
BRANCH   6   7
HETATM    7  C5  UNL     1      22.170  46.461  58.542  1.00  0.00     0.001 A 
HETATM    8  C6  UNL     1      22.612  45.184  58.236  1.00  0.00     0.099 A 
HETATM    9  N2  UNL     1      23.482  44.971  57.235  1.00  0.00    -0.361 N 
HETATM   10  C7  UNL     1      23.927  46.019  56.521  1.00  0.00     0.180 A 
ATOM     11  H2  UNL     1      23.799  44.026  57.018  1.00  0.00     0.166 HD
HETATM   12  N3  UNL     1      23.504  47.273  56.806  1.00  0.00    -0.361 N 
HETATM   13  C8  UNL     1      22.637  47.529  57.798  1.00  0.00     0.099 A 
ATOM     14  H3  UNL     1      23.857  48.050  56.248  1.00  0.00     0.166 HD
ENDBRANCH   6   7
ENDBRANCH   2   6
ENDBRANCH   1   2
BRANCH   1  15
HETATM   15  C10 UNL     1      23.900  46.668  61.734  1.00  0.00     0.132 A 
HETATM   16  N4  UNL     1      24.824  47.390  62.403  1.00  0.00    -0.245 N 
HETATM   17  O1  UNL     1      25.946  46.751  62.403  1.00  0.00    -0.222 OA
ATOM     18  H4  UNL     1      24.662  48.297  62.841  1.00  0.00     0.196 HD
HETATM   19  C11 UNL     1      25.837  45.608  61.757  1.00  0.00     0.152 A 
HETATM   20  N5  UNL     1      24.561  45.563  61.344  1.00  0.00    -0.325 N 
ATOM     21  H5  UNL     1      24.150  44.798  60.810  1.00  0.00     0.169 HD
BRANCH  19  22
HETATM   22  C12 UNL     1      26.942  44.643  61.577  1.00  0.00     0.063 C 
HETATM   23  C13 UNL     1      26.480  43.204  61.567  1.00  0.00     0.013 C 
HETATM   24  C14 UNL     1      27.684  42.319  61.793  1.00  0.00     0.001 C 
HETATM   25  C15 UNL     1      28.729  42.640  60.771  1.00  0.00     0.000 C 
HETATM   26  C16 UNL     1      28.241  43.588  59.702  1.00  0.00     0.001 C 
HETATM   27  C17 UNL     1      27.717  44.883  60.311  1.00  0.00     0.013 C 
ENDBRANCH  19  22
ENDBRANCH   1  15
TORSDOF 6
ENDMDL
