MODEL 1
REMARK VINA RESULT: -7.929706103      0.000      0.000
REMARK  6 active torsions:
REMARK  status: ('A' for Active; 'I' for Inactive)
REMARK    1  A    between atoms: C2_2  and  C4_4 
REMARK    2  A    between atoms: C5_9  and  C6_10 
REMARK    3  A    between atoms: C6_10  and  N3_11 
REMARK    4  A    between atoms: C9_14  and  O1_15 
REMARK    5  A    between atoms: O1_15  and  C10_16 
REMARK    6  A    between atoms: C10_16  and  C11_17 
ROOT
HETATM    1  N3  UNL     1      24.622  45.102  61.801  1.00  0.00     0.096 N 
HETATM    2  C7  UNL     1      25.837  45.129  61.038  1.00  0.00     0.275 C 
HETATM    3  C8  UNL     1      25.502  45.160  59.558  1.00  0.00     0.062 C 
HETATM    4  C9  UNL     1      25.021  43.762  59.239  1.00  0.00     0.125 C 
HETATM    5  C16 UNL     1      23.889  43.414  60.130  1.00  0.00     0.062 C 
HETATM    6  C17 UNL     1      23.590  44.278  61.277  1.00  0.00     0.275 C 
ENDROOT
BRANCH   1   7
HETATM    7  C6  UNL     1      24.196  46.461  61.986  1.00  0.00     0.358 C 
BRANCH   7   8
HETATM    8  C5  UNL     1      22.741  46.574  62.253  1.00  0.00     0.168 A 
HETATM    9  N2  UNL     1      22.129  46.535  63.447  1.00  0.00    -0.280 N 
HETATM   10  N1  UNL     1      20.827  46.670  63.251  1.00  0.00    -0.281 N 
ATOM     11  H2  UNL     1      22.589  46.420  64.350  1.00  0.00     0.189 HD
HETATM   12  C4  UNL     1      20.605  46.795  61.927  1.00  0.00     0.143 A 
ATOM     13  H1  UNL     1      20.113  46.678  63.978  1.00  0.00     0.189 HD
HETATM   14  O2  UNL     1      21.766  46.733  61.368  1.00  0.00    -0.280 OA
BRANCH  12  15
HETATM   15  C2  UNL     1      19.307  46.969  61.225  1.00  0.00     0.054 C 
HETATM   16  C1  UNL     1      18.255  46.135  61.926  1.00  0.00     0.018 C 
HETATM   17  C3  UNL     1      19.392  46.594  59.780  1.00  0.00     0.018 C 
ENDBRANCH  12  15
ENDBRANCH   7   8
ENDBRANCH   1   7
BRANCH   4  18
HETATM   18  O1  UNL     1      24.650  43.751  57.893  1.00  0.00    -0.380 OA
BRANCH  18  19
HETATM   19  C10 UNL     1      23.304  44.092  57.736  1.00  0.00     0.220 C 
BRANCH  19  20
HETATM   20  C11 UNL     1      23.159  45.547  57.446  1.00  0.00     0.006 C 
HETATM   21  N4  UNL     1      22.596  46.318  58.262  1.00  0.00    -0.395 N 
HETATM   22  C12 UNL     1      22.380  47.711  58.136  1.00  0.00     0.119 C 
ATOM     23  H4  UNL     1      22.252  45.887  59.121  1.00  0.00     0.159 HD
HETATM   24  C13 UNL     1      22.830  48.322  56.853  1.00  0.00     0.020 C 
HETATM   25  C14 UNL     1      23.967  47.551  56.210  1.00  0.00     0.007 C 
HETATM   26  C15 UNL     1      23.691  46.079  56.172  1.00  0.00     0.054 C 
ENDBRANCH  19  20
ENDBRANCH  18  19
ENDBRANCH   4  18
TORSDOF 6
ENDMDL
MODEL 2
REMARK VINA RESULT: -7.880545116      1.295      1.653
REMARK  6 active torsions:
REMARK  status: ('A' for Active; 'I' for Inactive)
REMARK    1  A    between atoms: C2_2  and  C4_4 
REMARK    2  A    between atoms: C5_9  and  C6_10 
REMARK    3  A    between atoms: C6_10  and  N3_11 
REMARK    4  A    between atoms: C9_14  and  O1_15 
REMARK    5  A    between atoms: O1_15  and  C10_16 
REMARK    6  A    between atoms: C10_16  and  C11_17 
ROOT
HETATM    1  N3  UNL     1      23.306  44.936  61.723  1.00  0.00     0.096 N 
HETATM    2  C7  UNL     1      24.714  44.979  61.448  1.00  0.00     0.275 C 
HETATM    3  C8  UNL     1      24.932  45.130  59.954  1.00  0.00     0.062 C 
HETATM    4  C9  UNL     1      24.590  43.776  59.373  1.00  0.00     0.125 C 
HETATM    5  C16 UNL     1      23.213  43.400  59.771  1.00  0.00     0.062 C 
HETATM    6  C17 UNL     1      22.526  44.188  60.801  1.00  0.00     0.275 C 
ENDROOT
BRANCH   1   7
HETATM    7  C6  UNL     1      22.848  46.292  61.852  1.00  0.00     0.358 C 
BRANCH   7   8
HETATM    8  C5  UNL     1      21.368  46.398  61.854  1.00  0.00     0.168 A 
HETATM    9  N2  UNL     1      20.537  46.138  62.874  1.00  0.00    -0.280 N 
HETATM   10  N1  UNL     1      19.297  46.355  62.465  1.00  0.00    -0.281 N 
ATOM     11  H2  UNL     1      20.813  45.825  63.805  1.00  0.00     0.189 HD
HETATM   12  C4  UNL     1      19.335  46.756  61.179  1.00  0.00     0.143 A 
ATOM     13  H1  UNL     1      18.455  46.240  63.029  1.00  0.00     0.189 HD
HETATM   14  O2  UNL     1      20.583  46.769  60.851  1.00  0.00    -0.280 OA
BRANCH  12  15
HETATM   15  C2  UNL     1      18.197  47.114  60.293  1.00  0.00     0.054 C 
HETATM   16  C1  UNL     1      17.586  48.411  60.781  1.00  0.00     0.018 C 
HETATM   17  C3  UNL     1      17.161  46.037  60.240  1.00  0.00     0.018 C 
ENDBRANCH  12  15
ENDBRANCH   7   8
ENDBRANCH   1   7
BRANCH   4  18
HETATM   18  O1  UNL     1      24.726  43.875  57.987  1.00  0.00    -0.380 OA
BRANCH  18  19
HETATM   19  C10 UNL     1      23.536  44.298  57.391  1.00  0.00     0.220 C 
BRANCH  19  20
HETATM   20  C11 UNL     1      23.689  45.667  56.820  1.00  0.00     0.006 C 
HETATM   21  N4  UNL     1      24.803  46.078  56.412  1.00  0.00    -0.395 N 
HETATM   22  C12 UNL     1      25.113  47.340  55.849  1.00  0.00     0.119 C 
ATOM     23  H4  UNL     1      25.581  45.422  56.496  1.00  0.00     0.159 HD
HETATM   24  C13 UNL     1      23.986  48.313  55.786  1.00  0.00     0.020 C 
HETATM   25  C14 UNL     1      22.633  47.632  55.716  1.00  0.00     0.007 C 
HETATM   26  C15 UNL     1      22.502  46.545  56.738  1.00  0.00     0.054 C 
ENDBRANCH  19  20
ENDBRANCH  18  19
ENDBRANCH   4  18
TORSDOF 6
ENDMDL
MODEL 3
REMARK VINA RESULT: -7.867771431      3.362      6.489
REMARK  6 active torsions:
REMARK  status: ('A' for Active; 'I' for Inactive)
REMARK    1  A    between atoms: C2_2  and  C4_4 
REMARK    2  A    between atoms: C5_9  and  C6_10 
REMARK    3  A    between atoms: C6_10  and  N3_11 
REMARK    4  A    between atoms: C9_14  and  O1_15 
REMARK    5  A    between atoms: O1_15  and  C10_16 
REMARK    6  A    between atoms: C10_16  and  C11_17 
ROOT
HETATM    1  N3  UNL     1      25.588  43.299  59.896  1.00  0.00     0.096 N 
HETATM    2  C7  UNL     1      25.492  43.584  58.493  1.00  0.00     0.275 C 
HETATM    3  C8  UNL     1      24.499  44.712  58.274  1.00  0.00     0.062 C 
HETATM    4  C9  UNL     1      23.143  44.086  58.511  1.00  0.00     0.125 C 
HETATM    5  C16 UNL     1      23.109  43.473  59.860  1.00  0.00     0.062 C 
HETATM    6  C17 UNL     1      24.361  43.328  60.611  1.00  0.00     0.275 C 
ENDROOT
BRANCH   1   7
HETATM    7  C6  UNL     1      26.567  44.191  60.454  1.00  0.00     0.358 C 
BRANCH   7   8
HETATM    8  C5  UNL     1      27.661  43.475  61.153  1.00  0.00     0.168 A 
HETATM    9  N2  UNL     1      28.878  43.180  60.670  1.00  0.00    -0.280 N 
HETATM   10  N1  UNL     1      29.553  42.536  61.609  1.00  0.00    -0.281 N 
ATOM     11  H2  UNL     1      29.223  43.411  59.738  1.00  0.00     0.189 HD
HETATM   12  C4  UNL     1      28.766  42.418  62.697  1.00  0.00     0.143 A 
ATOM     13  H1  UNL     1      30.507  42.188  61.524  1.00  0.00     0.189 HD
HETATM   14  O2  UNL     1      27.650  42.988  62.387  1.00  0.00    -0.280 OA
BRANCH  12  15
HETATM   15  C2  UNL     1      29.084  41.773  63.997  1.00  0.00     0.054 C 
HETATM   16  C1  UNL     1      30.460  41.146  63.909  1.00  0.00     0.018 C 
HETATM   17  C3  UNL     1      28.067  40.746  64.382  1.00  0.00     0.018 C 
ENDBRANCH  12  15
ENDBRANCH   7   8
ENDBRANCH   1   7
BRANCH   4  18
HETATM   18  O1  UNL     1      22.192  45.098  58.372  1.00  0.00    -0.380 OA
BRANCH  18  19
HETATM   19  C10 UNL     1      22.689  46.325  58.817  1.00  0.00     0.220 C 
BRANCH  19  20
HETATM   20  C11 UNL     1      22.184  46.632  60.187  1.00  0.00     0.006 C 
HETATM   21  N4  UNL     1      20.959  46.580  60.453  1.00  0.00    -0.395 N 
HETATM   22  C12 UNL     1      20.325  46.842  61.692  1.00  0.00     0.119 C 
ATOM     23  H4  UNL     1      20.343  46.318  59.682  1.00  0.00     0.159 HD
HETATM   24  C13 UNL     1      21.224  47.284  62.796  1.00  0.00     0.020 C 
HETATM   25  C14 UNL     1      22.643  46.777  62.629  1.00  0.00     0.007 C 
HETATM   26  C15 UNL     1      23.155  47.002  61.240  1.00  0.00     0.054 C 
ENDBRANCH  19  20
ENDBRANCH  18  19
ENDBRANCH   4  18
TORSDOF 6
ENDMDL
MODEL 4
REMARK VINA RESULT: -7.857570463      3.615      6.126
REMARK  6 active torsions:
REMARK  status: ('A' for Active; 'I' for Inactive)
REMARK    1  A    between atoms: C2_2  and  C4_4 
REMARK    2  A    between atoms: C5_9  and  C6_10 
REMARK    3  A    between atoms: C6_10  and  N3_11 
REMARK    4  A    between atoms: C9_14  and  O1_15 
REMARK    5  A    between atoms: O1_15  and  C10_16 
REMARK    6  A    between atoms: C10_16  and  C11_17 
ROOT
HETATM    1  N3  UNL     1      25.031  44.319  59.630  1.00  0.00     0.096 N 
HETATM    2  C7  UNL     1      25.896  43.816  58.602  1.00  0.00     0.275 C 
HETATM    3  C8  UNL     1      26.918  42.877  59.218  1.00  0.00     0.062 C 
HETATM    4  C9  UNL     1      27.880  43.781  59.956  1.00  0.00     0.125 C 
HETATM    5  C16 UNL     1      27.132  44.615  60.925  1.00  0.00     0.062 C 
HETATM    6  C17 UNL     1      25.666  44.649  60.857  1.00  0.00     0.275 C 
ENDROOT
BRANCH   1   7
HETATM    7  C6  UNL     1      23.967  43.369  59.804  1.00  0.00     0.358 C 
BRANCH   7   8
HETATM    8  C5  UNL     1      22.813  43.932  60.549  1.00  0.00     0.168 A 
HETATM    9  N2  UNL     1      22.094  43.329  61.508  1.00  0.00    -0.280 N 
HETATM   10  N1  UNL     1      21.156  44.170  61.914  1.00  0.00    -0.281 N 
ATOM     11  H2  UNL     1      22.244  42.385  61.863  1.00  0.00     0.189 HD
HETATM   12  C4  UNL     1      21.275  45.315  61.212  1.00  0.00     0.143 A 
ATOM     13  H1  UNL     1      20.461  43.984  62.636  1.00  0.00     0.189 HD
HETATM   14  O2  UNL     1      22.271  45.134  60.411  1.00  0.00    -0.280 OA
BRANCH  12  15
HETATM   15  C2  UNL     1      20.449  46.546  61.313  1.00  0.00     0.054 C 
HETATM   16  C1  UNL     1      20.772  47.247  62.616  1.00  0.00     0.018 C 
HETATM   17  C3  UNL     1      18.985  46.253  61.227  1.00  0.00     0.018 C 
ENDBRANCH  12  15
ENDBRANCH   7   8
ENDBRANCH   1   7
BRANCH   4  18
HETATM   18  O1  UNL     1      28.816  42.959  60.586  1.00  0.00    -0.380 OA
BRANCH  18  19
HETATM   19  C10 UNL     1      28.216  41.805  61.095  1.00  0.00     0.220 C 
BRANCH  19  20
HETATM   20  C11 UNL     1      28.616  41.586  62.515  1.00  0.00     0.006 C 
HETATM   21  N4  UNL     1      27.852  40.998  63.320  1.00  0.00    -0.395 N 
HETATM   22  C12 UNL     1      28.082  40.715  64.688  1.00  0.00     0.119 C 
ATOM     23  H4  UNL     1      26.958  40.685  62.942  1.00  0.00     0.159 HD
HETATM   24  C13 UNL     1      29.365  41.228  65.248  1.00  0.00     0.020 C 
HETATM   25  C14 UNL     1      30.443  41.373  64.192  1.00  0.00     0.007 C 
HETATM   26  C15 UNL     1      29.936  42.075  62.970  1.00  0.00     0.054 C 
ENDBRANCH  19  20
ENDBRANCH  18  19
ENDBRANCH   4  18
TORSDOF 6
ENDMDL
MODEL 5
REMARK VINA RESULT: -7.823427637      4.249      6.951
REMARK  6 active torsions:
REMARK  status: ('A' for Active; 'I' for Inactive)
REMARK    1  A    between atoms: C2_2  and  C4_4 
REMARK    2  A    between atoms: C5_9  and  C6_10 
REMARK    3  A    between atoms: C6_10  and  N3_11 
REMARK    4  A    between atoms: C9_14  and  O1_15 
REMARK    5  A    between atoms: O1_15  and  C10_16 
REMARK    6  A    between atoms: C10_16  and  C11_17 
ROOT
HETATM    1  N3  UNL     1      27.782  43.117  60.704  1.00  0.00     0.096 N 
HETATM    2  C7  UNL     1      26.931  43.723  61.687  1.00  0.00     0.275 C 
HETATM    3  C8  UNL     1      25.479  43.511  61.297  1.00  0.00     0.062 C 
HETATM    4  C9  UNL     1      25.249  44.450  60.134  1.00  0.00     0.125 C 
HETATM    5  C16 UNL     1      26.234  44.164  59.064  1.00  0.00     0.062 C 
HETATM    6  C17 UNL     1      27.367  43.278  59.355  1.00  0.00     0.275 C 
ENDROOT
BRANCH   1   7
HETATM    7  C6  UNL     1      27.947  41.736  61.064  1.00  0.00     0.358 C 
BRANCH   7   8
HETATM    8  C5  UNL     1      28.505  41.563  62.428  1.00  0.00     0.168 A 
HETATM    9  N2  UNL     1      29.718  41.937  62.863  1.00  0.00    -0.280 N 
HETATM   10  N1  UNL     1      29.824  41.601  64.139  1.00  0.00    -0.281 N 
ATOM     11  H2  UNL     1      30.436  42.400  62.306  1.00  0.00     0.189 HD
HETATM   12  C4  UNL     1      28.674  41.009  64.521  1.00  0.00     0.143 A 
ATOM     13  H1  UNL     1      30.637  41.763  64.732  1.00  0.00     0.189 HD
HETATM   14  O2  UNL     1      27.916  41.005  63.477  1.00  0.00    -0.280 OA
BRANCH  12  15
HETATM   15  C2  UNL     1      28.322  40.463  65.858  1.00  0.00     0.054 C 
HETATM   16  C1  UNL     1      26.820  40.277  65.930  1.00  0.00     0.018 C 
HETATM   17  C3  UNL     1      28.791  41.346  66.970  1.00  0.00     0.018 C 
ENDBRANCH  12  15
ENDBRANCH   7   8
ENDBRANCH   1   7
BRANCH   4  18
HETATM   18  O1  UNL     1      23.936  44.256  59.701  1.00  0.00    -0.380 OA
BRANCH  18  19
HETATM   19  C10 UNL     1      23.324  45.470  59.381  1.00  0.00     0.220 C 
BRANCH  19  20
HETATM   20  C11 UNL     1      22.588  46.016  60.557  1.00  0.00     0.006 C 
HETATM   21  N4  UNL     1      21.431  45.620  60.838  1.00  0.00    -0.395 N 
HETATM   22  C12 UNL     1      20.605  46.036  61.911  1.00  0.00     0.119 C 
ATOM     23  H4  UNL     1      21.036  44.911  60.219  1.00  0.00     0.159 HD
HETATM   24  C13 UNL     1      21.163  47.115  62.775  1.00  0.00     0.020 C 
HETATM   25  C14 UNL     1      22.680  47.127  62.783  1.00  0.00     0.007 C 
HETATM   26  C15 UNL     1      23.245  47.041  61.398  1.00  0.00     0.054 C 
ENDBRANCH  19  20
ENDBRANCH  18  19
ENDBRANCH   4  18
TORSDOF 6
ENDMDL
