MODEL 1
REMARK VINA RESULT: -8.364162550      0.000      0.000
REMARK  6 active torsions:
REMARK  status: ('A' for Active; 'I' for Inactive)
REMARK    1  A    between atoms: C2_2  and  C3_3 
REMARK    2  A    between atoms: C4_7  and  C5_8 
REMARK    3  A    between atoms: C5_8  and  C6_9 
REMARK    4  A    between atoms: C6_9  and  C7_10 
REMARK    5  A    between atoms: N2_15  and  C12_16 
REMARK    6  A    between atoms: C12_16  and  C13_17 
ROOT
HETATM    1  C7  UNL     1      23.773  45.692  61.303  1.00  0.00     0.224 C 
HETATM    2  C8  UNL     1      23.119  44.368  61.428  1.00  0.00     0.036 C 
HETATM    3  C9  UNL     1      24.136  43.296  61.603  1.00  0.00     0.004 C 
HETATM    4  C10 UNL     1      25.352  43.440  60.732  1.00  0.00     0.030 C 
HETATM    5  C11 UNL     1      25.755  44.859  60.500  1.00  0.00     0.273 C 
HETATM    6  N2  UNL     1      24.620  45.698  60.118  1.00  0.00     0.099 N 
ENDROOT
BRANCH   1   7
HETATM    7  C6  UNL     1      22.802  46.847  61.262  1.00  0.00     0.044 C 
BRANCH   7   8
HETATM    8  C5  UNL     1      22.110  46.871  62.632  1.00  0.00     0.089 C 
BRANCH   8   9
HETATM    9  C4  UNL     1      20.660  46.559  62.374  1.00  0.00     0.148 A 
HETATM   10  O1  UNL     1      19.799  46.017  63.199  1.00  0.00    -0.223 OA
HETATM   11  N1  UNL     1      18.640  45.894  62.642  1.00  0.00    -0.247 N 
HETATM   12  C3  UNL     1      18.715  46.373  61.389  1.00  0.00     0.103 A 
ATOM     13  H1  UNL     1      17.808  45.501  63.080  1.00  0.00     0.196 HD
HETATM   14  N4  UNL     1      19.986  46.787  61.233  1.00  0.00    -0.327 N 
ATOM     15  H4  UNL     1      20.374  47.206  60.388  1.00  0.00     0.169 HD
BRANCH  12  16
HETATM   16  C2  UNL     1      17.609  46.436  60.369  1.00  0.00     0.074 C 
HETATM   17  C1  UNL     1      16.920  47.785  60.616  1.00  0.00     0.013 C 
ENDBRANCH  12  16
ENDBRANCH   8   9
ENDBRANCH   7   8
ENDBRANCH   1   7
BRANCH   6  18
HETATM   18  C12 UNL     1      23.925  45.144  59.004  1.00  0.00     0.337 C 
BRANCH  18  19
HETATM   19  C13 UNL     1      24.081  46.061  57.816  1.00  0.00     0.079 A 
HETATM   20  N3  UNL     1      23.296  47.039  57.398  1.00  0.00    -0.356 N 
HETATM   21  C14 UNL     1      23.609  47.716  56.343  1.00  0.00     0.012 A 
ATOM     22  H3  UNL     1      22.442  47.259  57.909  1.00  0.00     0.166 HD
HETATM   23  C15 UNL     1      22.744  48.849  55.816  1.00  0.00     0.068 C 
HETATM   24  C16 UNL     1      24.767  47.382  55.687  1.00  0.00     0.076 A 
HETATM   25  S1  UNL     1      25.341  46.090  56.655  1.00  0.00    -0.085 SA
ENDBRANCH  18  19
ENDBRANCH   6  18
TORSDOF 6
ENDMDL
MODEL 2
REMARK VINA RESULT: -8.323964023      0.884      1.015
REMARK  6 active torsions:
REMARK  status: ('A' for Active; 'I' for Inactive)
REMARK    1  A    between atoms: C2_2  and  C3_3 
REMARK    2  A    between atoms: C4_7  and  C5_8 
REMARK    3  A    between atoms: C5_8  and  C6_9 
REMARK    4  A    between atoms: C6_9  and  C7_10 
REMARK    5  A    between atoms: N2_15  and  C12_16 
REMARK    6  A    between atoms: C12_16  and  C13_17 
ROOT
HETATM    1  C7  UNL     1      23.930  45.591  61.230  1.00  0.00     0.224 C 
HETATM    2  C8  UNL     1      23.370  44.260  61.566  1.00  0.00     0.036 C 
HETATM    3  C9  UNL     1      24.460  43.265  61.750  1.00  0.00     0.004 C 
HETATM    4  C10 UNL     1      25.575  43.366  60.747  1.00  0.00     0.030 C 
HETATM    5  C11 UNL     1      25.869  44.767  60.321  1.00  0.00     0.273 C 
HETATM    6  N2  UNL     1      24.655  45.502  59.970  1.00  0.00     0.099 N 
ENDROOT
BRANCH   1   7
HETATM    7  C6  UNL     1      22.894  46.687  61.165  1.00  0.00     0.044 C 
BRANCH   7   8
HETATM    8  C5  UNL     1      22.230  46.729  62.549  1.00  0.00     0.089 C 
BRANCH   8   9
HETATM    9  C4  UNL     1      20.764  46.477  62.318  1.00  0.00     0.148 A 
HETATM   10  O1  UNL     1      19.893  45.983  63.163  1.00  0.00    -0.223 OA
HETATM   11  N1  UNL     1      18.722  45.905  62.626  1.00  0.00    -0.247 N 
HETATM   12  C3  UNL     1      18.797  46.363  61.366  1.00  0.00     0.103 A 
ATOM     13  H1  UNL     1      17.880  45.553  63.082  1.00  0.00     0.196 HD
HETATM   14  N4  UNL     1      20.082  46.720  61.184  1.00  0.00    -0.327 N 
ATOM     15  H4  UNL     1      20.474  47.110  60.328  1.00  0.00     0.169 HD
BRANCH  12  16
HETATM   16  C2  UNL     1      17.678  46.461  60.362  1.00  0.00     0.074 C 
HETATM   17  C1  UNL     1      16.986  47.795  60.671  1.00  0.00     0.013 C 
ENDBRANCH  12  16
ENDBRANCH   8   9
ENDBRANCH   7   8
ENDBRANCH   1   7
BRANCH   6  18
HETATM   18  C12 UNL     1      23.888  44.792  59.002  1.00  0.00     0.337 C 
BRANCH  18  19
HETATM   19  C13 UNL     1      23.623  45.693  57.821  1.00  0.00     0.079 A 
HETATM   20  N3  UNL     1      24.430  46.545  57.213  1.00  0.00    -0.356 N 
HETATM   21  C14 UNL     1      24.007  47.234  56.206  1.00  0.00     0.012 A 
ATOM     22  H3  UNL     1      25.389  46.658  57.540  1.00  0.00     0.166 HD
HETATM   23  C15 UNL     1      24.891  48.228  55.470  1.00  0.00     0.068 C 
HETATM   24  C16 UNL     1      22.709  47.050  55.803  1.00  0.00     0.076 A 
HETATM   25  S1  UNL     1      22.174  45.869  56.923  1.00  0.00    -0.085 SA
ENDBRANCH  18  19
ENDBRANCH   6  18
TORSDOF 6
ENDMDL
MODEL 3
REMARK VINA RESULT: -8.208754812      1.283      1.482
REMARK  6 active torsions:
REMARK  status: ('A' for Active; 'I' for Inactive)
REMARK    1  A    between atoms: C2_2  and  C3_3 
REMARK    2  A    between atoms: C4_7  and  C5_8 
REMARK    3  A    between atoms: C5_8  and  C6_9 
REMARK    4  A    between atoms: C6_9  and  C7_10 
REMARK    5  A    between atoms: N2_15  and  C12_16 
REMARK    6  A    between atoms: C12_16  and  C13_17 
ROOT
HETATM    1  C7  UNL     1      24.862  45.437  60.973  1.00  0.00     0.224 C 
HETATM    2  C8  UNL     1      24.401  44.073  61.327  1.00  0.00     0.036 C 
HETATM    3  C9  UNL     1      25.561  43.157  61.502  1.00  0.00     0.004 C 
HETATM    4  C10 UNL     1      26.651  43.328  60.481  1.00  0.00     0.030 C 
HETATM    5  C11 UNL     1      26.840  44.742  60.040  1.00  0.00     0.273 C 
HETATM    6  N2  UNL     1      25.572  45.388  59.702  1.00  0.00     0.099 N 
ENDROOT
BRANCH   1   7
HETATM    7  C6  UNL     1      23.750  46.457  60.915  1.00  0.00     0.044 C 
BRANCH   7   8
HETATM    8  C5  UNL     1      23.421  46.810  62.373  1.00  0.00     0.089 C 
BRANCH   8   9
HETATM    9  C4  UNL     1      21.942  46.579  62.535  1.00  0.00     0.148 A 
HETATM   10  O1  UNL     1      21.271  46.439  63.652  1.00  0.00    -0.223 OA
HETATM   11  N1  UNL     1      20.015  46.254  63.415  1.00  0.00    -0.247 N 
HETATM   12  C3  UNL     1      19.823  46.268  62.086  1.00  0.00     0.103 A 
ATOM     13  H1  UNL     1      19.290  46.119  64.121  1.00  0.00     0.196 HD
HETATM   14  N4  UNL     1      21.037  46.473  61.545  1.00  0.00    -0.327 N 
ATOM     15  H4  UNL     1      21.239  46.537  60.548  1.00  0.00     0.169 HD
BRANCH  12  16
HETATM   16  C2  UNL     1      18.520  46.093  61.351  1.00  0.00     0.074 C 
HETATM   17  C1  UNL     1      18.383  47.352  60.485  1.00  0.00     0.013 C 
ENDBRANCH  12  16
ENDBRANCH   8   9
ENDBRANCH   7   8
ENDBRANCH   1   7
BRANCH   6  18
HETATM   18  C12 UNL     1      24.842  44.617  58.751  1.00  0.00     0.337 C 
BRANCH  18  19
HETATM   19  C13 UNL     1      24.290  45.535  57.688  1.00  0.00     0.079 A 
HETATM   20  N3  UNL     1      24.899  46.481  56.993  1.00  0.00    -0.356 N 
HETATM   21  C14 UNL     1      24.241  47.166  56.117  1.00  0.00     0.012 A 
ATOM     22  H3  UNL     1      25.889  46.669  57.148  1.00  0.00     0.166 HD
HETATM   23  C15 UNL     1      24.889  48.265  55.290  1.00  0.00     0.068 C 
HETATM   24  C16 UNL     1      22.912  46.878  55.943  1.00  0.00     0.076 A 
HETATM   25  S1  UNL     1      22.692  45.611  57.076  1.00  0.00    -0.085 SA
ENDBRANCH  18  19
ENDBRANCH   6  18
TORSDOF 6
ENDMDL
MODEL 4
REMARK VINA RESULT: -8.008802513      1.427      1.668
REMARK  6 active torsions:
REMARK  status: ('A' for Active; 'I' for Inactive)
REMARK    1  A    between atoms: C2_2  and  C3_3 
REMARK    2  A    between atoms: C4_7  and  C5_8 
REMARK    3  A    between atoms: C5_8  and  C6_9 
REMARK    4  A    between atoms: C6_9  and  C7_10 
REMARK    5  A    between atoms: N2_15  and  C12_16 
REMARK    6  A    between atoms: C12_16  and  C13_17 
ROOT
HETATM    1  C7  UNL     1      24.796  45.327  61.152  1.00  0.00     0.224 C 
HETATM    2  C8  UNL     1      24.497  43.907  61.455  1.00  0.00     0.036 C 
HETATM    3  C9  UNL     1      25.728  43.078  61.350  1.00  0.00     0.004 C 
HETATM    4  C10 UNL     1      26.610  43.415  60.180  1.00  0.00     0.030 C 
HETATM    5  C11 UNL     1      26.624  44.870  59.842  1.00  0.00     0.273 C 
HETATM    6  N2  UNL     1      25.276  45.434  59.782  1.00  0.00     0.099 N 
ENDROOT
BRANCH   1   7
HETATM    7  C6  UNL     1      23.626  46.255  61.374  1.00  0.00     0.044 C 
BRANCH   7   8
HETATM    8  C5  UNL     1      22.486  45.380  61.916  1.00  0.00     0.089 C 
BRANCH   8   9
HETATM    9  C4  UNL     1      21.234  45.849  61.224  1.00  0.00     0.148 A 
HETATM   10  O1  UNL     1      21.143  46.534  60.110  1.00  0.00    -0.223 OA
HETATM   11  N1  UNL     1      19.909  46.763  59.809  1.00  0.00    -0.247 N 
HETATM   12  C3  UNL     1      19.128  46.212  60.753  1.00  0.00     0.103 A 
ATOM     13  H1  UNL     1      19.581  47.277  58.991  1.00  0.00     0.196 HD
HETATM   14  N4  UNL     1      19.970  45.642  61.634  1.00  0.00    -0.327 N 
ATOM     15  H4  UNL     1      19.695  45.135  62.475  1.00  0.00     0.169 HD
BRANCH  12  16
HETATM   16  C2  UNL     1      17.623  46.228  60.815  1.00  0.00     0.074 C 
HETATM   17  C1  UNL     1      17.235  47.699  60.616  1.00  0.00     0.013 C 
ENDBRANCH  12  16
ENDBRANCH   8   9
ENDBRANCH   7   8
ENDBRANCH   1   7
BRANCH   6  18
HETATM   18  C12 UNL     1      24.446  44.682  58.901  1.00  0.00     0.337 C 
BRANCH  18  19
HETATM   19  C13 UNL     1      23.991  45.570  57.769  1.00  0.00     0.079 A 
HETATM   20  N3  UNL     1      24.650  46.517  57.124  1.00  0.00    -0.356 N 
HETATM   21  C14 UNL     1      24.075  47.174  56.171  1.00  0.00     0.012 A 
ATOM     22  H3  UNL     1      25.614  46.729  57.379  1.00  0.00     0.166 HD
HETATM   23  C15 UNL     1      24.784  48.272  55.397  1.00  0.00     0.068 C 
HETATM   24  C16 UNL     1      22.777  46.854  55.865  1.00  0.00     0.076 A 
HETATM   25  S1  UNL     1      22.465  45.601  56.991  1.00  0.00    -0.085 SA
ENDBRANCH  18  19
ENDBRANCH   6  18
TORSDOF 6
ENDMDL
MODEL 5
REMARK VINA RESULT: -7.912501854      1.889      2.569
REMARK  6 active torsions:
REMARK  status: ('A' for Active; 'I' for Inactive)
REMARK    1  A    between atoms: C2_2  and  C3_3 
REMARK    2  A    between atoms: C4_7  and  C5_8 
REMARK    3  A    between atoms: C5_8  and  C6_9 
REMARK    4  A    between atoms: C6_9  and  C7_10 
REMARK    5  A    between atoms: N2_15  and  C12_16 
REMARK    6  A    between atoms: C12_16  and  C13_17 
ROOT
HETATM    1  C7  UNL     1      25.996  44.570  61.302  1.00  0.00     0.224 C 
HETATM    2  C8  UNL     1      26.261  43.114  61.382  1.00  0.00     0.036 C 
HETATM    3  C9  UNL     1      27.722  42.842  61.309  1.00  0.00     0.004 C 
HETATM    4  C10 UNL     1      28.463  43.674  60.299  1.00  0.00     0.030 C 
HETATM    5  C11 UNL     1      27.924  45.060  60.157  1.00  0.00     0.273 C 
HETATM    6  N2  UNL     1      26.468  45.074  60.020  1.00  0.00     0.099 N 
ENDROOT
BRANCH   1   7
HETATM    7  C6  UNL     1      24.546  44.937  61.509  1.00  0.00     0.044 C 
BRANCH   7   8
HETATM    8  C5  UNL     1      24.537  46.408  61.948  1.00  0.00     0.089 C 
BRANCH   8   9
HETATM    9  C4  UNL     1      23.099  46.749  62.237  1.00  0.00     0.148 A 
HETATM   10  O1  UNL     1      22.636  47.528  63.183  1.00  0.00    -0.223 OA
HETATM   11  N1  UNL     1      21.347  47.594  63.136  1.00  0.00    -0.247 N 
HETATM   12  C3  UNL     1      20.916  46.830  62.119  1.00  0.00     0.103 A 
ATOM     13  H1  UNL     1      20.755  48.135  63.767  1.00  0.00     0.196 HD
HETATM   14  N4  UNL     1      22.023  46.306  61.563  1.00  0.00    -0.327 N 
ATOM     15  H4  UNL     1      22.043  45.677  60.761  1.00  0.00     0.169 HD
BRANCH  12  16
HETATM   16  C2  UNL     1      19.490  46.605  61.688  1.00  0.00     0.074 C 
HETATM   17  C1  UNL     1      19.510  46.767  60.162  1.00  0.00     0.013 C 
ENDBRANCH  12  16
ENDBRANCH   8   9
ENDBRANCH   7   8
ENDBRANCH   1   7
BRANCH   6  18
HETATM   18  C12 UNL     1      26.046  44.219  58.961  1.00  0.00     0.337 C 
BRANCH  18  19
HETATM   19  C13 UNL     1      25.221  45.014  57.979  1.00  0.00     0.079 A 
HETATM   20  N3  UNL     1      25.563  46.056  57.242  1.00  0.00    -0.356 N 
HETATM   21  C14 UNL     1      24.698  46.604  56.453  1.00  0.00     0.012 A 
ATOM     22  H3  UNL     1      26.511  46.428  57.295  1.00  0.00     0.166 HD
HETATM   23  C15 UNL     1      25.036  47.804  55.583  1.00  0.00     0.068 C 
HETATM   24  C16 UNL     1      23.436  46.070  56.416  1.00  0.00     0.076 A 
HETATM   25  S1  UNL     1      23.581  44.786  57.541  1.00  0.00    -0.085 SA
ENDBRANCH  18  19
ENDBRANCH   6  18
TORSDOF 6
ENDMDL
