MODEL 1
REMARK VINA RESULT: -8.321051999      0.000      0.000
REMARK  5 active torsions:
REMARK  status: ('A' for Active; 'I' for Inactive)
REMARK    1  A    between atoms: O1_2  and  C2_3 
REMARK    2  A    between atoms: C5_6  and  C6_7 
REMARK    3  A    between atoms: C6_7  and  O2_8 
REMARK    4  A    between atoms: O2_8  and  C7_9 
REMARK    5  A    between atoms: C12_18  and  C13_19 
ROOT
HETATM    1  C7  UNL     1      23.014  46.239  60.490  1.00  0.00     0.171 A 
HETATM    2  N1  UNL     1      22.442  46.455  61.691  1.00  0.00    -0.337 N 
ATOM      3  H1  UNL     1      23.041  46.501  62.514  1.00  0.00     0.168 HD
HETATM    4  C8  UNL     1      21.115  46.610  61.850  1.00  0.00     0.029 A 
HETATM    5  C9  UNL     1      20.565  46.845  63.211  1.00  0.00     0.070 C 
HETATM    6  C10 UNL     1      20.271  46.553  60.759  1.00  0.00     0.028 A 
HETATM    7  C11 UNL     1      18.797  46.719  60.884  1.00  0.00     0.070 C 
HETATM    8  N2  UNL     1      20.829  46.339  59.554  1.00  0.00    -0.354 N 
ATOM      9  H2  UNL     1      20.228  46.292  58.732  1.00  0.00     0.166 HD
HETATM   10  C12 UNL     1      22.157  46.184  59.402  1.00  0.00     0.099 A 
ENDROOT
BRANCH   1  11
HETATM   11  O2  UNL     1      24.385  46.080  60.334  1.00  0.00    -0.334 OA
BRANCH  11  12
HETATM   12  C6  UNL     1      25.123  45.650  61.460  1.00  0.00     0.184 C 
BRANCH  12  13
HETATM   13  C5  UNL     1      26.334  44.838  61.062  1.00  0.00     0.039 C 
HETATM   14  C2  UNL     1      26.033  43.357  60.962  1.00  0.00     0.127 C 
HETATM   15  C3  UNL     1      26.772  43.331  59.670  1.00  0.00     0.033 C 
HETATM   16  C4  UNL     1      26.455  44.829  59.534  1.00  0.00     0.012 C 
BRANCH  14  17
HETATM   17  O1  UNL     1      26.391  42.574  61.986  1.00  0.00    -0.390 OA
HETATM   18  C1  UNL     1      27.705  42.354  62.239  1.00  0.00     0.202 C 
ENDBRANCH  14  17
ENDBRANCH  12  13
ENDBRANCH  11  12
ENDBRANCH   1  11
BRANCH  10  19
HETATM   19  C13 UNL     1      22.780  45.950  58.102  1.00  0.00     0.050 A 
HETATM   20  C14 UNL     1      23.023  46.884  57.119  1.00  0.00     0.043 A 
HETATM   21  C15 UNL     1      22.702  48.355  57.163  1.00  0.00     0.071 C 
HETATM   22  N3  UNL     1      23.606  46.210  56.113  1.00  0.00    -0.265 N 
HETATM   23  O3  UNL     1      23.718  44.958  56.439  1.00  0.00    -0.242 OA
ATOM     24  H3  UNL     1      23.912  46.619  55.230  1.00  0.00     0.194 HD
HETATM   25  C16 UNL     1      23.238  44.738  57.627  1.00  0.00     0.087 A 
HETATM   26  C17 UNL     1      23.200  43.415  58.328  1.00  0.00     0.080 C 
ENDBRANCH  10  19
TORSDOF 5
ENDMDL
MODEL 2
REMARK VINA RESULT: -8.292504510      1.707      4.260
REMARK  5 active torsions:
REMARK  status: ('A' for Active; 'I' for Inactive)
REMARK    1  A    between atoms: O1_2  and  C2_3 
REMARK    2  A    between atoms: C5_6  and  C6_7 
REMARK    3  A    between atoms: C6_7  and  O2_8 
REMARK    4  A    between atoms: O2_8  and  C7_9 
REMARK    5  A    between atoms: C12_18  and  C13_19 
ROOT
HETATM    1  C7  UNL     1      22.952  45.249  59.744  1.00  0.00     0.171 A 
HETATM    2  N1  UNL     1      23.399  45.196  58.475  1.00  0.00    -0.337 N 
ATOM      3  H1  UNL     1      23.853  44.341  58.154  1.00  0.00     0.168 HD
HETATM    4  C8  UNL     1      23.272  46.221  57.611  1.00  0.00     0.029 A 
HETATM    5  C9  UNL     1      23.792  46.078  56.226  1.00  0.00     0.070 C 
HETATM    6  C10 UNL     1      22.664  47.394  58.009  1.00  0.00     0.028 A 
HETATM    7  C11 UNL     1      22.499  48.555  57.091  1.00  0.00     0.070 C 
HETATM    8  N2  UNL     1      22.212  47.461  59.274  1.00  0.00    -0.354 N 
ATOM      9  H2  UNL     1      21.758  48.317  59.592  1.00  0.00     0.166 HD
HETATM   10  C12 UNL     1      22.343  46.433  60.132  1.00  0.00     0.099 A 
ENDROOT
BRANCH   1  11
HETATM   11  O2  UNL     1      23.087  44.187  60.629  1.00  0.00    -0.334 OA
BRANCH  11  12
HETATM   12  C6  UNL     1      24.254  43.398  60.526  1.00  0.00     0.184 C 
BRANCH  12  13
HETATM   13  C5  UNL     1      25.369  43.925  61.400  1.00  0.00     0.039 C 
HETATM   14  C2  UNL     1      26.601  43.048  61.362  1.00  0.00     0.127 C 
HETATM   15  C3  UNL     1      27.428  44.276  61.205  1.00  0.00     0.033 C 
HETATM   16  C4  UNL     1      26.183  44.956  60.611  1.00  0.00     0.012 C 
BRANCH  14  17
HETATM   17  O1  UNL     1      26.800  42.200  62.379  1.00  0.00    -0.390 OA
HETATM   18  C1  UNL     1      28.063  41.921  62.787  1.00  0.00     0.202 C 
ENDBRANCH  14  17
ENDBRANCH  12  13
ENDBRANCH  11  12
ENDBRANCH   1  11
BRANCH  10  19
HETATM   19  C13 UNL     1      21.860  46.489  61.509  1.00  0.00     0.050 A 
HETATM   20  C14 UNL     1      22.583  46.840  62.627  1.00  0.00     0.043 A 
HETATM   21  C15 UNL     1      24.033  47.245  62.683  1.00  0.00     0.071 C 
HETATM   22  N3  UNL     1      21.727  46.746  63.658  1.00  0.00    -0.265 N 
HETATM   23  O3  UNL     1      20.563  46.367  63.222  1.00  0.00    -0.242 OA
ATOM     24  H3  UNL     1      21.956  46.941  64.633  1.00  0.00     0.194 HD
HETATM   25  C16 UNL     1      20.580  46.196  61.933  1.00  0.00     0.087 A 
HETATM   26  C17 UNL     1      19.420  45.762  61.090  1.00  0.00     0.080 C 
ENDBRANCH  10  19
TORSDOF 5
ENDMDL
MODEL 3
REMARK VINA RESULT: -8.260901179      1.658      4.296
REMARK  5 active torsions:
REMARK  status: ('A' for Active; 'I' for Inactive)
REMARK    1  A    between atoms: O1_2  and  C2_3 
REMARK    2  A    between atoms: C5_6  and  C6_7 
REMARK    3  A    between atoms: C6_7  and  O2_8 
REMARK    4  A    between atoms: O2_8  and  C7_9 
REMARK    5  A    between atoms: C12_18  and  C13_19 
ROOT
HETATM    1  C7  UNL     1      22.956  45.244  59.726  1.00  0.00     0.171 A 
HETATM    2  N1  UNL     1      23.395  45.196  58.453  1.00  0.00    -0.337 N 
ATOM      3  H1  UNL     1      23.846  44.342  58.125  1.00  0.00     0.168 HD
HETATM    4  C8  UNL     1      23.264  46.225  57.596  1.00  0.00     0.029 A 
HETATM    5  C9  UNL     1      23.776  46.088  56.207  1.00  0.00     0.070 C 
HETATM    6  C10 UNL     1      22.661  47.397  58.003  1.00  0.00     0.028 A 
HETATM    7  C11 UNL     1      22.492  48.563  57.091  1.00  0.00     0.070 C 
HETATM    8  N2  UNL     1      22.217  47.459  59.271  1.00  0.00    -0.354 N 
ATOM      9  H2  UNL     1      21.766  48.314  59.596  1.00  0.00     0.166 HD
HETATM   10  C12 UNL     1      22.351  46.426  60.123  1.00  0.00     0.099 A 
ENDROOT
BRANCH   1  11
HETATM   11  O2  UNL     1      23.095  44.177  60.605  1.00  0.00    -0.334 OA
BRANCH  11  12
HETATM   12  C6  UNL     1      24.264  43.391  60.495  1.00  0.00     0.184 C 
BRANCH  12  13
HETATM   13  C5  UNL     1      25.386  43.927  61.353  1.00  0.00     0.039 C 
HETATM   14  C2  UNL     1      26.608  43.035  61.335  1.00  0.00     0.127 C 
HETATM   15  C3  UNL     1      27.448  44.250  61.145  1.00  0.00     0.033 C 
HETATM   16  C4  UNL     1      26.209  44.928  60.537  1.00  0.00     0.012 C 
BRANCH  14  17
HETATM   17  O1  UNL     1      26.800  42.211  62.373  1.00  0.00    -0.390 OA
HETATM   18  C1  UNL     1      28.060  41.919  62.777  1.00  0.00     0.202 C 
ENDBRANCH  14  17
ENDBRANCH  12  13
ENDBRANCH  11  12
ENDBRANCH   1  11
BRANCH  10  19
HETATM   19  C13 UNL     1      21.877  46.476  61.504  1.00  0.00     0.050 A 
HETATM   20  C14 UNL     1      20.607  46.191  61.954  1.00  0.00     0.043 A 
HETATM   21  C15 UNL     1      19.423  45.764  61.127  1.00  0.00     0.071 C 
HETATM   22  N3  UNL     1      20.644  46.372  63.285  1.00  0.00    -0.265 N 
HETATM   23  O3  UNL     1      21.839  46.741  63.638  1.00  0.00    -0.242 OA
ATOM     24  H3  UNL     1      19.855  46.242  63.919  1.00  0.00     0.194 HD
HETATM   25  C16 UNL     1      22.627  46.822  62.608  1.00  0.00     0.087 A 
HETATM   26  C17 UNL     1      24.072  47.216  62.637  1.00  0.00     0.080 C 
ENDBRANCH  10  19
TORSDOF 5
ENDMDL
MODEL 4
REMARK VINA RESULT: -8.195171620      1.834      4.481
REMARK  5 active torsions:
REMARK  status: ('A' for Active; 'I' for Inactive)
REMARK    1  A    between atoms: O1_2  and  C2_3 
REMARK    2  A    between atoms: C5_6  and  C6_7 
REMARK    3  A    between atoms: C6_7  and  O2_8 
REMARK    4  A    between atoms: O2_8  and  C7_9 
REMARK    5  A    between atoms: C12_18  and  C13_19 
ROOT
HETATM    1  C7  UNL     1      22.785  45.186  59.821  1.00  0.00     0.171 A 
HETATM    2  N1  UNL     1      23.245  45.112  58.557  1.00  0.00    -0.337 N 
ATOM      3  H1  UNL     1      23.660  44.237  58.240  1.00  0.00     0.168 HD
HETATM    4  C8  UNL     1      23.180  46.144  57.695  1.00  0.00     0.029 A 
HETATM    5  C9  UNL     1      23.711  45.978  56.316  1.00  0.00     0.070 C 
HETATM    6  C10 UNL     1      22.625  47.345  58.087  1.00  0.00     0.028 A 
HETATM    7  C11 UNL     1      22.531  48.515  57.170  1.00  0.00     0.070 C 
HETATM    8  N2  UNL     1      22.161  47.432  59.347  1.00  0.00    -0.354 N 
ATOM      9  H2  UNL     1      21.746  48.309  59.661  1.00  0.00     0.166 HD
HETATM   10  C12 UNL     1      22.229  46.397  60.203  1.00  0.00     0.099 A 
ENDROOT
BRANCH   1  11
HETATM   11  O2  UNL     1      22.855  44.116  60.704  1.00  0.00    -0.334 OA
BRANCH  11  12
HETATM   12  C6  UNL     1      24.019  44.002  61.497  1.00  0.00     0.184 C 
BRANCH  12  13
HETATM   13  C5  UNL     1      25.216  43.572  60.681  1.00  0.00     0.039 C 
HETATM   14  C2  UNL     1      26.204  44.697  60.461  1.00  0.00     0.127 C 
HETATM   15  C3  UNL     1      27.301  43.755  60.814  1.00  0.00     0.033 C 
HETATM   16  C4  UNL     1      26.262  42.949  61.611  1.00  0.00     0.012 C 
BRANCH  14  17
HETATM   17  O1  UNL     1      26.181  45.330  59.282  1.00  0.00    -0.390 OA
HETATM   18  C1  UNL     1      27.045  44.963  58.303  1.00  0.00     0.202 C 
ENDBRANCH  14  17
ENDBRANCH  12  13
ENDBRANCH  11  12
ENDBRANCH   1  11
BRANCH  10  19
HETATM   19  C13 UNL     1      21.732  46.474  61.574  1.00  0.00     0.050 A 
HETATM   20  C14 UNL     1      22.435  46.872  62.690  1.00  0.00     0.043 A 
HETATM   21  C15 UNL     1      23.872  47.318  62.748  1.00  0.00     0.071 C 
HETATM   22  N3  UNL     1      21.571  46.781  63.715  1.00  0.00    -0.265 N 
HETATM   23  O3  UNL     1      20.422  46.360  63.278  1.00  0.00    -0.242 OA
ATOM     24  H3  UNL     1      21.785  47.006  64.687  1.00  0.00     0.194 HD
HETATM   25  C16 UNL     1      20.456  46.157  61.994  1.00  0.00     0.087 A 
HETATM   26  C17 UNL     1      19.317  45.672  61.151  1.00  0.00     0.080 C 
ENDBRANCH  10  19
TORSDOF 5
ENDMDL
MODEL 5
REMARK VINA RESULT: -8.186471665      1.857      4.541
REMARK  5 active torsions:
REMARK  status: ('A' for Active; 'I' for Inactive)
REMARK    1  A    between atoms: O1_2  and  C2_3 
REMARK    2  A    between atoms: C5_6  and  C6_7 
REMARK    3  A    between atoms: C6_7  and  O2_8 
REMARK    4  A    between atoms: O2_8  and  C7_9 
REMARK    5  A    between atoms: C12_18  and  C13_19 
ROOT
HETATM    1  C7  UNL     1      23.583  45.313  60.042  1.00  0.00     0.171 A 
HETATM    2  N1  UNL     1      24.048  45.145  58.789  1.00  0.00    -0.337 N 
ATOM      3  H1  UNL     1      24.630  44.332  58.590  1.00  0.00     0.168 HD
HETATM    4  C8  UNL     1      23.779  46.005  57.789  1.00  0.00     0.029 A 
HETATM    5  C9  UNL     1      24.332  45.746  56.434  1.00  0.00     0.070 C 
HETATM    6  C10 UNL     1      22.996  47.118  58.020  1.00  0.00     0.028 A 
HETATM    7  C11 UNL     1      22.670  48.098  56.947  1.00  0.00     0.070 C 
HETATM    8  N2  UNL     1      22.525  47.297  59.267  1.00  0.00    -0.354 N 
ATOM      9  H2  UNL     1      21.943  48.111  59.464  1.00  0.00     0.166 HD
HETATM   10  C12 UNL     1      22.798  46.434  60.262  1.00  0.00     0.099 A 
ENDROOT
BRANCH   1  11
HETATM   11  O2  UNL     1      23.866  44.421  61.069  1.00  0.00    -0.334 OA
BRANCH  11  12
HETATM   12  C6  UNL     1      25.201  44.357  61.528  1.00  0.00     0.184 C 
BRANCH  12  13
HETATM   13  C5  UNL     1      25.915  43.129  61.011  1.00  0.00     0.039 C 
HETATM   14  C2  UNL     1      27.012  43.467  60.025  1.00  0.00     0.127 C 
HETATM   15  C3  UNL     1      27.904  42.518  60.745  1.00  0.00     0.033 C 
HETATM   16  C4  UNL     1      27.031  42.747  61.990  1.00  0.00     0.012 C 
BRANCH  14  17
HETATM   17  O1  UNL     1      26.749  43.322  58.720  1.00  0.00    -0.390 OA
HETATM   18  C1  UNL     1      27.377  44.112  57.814  1.00  0.00     0.202 C 
ENDBRANCH  14  17
ENDBRANCH  12  13
ENDBRANCH  11  12
ENDBRANCH   1  11
BRANCH  10  19
HETATM   19  C13 UNL     1      22.295  46.613  61.622  1.00  0.00     0.050 A 
HETATM   20  C14 UNL     1      21.047  46.273  62.095  1.00  0.00     0.043 A 
HETATM   21  C15 UNL     1      19.921  45.642  61.320  1.00  0.00     0.071 C 
HETATM   22  N3  UNL     1      21.044  46.622  63.393  1.00  0.00    -0.265 N 
HETATM   23  O3  UNL     1      22.194  47.138  63.706  1.00  0.00    -0.242 OA
ATOM     24  H3  UNL     1      20.258  46.502  64.033  1.00  0.00     0.194 HD
HETATM   25  C16 UNL     1      22.992  47.159  62.680  1.00  0.00     0.087 A 
HETATM   26  C17 UNL     1      24.396  47.682  62.669  1.00  0.00     0.080 C 
ENDBRANCH  10  19
TORSDOF 5
ENDMDL
