MODEL 1
REMARK VINA RESULT: -9.120939734      0.000      0.000
REMARK  10 active torsions:
REMARK  status: ('A' for Active; 'I' for Inactive)
REMARK    1  A    between atoms: C2_2  and  C4_4 
REMARK    2  A    between atoms: C4_4  and  C5_5 
REMARK    3  A    between atoms: C5_5  and  N1_6 
REMARK    4  A    between atoms: C5_5  and  C27_34 
REMARK    5  A    between atoms: N1_6  and  C6_8 
REMARK    6  A    between atoms: C6_8  and  O1_9 
REMARK    7  A    between atoms: C6_8  and  C7_11 
REMARK    8  A    between atoms: C14_19  and  C15_20 
REMARK    9  A    between atoms: C15_20  and  N2_21 
REMARK   10  A    between atoms: C30_37  and  N4_38 
ROOT
HETATM    1  C7  UNL     1      25.951   9.388  -6.157  1.00  0.00     0.008 C 
HETATM    2  C8  UNL     1      26.545   8.328  -6.577  1.00  0.00     0.007 C 
HETATM    3  C9  UNL     1      27.788   7.811  -5.957  1.00  0.00     0.157 C 
HETATM    4  O2  UNL     1      27.884   7.693  -4.724  1.00  0.00    -0.293 OA
HETATM    5  C10 UNL     1      28.735   7.511  -7.068  1.00  0.00     0.085 C 
HETATM    6  C11 UNL     1      27.789   7.242  -8.233  1.00  0.00     0.022 C 
HETATM    7  C12 UNL     1      26.358   7.342  -7.697  1.00  0.00    -0.007 C 
HETATM    8  C13 UNL     1      26.033   5.971  -7.127  1.00  0.00     0.021 C 
HETATM    9  C14 UNL     1      25.399   7.770  -8.737  1.00  0.00     0.027 C 
HETATM   10  C21 UNL     1      25.601   9.248  -8.994  1.00  0.00     0.013 C 
HETATM   11  C22 UNL     1      24.542   9.947  -8.185  1.00  0.00     0.004 A 
HETATM   12  C23 UNL     1      24.665   9.905  -6.759  1.00  0.00     0.036 A 
HETATM   13  C24 UNL     1      24.872  11.216  -7.508  1.00  0.00    -0.035 A 
HETATM   14  C25 UNL     1      23.760  12.242  -7.447  1.00  0.00     0.016 C 
HETATM   15  C26 UNL     1      26.233  11.749  -7.802  1.00  0.00     0.016 C 
ENDROOT
BRANCH   1  16
HETATM   16  C6  UNL     1      26.399  10.198  -5.088  1.00  0.00     0.143 C 
BRANCH  16  17
HETATM   17  N1  UNL     1      27.516  10.662  -4.438  1.00  0.00    -0.366 N 
ATOM     18  H1  UNL     1      28.433  10.528  -4.864  1.00  0.00     0.162 HD
BRANCH  17  19
HETATM   19  C5  UNL     1      27.416  11.364  -3.108  1.00  0.00     0.088 C 
BRANCH  19  20
HETATM   20  C4  UNL     1      28.228  12.624  -3.188  1.00  0.00     0.029 C 
BRANCH  20  21
HETATM   21  C2  UNL     1      27.414  13.892  -3.093  1.00  0.00    -0.021 C 
HETATM   22  C1  UNL     1      27.904  14.878  -4.171  1.00  0.00     0.009 C 
HETATM   23  C3  UNL     1      27.694  14.625  -1.781  1.00  0.00     0.009 C 
ENDBRANCH  20  21
ENDBRANCH  19  20
BRANCH  19  24
HETATM   24  C27 UNL     1      27.897  10.406  -2.040  1.00  0.00     0.008 C 
HETATM   25  C28 UNL     1      26.898   9.301  -1.788  1.00  0.00     0.009 C 
HETATM   26  C29 UNL     1      25.819   9.680  -0.827  1.00  0.00     0.033 C 
HETATM   27  C30 UNL     1      26.456  10.062   0.489  1.00  0.00     0.183 C 
HETATM   28  C31 UNL     1      27.270  11.322   0.209  1.00  0.00     0.033 C 
HETATM   29  C32 UNL     1      28.370  11.046  -0.786  1.00  0.00     0.009 C 
BRANCH  27  30
HETATM   30  N4  UNL     1      27.318   8.975   0.905  1.00  0.00    -0.075 N 
ATOM     31  H43 UNL     1      26.824   8.264   1.444  1.00  0.00     0.274 HD
ATOM     32  H42 UNL     1      27.607   8.381   0.127  1.00  0.00     0.274 HD
ATOM     33  H41 UNL     1      28.109   9.372   1.411  1.00  0.00     0.274 HD
ENDBRANCH  27  30
ENDBRANCH  19  24
ENDBRANCH  17  19
ENDBRANCH  16  17
BRANCH  16  34
HETATM   34  O1  UNL     1      25.311  10.701  -4.456  1.00  0.00    -0.346 OA
ATOM     35  H1  UNL     1      24.660  10.010  -4.401  1.00  0.00     0.219 HD
ENDBRANCH  16  34
ENDBRANCH   1  16
BRANCH   9  36
HETATM   36  C15 UNL     1      25.562   6.954  -9.996  1.00  0.00     0.278 C 
BRANCH  36  37
HETATM   37  N2  UNL     1      24.801   7.486 -11.108  1.00  0.00     0.092 N 
HETATM   38  C16 UNL     1      25.308   6.795 -12.303  1.00  0.00     0.302 C 
HETATM   39  C17 UNL     1      24.620   7.437 -13.487  1.00  0.00     0.302 C 
HETATM   40  N3  UNL     1      23.233   7.041 -13.438  1.00  0.00     0.087 N 
HETATM   41  C18 UNL     1      22.480   7.658 -14.529  1.00  0.00     0.310 C 
HETATM   42  C19 UNL     1      22.626   7.450 -12.211  1.00  0.00     0.302 C 
HETATM   43  C20 UNL     1      23.411   7.098 -10.980  1.00  0.00     0.302 C 
ENDBRANCH  36  37
ENDBRANCH   9  36
TORSDOF 10
ENDMDL
MODEL 2
REMARK VINA RESULT: -8.731576461      1.080      1.457
REMARK  10 active torsions:
REMARK  status: ('A' for Active; 'I' for Inactive)
REMARK    1  A    between atoms: C2_2  and  C4_4 
REMARK    2  A    between atoms: C4_4  and  C5_5 
REMARK    3  A    between atoms: C5_5  and  N1_6 
REMARK    4  A    between atoms: C5_5  and  C27_34 
REMARK    5  A    between atoms: N1_6  and  C6_8 
REMARK    6  A    between atoms: C6_8  and  O1_9 
REMARK    7  A    between atoms: C6_8  and  C7_11 
REMARK    8  A    between atoms: C14_19  and  C15_20 
REMARK    9  A    between atoms: C15_20  and  N2_21 
REMARK   10  A    between atoms: C30_37  and  N4_38 
ROOT
HETATM    1  C7  UNL     1      26.022   9.417  -5.697  1.00  0.00     0.008 C 
HETATM    2  C8  UNL     1      26.675   8.392  -6.117  1.00  0.00     0.007 C 
HETATM    3  C9  UNL     1      27.966   7.972  -5.525  1.00  0.00     0.157 C 
HETATM    4  O2  UNL     1      28.105   7.884  -4.294  1.00  0.00    -0.293 OA
HETATM    5  C10 UNL     1      28.901   7.716  -6.658  1.00  0.00     0.085 C 
HETATM    6  C11 UNL     1      27.942   7.362  -7.791  1.00  0.00     0.022 C 
HETATM    7  C12 UNL     1      26.524   7.375  -7.214  1.00  0.00    -0.007 C 
HETATM    8  C13 UNL     1      26.309   5.996  -6.612  1.00  0.00     0.021 C 
HETATM    9  C14 UNL     1      25.508   7.718  -8.232  1.00  0.00     0.027 C 
HETATM   10  C21 UNL     1      25.602   9.201  -8.520  1.00  0.00     0.013 C 
HETATM   11  C22 UNL     1      24.521   9.842  -7.692  1.00  0.00     0.004 A 
HETATM   12  C23 UNL     1      24.687   9.835  -6.270  1.00  0.00     0.036 A 
HETATM   13  C24 UNL     1      24.784  11.142  -7.047  1.00  0.00    -0.035 A 
HETATM   14  C25 UNL     1      23.606  12.092  -6.970  1.00  0.00     0.016 C 
HETATM   15  C26 UNL     1      26.096  11.761  -7.389  1.00  0.00     0.016 C 
ENDROOT
BRANCH   1  16
HETATM   16  C6  UNL     1      26.444  10.275  -4.656  1.00  0.00     0.143 C 
BRANCH  16  17
HETATM   17  N1  UNL     1      27.502  11.009  -4.181  1.00  0.00    -0.366 N 
ATOM     18  H1  UNL     1      28.453  10.677  -4.344  1.00  0.00     0.162 HD
BRANCH  17  19
HETATM   19  C5  UNL     1      27.291  12.294  -3.422  1.00  0.00     0.088 C 
BRANCH  19  20
HETATM   20  C4  UNL     1      27.373  13.429  -4.401  1.00  0.00     0.029 C 
BRANCH  20  21
HETATM   21  C2  UNL     1      26.423  14.566  -4.112  1.00  0.00    -0.021 C 
HETATM   22  C1  UNL     1      25.380  14.641  -5.244  1.00  0.00     0.009 C 
HETATM   23  C3  UNL     1      27.141  15.913  -4.193  1.00  0.00     0.009 C 
ENDBRANCH  20  21
ENDBRANCH  19  20
BRANCH  19  24
HETATM   24  C27 UNL     1      28.336  12.366  -2.329  1.00  0.00     0.008 C 
HETATM   25  C28 UNL     1      28.230  11.198  -1.377  1.00  0.00     0.009 C 
HETATM   26  C29 UNL     1      27.222  11.402  -0.293  1.00  0.00     0.033 C 
HETATM   27  C30 UNL     1      27.602  12.634   0.495  1.00  0.00     0.183 C 
HETATM   28  C31 UNL     1      27.465  13.806  -0.471  1.00  0.00     0.033 C 
HETATM   29  C32 UNL     1      28.425  13.671  -1.627  1.00  0.00     0.009 C 
BRANCH  27  30
HETATM   30  N4  UNL     1      28.976  12.484   0.931  1.00  0.00    -0.075 N 
ATOM     31  H43 UNL     1      29.600  12.199   0.177  1.00  0.00     0.274 HD
ATOM     32  H42 UNL     1      29.420  13.377   1.147  1.00  0.00     0.274 HD
ATOM     33  H41 UNL     1      28.989  11.837   1.719  1.00  0.00     0.274 HD
ENDBRANCH  27  30
ENDBRANCH  19  24
ENDBRANCH  17  19
ENDBRANCH  16  17
BRANCH  16  34
HETATM   34  O1  UNL     1      25.413  10.422  -3.788  1.00  0.00    -0.346 OA
ATOM     35  H1  UNL     1      25.731  10.208  -2.918  1.00  0.00     0.219 HD
ENDBRANCH  16  34
ENDBRANCH   1  16
BRANCH   9  36
HETATM   36  C15 UNL     1      25.692   6.892  -9.482  1.00  0.00     0.278 C 
BRANCH  36  37
HETATM   37  N2  UNL     1      24.974   7.431 -10.619  1.00  0.00     0.092 N 
HETATM   38  C16 UNL     1      25.462   6.686 -11.788  1.00  0.00     0.302 C 
HETATM   39  C17 UNL     1      24.823   7.330 -12.998  1.00  0.00     0.302 C 
HETATM   40  N3  UNL     1      23.417   7.006 -12.959  1.00  0.00     0.087 N 
HETATM   41  C18 UNL     1      22.712   7.632 -14.077  1.00  0.00     0.310 C 
HETATM   42  C19 UNL     1      22.815   7.477 -11.753  1.00  0.00     0.302 C 
HETATM   43  C20 UNL     1      23.564   7.118 -10.502  1.00  0.00     0.302 C 
ENDBRANCH  36  37
ENDBRANCH   9  36
TORSDOF 10
ENDMDL
MODEL 3
REMARK VINA RESULT: -8.706567942      1.936      2.577
REMARK  10 active torsions:
REMARK  status: ('A' for Active; 'I' for Inactive)
REMARK    1  A    between atoms: C2_2  and  C4_4 
REMARK    2  A    between atoms: C4_4  and  C5_5 
REMARK    3  A    between atoms: C5_5  and  N1_6 
REMARK    4  A    between atoms: C5_5  and  C27_34 
REMARK    5  A    between atoms: N1_6  and  C6_8 
REMARK    6  A    between atoms: C6_8  and  O1_9 
REMARK    7  A    between atoms: C6_8  and  C7_11 
REMARK    8  A    between atoms: C14_19  and  C15_20 
REMARK    9  A    between atoms: C15_20  and  N2_21 
REMARK   10  A    between atoms: C30_37  and  N4_38 
ROOT
HETATM    1  C7  UNL     1      26.971   7.565  -7.333  1.00  0.00     0.008 C 
HETATM    2  C8  UNL     1      26.778   6.366  -7.755  1.00  0.00     0.007 C 
HETATM    3  C9  UNL     1      27.636   5.229  -7.348  1.00  0.00     0.157 C 
HETATM    4  O2  UNL     1      27.924   5.043  -6.154  1.00  0.00    -0.293 OA
HETATM    5  C10 UNL     1      27.990   4.485  -8.590  1.00  0.00     0.085 C 
HETATM    6  C11 UNL     1      26.820   4.820  -9.509  1.00  0.00     0.022 C 
HETATM    7  C12 UNL     1      25.839   5.682  -8.710  1.00  0.00    -0.007 C 
HETATM    8  C13 UNL     1      24.953   4.706  -7.951  1.00  0.00     0.021 C 
HETATM    9  C14 UNL     1      25.067   6.600  -9.573  1.00  0.00     0.027 C 
HETATM   10  C21 UNL     1      25.980   7.724 -10.013  1.00  0.00     0.013 C 
HETATM   11  C22 UNL     1      25.687   8.869  -9.083  1.00  0.00     0.004 A 
HETATM   12  C23 UNL     1      26.081   8.725  -7.714  1.00  0.00     0.036 A 
HETATM   13  C24 UNL     1      26.798   9.721  -8.618  1.00  0.00    -0.035 A 
HETATM   14  C25 UNL     1      26.475  11.191  -8.438  1.00  0.00     0.016 C 
HETATM   15  C26 UNL     1      28.123   9.418  -9.230  1.00  0.00     0.016 C 
ENDROOT
BRANCH   1  16
HETATM   16  C6  UNL     1      28.013   7.959  -6.463  1.00  0.00     0.143 C 
BRANCH  16  17
HETATM   17  N1  UNL     1      28.288   8.556  -5.258  1.00  0.00    -0.366 N 
ATOM     18  H1  UNL     1      29.260   8.706  -4.985  1.00  0.00     0.162 HD
BRANCH  17  19
HETATM   19  C5  UNL     1      27.187   8.996  -4.328  1.00  0.00     0.088 C 
BRANCH  19  20
HETATM   20  C4  UNL     1      27.076  10.490  -4.415  1.00  0.00     0.029 C 
BRANCH  20  21
HETATM   21  C2  UNL     1      25.884  10.978  -5.202  1.00  0.00    -0.021 C 
HETATM   22  C1  UNL     1      25.731  12.496  -4.982  1.00  0.00     0.009 C 
HETATM   23  C3  UNL     1      24.584  10.401  -4.641  1.00  0.00     0.009 C 
ENDBRANCH  20  21
ENDBRANCH  19  20
BRANCH  19  24
HETATM   24  C27 UNL     1      27.525   8.498  -2.939  1.00  0.00     0.008 C 
HETATM   25  C28 UNL     1      26.282   8.230  -2.123  1.00  0.00     0.009 C 
HETATM   26  C29 UNL     1      25.737   9.447  -1.449  1.00  0.00     0.033 C 
HETATM   27  C30 UNL     1      26.801  10.011  -0.537  1.00  0.00     0.183 C 
HETATM   28  C31 UNL     1      27.932  10.473  -1.449  1.00  0.00     0.033 C 
HETATM   29  C32 UNL     1      28.527   9.310  -2.205  1.00  0.00     0.009 C 
BRANCH  27  30
HETATM   30  N4  UNL     1      27.249   8.951   0.343  1.00  0.00    -0.075 N 
ATOM     31  H43 UNL     1      28.245   8.755   0.248  1.00  0.00     0.274 HD
ATOM     32  H42 UNL     1      27.256   9.230   1.324  1.00  0.00     0.274 HD
ATOM     33  H41 UNL     1      26.668   8.130   0.172  1.00  0.00     0.274 HD
ENDBRANCH  27  30
ENDBRANCH  19  24
ENDBRANCH  17  19
ENDBRANCH  16  17
BRANCH  16  34
HETATM   34  O1  UNL     1      29.194   7.634  -7.044  1.00  0.00    -0.346 OA
ATOM     35  H1  UNL     1      29.004   7.119  -7.821  1.00  0.00     0.219 HD
ENDBRANCH  16  34
ENDBRANCH   1  16
BRANCH   9  36
HETATM   36  C15 UNL     1      24.473   5.866 -10.751  1.00  0.00     0.278 C 
BRANCH  36  37
HETATM   37  N2  UNL     1      24.102   6.755 -11.833  1.00  0.00     0.092 N 
HETATM   38  C16 UNL     1      23.712   5.882 -12.950  1.00  0.00     0.302 C 
HETATM   39  C17 UNL     1      23.454   6.792 -14.129  1.00  0.00     0.302 C 
HETATM   40  N3  UNL     1      22.243   7.526 -13.843  1.00  0.00     0.087 N 
HETATM   41  C18 UNL     1      21.943   8.468 -14.920  1.00  0.00     0.310 C 
HETATM   42  C19 UNL     1      22.374   8.278 -12.636  1.00  0.00     0.302 C 
HETATM   43  C20 UNL     1      22.912   7.499 -11.471  1.00  0.00     0.302 C 
ENDBRANCH  36  37
ENDBRANCH   9  36
TORSDOF 10
ENDMDL
MODEL 4
REMARK VINA RESULT: -8.598411122      2.057      8.848
REMARK  10 active torsions:
REMARK  status: ('A' for Active; 'I' for Inactive)
REMARK    1  A    between atoms: C2_2  and  C4_4 
REMARK    2  A    between atoms: C4_4  and  C5_5 
REMARK    3  A    between atoms: C5_5  and  N1_6 
REMARK    4  A    between atoms: C5_5  and  C27_34 
REMARK    5  A    between atoms: N1_6  and  C6_8 
REMARK    6  A    between atoms: C6_8  and  O1_9 
REMARK    7  A    between atoms: C6_8  and  C7_11 
REMARK    8  A    between atoms: C14_19  and  C15_20 
REMARK    9  A    between atoms: C15_20  and  N2_21 
REMARK   10  A    between atoms: C30_37  and  N4_38 
ROOT
HETATM    1  C7  UNL     1      26.188   9.833  -7.028  1.00  0.00     0.008 C 
HETATM    2  C8  UNL     1      26.632   8.867  -6.305  1.00  0.00     0.007 C 
HETATM    3  C9  UNL     1      26.779   7.486  -6.821  1.00  0.00     0.157 C 
HETATM    4  O2  UNL     1      27.329   7.269  -7.914  1.00  0.00    -0.293 OA
HETATM    5  C10 UNL     1      26.179   6.576  -5.805  1.00  0.00     0.085 C 
HETATM    6  C11 UNL     1      26.328   7.386  -4.521  1.00  0.00     0.022 C 
HETATM    7  C12 UNL     1      27.063   8.681  -4.876  1.00  0.00    -0.007 C 
HETATM    8  C13 UNL     1      28.545   8.343  -4.825  1.00  0.00     0.021 C 
HETATM    9  C14 UNL     1      26.701   9.796  -3.976  1.00  0.00     0.027 C 
HETATM   10  C21 UNL     1      25.310  10.271  -4.339  1.00  0.00     0.013 C 
HETATM   11  C22 UNL     1      25.511  11.473  -5.221  1.00  0.00     0.004 A 
HETATM   12  C23 UNL     1      26.066  11.252  -6.522  1.00  0.00     0.036 A 
HETATM   13  C24 UNL     1      24.611  11.681  -6.371  1.00  0.00    -0.035 A 
HETATM   14  C25 UNL     1      24.269  13.122  -6.691  1.00  0.00     0.016 C 
HETATM   15  C26 UNL     1      23.488  10.707  -6.475  1.00  0.00     0.016 C 
ENDROOT
BRANCH   1  16
HETATM   16  C6  UNL     1      25.769   9.711  -8.373  1.00  0.00     0.143 C 
BRANCH  16  17
HETATM   17  N1  UNL     1      24.689   9.461  -9.182  1.00  0.00    -0.366 N 
ATOM     18  H1  UNL     1      23.885   8.962  -8.801  1.00  0.00     0.162 HD
BRANCH  17  19
HETATM   19  C5  UNL     1      24.664   9.907 -10.621  1.00  0.00     0.088 C 
BRANCH  19  20
HETATM   20  C4  UNL     1      24.040  11.270 -10.674  1.00  0.00     0.029 C 
BRANCH  20  21
HETATM   21  C2  UNL     1      24.950  12.348 -11.211  1.00  0.00    -0.021 C 
HETATM   22  C1  UNL     1      26.054  11.689 -12.061  1.00  0.00     0.009 C 
HETATM   23  C3  UNL     1      25.724  13.025 -10.079  1.00  0.00     0.009 C 
ENDBRANCH  20  21
ENDBRANCH  19  20
BRANCH  19  24
HETATM   24  C27 UNL     1      23.905   8.866 -11.417  1.00  0.00     0.008 C 
HETATM   25  C28 UNL     1      23.400   7.747 -10.536  1.00  0.00     0.009 C 
HETATM   26  C29 UNL     1      24.414   6.678 -10.290  1.00  0.00     0.033 C 
HETATM   27  C30 UNL     1      24.834   6.094 -11.618  1.00  0.00     0.183 C 
HETATM   28  C31 UNL     1      25.542   7.220 -12.365  1.00  0.00     0.033 C 
HETATM   29  C32 UNL     1      24.601   8.369 -12.630  1.00  0.00     0.009 C 
BRANCH  27  30
HETATM   30  N4  UNL     1      23.639   5.679 -12.325  1.00  0.00    -0.075 N 
ATOM     31  H43 UNL     1      22.835   6.271 -12.122  1.00  0.00     0.274 HD
ATOM     32  H42 UNL     1      23.692   5.859 -13.328  1.00  0.00     0.274 HD
ATOM     33  H41 UNL     1      23.469   4.697 -12.111  1.00  0.00     0.274 HD
ENDBRANCH  27  30
ENDBRANCH  19  24
ENDBRANCH  17  19
ENDBRANCH  16  17
BRANCH  16  34
HETATM   34  O1  UNL     1      26.849   9.906  -9.169  1.00  0.00    -0.346 OA
ATOM     35  H1  UNL     1      27.571  10.185  -8.618  1.00  0.00     0.219 HD
ENDBRANCH  16  34
ENDBRANCH   1  16
BRANCH   9  36
HETATM   36  C15 UNL     1      26.791   9.377  -2.529  1.00  0.00     0.278 C 
BRANCH  36  37
HETATM   37  N2  UNL     1      26.719  10.500  -1.617  1.00  0.00     0.092 N 
HETATM   38  C16 UNL     1      27.128   9.975  -0.306  1.00  0.00     0.302 C 
HETATM   39  C17 UNL     1      26.926  11.101   0.683  1.00  0.00     0.302 C 
HETATM   40  N3  UNL     1      27.927  12.102   0.398  1.00  0.00     0.087 N 
HETATM   41  C18 UNL     1      27.774  13.254   1.285  1.00  0.00     0.310 C 
HETATM   42  C19 UNL     1      27.811  12.575  -0.945  1.00  0.00     0.302 C 
HETATM   43  C20 UNL     1      27.711  11.492  -1.981  1.00  0.00     0.302 C 
ENDBRANCH  36  37
ENDBRANCH   9  36
TORSDOF 10
ENDMDL
MODEL 5
REMARK VINA RESULT: -8.521821582      1.991      9.232
REMARK  10 active torsions:
REMARK  status: ('A' for Active; 'I' for Inactive)
REMARK    1  A    between atoms: C2_2  and  C4_4 
REMARK    2  A    between atoms: C4_4  and  C5_5 
REMARK    3  A    between atoms: C5_5  and  N1_6 
REMARK    4  A    between atoms: C5_5  and  C27_34 
REMARK    5  A    between atoms: N1_6  and  C6_8 
REMARK    6  A    between atoms: C6_8  and  O1_9 
REMARK    7  A    between atoms: C6_8  and  C7_11 
REMARK    8  A    between atoms: C14_19  and  C15_20 
REMARK    9  A    between atoms: C15_20  and  N2_21 
REMARK   10  A    between atoms: C30_37  and  N4_38 
ROOT
HETATM    1  C7  UNL     1      26.329   8.644  -6.068  1.00  0.00     0.008 C 
HETATM    2  C8  UNL     1      26.392   7.829  -5.076  1.00  0.00     0.007 C 
HETATM    3  C9  UNL     1      26.178   6.371  -5.226  1.00  0.00     0.157 C 
HETATM    4  O2  UNL     1      26.749   5.732  -6.125  1.00  0.00    -0.293 OA
HETATM    5  C10 UNL     1      25.236   5.957  -4.148  1.00  0.00     0.085 C 
HETATM    6  C11 UNL     1      25.485   7.017  -3.079  1.00  0.00     0.022 C 
HETATM    7  C12 UNL     1      26.601   7.932  -3.589  1.00  0.00    -0.007 C 
HETATM    8  C13 UNL     1      27.904   7.249  -3.204  1.00  0.00     0.021 C 
HETATM    9  C14 UNL     1      26.494   9.303  -3.048  1.00  0.00     0.027 C 
HETATM   10  C21 UNL     1      25.349  10.004  -3.748  1.00  0.00     0.013 C 
HETATM   11  C22 UNL     1      25.985  10.829  -4.834  1.00  0.00     0.004 A 
HETATM   12  C23 UNL     1      26.580  10.129  -5.932  1.00  0.00     0.036 A 
HETATM   13  C24 UNL     1      25.309  10.943  -6.140  1.00  0.00    -0.035 A 
HETATM   14  C25 UNL     1      25.441  12.282  -6.839  1.00  0.00     0.016 C 
HETATM   15  C26 UNL     1      23.965  10.303  -6.211  1.00  0.00     0.016 C 
ENDROOT
BRANCH   1  16
HETATM   16  C6  UNL     1      26.033   8.276  -7.401  1.00  0.00     0.143 C 
BRANCH  16  17
HETATM   17  N1  UNL     1      25.134   7.611  -8.196  1.00  0.00    -0.366 N 
ATOM     18  H1  UNL     1      24.737   6.729  -7.870  1.00  0.00     0.162 HD
BRANCH  17  19
HETATM   19  C5  UNL     1      24.721   8.152  -9.539  1.00  0.00     0.088 C 
BRANCH  19  20
HETATM   20  C4  UNL     1      23.929   9.406  -9.310  1.00  0.00     0.029 C 
BRANCH  20  21
HETATM   21  C2  UNL     1      24.534  10.643  -9.928  1.00  0.00    -0.021 C 
HETATM   22  C1  UNL     1      23.466  11.337 -10.797  1.00  0.00     0.009 C 
HETATM   23  C3  UNL     1      25.629  10.275 -10.930  1.00  0.00     0.009 C 
ENDBRANCH  20  21
ENDBRANCH  19  20
BRANCH  19  24
HETATM   24  C27 UNL     1      23.941   7.071 -10.256  1.00  0.00     0.008 C 
HETATM   25  C28 UNL     1      24.854   6.089 -10.951  1.00  0.00     0.009 C 
HETATM   26  C29 UNL     1      25.292   6.537 -12.307  1.00  0.00     0.033 C 
HETATM   27  C30 UNL     1      24.067   6.746 -13.166  1.00  0.00     0.183 C 
HETATM   28  C31 UNL     1      23.307   7.907 -12.534  1.00  0.00     0.033 C 
HETATM   29  C32 UNL     1      22.851   7.560 -11.138  1.00  0.00     0.009 C 
BRANCH  27  30
HETATM   30  N4  UNL     1      23.278   5.532 -13.128  1.00  0.00    -0.075 N 
ATOM     31  H43 UNL     1      23.849   4.689 -13.182  1.00  0.00     0.274 HD
ATOM     32  H42 UNL     1      22.865   5.359 -12.211  1.00  0.00     0.274 HD
ATOM     33  H41 UNL     1      22.581   5.583 -13.870  1.00  0.00     0.274 HD
ENDBRANCH  27  30
ENDBRANCH  19  24
ENDBRANCH  17  19
ENDBRANCH  16  17
BRANCH  16  34
HETATM   34  O1  UNL     1      27.020   8.754  -8.198  1.00  0.00    -0.346 OA
ATOM     35  H1  UNL     1      26.796   9.646  -8.437  1.00  0.00     0.219 HD
ENDBRANCH  16  34
ENDBRANCH   1  16
BRANCH   9  36
HETATM   36  C15 UNL     1      26.308   9.282  -1.551  1.00  0.00     0.278 C 
BRANCH  36  37
HETATM   37  N2  UNL     1      26.563  10.571  -0.938  1.00  0.00     0.092 N 
HETATM   38  C16 UNL     1      26.759  10.299   0.493  1.00  0.00     0.302 C 
HETATM   39  C17 UNL     1      26.891  11.647   1.166  1.00  0.00     0.302 C 
HETATM   40  N3  UNL     1      28.159  12.204   0.756  1.00  0.00     0.087 N 
HETATM   41  C18 UNL     1      28.347  13.536   1.330  1.00  0.00     0.310 C 
HETATM   42  C19 UNL     1      28.226  12.333  -0.665  1.00  0.00     0.302 C 
HETATM   43  C20 UNL     1      27.821  11.102  -1.423  1.00  0.00     0.302 C 
ENDBRANCH  36  37
ENDBRANCH   9  36
TORSDOF 10
ENDMDL
