MODEL 1
REMARK VINA RESULT: -8.773245780      0.000      0.000
REMARK  8 active torsions:
REMARK  status: ('A' for Active; 'I' for Inactive)
REMARK    1  A    between atoms: C2_2  and  C3_3 
REMARK    2  A    between atoms: C3_3  and  C5_5 
REMARK       I    between atoms: C5_5  and  N1_7 
REMARK    3  A    between atoms: N1_7  and  C6_9 
REMARK    4  A    between atoms: C19_24  and  N3_25 
REMARK    5  A    between atoms: N4_34  and  C26_35 
REMARK    6  A    between atoms: C26_35  and  C27_36 
REMARK    7  A    between atoms: C26_35  and  C28_39 
REMARK    8  A    between atoms: C27_36  and  O4_37 
ROOT
HETATM    1  C6  UNL     1      24.583   8.637 -10.695  1.00  0.00     0.036 A 
HETATM    2  C7  UNL     1      24.395   9.999 -10.644  1.00  0.00     0.038 A 
HETATM    3  C8  UNL     1      24.858  10.692  -9.549  1.00  0.00    -0.032 A 
HETATM    4  C9  UNL     1      24.697  12.156  -9.406  1.00  0.00     0.050 C 
HETATM    5  C10 UNL     1      25.509  10.025  -8.507  1.00  0.00     0.049 A 
HETATM    6  N2  UNL     1      26.036  10.514  -7.376  1.00  0.00    -0.358 N 
ATOM      7  H2  UNL     1      26.034  11.494  -7.091  1.00  0.00     0.166 HD
HETATM    8  C11 UNL     1      26.562   9.507  -6.687  1.00  0.00     0.020 A 
HETATM    9  C12 UNL     1      26.383   8.319  -7.373  1.00  0.00     0.005 A 
HETATM   10  C13 UNL     1      25.691   8.667  -8.567  1.00  0.00     0.004 A 
HETATM   11  C14 UNL     1      25.227   7.981  -9.663  1.00  0.00     0.044 A 
HETATM   12  C15 UNL     1      27.006   7.299  -6.562  1.00  0.00     0.068 C 
HETATM   13  C16 UNL     1      28.562   7.534  -6.652  1.00  0.00     0.044 C 
HETATM   14  C17 UNL     1      26.707   7.904  -5.170  1.00  0.00     0.047 C 
HETATM   15  C18 UNL     1      27.275   9.256  -5.369  1.00  0.00     0.067 C 
HETATM   16  C19 UNL     1      26.992   7.184  -3.968  1.00  0.00     0.095 C 
HETATM   17  C24 UNL     1      26.168   5.872  -4.106  1.00  0.00     0.128 C 
HETATM   18  C25 UNL     1      26.871   5.271  -5.299  1.00  0.00     0.223 C 
HETATM   19  O3  UNL     1      27.484   4.244  -5.096  1.00  0.00    -0.273 OA
HETATM   20  N4  UNL     1      26.806   5.915  -6.609  1.00  0.00    -0.331 N 
ENDROOT
BRANCH   1  21
HETATM   21  N1  UNL     1      24.129   7.851 -11.760  1.00  0.00    -0.327 N 
HETATM   22  C5  UNL     1      24.876   7.221 -12.764  1.00  0.00     0.226 C 
HETATM   23  O1  UNL     1      26.118   7.329 -12.794  1.00  0.00    -0.273 OA
ATOM     24  H1  UNL     1      23.119   7.720 -11.812  1.00  0.00     0.169 HD
BRANCH  22  25
HETATM   25  C3  UNL     1      24.247   6.396 -13.836  1.00  0.00     0.074 C 
HETATM   26  C4  UNL     1      23.155   5.494 -13.320  1.00  0.00     0.020 C 
BRANCH  25  27
HETATM   27  C2  UNL     1      23.670   7.275 -14.921  1.00  0.00     0.009 C 
HETATM   28  C1  UNL     1      22.157   7.272 -14.923  1.00  0.00     0.006 C 
ENDBRANCH  25  27
ENDBRANCH  22  25
ENDBRANCH   1  21
BRANCH  20  29
HETATM   29  C26 UNL     1      26.591   5.043  -7.685  1.00  0.00     0.115 C 
BRANCH  29  30
HETATM   30  C27 UNL     1      25.096   4.974  -8.128  1.00  0.00     0.189 C 
BRANCH  30  31
HETATM   31  O4  UNL     1      24.514   3.900  -7.400  1.00  0.00    -0.399 OA
ATOM     32  H4  UNL     1      23.614   4.151  -7.228  1.00  0.00     0.209 HD
ENDBRANCH  30  31
ENDBRANCH  29  30
BRANCH  29  33
HETATM   33  C28 UNL     1      27.286   5.116  -8.963  1.00  0.00     0.002 C 
HETATM   34  C29 UNL     1      28.725   4.659  -9.063  1.00  0.00     0.011 C 
HETATM   35  C30 UNL     1      26.518   4.525 -10.173  1.00  0.00     0.011 C 
ENDBRANCH  29  33
ENDBRANCH  20  29
BRANCH  16  36
HETATM   36  N3  UNL     1      26.781   7.843  -2.778  1.00  0.00    -0.403 N 
HETATM   37  C20 UNL     1      25.572   8.486  -2.484  1.00  0.00     0.143 C 
HETATM   38  C21 UNL     1      25.766   9.936  -2.034  1.00  0.00     0.187 C 
HETATM   39  O2  UNL     1      26.737  10.004  -1.040  1.00  0.00    -0.388 OA
HETATM   40  C22 UNL     1      27.946   9.598  -1.592  1.00  0.00     0.187 C 
HETATM   41  C23 UNL     1      27.834   8.090  -1.856  1.00  0.00     0.143 C 
ENDBRANCH  16  36
TORSDOF 8
ENDMDL
MODEL 2
REMARK VINA RESULT: -8.195428239      1.070      1.520
REMARK  8 active torsions:
REMARK  status: ('A' for Active; 'I' for Inactive)
REMARK    1  A    between atoms: C2_2  and  C3_3 
REMARK    2  A    between atoms: C3_3  and  C5_5 
REMARK       I    between atoms: C5_5  and  N1_7 
REMARK    3  A    between atoms: N1_7  and  C6_9 
REMARK    4  A    between atoms: C19_24  and  N3_25 
REMARK    5  A    between atoms: N4_34  and  C26_35 
REMARK    6  A    between atoms: C26_35  and  C27_36 
REMARK    7  A    between atoms: C26_35  and  C28_39 
REMARK    8  A    between atoms: C27_36  and  O4_37 
ROOT
HETATM    1  C6  UNL     1      24.756   8.998 -10.890  1.00  0.00     0.036 A 
HETATM    2  C7  UNL     1      24.436  10.318 -10.672  1.00  0.00     0.038 A 
HETATM    3  C8  UNL     1      24.813  10.905  -9.487  1.00  0.00    -0.032 A 
HETATM    4  C9  UNL     1      24.509  12.317  -9.164  1.00  0.00     0.050 C 
HETATM    5  C10 UNL     1      25.511  10.175  -8.520  1.00  0.00     0.049 A 
HETATM    6  N2  UNL     1      25.971  10.562  -7.322  1.00  0.00    -0.358 N 
ATOM      7  H2  UNL     1      25.870  11.492  -6.916  1.00  0.00     0.166 HD
HETATM    8  C11 UNL     1      26.582   9.529  -6.753  1.00  0.00     0.020 A 
HETATM    9  C12 UNL     1      26.530   8.427  -7.588  1.00  0.00     0.005 A 
HETATM   10  C13 UNL     1      25.825   8.859  -8.747  1.00  0.00     0.004 A 
HETATM   11  C14 UNL     1      25.445   8.279  -9.933  1.00  0.00     0.044 A 
HETATM   12  C15 UNL     1      27.236   7.374  -6.896  1.00  0.00     0.068 C 
HETATM   13  C16 UNL     1      28.764   7.765  -6.914  1.00  0.00     0.044 C 
HETATM   14  C17 UNL     1      26.860   7.765  -5.447  1.00  0.00     0.047 C 
HETATM   15  C18 UNL     1      27.297   9.179  -5.458  1.00  0.00     0.067 C 
HETATM   16  C19 UNL     1      27.196   6.927  -4.339  1.00  0.00     0.095 C 
HETATM   17  C24 UNL     1      26.505   5.571  -4.664  1.00  0.00     0.128 C 
HETATM   18  C25 UNL     1      27.280   5.198  -5.904  1.00  0.00     0.223 C 
HETATM   19  O3  UNL     1      27.988   4.216  -5.816  1.00  0.00    -0.273 OA
HETATM   20  N4  UNL     1      27.172   5.996  -7.123  1.00  0.00    -0.331 N 
ENDROOT
BRANCH   1  21
HETATM   21  N1  UNL     1      24.396   8.316 -12.058  1.00  0.00    -0.327 N 
HETATM   22  C5  UNL     1      23.312   7.453 -12.268  1.00  0.00     0.226 C 
HETATM   23  O1  UNL     1      22.517   7.195 -11.343  1.00  0.00    -0.273 OA
ATOM     24  H1  UNL     1      25.004   8.467 -12.863  1.00  0.00     0.169 HD
BRANCH  22  25
HETATM   25  C3  UNL     1      23.046   6.803 -13.584  1.00  0.00     0.074 C 
HETATM   26  C4  UNL     1      24.003   7.243 -14.662  1.00  0.00     0.020 C 
BRANCH  25  27
HETATM   27  C2  UNL     1      23.118   5.299 -13.465  1.00  0.00     0.009 C 
HETATM   28  C1  UNL     1      22.526   4.595 -14.666  1.00  0.00     0.006 C 
ENDBRANCH  25  27
ENDBRANCH  22  25
ENDBRANCH   1  21
BRANCH  20  29
HETATM   29  C26 UNL     1      27.059   5.253  -8.306  1.00  0.00     0.115 C 
BRANCH  29  30
HETATM   30  C27 UNL     1      28.097   4.090  -8.399  1.00  0.00     0.189 C 
BRANCH  30  31
HETATM   31  O4  UNL     1      27.350   2.882  -8.317  1.00  0.00    -0.399 OA
ATOM     32  H4  UNL     1      26.985   2.854  -7.440  1.00  0.00     0.209 HD
ENDBRANCH  30  31
ENDBRANCH  29  30
BRANCH  29  33
HETATM   33  C28 UNL     1      25.838   4.611  -8.769  1.00  0.00     0.002 C 
HETATM   34  C29 UNL     1      24.563   4.753  -7.965  1.00  0.00     0.011 C 
HETATM   35  C30 UNL     1      25.484   4.848 -10.259  1.00  0.00     0.011 C 
ENDBRANCH  29  33
ENDBRANCH  20  29
BRANCH  16  36
HETATM   36  N3  UNL     1      26.905   7.404  -3.081  1.00  0.00    -0.403 N 
HETATM   37  C20 UNL     1      25.618   7.822  -2.720  1.00  0.00     0.143 C 
HETATM   38  C21 UNL     1      25.601   9.223  -2.103  1.00  0.00     0.187 C 
HETATM   39  O2  UNL     1      26.563   9.318  -1.104  1.00  0.00    -0.388 OA
HETATM   40  C22 UNL     1      27.812   9.163  -1.693  1.00  0.00     0.187 C 
HETATM   41  C23 UNL     1      27.921   7.697  -2.131  1.00  0.00     0.143 C 
ENDBRANCH  16  36
TORSDOF 8
ENDMDL
MODEL 3
REMARK VINA RESULT: -8.054286739      2.264      9.126
REMARK  8 active torsions:
REMARK  status: ('A' for Active; 'I' for Inactive)
REMARK    1  A    between atoms: C2_2  and  C3_3 
REMARK    2  A    between atoms: C3_3  and  C5_5 
REMARK       I    between atoms: C5_5  and  N1_7 
REMARK    3  A    between atoms: N1_7  and  C6_9 
REMARK    4  A    between atoms: C19_24  and  N3_25 
REMARK    5  A    between atoms: N4_34  and  C26_35 
REMARK    6  A    between atoms: C26_35  and  C27_36 
REMARK    7  A    between atoms: C26_35  and  C28_39 
REMARK    8  A    between atoms: C27_36  and  O4_37 
ROOT
HETATM    1  C6  UNL     1      26.412   8.270  -3.308  1.00  0.00     0.036 A 
HETATM    2  C7  UNL     1      26.636   6.937  -3.055  1.00  0.00     0.038 A 
HETATM    3  C8  UNL     1      26.801   6.079  -4.117  1.00  0.00    -0.032 A 
HETATM    4  C9  UNL     1      27.043   4.629  -3.941  1.00  0.00     0.050 C 
HETATM    5  C10 UNL     1      26.742   6.552  -5.431  1.00  0.00     0.049 A 
HETATM    6  N2  UNL     1      26.886   5.889  -6.587  1.00  0.00    -0.358 N 
ATOM      7  H2  UNL     1      27.062   4.888  -6.683  1.00  0.00     0.166 HD
HETATM    8  C11 UNL     1      26.760   6.754  -7.587  1.00  0.00     0.020 A 
HETATM    9  C12 UNL     1      26.528   8.024  -7.089  1.00  0.00     0.005 A 
HETATM   10  C13 UNL     1      26.518   7.883  -5.673  1.00  0.00     0.004 A 
HETATM   11  C14 UNL     1      26.354   8.735  -4.608  1.00  0.00     0.044 A 
HETATM   12  C15 UNL     1      26.432   8.887  -8.244  1.00  0.00     0.068 C 
HETATM   13  C16 UNL     1      27.884   8.999  -8.848  1.00  0.00     0.044 C 
HETATM   14  C17 UNL     1      25.792   7.879  -9.227  1.00  0.00     0.047 C 
HETATM   15  C18 UNL     1      26.768   6.772  -9.107  1.00  0.00     0.067 C 
HETATM   16  C19 UNL     1      25.336   8.286 -10.519  1.00  0.00     0.095 C 
HETATM   17  C24 UNL     1      24.287   9.395 -10.221  1.00  0.00     0.128 C 
HETATM   18  C25 UNL     1      25.198  10.425  -9.597  1.00  0.00     0.223 C 
HETATM   19  O3  UNL     1      25.339  11.459 -10.217  1.00  0.00    -0.273 OA
HETATM   20  N4  UNL     1      25.864  10.162  -8.324  1.00  0.00    -0.331 N 
ENDROOT
BRANCH   1  21
HETATM   21  N1  UNL     1      26.215   9.210  -2.290  1.00  0.00    -0.327 N 
HETATM   22  C5  UNL     1      27.156   9.753  -1.405  1.00  0.00     0.226 C 
HETATM   23  O1  UNL     1      28.351   9.400  -1.454  1.00  0.00    -0.273 OA
ATOM     24  H1  UNL     1      25.258   9.545  -2.177  1.00  0.00     0.169 HD
BRANCH  22  25
HETATM   25  C3  UNL     1      26.796  10.765  -0.370  1.00  0.00     0.074 C 
HETATM   26  C4  UNL     1      26.500  10.152   0.975  1.00  0.00     0.020 C 
BRANCH  25  27
HETATM   27  C2  UNL     1      27.903  11.778  -0.202  1.00  0.00     0.009 C 
HETATM   28  C1  UNL     1      27.632  13.062  -0.956  1.00  0.00     0.006 C 
ENDBRANCH  25  27
ENDBRANCH  22  25
ENDBRANCH   1  21
BRANCH  20  29
HETATM   29  C26 UNL     1      25.854  11.234  -7.420  1.00  0.00     0.115 C 
BRANCH  29  30
HETATM   30  C27 UNL     1      26.144  12.609  -8.100  1.00  0.00     0.189 C 
BRANCH  30  31
HETATM   31  O4  UNL     1      24.909  13.313  -8.119  1.00  0.00    -0.399 OA
ATOM     32  H4  UNL     1      24.499  13.109  -8.952  1.00  0.00     0.209 HD
ENDBRANCH  30  31
ENDBRANCH  29  30
BRANCH  29  33
HETATM   33  C28 UNL     1      24.747  11.559  -6.533  1.00  0.00     0.002 C 
HETATM   34  C29 UNL     1      23.597  10.587  -6.378  1.00  0.00     0.011 C 
HETATM   35  C30 UNL     1      25.149  12.043  -5.116  1.00  0.00     0.011 C 
ENDBRANCH  29  33
ENDBRANCH  20  29
BRANCH  16  36
HETATM   36  N3  UNL     1      24.870   7.300 -11.359  1.00  0.00    -0.403 N 
HETATM   37  C20 UNL     1      25.507   6.982 -12.564  1.00  0.00     0.143 C 
HETATM   38  C21 UNL     1      24.549   6.981 -13.758  1.00  0.00     0.187 C 
HETATM   39  O2  UNL     1      23.416   6.230 -13.464  1.00  0.00    -0.388 OA
HETATM   40  C22 UNL     1      22.744   6.855 -12.421  1.00  0.00     0.187 C 
HETATM   41  C23 UNL     1      23.605   6.679 -11.163  1.00  0.00     0.143 C 
ENDBRANCH  16  36
TORSDOF 8
ENDMDL
MODEL 4
REMARK VINA RESULT: -7.943426294      3.075      5.385
REMARK  8 active torsions:
REMARK  status: ('A' for Active; 'I' for Inactive)
REMARK    1  A    between atoms: C2_2  and  C3_3 
REMARK    2  A    between atoms: C3_3  and  C5_5 
REMARK       I    between atoms: C5_5  and  N1_7 
REMARK    3  A    between atoms: N1_7  and  C6_9 
REMARK    4  A    between atoms: C19_24  and  N3_25 
REMARK    5  A    between atoms: N4_34  and  C26_35 
REMARK    6  A    between atoms: C26_35  and  C27_36 
REMARK    7  A    between atoms: C26_35  and  C28_39 
REMARK    8  A    between atoms: C27_36  and  O4_37 
ROOT
HETATM    1  C6  UNL     1      25.941   7.452  -9.226  1.00  0.00     0.036 A 
HETATM    2  C7  UNL     1      26.761   6.459  -8.742  1.00  0.00     0.038 A 
HETATM    3  C8  UNL     1      27.251   6.568  -7.462  1.00  0.00    -0.032 A 
HETATM    4  C9  UNL     1      28.142   5.551  -6.860  1.00  0.00     0.050 C 
HETATM    5  C10 UNL     1      26.922   7.668  -6.664  1.00  0.00     0.049 A 
HETATM    6  N2  UNL     1      27.282   7.950  -5.404  1.00  0.00    -0.358 N 
ATOM      7  H2  UNL     1      27.887   7.377  -4.814  1.00  0.00     0.166 HD
HETATM    8  C11 UNL     1      26.721   9.101  -5.054  1.00  0.00     0.020 A 
HETATM    9  C12 UNL     1      25.967   9.600  -6.101  1.00  0.00     0.005 A 
HETATM   10  C13 UNL     1      26.104   8.653  -7.155  1.00  0.00     0.004 A 
HETATM   11  C14 UNL     1      25.617   8.538  -8.435  1.00  0.00     0.044 A 
HETATM   12  C15 UNL     1      25.383  10.828  -5.615  1.00  0.00     0.068 C 
HETATM   13  C16 UNL     1      24.292  10.423  -4.551  1.00  0.00     0.044 C 
HETATM   14  C17 UNL     1      26.536  11.274  -4.686  1.00  0.00     0.047 C 
HETATM   15  C18 UNL     1      26.672  10.049  -3.866  1.00  0.00     0.067 C 
HETATM   16  C19 UNL     1      26.527  12.555  -4.051  1.00  0.00     0.095 C 
HETATM   17  C24 UNL     1      26.448  13.565  -5.231  1.00  0.00     0.128 C 
HETATM   18  C25 UNL     1      25.086  13.197  -5.770  1.00  0.00     0.223 C 
HETATM   19  O3  UNL     1      24.226  14.048  -5.674  1.00  0.00    -0.273 OA
HETATM   20  N4  UNL     1      24.844  11.883  -6.360  1.00  0.00    -0.331 N 
ENDROOT
BRANCH   1  21
HETATM   21  N1  UNL     1      25.413   7.433 -10.521  1.00  0.00    -0.327 N 
HETATM   22  C5  UNL     1      24.117   7.098 -10.934  1.00  0.00     0.226 C 
HETATM   23  O1  UNL     1      23.256   6.749 -10.102  1.00  0.00    -0.273 OA
ATOM     24  H1  UNL     1      26.059   7.698 -11.265  1.00  0.00     0.169 HD
BRANCH  22  25
HETATM   25  C3  UNL     1      23.693   7.137 -12.364  1.00  0.00     0.074 C 
HETATM   26  C4  UNL     1      24.674   7.863 -13.249  1.00  0.00     0.020 C 
BRANCH  25  27
HETATM   27  C2  UNL     1      23.502   5.740 -12.906  1.00  0.00     0.009 C 
HETATM   28  C1  UNL     1      22.779   5.730 -14.235  1.00  0.00     0.006 C 
ENDBRANCH  25  27
ENDBRANCH  22  25
ENDBRANCH   1  21
BRANCH  20  29
HETATM   29  C26 UNL     1      24.090  11.896  -7.542  1.00  0.00     0.115 C 
BRANCH  29  30
HETATM   30  C27 UNL     1      24.973  11.889  -8.829  1.00  0.00     0.189 C 
BRANCH  30  31
HETATM   31  O4  UNL     1      25.102  13.247  -9.231  1.00  0.00    -0.399 OA
ATOM     32  H4  UNL     1      24.319  13.691  -8.927  1.00  0.00     0.209 HD
ENDBRANCH  30  31
ENDBRANCH  29  30
BRANCH  29  33
HETATM   33  C28 UNL     1      23.054  10.930  -7.876  1.00  0.00     0.002 C 
HETATM   34  C29 UNL     1      21.680  11.058  -7.255  1.00  0.00     0.011 C 
HETATM   35  C30 UNL     1      22.864  10.653  -9.389  1.00  0.00     0.011 C 
ENDBRANCH  29  33
ENDBRANCH  20  29
BRANCH  16  36
HETATM   36  N3  UNL     1      27.548  12.823  -3.167  1.00  0.00    -0.403 N 
HETATM   37  C20 UNL     1      27.416  12.617  -1.788  1.00  0.00     0.143 C 
HETATM   38  C21 UNL     1      27.801  13.848  -0.965  1.00  0.00     0.187 C 
HETATM   39  O2  UNL     1      29.034  14.337  -1.381  1.00  0.00    -0.388 OA
HETATM   40  C22 UNL     1      28.905  14.767  -2.696  1.00  0.00     0.187 C 
HETATM   41  C23 UNL     1      28.727  13.513  -3.562  1.00  0.00     0.143 C 
ENDBRANCH  16  36
TORSDOF 8
ENDMDL
MODEL 5
REMARK VINA RESULT: -7.938617664      2.606      5.235
REMARK  8 active torsions:
REMARK  status: ('A' for Active; 'I' for Inactive)
REMARK    1  A    between atoms: C2_2  and  C3_3 
REMARK    2  A    between atoms: C3_3  and  C5_5 
REMARK       I    between atoms: C5_5  and  N1_7 
REMARK    3  A    between atoms: N1_7  and  C6_9 
REMARK    4  A    between atoms: C19_24  and  N3_25 
REMARK    5  A    between atoms: N4_34  and  C26_35 
REMARK    6  A    between atoms: C26_35  and  C27_36 
REMARK    7  A    between atoms: C26_35  and  C28_39 
REMARK    8  A    between atoms: C27_36  and  O4_37 
ROOT
HETATM    1  C6  UNL     1      26.320   6.345  -7.986  1.00  0.00     0.036 A 
HETATM    2  C7  UNL     1      26.681   5.249  -7.237  1.00  0.00     0.038 A 
HETATM    3  C8  UNL     1      26.801   5.389  -5.874  1.00  0.00    -0.032 A 
HETATM    4  C9  UNL     1      27.188   4.267  -4.989  1.00  0.00     0.050 C 
HETATM    5  C10 UNL     1      26.559   6.621  -5.259  1.00  0.00     0.049 A 
HETATM    6  N2  UNL     1      26.611   6.955  -3.962  1.00  0.00    -0.358 N 
ATOM      7  H2  UNL     1      26.853   6.329  -3.194  1.00  0.00     0.166 HD
HETATM    8  C11 UNL     1      26.294   8.240  -3.846  1.00  0.00     0.020 A 
HETATM    9  C12 UNL     1      26.024   8.776  -5.092  1.00  0.00     0.005 A 
HETATM   10  C13 UNL     1      26.200   7.707  -6.015  1.00  0.00     0.004 A 
HETATM   11  C14 UNL     1      26.082   7.562  -7.376  1.00  0.00     0.044 A 
HETATM   12  C15 UNL     1      25.669  10.157  -4.858  1.00  0.00     0.068 C 
HETATM   13  C16 UNL     1      24.256  10.149  -4.157  1.00  0.00     0.044 C 
HETATM   14  C17 UNL     1      26.587  10.423  -3.642  1.00  0.00     0.047 C 
HETATM   15  C18 UNL     1      26.162   9.305  -2.770  1.00  0.00     0.067 C 
HETATM   16  C19 UNL     1      26.735  11.734  -3.093  1.00  0.00     0.095 C 
HETATM   17  C24 UNL     1      27.258  12.588  -4.283  1.00  0.00     0.128 C 
HETATM   18  C25 UNL     1      26.057  12.493  -5.193  1.00  0.00     0.223 C 
HETATM   19  O3  UNL     1      25.458  13.529  -5.397  1.00  0.00    -0.273 OA
HETATM   20  N4  UNL     1      25.657  11.214  -5.773  1.00  0.00    -0.331 N 
ENDROOT
BRANCH   1  21
HETATM   21  N1  UNL     1      26.193   6.299  -9.379  1.00  0.00    -0.327 N 
HETATM   22  C5  UNL     1      25.030   6.156 -10.148  1.00  0.00     0.226 C 
HETATM   23  O1  UNL     1      23.916   6.038  -9.600  1.00  0.00    -0.273 OA
ATOM     24  H1  UNL     1      27.063   6.381  -9.904  1.00  0.00     0.169 HD
BRANCH  22  25
HETATM   25  C3  UNL     1      25.050   6.137 -11.639  1.00  0.00     0.074 C 
HETATM   26  C4  UNL     1      23.675   6.011 -12.245  1.00  0.00     0.020 C 
BRANCH  25  27
HETATM   27  C2  UNL     1      25.700   7.387 -12.184  1.00  0.00     0.009 C 
HETATM   28  C1  UNL     1      24.933   8.641 -11.826  1.00  0.00     0.006 C 
ENDBRANCH  25  27
ENDBRANCH  22  25
ENDBRANCH   1  21
BRANCH  20  29
HETATM   29  C26 UNL     1      25.297  11.267  -7.127  1.00  0.00     0.115 C 
BRANCH  29  30
HETATM   30  C27 UNL     1      23.959  12.032  -7.375  1.00  0.00     0.189 C 
BRANCH  30  31
HETATM   31  O4  UNL     1      22.927  11.055  -7.332  1.00  0.00    -0.399 OA
ATOM     32  H4  UNL     1      22.211  11.401  -7.851  1.00  0.00     0.209 HD
ENDBRANCH  30  31
ENDBRANCH  29  30
BRANCH  29  33
HETATM   33  C28 UNL     1      26.147  11.783  -8.191  1.00  0.00     0.002 C 
HETATM   34  C29 UNL     1      26.889  10.822  -9.094  1.00  0.00     0.011 C 
HETATM   35  C30 UNL     1      25.504  12.871  -9.088  1.00  0.00     0.011 C 
ENDBRANCH  29  33
ENDBRANCH  20  29
BRANCH  16  36
HETATM   36  N3  UNL     1      27.498  11.855  -1.954  1.00  0.00    -0.403 N 
HETATM   37  C20 UNL     1      27.527  10.863  -0.966  1.00  0.00     0.143 C 
HETATM   38  C21 UNL     1      27.249  11.414   0.435  1.00  0.00     0.187 C 
HETATM   39  O2  UNL     1      28.048  12.526   0.680  1.00  0.00    -0.388 OA
HETATM   40  C22 UNL     1      27.682  13.524  -0.215  1.00  0.00     0.187 C 
HETATM   41  C23 UNL     1      28.147  13.071  -1.605  1.00  0.00     0.143 C 
ENDBRANCH  16  36
TORSDOF 8
ENDMDL
