MODEL 1
REMARK VINA RESULT: -10.037104440      0.000      0.000
REMARK  10 active torsions:
REMARK  status: ('A' for Active; 'I' for Inactive)
REMARK    1  A    between atoms: C2_2  and  C3_3 
REMARK    2  A    between atoms: C2_2  and  C25_31 
REMARK    3  A    between atoms: C3_3  and  C4_4 
REMARK    4  A    between atoms: C5_7  and  C6_8 
REMARK    5  A    between atoms: C11_13  and  N2_14 
REMARK    6  A    between atoms: C15_18  and  C16_19 
REMARK    7  A    between atoms: C16_19  and  C17_20 
REMARK    8  A    between atoms: C17_20  and  O1_21 
REMARK    9  A    between atoms: C17_20  and  C18_23 
REMARK       I    between atoms: C25_31  and  N4_33 
REMARK   10  A    between atoms: N4_33  and  C27_35 
ROOT
HETATM    1  C18 UNL     1      27.633  10.060  -1.062  1.00  0.00    -0.025 A 
HETATM    2  C19 UNL     1      26.471   9.759  -0.372  1.00  0.00     0.010 A 
HETATM    3  C20 UNL     1      26.068  10.452   0.748  1.00  0.00     0.002 A 
HETATM    4  C21 UNL     1      26.862  11.485   1.191  1.00  0.00     0.022 A 
HETATM    5  C22 UNL     1      28.032  11.837   0.551  1.00  0.00     0.045 A 
HETATM    6  C23 UNL     1      28.846  12.926   1.039  1.00  0.00     0.099 C 
HETATM    7  N3  UNL     1      29.488  13.815   1.425  1.00  0.00    -0.191 NA
HETATM    8  C24 UNL     1      28.381  11.110  -0.560  1.00  0.00     0.032 A 
ENDROOT
BRANCH   1   9
HETATM    9  C17 UNL     1      28.075   9.332  -2.257  1.00  0.00     0.175 C 
BRANCH   9  10
HETATM   10  C16 UNL     1      28.357  10.255  -3.359  1.00  0.00     0.023 C 
BRANCH  10  11
HETATM   11  C15 UNL     1      27.408  10.947  -3.990  1.00  0.00    -0.009 A 
HETATM   12  C4  UNL     1      27.288  12.300  -4.115  1.00  0.00     0.039 A 
HETATM   13  N1  UNL     1      26.185  12.564  -4.830  1.00  0.00    -0.355 N 
HETATM   14  C5  UNL     1      25.548  11.414  -5.195  1.00  0.00     0.046 A 
ATOM     15  H1  UNL     1      25.864  13.502  -5.070  1.00  0.00     0.166 HD
HETATM   16  C14 UNL     1      26.309  10.403  -4.672  1.00  0.00     0.044 A 
BRANCH  12  17
HETATM   17  C3  UNL     1      28.132  13.178  -3.610  1.00  0.00     0.017 C 
BRANCH  17  18
HETATM   18  C2  UNL     1      27.740  14.540  -3.141  1.00  0.00     0.099 C 
HETATM   19  C1  UNL     1      27.373  14.410  -1.685  1.00  0.00     0.024 C 
BRANCH  18  20
HETATM   20  C25 UNL     1      28.841  15.500  -3.275  1.00  0.00     0.231 C 
HETATM   21  O2  UNL     1      30.050  15.181  -3.045  1.00  0.00    -0.272 OA
HETATM   22  N4  UNL     1      28.609  16.831  -3.666  1.00  0.00    -0.322 N 
HETATM   23  C26 UNL     1      27.285  17.292  -3.989  1.00  0.00     0.159 C 
BRANCH  22  24
HETATM   24  C27 UNL     1      29.696  17.767  -3.767  1.00  0.00     0.036 A 
HETATM   25  C28 UNL     1      30.008  18.508  -2.652  1.00  0.00     0.031 A 
HETATM   26  C29 UNL     1      31.045  19.407  -2.738  1.00  0.00     0.025 A 
HETATM   27  C30 UNL     1      31.732  19.537  -3.925  1.00  0.00     0.044 A 
HETATM   28  C31 UNL     1      32.804  20.486  -3.968  1.00  0.00     0.099 C 
HETATM   29  C32 UNL     1      31.398  18.774  -5.048  1.00  0.00     0.025 A 
HETATM   30  N5  UNL     1      33.678  21.267  -3.981  1.00  0.00    -0.191 NA
HETATM   31  C33 UNL     1      30.363  17.877  -4.959  1.00  0.00     0.031 A 
ENDBRANCH  22  24
ENDBRANCH  18  20
ENDBRANCH  17  18
ENDBRANCH  12  17
BRANCH  14  32
HETATM   32  C6  UNL     1      24.281  11.411  -5.926  1.00  0.00     0.017 A 
HETATM   33  C7  UNL     1      23.165  12.018  -5.317  1.00  0.00     0.016 A 
HETATM   34  C8  UNL     1      21.932  12.109  -5.882  1.00  0.00     0.001 A 
HETATM   35  C9  UNL     1      21.745  11.580  -7.124  1.00  0.00     0.002 A 
HETATM   36  C10 UNL     1      22.800  10.979  -7.758  1.00  0.00     0.030 A 
HETATM   37  C11 UNL     1      24.082  10.893  -7.158  1.00  0.00     0.042 A 
BRANCH  37  38
HETATM   38  N2  UNL     1      25.104  10.320  -7.955  1.00  0.00    -0.389 N 
HETATM   39  C12 UNL     1      25.947  11.153  -8.780  1.00  0.00     0.149 C 
HETATM   40  C13 UNL     1      25.287   8.890  -7.979  1.00  0.00     0.149 C 
ENDBRANCH  37  38
ENDBRANCH  14  32
ENDBRANCH  10  11
ENDBRANCH   9  10
BRANCH   9  41
HETATM   41  O1  UNL     1      27.118   8.372  -2.568  1.00  0.00    -0.387 OA
ATOM     42  H1  UNL     1      27.452   7.662  -3.103  1.00  0.00     0.210 HD
ENDBRANCH   9  41
ENDBRANCH   1   9
TORSDOF 10
ENDMDL
MODEL 2
REMARK VINA RESULT: -10.014246981      3.260      8.460
REMARK  10 active torsions:
REMARK  status: ('A' for Active; 'I' for Inactive)
REMARK    1  A    between atoms: C2_2  and  C3_3 
REMARK    2  A    between atoms: C2_2  and  C25_31 
REMARK    3  A    between atoms: C3_3  and  C4_4 
REMARK    4  A    between atoms: C5_7  and  C6_8 
REMARK    5  A    between atoms: C11_13  and  N2_14 
REMARK    6  A    between atoms: C15_18  and  C16_19 
REMARK    7  A    between atoms: C16_19  and  C17_20 
REMARK    8  A    between atoms: C17_20  and  O1_21 
REMARK    9  A    between atoms: C17_20  and  C18_23 
REMARK       I    between atoms: C25_31  and  N4_33 
REMARK   10  A    between atoms: N4_33  and  C27_35 
ROOT
HETATM    1  C18 UNL     1      27.696  11.502  -1.281  1.00  0.00    -0.025 A 
HETATM    2  C19 UNL     1      27.692  11.578   0.101  1.00  0.00     0.010 A 
HETATM    3  C20 UNL     1      27.693  12.775   0.782  1.00  0.00     0.002 A 
HETATM    4  C21 UNL     1      27.698  13.939   0.048  1.00  0.00     0.022 A 
HETATM    5  C22 UNL     1      27.702  13.934  -1.332  1.00  0.00     0.045 A 
HETATM    6  C23 UNL     1      27.709  15.172  -2.077  1.00  0.00     0.099 C 
HETATM    7  N3  UNL     1      27.695  16.170  -2.673  1.00  0.00    -0.191 NA
HETATM    8  C24 UNL     1      27.701  12.711  -1.954  1.00  0.00     0.032 A 
ENDROOT
BRANCH   1   9
HETATM    9  C17 UNL     1      27.694  10.235  -2.021  1.00  0.00     0.175 C 
BRANCH   9  10
HETATM   10  C16 UNL     1      26.374   9.966  -2.596  1.00  0.00     0.023 C 
BRANCH  10  11
HETATM   11  C15 UNL     1      26.140   9.957  -3.909  1.00  0.00    -0.009 A 
HETATM   12  C4  UNL     1      26.083   8.885  -4.751  1.00  0.00     0.039 A 
HETATM   13  N1  UNL     1      25.821   9.332  -5.988  1.00  0.00    -0.355 N 
HETATM   14  C5  UNL     1      25.698  10.691  -6.005  1.00  0.00     0.046 A 
ATOM     15  H1  UNL     1      25.726   8.734  -6.809  1.00  0.00     0.166 HD
HETATM   16  C14 UNL     1      25.897  11.084  -4.709  1.00  0.00     0.044 A 
BRANCH  12  17
HETATM   17  C3  UNL     1      26.258   7.631  -4.384  1.00  0.00     0.017 C 
BRANCH  17  18
HETATM   18  C2  UNL     1      26.938   6.601  -5.224  1.00  0.00     0.099 C 
HETATM   19  C1  UNL     1      26.716   5.273  -4.548  1.00  0.00     0.024 C 
BRANCH  18  20
HETATM   20  C25 UNL     1      26.380   6.550  -6.580  1.00  0.00     0.231 C 
HETATM   21  O2  UNL     1      25.193   6.158  -6.809  1.00  0.00    -0.272 OA
HETATM   22  N4  UNL     1      27.139   6.933  -7.699  1.00  0.00    -0.322 N 
HETATM   23  C26 UNL     1      28.482   7.429  -7.554  1.00  0.00     0.159 C 
BRANCH  22  24
HETATM   24  C27 UNL     1      26.587   6.851  -9.025  1.00  0.00     0.036 A 
HETATM   25  C28 UNL     1      26.186   8.021  -9.625  1.00  0.00     0.031 A 
HETATM   26  C29 UNL     1      25.655   7.953 -10.891  1.00  0.00     0.025 A 
HETATM   27  C30 UNL     1      25.542   6.730 -11.514  1.00  0.00     0.044 A 
HETATM   28  C31 UNL     1      24.983   6.707 -12.832  1.00  0.00     0.099 C 
HETATM   29  C32 UNL     1      25.956   5.551 -10.885  1.00  0.00     0.025 A 
HETATM   30  N5  UNL     1      24.524   6.712 -13.910  1.00  0.00    -0.191 NA
HETATM   31  C33 UNL     1      26.485   5.621  -9.621  1.00  0.00     0.031 A 
ENDBRANCH  22  24
ENDBRANCH  18  20
ENDBRANCH  17  18
ENDBRANCH  12  17
BRANCH  14  32
HETATM   32  C6  UNL     1      25.478  11.448  -7.237  1.00  0.00     0.017 A 
HETATM   33  C7  UNL     1      26.488  11.423  -8.218  1.00  0.00     0.016 A 
HETATM   34  C8  UNL     1      26.416  12.060  -9.417  1.00  0.00     0.001 A 
HETATM   35  C9  UNL     1      25.294  12.779  -9.705  1.00  0.00     0.002 A 
HETATM   36  C10 UNL     1      24.283  12.834  -8.783  1.00  0.00     0.030 A 
HETATM   37  C11 UNL     1      24.370  12.163  -7.536  1.00  0.00     0.042 A 
BRANCH  37  38
HETATM   38  N2  UNL     1      23.222  12.234  -6.710  1.00  0.00    -0.389 N 
HETATM   39  C12 UNL     1      22.151  11.277  -6.855  1.00  0.00     0.149 C 
HETATM   40  C13 UNL     1      23.094  13.292  -5.738  1.00  0.00     0.149 C 
ENDBRANCH  37  38
ENDBRANCH  14  32
ENDBRANCH  10  11
ENDBRANCH   9  10
BRANCH   9  41
HETATM   41  O1  UNL     1      28.146   9.229  -1.173  1.00  0.00    -0.387 OA
ATOM     42  H1  UNL     1      28.900   8.760  -1.510  1.00  0.00     0.210 HD
ENDBRANCH   9  41
ENDBRANCH   1   9
TORSDOF 10
ENDMDL
MODEL 3
REMARK VINA RESULT: -9.964735809      3.420      7.848
REMARK  10 active torsions:
REMARK  status: ('A' for Active; 'I' for Inactive)
REMARK    1  A    between atoms: C2_2  and  C3_3 
REMARK    2  A    between atoms: C2_2  and  C25_31 
REMARK    3  A    between atoms: C3_3  and  C4_4 
REMARK    4  A    between atoms: C5_7  and  C6_8 
REMARK    5  A    between atoms: C11_13  and  N2_14 
REMARK    6  A    between atoms: C15_18  and  C16_19 
REMARK    7  A    between atoms: C16_19  and  C17_20 
REMARK    8  A    between atoms: C17_20  and  O1_21 
REMARK    9  A    between atoms: C17_20  and  C18_23 
REMARK       I    between atoms: C25_31  and  N4_33 
REMARK   10  A    between atoms: N4_33  and  C27_35 
ROOT
HETATM    1  C18 UNL     1      27.388  11.281  -0.594  1.00  0.00    -0.025 A 
HETATM    2  C19 UNL     1      27.368  11.744   0.709  1.00  0.00     0.010 A 
HETATM    3  C20 UNL     1      27.494  13.078   1.029  1.00  0.00     0.002 A 
HETATM    4  C21 UNL     1      27.646  13.979  -0.000  1.00  0.00     0.022 A 
HETATM    5  C22 UNL     1      27.676  13.584  -1.322  1.00  0.00     0.045 A 
HETATM    6  C23 UNL     1      27.838  14.552  -2.382  1.00  0.00     0.099 C 
HETATM    7  N3  UNL     1      27.950  15.337  -3.232  1.00  0.00    -0.191 NA
HETATM    8  C24 UNL     1      27.546  12.241  -1.577  1.00  0.00     0.032 A 
ENDROOT
BRANCH   1   9
HETATM    9  C17 UNL     1      27.255   9.863  -0.951  1.00  0.00     0.175 C 
BRANCH   9  10
HETATM   10  C16 UNL     1      26.007   9.621  -1.678  1.00  0.00     0.023 C 
BRANCH  10  11
HETATM   11  C15 UNL     1      25.964   9.033  -2.874  1.00  0.00    -0.009 A 
HETATM   12  C4  UNL     1      25.420   9.508  -4.032  1.00  0.00     0.039 A 
HETATM   13  N1  UNL     1      25.601   8.590  -4.992  1.00  0.00    -0.355 N 
HETATM   14  C5  UNL     1      26.259   7.496  -4.511  1.00  0.00     0.046 A 
ATOM     15  H1  UNL     1      25.287   8.696  -5.957  1.00  0.00     0.166 HD
HETATM   16  C14 UNL     1      26.486   7.769  -3.189  1.00  0.00     0.044 A 
BRANCH  12  17
HETATM   17  C3  UNL     1      24.824  10.677  -4.157  1.00  0.00     0.017 C 
BRANCH  17  18
HETATM   18  C2  UNL     1      25.014  11.592  -5.321  1.00  0.00     0.099 C 
HETATM   19  C1  UNL     1      26.172  12.493  -4.982  1.00  0.00     0.024 C 
BRANCH  18  20
HETATM   20  C25 UNL     1      25.323  10.852  -6.550  1.00  0.00     0.231 C 
HETATM   21  O2  UNL     1      26.513  10.544  -6.873  1.00  0.00    -0.272 OA
HETATM   22  N4  UNL     1      24.309  10.447  -7.437  1.00  0.00    -0.322 N 
HETATM   23  C26 UNL     1      22.923  10.710  -7.152  1.00  0.00     0.159 C 
BRANCH  22  24
HETATM   24  C27 UNL     1      24.632   9.747  -8.650  1.00  0.00     0.036 A 
HETATM   25  C28 UNL     1      24.766   8.380  -8.584  1.00  0.00     0.031 A 
HETATM   26  C29 UNL     1      25.075   7.701  -9.739  1.00  0.00     0.025 A 
HETATM   27  C30 UNL     1      25.241   8.401 -10.914  1.00  0.00     0.044 A 
HETATM   28  C31 UNL     1      25.563   7.653 -12.091  1.00  0.00     0.099 C 
HETATM   29  C32 UNL     1      25.099   9.792 -10.960  1.00  0.00     0.025 A 
HETATM   30  N5  UNL     1      25.825   7.020 -13.042  1.00  0.00    -0.191 NA
HETATM   31  C33 UNL     1      24.790  10.468  -9.805  1.00  0.00     0.031 A 
ENDBRANCH  22  24
ENDBRANCH  18  20
ENDBRANCH  17  18
ENDBRANCH  12  17
BRANCH  14  32
HETATM   32  C6  UNL     1      26.529   6.314  -5.330  1.00  0.00     0.017 A 
HETATM   33  C7  UNL     1      25.732   5.172  -5.127  1.00  0.00     0.016 A 
HETATM   34  C8  UNL     1      25.853   4.012  -5.824  1.00  0.00     0.001 A 
HETATM   35  C9  UNL     1      26.810   3.931  -6.791  1.00  0.00     0.002 A 
HETATM   36  C10 UNL     1      27.612   5.016  -7.027  1.00  0.00     0.030 A 
HETATM   37  C11 UNL     1      27.473   6.222  -6.294  1.00  0.00     0.042 A 
BRANCH  37  38
HETATM   38  N2  UNL     1      28.311   7.293  -6.693  1.00  0.00    -0.389 N 
HETATM   39  C12 UNL     1      28.404   7.674  -8.083  1.00  0.00     0.149 C 
HETATM   40  C13 UNL     1      29.111   7.990  -5.717  1.00  0.00     0.149 C 
ENDBRANCH  37  38
ENDBRANCH  14  32
ENDBRANCH  10  11
ENDBRANCH   9  10
BRANCH   9  41
HETATM   41  O1  UNL     1      27.378   9.104   0.208  1.00  0.00    -0.387 OA
ATOM     42  H1  UNL     1      28.278   8.978   0.485  1.00  0.00     0.210 HD
ENDBRANCH   9  41
ENDBRANCH   1   9
TORSDOF 10
ENDMDL
MODEL 4
REMARK VINA RESULT: -9.928922372      3.349      7.963
REMARK  10 active torsions:
REMARK  status: ('A' for Active; 'I' for Inactive)
REMARK    1  A    between atoms: C2_2  and  C3_3 
REMARK    2  A    between atoms: C2_2  and  C25_31 
REMARK    3  A    between atoms: C3_3  and  C4_4 
REMARK    4  A    between atoms: C5_7  and  C6_8 
REMARK    5  A    between atoms: C11_13  and  N2_14 
REMARK    6  A    between atoms: C15_18  and  C16_19 
REMARK    7  A    between atoms: C16_19  and  C17_20 
REMARK    8  A    between atoms: C17_20  and  O1_21 
REMARK    9  A    between atoms: C17_20  and  C18_23 
REMARK       I    between atoms: C25_31  and  N4_33 
REMARK   10  A    between atoms: N4_33  and  C27_35 
ROOT
HETATM    1  C18 UNL     1      27.697  11.618  -0.817  1.00  0.00    -0.025 A 
HETATM    2  C19 UNL     1      27.707  12.067   0.492  1.00  0.00     0.010 A 
HETATM    3  C20 UNL     1      27.690  13.404   0.822  1.00  0.00     0.002 A 
HETATM    4  C21 UNL     1      27.662  14.324  -0.202  1.00  0.00     0.022 A 
HETATM    5  C22 UNL     1      27.651  13.943  -1.528  1.00  0.00     0.045 A 
HETATM    6  C23 UNL     1      27.622  14.931  -2.582  1.00  0.00     0.099 C 
HETATM    7  N3  UNL     1      27.579  15.729  -3.427  1.00  0.00    -0.191 NA
HETATM    8  C24 UNL     1      27.669  12.597  -1.794  1.00  0.00     0.032 A 
ENDROOT
BRANCH   1   9
HETATM    9  C17 UNL     1      27.714  10.196  -1.185  1.00  0.00     0.175 C 
BRANCH   9  10
HETATM   10  C16 UNL     1      26.557   9.856  -2.015  1.00  0.00     0.023 C 
BRANCH  10  11
HETATM   11  C15 UNL     1      26.663   9.445  -3.279  1.00  0.00    -0.009 A 
HETATM   12  C4  UNL     1      26.149  10.024  -4.403  1.00  0.00     0.039 A 
HETATM   13  N1  UNL     1      26.499   9.279  -5.460  1.00  0.00    -0.355 N 
HETATM   14  C5  UNL     1      27.243   8.200  -5.079  1.00  0.00     0.046 A 
ATOM     15  H1  UNL     1      26.243   9.490  -6.425  1.00  0.00     0.166 HD
HETATM   16  C14 UNL     1      27.346   8.301  -3.718  1.00  0.00     0.044 A 
BRANCH  12  17
HETATM   17  C3  UNL     1      25.435  11.132  -4.417  1.00  0.00     0.017 C 
BRANCH  17  18
HETATM   18  C2  UNL     1      25.200  11.960  -5.637  1.00  0.00     0.099 C 
HETATM   19  C1  UNL     1      26.152  13.124  -5.562  1.00  0.00     0.024 C 
BRANCH  18  20
HETATM   20  C25 UNL     1      25.460  11.203  -6.866  1.00  0.00     0.231 C 
HETATM   21  O2  UNL     1      26.615  11.146  -7.394  1.00  0.00    -0.272 OA
HETATM   22  N4  UNL     1      24.436  10.501  -7.526  1.00  0.00    -0.322 N 
HETATM   23  C26 UNL     1      23.098  10.465  -6.997  1.00  0.00     0.159 C 
BRANCH  22  24
HETATM   24  C27 UNL     1      24.702   9.787  -8.745  1.00  0.00     0.036 A 
HETATM   25  C28 UNL     1      25.205   8.511  -8.643  1.00  0.00     0.031 A 
HETATM   26  C29 UNL     1      25.464   7.820  -9.804  1.00  0.00     0.025 A 
HETATM   27  C30 UNL     1      25.216   8.420 -11.019  1.00  0.00     0.044 A 
HETATM   28  C31 UNL     1      25.502   7.662 -12.201  1.00  0.00     0.099 C 
HETATM   29  C32 UNL     1      24.704   9.718 -11.101  1.00  0.00     0.025 A 
HETATM   30  N5  UNL     1      25.742   7.025 -13.154  1.00  0.00    -0.191 NA
HETATM   31  C33 UNL     1      24.446  10.406  -9.941  1.00  0.00     0.031 A 
ENDBRANCH  22  24
ENDBRANCH  18  20
ENDBRANCH  17  18
ENDBRANCH  12  17
BRANCH  14  32
HETATM   32  C6  UNL     1      27.701   7.183  -6.026  1.00  0.00     0.017 A 
HETATM   33  C7  UNL     1      28.537   7.592  -7.082  1.00  0.00     0.016 A 
HETATM   34  C8  UNL     1      29.055   6.759  -8.023  1.00  0.00     0.001 A 
HETATM   35  C9  UNL     1      28.753   5.431  -7.954  1.00  0.00     0.002 A 
HETATM   36  C10 UNL     1      27.943   4.984  -6.944  1.00  0.00     0.030 A 
HETATM   37  C11 UNL     1      27.411   5.864  -5.967  1.00  0.00     0.042 A 
BRANCH  37  38
HETATM   38  N2  UNL     1      26.656   5.260  -4.932  1.00  0.00    -0.389 N 
HETATM   39  C12 UNL     1      27.315   4.576  -3.844  1.00  0.00     0.149 C 
HETATM   40  C13 UNL     1      25.215   5.290  -4.974  1.00  0.00     0.149 C 
ENDBRANCH  37  38
ENDBRANCH  14  32
ENDBRANCH  10  11
ENDBRANCH   9  10
BRANCH   9  41
HETATM   41  O1  UNL     1      27.804   9.442  -0.020  1.00  0.00    -0.387 OA
ATOM     42  H1  UNL     1      27.310   9.804   0.706  1.00  0.00     0.210 HD
ENDBRANCH   9  41
ENDBRANCH   1   9
TORSDOF 10
ENDMDL
MODEL 5
REMARK VINA RESULT: -9.926980760      3.794      8.153
REMARK  10 active torsions:
REMARK  status: ('A' for Active; 'I' for Inactive)
REMARK    1  A    between atoms: C2_2  and  C3_3 
REMARK    2  A    between atoms: C2_2  and  C25_31 
REMARK    3  A    between atoms: C3_3  and  C4_4 
REMARK    4  A    between atoms: C5_7  and  C6_8 
REMARK    5  A    between atoms: C11_13  and  N2_14 
REMARK    6  A    between atoms: C15_18  and  C16_19 
REMARK    7  A    between atoms: C16_19  and  C17_20 
REMARK    8  A    between atoms: C17_20  and  O1_21 
REMARK    9  A    between atoms: C17_20  and  C18_23 
REMARK       I    between atoms: C25_31  and  N4_33 
REMARK   10  A    between atoms: N4_33  and  C27_35 
ROOT
HETATM    1  C18 UNL     1      27.885  13.605  -2.104  1.00  0.00    -0.025 A 
HETATM    2  C19 UNL     1      27.801  14.258  -0.887  1.00  0.00     0.010 A 
HETATM    3  C20 UNL     1      27.672  13.589   0.311  1.00  0.00     0.002 A 
HETATM    4  C21 UNL     1      27.626  12.214   0.283  1.00  0.00     0.022 A 
HETATM    5  C22 UNL     1      27.704  11.502  -0.895  1.00  0.00     0.045 A 
HETATM    6  C23 UNL     1      27.652  10.058  -0.894  1.00  0.00     0.099 C 
HETATM    7  N3  UNL     1      27.629   8.896  -0.886  1.00  0.00    -0.191 NA
HETATM    8  C24 UNL     1      27.831  12.224  -2.056  1.00  0.00     0.032 A 
ENDROOT
BRANCH   1   9
HETATM    9  C17 UNL     1      28.023  14.303  -3.388  1.00  0.00     0.175 C 
BRANCH   9  10
HETATM   10  C16 UNL     1      27.509  13.483  -4.488  1.00  0.00     0.023 C 
BRANCH  10  11
HETATM   11  C15 UNL     1      26.297  13.654  -5.018  1.00  0.00    -0.009 A 
HETATM   12  C4  UNL     1      25.540  12.751  -5.707  1.00  0.00     0.039 A 
HETATM   13  N1  UNL     1      24.390  13.344  -6.056  1.00  0.00    -0.355 N 
HETATM   14  C5  UNL     1      24.347  14.635  -5.619  1.00  0.00     0.046 A 
ATOM     15  H1  UNL     1      23.643  12.888  -6.581  1.00  0.00     0.166 HD
HETATM   16  C14 UNL     1      25.537  14.832  -4.971  1.00  0.00     0.044 A 
BRANCH  12  17
HETATM   17  C3  UNL     1      25.904  11.511  -5.968  1.00  0.00     0.017 C 
BRANCH  17  18
HETATM   18  C2  UNL     1      26.089  10.458  -4.926  1.00  0.00     0.099 C 
HETATM   19  C1  UNL     1      24.839  10.452  -4.086  1.00  0.00     0.024 C 
BRANCH  18  20
HETATM   20  C25 UNL     1      26.275   9.130  -5.521  1.00  0.00     0.231 C 
HETATM   21  O2  UNL     1      25.428   8.622  -6.321  1.00  0.00    -0.272 OA
HETATM   22  N4  UNL     1      27.409   8.349  -5.232  1.00  0.00    -0.322 N 
HETATM   23  C26 UNL     1      28.450   8.841  -4.369  1.00  0.00     0.159 C 
BRANCH  22  24
HETATM   24  C27 UNL     1      27.563   7.038  -5.803  1.00  0.00     0.036 A 
HETATM   25  C28 UNL     1      27.018   5.976  -5.121  1.00  0.00     0.031 A 
HETATM   26  C29 UNL     1      27.161   4.718  -5.658  1.00  0.00     0.025 A 
HETATM   27  C30 UNL     1      27.838   4.561  -6.847  1.00  0.00     0.044 A 
HETATM   28  C31 UNL     1      27.963   3.233  -7.368  1.00  0.00     0.099 C 
HETATM   29  C32 UNL     1      28.385   5.656  -7.524  1.00  0.00     0.025 A 
HETATM   30  N5  UNL     1      28.052   2.138  -7.776  1.00  0.00    -0.191 NA
HETATM   31  C33 UNL     1      28.241   6.911  -6.986  1.00  0.00     0.031 A 
ENDBRANCH  22  24
ENDBRANCH  18  20
ENDBRANCH  17  18
ENDBRANCH  12  17
BRANCH  14  32
HETATM   32  C6  UNL     1      23.233  15.534  -5.920  1.00  0.00     0.017 A 
HETATM   33  C7  UNL     1      22.908  16.525  -4.974  1.00  0.00     0.016 A 
HETATM   34  C8  UNL     1      21.915  17.441  -5.125  1.00  0.00     0.001 A 
HETATM   35  C9  UNL     1      21.170  17.411  -6.267  1.00  0.00     0.002 A 
HETATM   36  C10 UNL     1      21.448  16.465  -7.218  1.00  0.00     0.030 A 
HETATM   37  C11 UNL     1      22.489  15.517  -7.048  1.00  0.00     0.042 A 
BRANCH  37  38
HETATM   38  N2  UNL     1      22.723  14.648  -8.143  1.00  0.00    -0.389 N 
HETATM   39  C12 UNL     1      23.725  14.966  -9.133  1.00  0.00     0.149 C 
HETATM   40  C13 UNL     1      21.932  13.452  -8.300  1.00  0.00     0.149 C 
ENDBRANCH  37  38
ENDBRANCH  14  32
ENDBRANCH  10  11
ENDBRANCH   9  10
BRANCH   9  41
HETATM   41  O1  UNL     1      29.354  14.674  -3.547  1.00  0.00    -0.387 OA
ATOM     42  H1  UNL     1      29.493  15.301  -4.246  1.00  0.00     0.210 HD
ENDBRANCH   9  41
ENDBRANCH   1   9
TORSDOF 10
ENDMDL
