MODEL 1
REMARK VINA RESULT: -9.660246028      0.000      0.000
REMARK  9 active torsions:
REMARK  status: ('A' for Active; 'I' for Inactive)
REMARK    1  A    between atoms: N1_5  and  C5_6 
REMARK    2  A    between atoms: C5_6  and  C6_7 
REMARK    3  A    between atoms: C6_7  and  C7_8 
REMARK    4  A    between atoms: C7_8  and  C8_9 
REMARK    5  A    between atoms: C8_9  and  N2_10 
REMARK    6  A    between atoms: N2_10  and  C11_13 
REMARK    7  A    between atoms: C11_13  and  C12_14 
REMARK    8  A    between atoms: C25_30  and  O2_31 
REMARK    9  A    between atoms: C33_40  and  O3_41 
ROOT
HETATM    1  C1  UNL     1      28.699   7.862  -6.509  1.00  0.00     0.019 C 
HETATM    2  C2  UNL     1      27.313   8.088  -5.870  1.00  0.00    -0.009 C 
HETATM    3  C3  UNL     1      26.335   7.995  -6.988  1.00  0.00     0.019 C 
HETATM    4  C4  UNL     1      27.139   6.916  -4.929  1.00  0.00     0.106 C 
HETATM    5  N1  UNL     1      25.752   6.815  -4.626  1.00  0.00    -0.291 NA
HETATM    6  C17 UNL     1      25.300   7.543  -3.508  1.00  0.00     0.071 C 
HETATM    7  C18 UNL     1      25.923   8.845  -3.163  1.00  0.00     0.009 C 
HETATM    8  C19 UNL     1      26.933   8.765  -2.100  1.00  0.00     0.157 C 
HETATM    9  O1  UNL     1      27.104   7.716  -1.514  1.00  0.00    -0.293 OA
HETATM   10  C20 UNL     1      27.745   9.927  -1.725  1.00  0.00     0.089 C 
HETATM   11  C21 UNL     1      27.678  11.099  -2.618  1.00  0.00     0.003 C 
HETATM   12  C22 UNL     1      27.406  12.339  -1.767  1.00  0.00     0.001 C 
HETATM   13  C23 UNL     1      28.354  12.583  -0.680  1.00  0.00     0.008 C 
HETATM   14  C24 UNL     1      28.457  14.087  -0.600  1.00  0.00     0.033 C 
HETATM   15  C25 UNL     1      27.570  14.631  -1.730  1.00  0.00     0.126 C 
HETATM   16  C26 UNL     1      27.678  13.511  -2.717  1.00  0.00    -0.014 C 
HETATM   17  C27 UNL     1      29.098  13.485  -3.224  1.00  0.00     0.018 C 
HETATM   18  C28 UNL     1      26.694  13.533  -3.829  1.00  0.00     0.012 C 
HETATM   19  C29 UNL     1      26.786  12.219  -4.592  1.00  0.00     0.007 C 
HETATM   20  C30 UNL     1      26.592  11.104  -3.625  1.00  0.00     0.006 C 
HETATM   21  C31 UNL     1      26.298   9.752  -4.263  1.00  0.00     0.018 C 
HETATM   22  C32 UNL     1      25.030  10.057  -5.098  1.00  0.00     0.023 C 
HETATM   23  C33 UNL     1      27.393   9.397  -5.167  1.00  0.00     0.140 C 
ENDROOT
BRANCH   5  24
HETATM   24  C5  UNL     1      25.459   5.401  -4.390  1.00  0.00     0.095 C 
BRANCH  24  25
HETATM   25  C6  UNL     1      26.470   4.480  -5.052  1.00  0.00     0.016 C 
BRANCH  25  26
HETATM   26  C7  UNL     1      25.925   3.828  -6.271  1.00  0.00     0.029 C 
BRANCH  26  27
HETATM   27  C8  UNL     1      26.065   4.573  -7.540  1.00  0.00     0.237 C 
BRANCH  27  28
HETATM   28  N2  UNL     1      27.138   4.258  -8.410  1.00  0.00    -0.070 N 
HETATM   29  C9  UNL     1      27.588   2.864  -8.242  1.00  0.00     0.272 C 
HETATM   30  C10 UNL     1      28.303   5.078  -8.333  1.00  0.00     0.272 C 
BRANCH  28  31
HETATM   31  C11 UNL     1      26.673   4.300  -9.815  1.00  0.00     0.293 C 
BRANCH  31  32
HETATM   32  C12 UNL     1      25.847   5.474 -10.111  1.00  0.00     0.035 A 
HETATM   33  C13 UNL     1      26.396   6.708 -10.376  1.00  0.00     0.027 A 
HETATM   34  C14 UNL     1      25.595   7.797 -10.650  1.00  0.00     0.003 A 
HETATM   35  C15 UNL     1      24.234   7.663 -10.661  1.00  0.00     0.017 A 
HETATM   36  C16 UNL     1      23.700   6.414 -10.391  1.00  0.00     0.088 A 
HETATM   37  N3  UNL     1      24.510   5.391 -10.132  1.00  0.00    -0.368 N 
ATOM     38  H3  UNL     1      24.084   4.485  -9.936  1.00  0.00     0.165 HD
ENDBRANCH  31  32
ENDBRANCH  28  31
ENDBRANCH  27  28
ENDBRANCH  26  27
ENDBRANCH  25  26
ENDBRANCH  24  25
ENDBRANCH   5  24
BRANCH  23  39
HETATM   39  O3  UNL     1      28.662   9.473  -4.628  1.00  0.00    -0.394 OA
ATOM     40  H3  UNL     1      28.566   9.869  -3.770  1.00  0.00     0.210 HD
ENDBRANCH  23  39
BRANCH  15  41
HETATM   41  O2  UNL     1      28.126  15.810  -2.197  1.00  0.00    -0.395 OA
ATOM     42  H2  UNL     1      27.669  16.066  -2.991  1.00  0.00     0.210 HD
ENDBRANCH  15  41
TORSDOF 9
ENDMDL
MODEL 2
REMARK VINA RESULT: -9.452490017      1.546      3.754
REMARK  9 active torsions:
REMARK  status: ('A' for Active; 'I' for Inactive)
REMARK    1  A    between atoms: N1_5  and  C5_6 
REMARK    2  A    between atoms: C5_6  and  C6_7 
REMARK    3  A    between atoms: C6_7  and  C7_8 
REMARK    4  A    between atoms: C7_8  and  C8_9 
REMARK    5  A    between atoms: C8_9  and  N2_10 
REMARK    6  A    between atoms: N2_10  and  C11_13 
REMARK    7  A    between atoms: C11_13  and  C12_14 
REMARK    8  A    between atoms: C25_30  and  O2_31 
REMARK    9  A    between atoms: C33_40  and  O3_41 
ROOT
HETATM    1  C1  UNL     1      24.599   6.962  -2.904  1.00  0.00     0.019 C 
HETATM    2  C2  UNL     1      25.965   7.321  -3.525  1.00  0.00    -0.009 C 
HETATM    3  C3  UNL     1      26.743   6.052  -3.548  1.00  0.00     0.019 C 
HETATM    4  C4  UNL     1      25.633   7.752  -4.937  1.00  0.00     0.106 C 
HETATM    5  N1  UNL     1      26.836   7.694  -5.694  1.00  0.00    -0.291 NA
HETATM    6  C17 UNL     1      27.620   8.864  -5.717  1.00  0.00     0.071 C 
HETATM    7  C18 UNL     1      27.670   9.753  -4.530  1.00  0.00     0.009 C 
HETATM    8  C19 UNL     1      26.783  10.920  -4.617  1.00  0.00     0.157 C 
HETATM    9  O1  UNL     1      26.183  11.142  -5.648  1.00  0.00    -0.293 OA
HETATM   10  C20 UNL     1      26.602  11.831  -3.481  1.00  0.00     0.089 C 
HETATM   11  C21 UNL     1      27.151  11.391  -2.185  1.00  0.00     0.003 C 
HETATM   12  C22 UNL     1      27.994  12.529  -1.607  1.00  0.00     0.001 C 
HETATM   13  C23 UNL     1      27.310  13.813  -1.460  1.00  0.00     0.008 C 
HETATM   14  C24 UNL     1      27.902  14.415  -0.208  1.00  0.00     0.033 C 
HETATM   15  C25 UNL     1      28.886  13.368   0.337  1.00  0.00     0.126 C 
HETATM   16  C26 UNL     1      28.238  12.112  -0.152  1.00  0.00    -0.014 C 
HETATM   17  C27 UNL     1      26.938  11.948   0.594  1.00  0.00     0.018 C 
HETATM   18  C28 UNL     1      29.073  10.885  -0.085  1.00  0.00     0.012 C 
HETATM   19  C29 UNL     1      28.362   9.765  -0.831  1.00  0.00     0.007 C 
HETATM   20  C30 UNL     1      28.075  10.235  -2.213  1.00  0.00     0.006 C 
HETATM   21  C31 UNL     1      27.696   9.132  -3.194  1.00  0.00     0.018 C 
HETATM   22  C32 UNL     1      28.925   8.192  -3.116  1.00  0.00     0.023 C 
HETATM   23  C33 UNL     1      26.518   8.422  -2.691  1.00  0.00     0.140 C 
ENDROOT
BRANCH   5  24
HETATM   24  C5  UNL     1      26.468   7.371  -7.074  1.00  0.00     0.095 C 
BRANCH  24  25
HETATM   25  C6  UNL     1      25.439   8.334  -7.640  1.00  0.00     0.016 C 
BRANCH  25  26
HETATM   26  C7  UNL     1      25.565   8.493  -9.112  1.00  0.00     0.029 C 
BRANCH  26  27
HETATM   27  C8  UNL     1      25.969   7.294  -9.876  1.00  0.00     0.237 C 
BRANCH  27  28
HETATM   28  N2  UNL     1      25.049   6.711 -10.782  1.00  0.00    -0.070 N 
HETATM   29  C9  UNL     1      25.366   7.055 -12.181  1.00  0.00     0.272 C 
HETATM   30  C10 UNL     1      23.667   7.008 -10.591  1.00  0.00     0.272 C 
BRANCH  28  31
HETATM   31  C11 UNL     1      25.182   5.237 -10.754  1.00  0.00     0.293 C 
BRANCH  31  32
HETATM   32  C12 UNL     1      25.801   4.741  -9.522  1.00  0.00     0.035 A 
HETATM   33  C13 UNL     1      27.148   4.473  -9.434  1.00  0.00     0.027 A 
HETATM   34  C14 UNL     1      27.704   4.005  -8.262  1.00  0.00     0.003 A 
HETATM   35  C15 UNL     1      26.917   3.800  -7.162  1.00  0.00     0.017 A 
HETATM   36  C16 UNL     1      25.564   4.076  -7.268  1.00  0.00     0.088 A 
HETATM   37  N3  UNL     1      25.070   4.525  -8.419  1.00  0.00    -0.368 N 
ATOM     38  H3  UNL     1      24.069   4.717  -8.465  1.00  0.00     0.165 HD
ENDBRANCH  31  32
ENDBRANCH  28  31
ENDBRANCH  27  28
ENDBRANCH  26  27
ENDBRANCH  25  26
ENDBRANCH  24  25
ENDBRANCH   5  24
BRANCH  23  39
HETATM   39  O3  UNL     1      25.447   9.218  -2.336  1.00  0.00    -0.394 OA
ATOM     40  H3  UNL     1      25.796   9.908  -1.784  1.00  0.00     0.210 HD
ENDBRANCH  23  39
BRANCH  15  41
HETATM   41  O2  UNL     1      28.903  13.457   1.719  1.00  0.00    -0.395 OA
ATOM     42  H2  UNL     1      29.169  12.616   2.072  1.00  0.00     0.210 HD
ENDBRANCH  15  41
TORSDOF 9
ENDMDL
MODEL 3
REMARK VINA RESULT: -9.077956749      3.570      9.452
REMARK  9 active torsions:
REMARK  status: ('A' for Active; 'I' for Inactive)
REMARK    1  A    between atoms: N1_5  and  C5_6 
REMARK    2  A    between atoms: C5_6  and  C6_7 
REMARK    3  A    between atoms: C6_7  and  C7_8 
REMARK    4  A    between atoms: C7_8  and  C8_9 
REMARK    5  A    between atoms: C8_9  and  N2_10 
REMARK    6  A    between atoms: N2_10  and  C11_13 
REMARK    7  A    between atoms: C11_13  and  C12_14 
REMARK    8  A    between atoms: C25_30  and  O2_31 
REMARK    9  A    between atoms: C33_40  and  O3_41 
ROOT
HETATM    1  C1  UNL     1      29.850   8.620  -4.125  1.00  0.00     0.019 C 
HETATM    2  C2  UNL     1      28.333   8.780  -3.887  1.00  0.00    -0.009 C 
HETATM    3  C3  UNL     1      28.099   8.345  -2.482  1.00  0.00     0.019 C 
HETATM    4  C4  UNL     1      28.087  10.267  -4.018  1.00  0.00     0.106 C 
HETATM    5  N1  UNL     1      26.832  10.547  -3.410  1.00  0.00    -0.291 NA
HETATM    6  C17 UNL     1      25.700  10.472  -4.246  1.00  0.00     0.071 C 
HETATM    7  C18 UNL     1      25.653   9.486  -5.353  1.00  0.00     0.009 C 
HETATM    8  C19 UNL     1      25.992  10.043  -6.668  1.00  0.00     0.157 C 
HETATM    9  O1  UNL     1      26.164  11.238  -6.786  1.00  0.00    -0.293 OA
HETATM   10  C20 UNL     1      26.128   9.187  -7.851  1.00  0.00     0.089 C 
HETATM   11  C21 UNL     1      26.152   7.731  -7.617  1.00  0.00     0.003 C 
HETATM   12  C22 UNL     1      25.143   7.074  -8.559  1.00  0.00     0.001 C 
HETATM   13  C23 UNL     1      25.323   7.363  -9.982  1.00  0.00     0.008 C 
HETATM   14  C24 UNL     1      24.915   6.087 -10.680  1.00  0.00     0.033 C 
HETATM   15  C25 UNL     1      24.570   5.088  -9.564  1.00  0.00     0.126 C 
HETATM   16  C26 UNL     1      25.474   5.579  -8.477  1.00  0.00    -0.014 C 
HETATM   17  C27 UNL     1      26.894   5.310  -8.908  1.00  0.00     0.018 C 
HETATM   18  C28 UNL     1      25.198   5.049  -7.118  1.00  0.00     0.012 C 
HETATM   19  C29 UNL     1      26.038   5.819  -6.110  1.00  0.00     0.007 C 
HETATM   20  C30 UNL     1      25.746   7.269  -6.271  1.00  0.00     0.006 C 
HETATM   21  C31 UNL     1      26.220   8.146  -5.118  1.00  0.00     0.018 C 
HETATM   22  C32 UNL     1      25.491   7.512  -3.907  1.00  0.00     0.023 C 
HETATM   23  C33 UNL     1      27.665   7.979  -4.948  1.00  0.00     0.140 C 
ENDROOT
BRANCH   5  24
HETATM   24  C5  UNL     1      26.903  11.905  -2.869  1.00  0.00     0.095 C 
BRANCH  24  25
HETATM   25  C6  UNL     1      28.114  12.111  -1.976  1.00  0.00     0.016 C 
BRANCH  25  26
HETATM   26  C7  UNL     1      28.232  13.513  -1.499  1.00  0.00     0.029 C 
BRANCH  26  27
HETATM   27  C8  UNL     1      27.408  14.522  -2.199  1.00  0.00     0.237 C 
BRANCH  27  28
HETATM   28  N2  UNL     1      28.026  15.392  -3.131  1.00  0.00    -0.070 N 
HETATM   29  C9  UNL     1      27.531  16.775  -3.000  1.00  0.00     0.272 C 
HETATM   30  C10 UNL     1      27.923  15.049  -4.512  1.00  0.00     0.272 C 
BRANCH  28  31
HETATM   31  C11 UNL     1      29.468  15.514  -2.822  1.00  0.00     0.293 C 
BRANCH  31  32
HETATM   32  C12 UNL     1      30.192  16.347  -3.788  1.00  0.00     0.035 A 
HETATM   33  C13 UNL     1      30.835  15.811  -4.880  1.00  0.00     0.027 A 
HETATM   34  C14 UNL     1      31.510  16.617  -5.773  1.00  0.00     0.003 A 
HETATM   35  C15 UNL     1      31.549  17.971  -5.583  1.00  0.00     0.017 A 
HETATM   36  C16 UNL     1      30.896  18.492  -4.479  1.00  0.00     0.088 A 
HETATM   37  N3  UNL     1      30.257  17.678  -3.643  1.00  0.00    -0.368 N 
ATOM     38  H3  UNL     1      29.787  18.093  -2.839  1.00  0.00     0.165 HD
ENDBRANCH  31  32
ENDBRANCH  28  31
ENDBRANCH  27  28
ENDBRANCH  26  27
ENDBRANCH  25  26
ENDBRANCH  24  25
ENDBRANCH   5  24
BRANCH  23  39
HETATM   39  O3  UNL     1      28.424   8.136  -6.091  1.00  0.00    -0.394 OA
ATOM     40  H3  UNL     1      27.923   8.698  -6.671  1.00  0.00     0.210 HD
ENDBRANCH  23  39
BRANCH  15  41
HETATM   41  O2  UNL     1      24.898   3.815  -9.997  1.00  0.00    -0.395 OA
ATOM     42  H2  UNL     1      25.365   3.887 -10.821  1.00  0.00     0.210 HD
ENDBRANCH  15  41
TORSDOF 9
ENDMDL
MODEL 4
REMARK VINA RESULT: -8.948191283      3.154      8.928
REMARK  9 active torsions:
REMARK  status: ('A' for Active; 'I' for Inactive)
REMARK    1  A    between atoms: N1_5  and  C5_6 
REMARK    2  A    between atoms: C5_6  and  C6_7 
REMARK    3  A    between atoms: C6_7  and  C7_8 
REMARK    4  A    between atoms: C7_8  and  C8_9 
REMARK    5  A    between atoms: C8_9  and  N2_10 
REMARK    6  A    between atoms: N2_10  and  C11_13 
REMARK    7  A    between atoms: C11_13  and  C12_14 
REMARK    8  A    between atoms: C25_30  and  O2_31 
REMARK    9  A    between atoms: C33_40  and  O3_41 
ROOT
HETATM    1  C1  UNL     1      24.031   9.852  -3.553  1.00  0.00     0.019 C 
HETATM    2  C2  UNL     1      25.573   9.815  -3.519  1.00  0.00    -0.009 C 
HETATM    3  C3  UNL     1      26.013  11.230  -3.663  1.00  0.00     0.019 C 
HETATM    4  C4  UNL     1      25.906   9.306  -2.133  1.00  0.00     0.106 C 
HETATM    5  N1  UNL     1      27.265   9.636  -1.872  1.00  0.00    -0.291 NA
HETATM    6  C17 UNL     1      28.226   8.680  -2.254  1.00  0.00     0.071 C 
HETATM    7  C18 UNL     1      28.006   7.838  -3.456  1.00  0.00     0.009 C 
HETATM    8  C19 UNL     1      27.488   6.495  -3.161  1.00  0.00     0.157 C 
HETATM    9  O1  UNL     1      27.389   6.131  -2.008  1.00  0.00    -0.293 OA
HETATM   10  C20 UNL     1      27.084   5.578  -4.232  1.00  0.00     0.089 C 
HETATM   11  C21 UNL     1      26.990   6.144  -5.590  1.00  0.00     0.003 C 
HETATM   12  C22 UNL     1      27.767   5.239  -6.546  1.00  0.00     0.001 C 
HETATM   13  C23 UNL     1      27.368   3.832  -6.553  1.00  0.00     0.008 C 
HETATM   14  C24 UNL     1      27.550   3.396  -7.987  1.00  0.00     0.033 C 
HETATM   15  C25 UNL     1      28.005   4.648  -8.754  1.00  0.00     0.126 C 
HETATM   16  C26 UNL     1      27.343   5.715  -7.940  1.00  0.00    -0.014 C 
HETATM   17  C27 UNL     1      25.853   5.578  -8.133  1.00  0.00     0.018 C 
HETATM   18  C28 UNL     1      27.808   7.102  -8.192  1.00  0.00     0.012 C 
HETATM   19  C29 UNL     1      27.217   8.020  -7.132  1.00  0.00     0.007 C 
HETATM   20  C30 UNL     1      27.586   7.484  -5.793  1.00  0.00     0.006 C 
HETATM   21  C31 UNL     1      27.387   8.460  -4.640  1.00  0.00     0.018 C 
HETATM   22  C32 UNL     1      28.264   9.660  -5.075  1.00  0.00     0.023 C 
HETATM   23  C33 UNL     1      25.985   8.880  -4.601  1.00  0.00     0.140 C 
ENDROOT
BRANCH   5  24
HETATM   24  C5  UNL     1      27.393   9.852  -0.431  1.00  0.00     0.095 C 
BRANCH  24  25
HETATM   25  C6  UNL     1      27.226  11.312  -0.046  1.00  0.00     0.016 C 
BRANCH  25  26
HETATM   26  C7  UNL     1      28.218  12.190  -0.719  1.00  0.00     0.029 C 
BRANCH  26  27
HETATM   27  C8  UNL     1      27.715  13.479  -1.241  1.00  0.00     0.237 C 
BRANCH  27  28
HETATM   28  N2  UNL     1      28.286  14.015  -2.421  1.00  0.00    -0.070 N 
HETATM   29  C9  UNL     1      27.343  14.900  -3.132  1.00  0.00     0.272 C 
HETATM   30  C10 UNL     1      28.785  13.090  -3.385  1.00  0.00     0.272 C 
BRANCH  28  31
HETATM   31  C11 UNL     1      29.404  14.920  -2.071  1.00  0.00     0.293 C 
BRANCH  31  32
HETATM   32  C12 UNL     1      29.878  15.711  -3.211  1.00  0.00     0.035 A 
HETATM   33  C13 UNL     1      30.731  15.192  -4.158  1.00  0.00     0.027 A 
HETATM   34  C14 UNL     1      31.164  15.960  -5.220  1.00  0.00     0.003 A 
HETATM   35  C15 UNL     1      30.747  17.257  -5.345  1.00  0.00     0.017 A 
HETATM   36  C16 UNL     1      29.890  17.761  -4.382  1.00  0.00     0.088 A 
HETATM   37  N3  UNL     1      29.498  16.986  -3.375  1.00  0.00    -0.368 N 
ATOM     38  H3  UNL     1      28.867  17.388  -2.681  1.00  0.00     0.165 HD
ENDBRANCH  31  32
ENDBRANCH  28  31
ENDBRANCH  27  28
ENDBRANCH  26  27
ENDBRANCH  25  26
ENDBRANCH  24  25
ENDBRANCH   5  24
BRANCH  23  39
HETATM   39  O3  UNL     1      25.054   7.860  -4.610  1.00  0.00    -0.394 OA
ATOM     40  H3  UNL     1      25.526   7.064  -4.394  1.00  0.00     0.210 HD
ENDBRANCH  23  39
BRANCH  15  41
HETATM   41  O2  UNL     1      27.510   4.577 -10.045  1.00  0.00    -0.395 OA
ATOM     42  H2  UNL     1      27.933   3.853 -10.491  1.00  0.00     0.210 HD
ENDBRANCH  15  41
TORSDOF 9
ENDMDL
MODEL 5
REMARK VINA RESULT: -8.852721340      2.886      8.909
REMARK  9 active torsions:
REMARK  status: ('A' for Active; 'I' for Inactive)
REMARK    1  A    between atoms: N1_5  and  C5_6 
REMARK    2  A    between atoms: C5_6  and  C6_7 
REMARK    3  A    between atoms: C6_7  and  C7_8 
REMARK    4  A    between atoms: C7_8  and  C8_9 
REMARK    5  A    between atoms: C8_9  and  N2_10 
REMARK    6  A    between atoms: N2_10  and  C11_13 
REMARK    7  A    between atoms: C11_13  and  C12_14 
REMARK    8  A    between atoms: C25_30  and  O2_31 
REMARK    9  A    between atoms: C33_40  and  O3_41 
ROOT
HETATM    1  C1  UNL     1      25.942  11.439  -4.228  1.00  0.00     0.019 C 
HETATM    2  C2  UNL     1      26.979  10.347  -3.892  1.00  0.00    -0.009 C 
HETATM    3  C3  UNL     1      28.267  11.066  -3.687  1.00  0.00     0.019 C 
HETATM    4  C4  UNL     1      26.497   9.761  -2.583  1.00  0.00     0.106 C 
HETATM    5  N1  UNL     1      27.591   9.064  -1.999  1.00  0.00    -0.291 NA
HETATM    6  C17 UNL     1      27.725   7.705  -2.347  1.00  0.00     0.071 C 
HETATM    7  C18 UNL     1      27.335   7.238  -3.700  1.00  0.00     0.009 C 
HETATM    8  C19 UNL     1      26.001   6.627  -3.762  1.00  0.00     0.157 C 
HETATM    9  O1  UNL     1      25.379   6.441  -2.737  1.00  0.00    -0.293 OA
HETATM   10  C20 UNL     1      25.398   6.233  -5.040  1.00  0.00     0.089 C 
HETATM   11  C21 UNL     1      26.077   6.696  -6.264  1.00  0.00     0.003 C 
HETATM   12  C22 UNL     1      26.272   5.496  -7.192  1.00  0.00     0.001 C 
HETATM   13  C23 UNL     1      25.059   4.755  -7.533  1.00  0.00     0.008 C 
HETATM   14  C24 UNL     1      25.282   4.301  -8.956  1.00  0.00     0.033 C 
HETATM   15  C25 UNL     1      26.639   4.886  -9.376  1.00  0.00     0.126 C 
HETATM   16  C26 UNL     1      26.670   6.122  -8.533  1.00  0.00    -0.014 C 
HETATM   17  C27 UNL     1      25.596   7.050  -9.043  1.00  0.00     0.018 C 
HETATM   18  C28 UNL     1      27.986   6.802  -8.432  1.00  0.00     0.012 C 
HETATM   19  C29 UNL     1      27.901   7.883  -7.365  1.00  0.00     0.007 C 
HETATM   20  C30 UNL     1      27.439   7.252  -6.098  1.00  0.00     0.006 C 
HETATM   21  C31 UNL     1      27.640   8.105  -4.852  1.00  0.00     0.018 C 
HETATM   22  C32 UNL     1      29.166   8.364  -4.878  1.00  0.00     0.023 C 
HETATM   23  C33 UNL     1      26.935   9.378  -5.020  1.00  0.00     0.140 C 
ENDROOT
BRANCH   5  24
HETATM   24  C5  UNL     1      27.435   9.144  -0.547  1.00  0.00     0.095 C 
BRANCH  24  25
HETATM   25  C6  UNL     1      26.439  10.211  -0.129  1.00  0.00     0.016 C 
BRANCH  25  26
HETATM   26  C7  UNL     1      27.079  11.313   0.636  1.00  0.00     0.029 C 
BRANCH  26  27
HETATM   27  C8  UNL     1      28.191  12.023  -0.031  1.00  0.00     0.237 C 
BRANCH  27  28
HETATM   28  N2  UNL     1      28.066  13.410  -0.291  1.00  0.00    -0.070 N 
HETATM   29  C9  UNL     1      29.382  14.062  -0.427  1.00  0.00     0.272 C 
HETATM   30  C10 UNL     1      27.319  14.186   0.645  1.00  0.00     0.272 C 
BRANCH  28  31
HETATM   31  C11 UNL     1      27.444  13.618  -1.618  1.00  0.00     0.293 C 
BRANCH  31  32
HETATM   32  C12 UNL     1      28.135  14.630  -2.422  1.00  0.00     0.035 A 
HETATM   33  C13 UNL     1      29.245  14.332  -3.180  1.00  0.00     0.027 A 
HETATM   34  C14 UNL     1      29.877  15.304  -3.926  1.00  0.00     0.003 A 
HETATM   35  C15 UNL     1      29.405  16.589  -3.923  1.00  0.00     0.017 A 
HETATM   36  C16 UNL     1      28.288  16.870  -3.155  1.00  0.00     0.088 A 
HETATM   37  N3  UNL     1      27.710  15.901  -2.450  1.00  0.00    -0.368 N 
ATOM     38  H3  UNL     1      26.889  16.142  -1.893  1.00  0.00     0.165 HD
ENDBRANCH  31  32
ENDBRANCH  28  31
ENDBRANCH  27  28
ENDBRANCH  26  27
ENDBRANCH  25  26
ENDBRANCH  24  25
ENDBRANCH   5  24
BRANCH  23  39
HETATM   39  O3  UNL     1      25.611   9.282  -5.400  1.00  0.00    -0.394 OA
ATOM     40  H3  UNL     1      25.422   8.355  -5.485  1.00  0.00     0.210 HD
ENDBRANCH  23  39
BRANCH  15  41
HETATM   41  O2  UNL     1      26.597   5.165 -10.732  1.00  0.00    -0.395 OA
ATOM     42  H2  UNL     1      26.382   6.084 -10.844  1.00  0.00     0.210 HD
ENDBRANCH  15  41
TORSDOF 9
ENDMDL
