MODEL 1
REMARK VINA RESULT: -8.144981551      0.000      0.000
REMARK  1 active torsions:
REMARK  status: ('A' for Active; 'I' for Inactive)
REMARK    1  A    between atoms: C11_11  and  N1_12 
ROOT
HETATM    1  C1  UNL     1       2.130 -13.919  -9.787  1.00  0.00     0.011 C 
HETATM    2  C2  UNL     1       2.294 -12.515 -10.401  1.00  0.00    -0.008 C 
HETATM    3  C3  UNL     1       2.836 -11.580  -9.384  1.00  0.00     0.006 C 
HETATM    4  C4  UNL     1       3.630 -10.417  -9.825  1.00  0.00     0.010 C 
HETATM    5  C5  UNL     1       3.106  -9.120 -10.125  1.00  0.00    -0.033 C 
HETATM    6  C6  UNL     1       3.855  -8.086  -9.244  1.00  0.00     0.016 C 
HETATM    7  C7  UNL     1       3.519  -8.694 -11.562  1.00  0.00     0.018 C 
HETATM    8  C8  UNL     1       2.969  -7.273 -11.576  1.00  0.00     0.008 C 
HETATM    9  C9  UNL     1       1.985  -7.149 -10.417  1.00  0.00     0.008 C 
HETATM   10  C10 UNL     1       1.736  -8.667 -10.259  1.00  0.00     0.024 C 
HETATM   11  C11 UNL     1       0.642  -9.082  -9.412  1.00  0.00     0.188 C 
HETATM   12  C12 UNL     1      -0.268 -10.049 -10.167  1.00  0.00     0.034 C 
HETATM   13  C13 UNL     1       0.027 -11.458 -10.200  1.00  0.00     0.013 C 
HETATM   14  C14 UNL     1       0.984 -12.115 -11.068  1.00  0.00    -0.019 C 
HETATM   15  C15 UNL     1       0.380 -13.478 -11.507  1.00  0.00     0.018 C 
HETATM   16  C16 UNL     1       1.381 -11.497 -12.395  1.00  0.00     0.177 C 
HETATM   17  O1  UNL     1       2.526 -10.826 -12.204  1.00  0.00    -0.390 OA
HETATM   18  C17 UNL     1       2.812  -9.593 -12.593  1.00  0.00     0.172 C 
ENDROOT
BRANCH  11  19
HETATM   19  N1  UNL     1      -0.195  -7.863  -9.245  1.00  0.00    -0.075 N 
ATOM     20  H13 UNL     1       0.306  -6.991  -9.413  1.00  0.00     0.274 HD
ATOM     21  H12 UNL     1      -0.895  -7.738  -9.976  1.00  0.00     0.274 HD
ATOM     22  H11 UNL     1      -0.587  -7.940  -8.306  1.00  0.00     0.274 HD
ENDBRANCH  11  19
TORSDOF 1
ENDMDL
MODEL 2
REMARK VINA RESULT: -8.136917526      2.155      4.583
REMARK  1 active torsions:
REMARK  status: ('A' for Active; 'I' for Inactive)
REMARK    1  A    between atoms: C11_11  and  N1_12 
ROOT
HETATM    1  C1  UNL     1       1.255  -7.242  -9.363  1.00  0.00     0.011 C 
HETATM    2  C2  UNL     1       1.113  -8.724  -9.762  1.00  0.00    -0.008 C 
HETATM    3  C3  UNL     1       2.435  -9.394  -9.692  1.00  0.00     0.006 C 
HETATM    4  C4  UNL     1       2.494 -10.845  -9.425  1.00  0.00     0.010 C 
HETATM    5  C5  UNL     1       2.497 -11.872 -10.421  1.00  0.00    -0.033 C 
HETATM    6  C6  UNL     1       3.756 -12.751 -10.197  1.00  0.00     0.016 C 
HETATM    7  C7  UNL     1       1.339 -12.876 -10.159  1.00  0.00     0.018 C 
HETATM    8  C8  UNL     1       1.644 -13.906 -11.241  1.00  0.00     0.008 C 
HETATM    9  C9  UNL     1       2.600 -13.258 -12.236  1.00  0.00     0.008 C 
HETATM   10  C10 UNL     1       2.266 -11.799 -11.849  1.00  0.00     0.024 C 
HETATM   11  C11 UNL     1       2.754 -10.748 -12.712  1.00  0.00     0.188 C 
HETATM   12  C12 UNL     1       1.606  -9.824 -13.116  1.00  0.00     0.034 C 
HETATM   13  C13 UNL     1       1.217  -8.727 -12.269  1.00  0.00     0.013 C 
HETATM   14  C14 UNL     1       0.374  -8.805 -11.093  1.00  0.00    -0.019 C 
HETATM   15  C15 UNL     1      -0.539  -7.548 -11.068  1.00  0.00     0.018 C 
HETATM   16  C16 UNL     1      -0.627  -9.932 -10.929  1.00  0.00     0.177 C 
HETATM   17  O1  UNL     1      -0.055 -10.876 -10.167  1.00  0.00    -0.390 OA
HETATM   18  C17 UNL     1      -0.014 -12.180 -10.394  1.00  0.00     0.172 C 
ENDROOT
BRANCH  11  19
HETATM   19  N1  UNL     1       3.120 -11.435 -13.981  1.00  0.00    -0.075 N 
ATOM     20  H13 UNL     1       2.949 -10.878 -14.818  1.00  0.00     0.274 HD
ATOM     21  H12 UNL     1       4.125 -11.543 -14.117  1.00  0.00     0.274 HD
ATOM     22  H11 UNL     1       2.608 -12.317 -13.959  1.00  0.00     0.274 HD
ENDBRANCH  11  19
TORSDOF 1
ENDMDL
MODEL 3
REMARK VINA RESULT: -8.048830675      1.977      4.583
REMARK  1 active torsions:
REMARK  status: ('A' for Active; 'I' for Inactive)
REMARK    1  A    between atoms: C11_11  and  N1_12 
ROOT
HETATM    1  C1  UNL     1      -1.097  -8.428  -9.372  1.00  0.00     0.011 C 
HETATM    2  C2  UNL     1      -0.328  -9.235 -10.437  1.00  0.00    -0.008 C 
HETATM    3  C3  UNL     1      -0.311 -10.672 -10.067  1.00  0.00     0.006 C 
HETATM    4  C4  UNL     1      -0.206 -11.689 -11.131  1.00  0.00     0.010 C 
HETATM    5  C5  UNL     1       1.015 -12.238 -11.636  1.00  0.00    -0.033 C 
HETATM    6  C6  UNL     1       0.939 -13.781 -11.493  1.00  0.00     0.016 C 
HETATM    7  C7  UNL     1       1.090 -12.050 -13.178  1.00  0.00     0.018 C 
HETATM    8  C8  UNL     1       2.375 -12.817 -13.467  1.00  0.00     0.008 C 
HETATM    9  C9  UNL     1       3.111 -12.997 -12.143  1.00  0.00     0.008 C 
HETATM   10  C10 UNL     1       2.390 -11.846 -11.404  1.00  0.00     0.024 C 
HETATM   11  C11 UNL     1       2.926 -11.428 -10.129  1.00  0.00     0.188 C 
HETATM   12  C12 UNL     1       3.156  -9.918 -10.126  1.00  0.00     0.034 C 
HETATM   13  C13 UNL     1       2.087  -9.015  -9.789  1.00  0.00     0.013 C 
HETATM   14  C14 UNL     1       1.025  -8.573 -10.672  1.00  0.00    -0.019 C 
HETATM   15  C15 UNL     1       0.742  -7.074 -10.373  1.00  0.00     0.018 C 
HETATM   16  C16 UNL     1       1.216  -8.571 -12.176  1.00  0.00     0.177 C 
HETATM   17  O1  UNL     1       0.682  -9.704 -12.655  1.00  0.00    -0.390 OA
HETATM   18  C17 UNL     1       1.228 -10.553 -13.512  1.00  0.00     0.172 C 
ENDROOT
BRANCH  11  19
HETATM   19  N1  UNL     1       4.301 -11.997 -10.088  1.00  0.00    -0.075 N 
ATOM     20  H13 UNL     1       4.727 -12.117 -11.007  1.00  0.00     0.274 HD
ATOM     21  H12 UNL     1       5.003 -11.358  -9.716  1.00  0.00     0.274 HD
ATOM     22  H11 UNL     1       4.209 -12.865  -9.558  1.00  0.00     0.274 HD
ENDBRANCH  11  19
TORSDOF 1
ENDMDL
MODEL 4
REMARK VINA RESULT: -8.025765515      2.220      4.770
REMARK  1 active torsions:
REMARK  status: ('A' for Active; 'I' for Inactive)
REMARK    1  A    between atoms: C11_11  and  N1_12 
ROOT
HETATM    1  C1  UNL     1       3.125  -6.711 -11.413  1.00  0.00     0.011 C 
HETATM    2  C2  UNL     1       2.506  -8.099 -11.158  1.00  0.00    -0.008 C 
HETATM    3  C3  UNL     1       3.581  -9.105 -10.970  1.00  0.00     0.006 C 
HETATM    4  C4  UNL     1       3.315 -10.299 -10.146  1.00  0.00     0.010 C 
HETATM    5  C5  UNL     1       2.811 -11.548 -10.632  1.00  0.00    -0.033 C 
HETATM    6  C6  UNL     1       3.809 -12.660 -10.213  1.00  0.00     0.016 C 
HETATM    7  C7  UNL     1       1.524 -11.945  -9.857  1.00  0.00     0.018 C 
HETATM    8  C8  UNL     1       1.282 -13.327 -10.454  1.00  0.00     0.008 C 
HETATM    9  C9  UNL     1       2.115 -13.430 -11.727  1.00  0.00     0.008 C 
HETATM   10  C10 UNL     1       2.281 -11.906 -11.931  1.00  0.00     0.024 C 
HETATM   11  C11 UNL     1       2.813 -11.452 -13.196  1.00  0.00     0.188 C 
HETATM   12  C12 UNL     1       1.890 -10.401 -13.808  1.00  0.00     0.034 C 
HETATM   13  C13 UNL     1       2.015  -9.014 -13.442  1.00  0.00     0.013 C 
HETATM   14  C14 UNL     1       1.482  -8.388 -12.249  1.00  0.00    -0.019 C 
HETATM   15  C15 UNL     1       0.967  -6.974 -12.635  1.00  0.00     0.018 C 
HETATM   16  C16 UNL     1       0.285  -8.980 -11.530  1.00  0.00     0.177 C 
HETATM   17  O1  UNL     1       0.748  -9.731 -10.520  1.00  0.00    -0.390 OA
HETATM   18  C17 UNL     1       0.388 -10.964 -10.201  1.00  0.00     0.172 C 
ENDROOT
BRANCH  11  19
HETATM   19  N1  UNL     1       2.677 -12.620 -14.108  1.00  0.00    -0.075 N 
ATOM     20  H13 UNL     1       1.760 -12.697 -14.549  1.00  0.00     0.274 HD
ATOM     21  H12 UNL     1       3.214 -12.537 -14.971  1.00  0.00     0.274 HD
ATOM     22  H11 UNL     1       2.930 -13.428 -13.539  1.00  0.00     0.274 HD
ENDBRANCH  11  19
TORSDOF 1
ENDMDL
MODEL 5
REMARK VINA RESULT: -8.013193878      1.699      3.058
REMARK  1 active torsions:
REMARK  status: ('A' for Active; 'I' for Inactive)
REMARK    1  A    between atoms: C11_11  and  N1_12 
ROOT
HETATM    1  C1  UNL     1       2.846 -13.046 -13.890  1.00  0.00     0.011 C 
HETATM    2  C2  UNL     1       2.097 -11.986 -13.059  1.00  0.00    -0.008 C 
HETATM    3  C3  UNL     1       2.608 -10.633 -13.389  1.00  0.00     0.006 C 
HETATM    4  C4  UNL     1       1.717  -9.467 -13.232  1.00  0.00     0.010 C 
HETATM    5  C5  UNL     1       1.592  -8.671 -12.049  1.00  0.00    -0.033 C 
HETATM    6  C6  UNL     1       1.874  -7.195 -12.435  1.00  0.00     0.016 C 
HETATM    7  C7  UNL     1       0.106  -8.618 -11.593  1.00  0.00     0.018 C 
HETATM    8  C8  UNL     1       0.228  -7.632 -10.438  1.00  0.00     0.008 C 
HETATM    9  C9  UNL     1       1.705  -7.538 -10.067  1.00  0.00     0.008 C 
HETATM   10  C10 UNL     1       2.116  -8.880 -10.715  1.00  0.00     0.024 C 
HETATM   11  C11 UNL     1       3.433  -9.394 -10.415  1.00  0.00     0.188 C 
HETATM   12  C12 UNL     1       3.334 -10.836  -9.921  1.00  0.00     0.034 C 
HETATM   13  C13 UNL     1       3.297 -11.930 -10.856  1.00  0.00     0.013 C 
HETATM   14  C14 UNL     1       2.137 -12.394 -11.591  1.00  0.00    -0.019 C 
HETATM   15  C15 UNL     1       2.196 -13.945 -11.656  1.00  0.00     0.018 C 
HETATM   16  C16 UNL     1       0.736 -12.147 -11.067  1.00  0.00     0.177 C 
HETATM   17  O1  UNL     1       0.261 -11.050 -11.675  1.00  0.00    -0.390 OA
HETATM   18  C17 UNL     1      -0.339 -10.012 -11.113  1.00  0.00     0.172 C 
ENDROOT
BRANCH  11  19
HETATM   19  N1  UNL     1       3.874  -8.635  -9.213  1.00  0.00    -0.075 N 
ATOM     20  H13 UNL     1       4.844  -8.805  -8.949  1.00  0.00     0.274 HD
ATOM     21  H12 UNL     1       3.969  -7.632  -9.369  1.00  0.00     0.274 HD
ATOM     22  H11 UNL     1       3.199  -8.879  -8.488  1.00  0.00     0.274 HD
ENDBRANCH  11  19
TORSDOF 1
ENDMDL
