MODEL 1
REMARK VINA RESULT: -7.801021029      0.000      0.000
REMARK  0 active torsions:
REMARK  status: ('A' for Active; 'I' for Inactive)
ROOT
HETATM    1  C1  UNL     1       2.655  -6.635 -11.595  1.00  0.00     0.156 C 
HETATM    2  N1  UNL     1       2.529  -7.669 -10.610  1.00  0.00    -0.349 N 
HETATM    3  C2  UNL     1       3.478  -7.944  -9.615  1.00  0.00     0.080 C 
HETATM    4  S1  UNL     1       4.503  -6.898  -8.851  1.00  0.00    -0.065 SA
HETATM    5  C3  UNL     1       3.430  -9.390  -9.334  1.00  0.00     0.080 C 
HETATM    6  C4  UNL     1       1.924  -9.649  -9.444  1.00  0.00     0.042 C 
HETATM    7  C5  UNL     1       1.566 -11.062  -9.660  1.00  0.00     0.011 C 
HETATM    8  C6  UNL     1       2.624 -12.066  -9.255  1.00  0.00     0.001 C 
HETATM    9  C7  UNL     1       3.302 -12.758 -10.389  1.00  0.00     0.000 C 
HETATM   10  C8  UNL     1       2.421 -13.397 -11.409  1.00  0.00     0.000 C 
HETATM   11  C9  UNL     1       2.843 -13.044 -12.840  1.00  0.00     0.000 C 
HETATM   12  C10 UNL     1       1.814 -12.305 -13.610  1.00  0.00     0.000 C 
HETATM   13  C11 UNL     1       2.227 -11.015 -14.195  1.00  0.00     0.000 C 
HETATM   14  C12 UNL     1       2.463  -9.905 -13.185  1.00  0.00     0.004 C 
HETATM   15  C13 UNL     1       1.268  -9.063 -12.931  1.00  0.00     0.029 C 
HETATM   16  C14 UNL     1       0.686  -9.000 -11.576  1.00  0.00    -0.001 C 
HETATM   17  C15 UNL     1       1.461  -8.606 -10.407  1.00  0.00     0.013 C 
ENDROOT
TORSDOF 0
ENDMDL
MODEL 2
REMARK VINA RESULT: -7.472602287      1.614      3.590
REMARK  0 active torsions:
REMARK  status: ('A' for Active; 'I' for Inactive)
ROOT
HETATM    1  C1  UNL     1       2.351  -7.085  -9.390  1.00  0.00     0.156 C 
HETATM    2  N1  UNL     1       2.338  -7.547 -10.747  1.00  0.00    -0.349 N 
HETATM    3  C2  UNL     1       1.362  -7.208 -11.697  1.00  0.00     0.080 C 
HETATM    4  S1  UNL     1       0.491  -5.812 -11.826  1.00  0.00    -0.065 SA
HETATM    5  C3  UNL     1       1.214  -8.351 -12.617  1.00  0.00     0.080 C 
HETATM    6  C4  UNL     1       2.671  -8.812 -12.731  1.00  0.00     0.042 C 
HETATM    7  C5  UNL     1       2.833 -10.194 -13.215  1.00  0.00     0.011 C 
HETATM    8  C6  UNL     1       1.648 -10.757 -13.973  1.00  0.00     0.001 C 
HETATM    9  C7  UNL     1       0.879 -11.810 -13.248  1.00  0.00     0.000 C 
HETATM   10  C8  UNL     1       1.663 -12.952 -12.694  1.00  0.00     0.000 C 
HETATM   11  C9  UNL     1       1.289 -13.258 -11.239  1.00  0.00     0.000 C 
HETATM   12  C10 UNL     1       2.407 -13.095 -10.280  1.00  0.00     0.000 C 
HETATM   13  C11 UNL     1       2.172 -12.187  -9.141  1.00  0.00     0.000 C 
HETATM   14  C12 UNL     1       2.092 -10.715  -9.507  1.00  0.00     0.004 C 
HETATM   15  C13 UNL     1       3.391 -10.004  -9.416  1.00  0.00     0.029 C 
HETATM   16  C14 UNL     1       3.980  -9.388 -10.621  1.00  0.00    -0.001 C 
HETATM   17  C15 UNL     1       3.268  -8.404 -11.426  1.00  0.00     0.013 C 
ENDROOT
TORSDOF 0
ENDMDL
MODEL 3
REMARK VINA RESULT: -7.294544228      1.463      1.773
REMARK  0 active torsions:
REMARK  status: ('A' for Active; 'I' for Inactive)
ROOT
HETATM    1  C1  UNL     1       1.805  -7.456 -12.662  1.00  0.00     0.156 C 
HETATM    2  N1  UNL     1       1.226  -8.347 -11.700  1.00  0.00    -0.349 N 
HETATM    3  C2  UNL     1       1.484  -8.309 -10.321  1.00  0.00     0.080 C 
HETATM    4  S1  UNL     1       1.842  -7.005  -9.375  1.00  0.00    -0.065 SA
HETATM    5  C3  UNL     1       1.387  -9.687  -9.807  1.00  0.00     0.080 C 
HETATM    6  C4  UNL     1       0.214 -10.217 -10.639  1.00  0.00     0.042 C 
HETATM    7  C5  UNL     1       0.132 -11.687 -10.705  1.00  0.00     0.011 C 
HETATM    8  C6  UNL     1       0.856 -12.424  -9.598  1.00  0.00     0.001 C 
HETATM    9  C7  UNL     1       2.093 -13.141 -10.024  1.00  0.00     0.000 C 
HETATM   10  C8  UNL     1       1.968 -14.061 -11.192  1.00  0.00     0.000 C 
HETATM   11  C9  UNL     1       3.086 -13.845 -12.219  1.00  0.00     0.000 C 
HETATM   12  C10 UNL     1       2.606 -13.413 -13.553  1.00  0.00     0.000 C 
HETATM   13  C11 UNL     1       3.185 -12.166 -14.090  1.00  0.00     0.000 C 
HETATM   14  C12 UNL     1       2.746 -10.901 -13.372  1.00  0.00     0.004 C 
HETATM   15  C13 UNL     1       1.557 -10.252 -13.975  1.00  0.00     0.029 C 
HETATM   16  C14 UNL     1       0.320 -10.101 -13.184  1.00  0.00    -0.001 C 
HETATM   17  C15 UNL     1       0.291  -9.417 -11.897  1.00  0.00     0.013 C 
ENDROOT
TORSDOF 0
ENDMDL
MODEL 4
REMARK VINA RESULT: -7.002570650      0.967      1.048
REMARK  0 active torsions:
REMARK  status: ('A' for Active; 'I' for Inactive)
ROOT
HETATM    1  C1  UNL     1       0.946  -6.443 -11.007  1.00  0.00     0.156 C 
HETATM    2  N1  UNL     1       1.382  -7.487 -10.126  1.00  0.00    -0.349 N 
HETATM    3  C2  UNL     1       2.608  -7.494  -9.443  1.00  0.00     0.080 C 
HETATM    4  S1  UNL     1       3.480  -6.212  -8.877  1.00  0.00    -0.065 SA
HETATM    5  C3  UNL     1       3.034  -8.898  -9.298  1.00  0.00     0.080 C 
HETATM    6  C4  UNL     1       1.685  -9.577  -9.036  1.00  0.00     0.042 C 
HETATM    7  C5  UNL     1       1.679 -11.029  -9.285  1.00  0.00     0.011 C 
HETATM    8  C6  UNL     1       3.039 -11.694  -9.267  1.00  0.00     0.001 C 
HETATM    9  C7  UNL     1       3.538 -12.143 -10.600  1.00  0.00     0.000 C 
HETATM   10  C8  UNL     1       2.616 -12.990 -11.411  1.00  0.00     0.000 C 
HETATM   11  C9  UNL     1       2.514 -12.506 -12.862  1.00  0.00     0.000 C 
HETATM   12  C10 UNL     1       1.152 -12.081 -13.264  1.00  0.00     0.000 C 
HETATM   13  C11 UNL     1       1.021 -10.717 -13.810  1.00  0.00     0.000 C 
HETATM   14  C12 UNL     1       1.216  -9.604 -12.795  1.00  0.00     0.004 C 
HETATM   15  C13 UNL     1      -0.043  -9.144 -12.160  1.00  0.00     0.029 C 
HETATM   16  C14 UNL     1      -0.222  -9.275 -10.701  1.00  0.00    -0.001 C 
HETATM   17  C15 UNL     1       0.709  -8.695  -9.742  1.00  0.00     0.013 C 
ENDROOT
TORSDOF 0
ENDMDL
MODEL 5
REMARK VINA RESULT: -6.969584130      2.050      3.224
REMARK  0 active torsions:
REMARK  status: ('A' for Active; 'I' for Inactive)
ROOT
HETATM    1  C1  UNL     1       3.598  -6.582  -9.399  1.00  0.00     0.156 C 
HETATM    2  N1  UNL     1       2.331  -7.007  -9.918  1.00  0.00    -0.349 N 
HETATM    3  C2  UNL     1       1.093  -6.760  -9.305  1.00  0.00     0.080 C 
HETATM    4  S1  UNL     1       0.642  -5.471  -8.378  1.00  0.00    -0.065 SA
HETATM    5  C3  UNL     1       0.199  -7.887  -9.624  1.00  0.00     0.080 C 
HETATM    6  C4  UNL     1       0.612  -8.174 -11.072  1.00  0.00     0.042 C 
HETATM    7  C5  UNL     1       0.239  -9.515 -11.555  1.00  0.00     0.011 C 
HETATM    8  C6  UNL     1      -0.877 -10.191 -10.787  1.00  0.00     0.001 C 
HETATM    9  C7  UNL     1      -0.452 -11.345  -9.942  1.00  0.00     0.000 C 
HETATM   10  C8  UNL     1       0.361 -12.402 -10.610  1.00  0.00     0.000 C 
HETATM   11  C9  UNL     1       1.596 -12.787  -9.787  1.00  0.00     0.000 C 
HETATM   12  C10 UNL     1       2.885 -12.521 -10.470  1.00  0.00     0.000 C 
HETATM   13  C11 UNL     1       3.853 -11.676  -9.745  1.00  0.00     0.000 C 
HETATM   14  C12 UNL     1       3.457 -10.214  -9.627  1.00  0.00     0.004 C 
HETATM   15  C13 UNL     1       3.988  -9.359 -10.717  1.00  0.00     0.029 C 
HETATM   16  C14 UNL     1       3.057  -8.649 -11.615  1.00  0.00    -0.001 C 
HETATM   17  C15 UNL     1       2.037  -7.733 -11.121  1.00  0.00     0.013 C 
ENDROOT
TORSDOF 0
ENDMDL
