MODEL 1
REMARK VINA RESULT: -7.826241325      0.000      0.000
REMARK  1 active torsions:
REMARK  status: ('A' for Active; 'I' for Inactive)
REMARK    1  A    between atoms: C14_15  and  O2_16 
ROOT
HETATM    1  C1  UNL     1       1.756 -14.938 -12.037  1.00  0.00     0.010 C 
HETATM    2  C2  UNL     1       2.343 -13.724 -11.310  1.00  0.00    -0.014 C 
HETATM    3  C3  UNL     1       2.130 -13.853  -9.865  1.00  0.00     0.005 C 
HETATM    4  C4  UNL     1       1.857 -12.627  -9.093  1.00  0.00     0.001 C 
HETATM    5  C5  UNL     1       1.074 -11.579  -9.861  1.00  0.00     0.005 C 
HETATM    6  C6  UNL     1       1.849 -11.267 -11.105  1.00  0.00    -0.004 C 
HETATM    7  C7  UNL     1       1.810 -12.508 -11.975  1.00  0.00    -0.006 C 
HETATM    8  C8  UNL     1       2.468 -12.333 -13.296  1.00  0.00     0.008 C 
HETATM    9  C9  UNL     1       2.305 -11.012 -13.940  1.00  0.00     0.033 C 
HETATM   10  C10 UNL     1       2.306  -9.852 -13.002  1.00  0.00     0.127 C 
HETATM   11  O1  UNL     1       1.791  -8.691 -13.500  1.00  0.00    -0.374 OA
HETATM   12  C11 UNL     1       1.636  -7.894 -12.357  1.00  0.00     0.064 C 
HETATM   13  C12 UNL     1       2.939  -7.246 -12.025  1.00  0.00     0.040 C 
HETATM   14  C13 UNL     1       2.547  -5.823 -11.662  1.00  0.00     0.035 C 
HETATM   15  C14 UNL     1       1.470  -5.546 -12.711  1.00  0.00     0.121 C 
HETATM   16  C15 UNL     1       0.630  -6.808 -12.608  1.00  0.00     0.069 C 
HETATM   17  C16 UNL     1       1.179  -8.839 -11.243  1.00  0.00     0.045 C 
HETATM   18  C17 UNL     1       1.260 -10.165 -11.917  1.00  0.00     0.022 C 
ENDROOT
BRANCH  15  19
HETATM   19  O2  UNL     1       0.753  -4.405 -12.427  1.00  0.00    -0.395 OA
ATOM     20  H2  UNL     1       1.064  -3.974 -11.640  1.00  0.00     0.210 HD
ENDBRANCH  15  19
TORSDOF 1
ENDMDL
MODEL 2
REMARK VINA RESULT: -7.721122504      1.994      6.331
REMARK  1 active torsions:
REMARK  status: ('A' for Active; 'I' for Inactive)
REMARK    1  A    between atoms: C14_15  and  O2_16 
ROOT
HETATM    1  C1  UNL     1       1.764  -4.691 -12.428  1.00  0.00     0.010 C 
HETATM    2  C2  UNL     1       2.252  -5.752 -11.438  1.00  0.00    -0.014 C 
HETATM    3  C3  UNL     1       3.680  -5.567 -11.165  1.00  0.00     0.005 C 
HETATM    4  C4  UNL     1       4.508  -6.768 -10.955  1.00  0.00     0.001 C 
HETATM    5  C5  UNL     1       4.065  -7.970 -11.768  1.00  0.00     0.005 C 
HETATM    6  C6  UNL     1       2.632  -8.238 -11.422  1.00  0.00    -0.004 C 
HETATM    7  C7  UNL     1       1.820  -7.075 -11.957  1.00  0.00    -0.006 C 
HETATM    8  C8  UNL     1       0.354  -7.231 -11.767  1.00  0.00     0.008 C 
HETATM    9  C9  UNL     1      -0.184  -8.599 -11.920  1.00  0.00     0.033 C 
HETATM   10  C10 UNL     1       0.703  -9.684 -11.410  1.00  0.00     0.127 C 
HETATM   11  O1  UNL     1       0.422 -10.940 -11.865  1.00  0.00    -0.374 OA
HETATM   12  C11 UNL     1       1.553 -11.677 -11.490  1.00  0.00     0.064 C 
HETATM   13  C12 UNL     1       1.420 -12.097 -10.064  1.00  0.00     0.040 C 
HETATM   14  C13 UNL     1       1.905 -13.537 -10.070  1.00  0.00     0.035 C 
HETATM   15  C14 UNL     1       1.295 -14.041 -11.378  1.00  0.00     0.121 C 
HETATM   16  C15 UNL     1       1.672 -12.916 -12.328  1.00  0.00     0.069 C 
HETATM   17  C16 UNL     1       2.750 -10.744 -11.691  1.00  0.00     0.045 C 
HETATM   18  C17 UNL     1       2.080  -9.466 -12.062  1.00  0.00     0.022 C 
ENDROOT
BRANCH  15  19
HETATM   19  O2  UNL     1       1.817 -15.257 -11.759  1.00  0.00    -0.395 OA
ATOM     20  H2  UNL     1       1.187 -15.780 -12.241  1.00  0.00     0.210 HD
ENDBRANCH  15  19
TORSDOF 1
ENDMDL
MODEL 3
REMARK VINA RESULT: -7.654952186      2.459      3.613
REMARK  1 active torsions:
REMARK  status: ('A' for Active; 'I' for Inactive)
REMARK    1  A    between atoms: C14_15  and  O2_16 
ROOT
HETATM    1  C1  UNL     1       2.505 -13.998 -11.793  1.00  0.00     0.010 C 
HETATM    2  C2  UNL     1       1.828 -12.625 -11.843  1.00  0.00    -0.014 C 
HETATM    3  C3  UNL     1       1.344 -12.353 -13.200  1.00  0.00     0.005 C 
HETATM    4  C4  UNL     1       1.406 -10.965 -13.692  1.00  0.00     0.001 C 
HETATM    5  C5  UNL     1       2.589 -10.177 -13.162  1.00  0.00     0.005 C 
HETATM    6  C6  UNL     1       2.513 -10.212 -11.665  1.00  0.00    -0.004 C 
HETATM    7  C7  UNL     1       2.768 -11.645 -11.241  1.00  0.00    -0.006 C 
HETATM    8  C8  UNL     1       2.809 -11.834  -9.768  1.00  0.00     0.008 C 
HETATM    9  C9  UNL     1       3.428 -10.744  -8.985  1.00  0.00     0.033 C 
HETATM   10  C10 UNL     1       3.165  -9.370  -9.503  1.00  0.00     0.127 C 
HETATM   11  O1  UNL     1       4.005  -8.396  -9.048  1.00  0.00    -0.374 OA
HETATM   12  C11 UNL     1       3.736  -7.317  -9.901  1.00  0.00     0.064 C 
HETATM   13  C12 UNL     1       2.528  -6.589  -9.412  1.00  0.00     0.040 C 
HETATM   14  C13 UNL     1       2.907  -5.125  -9.566  1.00  0.00     0.035 C 
HETATM   15  C14 UNL     1       4.369  -5.159  -9.120  1.00  0.00     0.121 C 
HETATM   16  C15 UNL     1       4.886  -6.353  -9.905  1.00  0.00     0.069 C 
HETATM   17  C16 UNL     1       3.503  -7.923 -11.287  1.00  0.00     0.045 C 
HETATM   18  C17 UNL     1       3.552  -9.383 -10.992  1.00  0.00     0.022 C 
ENDROOT
BRANCH  15  19
HETATM   19  O2  UNL     1       5.031  -3.992  -9.429  1.00  0.00    -0.395 OA
ATOM     20  H2  UNL     1       5.515  -4.061 -10.243  1.00  0.00     0.210 HD
ENDBRANCH  15  19
TORSDOF 1
ENDMDL
MODEL 4
REMARK VINA RESULT: -7.598731884      2.288      3.414
REMARK  1 active torsions:
REMARK  status: ('A' for Active; 'I' for Inactive)
REMARK    1  A    between atoms: C14_15  and  O2_16 
ROOT
HETATM    1  C1  UNL     1       2.126 -13.862 -10.160  1.00  0.00     0.010 C 
HETATM    2  C2  UNL     1       1.585 -12.547 -10.727  1.00  0.00    -0.014 C 
HETATM    3  C3  UNL     1       1.073 -12.757 -12.085  1.00  0.00     0.005 C 
HETATM    4  C4  UNL     1       1.250 -11.673 -13.068  1.00  0.00     0.001 C 
HETATM    5  C5  UNL     1       2.525 -10.873 -12.879  1.00  0.00     0.005 C 
HETATM    6  C6  UNL     1       2.508 -10.332 -11.481  1.00  0.00    -0.004 C 
HETATM    7  C7  UNL     1       2.640 -11.517 -10.545  1.00  0.00    -0.006 C 
HETATM    8  C8  UNL     1       2.724 -11.139  -9.110  1.00  0.00     0.008 C 
HETATM    9  C9  UNL     1       3.479  -9.906  -8.801  1.00  0.00     0.033 C 
HETATM   10  C10 UNL     1       3.329  -8.811  -9.802  1.00  0.00     0.127 C 
HETATM   11  O1  UNL     1       4.279  -7.832  -9.752  1.00  0.00    -0.374 OA
HETATM   12  C11 UNL     1       4.081  -7.133 -10.951  1.00  0.00     0.064 C 
HETATM   13  C12 UNL     1       2.972  -6.151 -10.773  1.00  0.00     0.040 C 
HETATM   14  C13 UNL     1       3.485  -4.903 -11.473  1.00  0.00     0.035 C 
HETATM   15  C14 UNL     1       4.954  -4.920 -11.049  1.00  0.00     0.121 C 
HETATM   16  C15 UNL     1       5.319  -6.370 -11.323  1.00  0.00     0.069 C 
HETATM   17  C16 UNL     1       3.733  -8.190 -12.002  1.00  0.00     0.045 C 
HETATM   18  C17 UNL     1       3.651  -9.426 -11.175  1.00  0.00     0.022 C 
ENDROOT
BRANCH  15  19
HETATM   19  O2  UNL     1       5.713  -4.034 -11.780  1.00  0.00    -0.395 OA
ATOM     20  H2  UNL     1       5.324  -3.842 -12.625  1.00  0.00     0.210 HD
ENDBRANCH  15  19
TORSDOF 1
ENDMDL
MODEL 5
REMARK VINA RESULT: -7.564545994      2.681      6.101
REMARK  1 active torsions:
REMARK  status: ('A' for Active; 'I' for Inactive)
REMARK    1  A    between atoms: C14_15  and  O2_16 
ROOT
HETATM    1  C1  UNL     1       0.833  -5.473  -8.072  1.00  0.00     0.010 C 
HETATM    2  C2  UNL     1       0.311  -6.307  -9.246  1.00  0.00    -0.014 C 
HETATM    3  C3  UNL     1      -1.126  -6.551  -9.090  1.00  0.00     0.005 C 
HETATM    4  C4  UNL     1      -1.661  -7.850  -9.538  1.00  0.00     0.001 C 
HETATM    5  C5  UNL     1      -0.695  -9.007  -9.362  1.00  0.00     0.005 C 
HETATM    6  C6  UNL     1       0.558  -8.657 -10.106  1.00  0.00    -0.004 C 
HETATM    7  C7  UNL     1       1.197  -7.492  -9.377  1.00  0.00    -0.006 C 
HETATM    8  C8  UNL     1       2.505  -7.075  -9.947  1.00  0.00     0.008 C 
HETATM    9  C9  UNL     1       3.376  -8.158 -10.449  1.00  0.00     0.033 C 
HETATM   10  C10 UNL     1       2.658  -9.287 -11.107  1.00  0.00     0.127 C 
HETATM   11  O1  UNL     1       3.370 -10.445 -11.236  1.00  0.00    -0.374 OA
HETATM   12  C11 UNL     1       2.391 -11.385 -11.587  1.00  0.00     0.064 C 
HETATM   13  C12 UNL     1       2.134 -11.307 -13.055  1.00  0.00     0.040 C 
HETATM   14  C13 UNL     1       2.040 -12.764 -13.479  1.00  0.00     0.035 C 
HETATM   15  C14 UNL     1       3.158 -13.380 -12.636  1.00  0.00     0.121 C 
HETATM   16  C15 UNL     1       2.862 -12.774 -11.273  1.00  0.00     0.069 C 
HETATM   17  C16 UNL     1       1.144 -11.017 -10.779  1.00  0.00     0.045 C 
HETATM   18  C17 UNL     1       1.571  -9.750 -10.121  1.00  0.00     0.022 C 
ENDROOT
BRANCH  15  19
HETATM   19  O2  UNL     1       3.103 -14.755 -12.630  1.00  0.00    -0.395 OA
ATOM     20  H2  UNL     1       3.432 -15.129 -13.439  1.00  0.00     0.210 HD
ENDBRANCH  15  19
TORSDOF 1
ENDMDL
