MODEL 1
REMARK VINA RESULT: -8.149643838      0.000      0.000
REMARK  1 active torsions:
REMARK  status: ('A' for Active; 'I' for Inactive)
REMARK    1  A    between atoms: O1_1  and  C1_3 
ROOT
HETATM    1  C1  UNL     1       1.285 -10.802 -12.437  1.00  0.00     0.068 C 
HETATM    2  C2  UNL     1       2.414  -9.819 -12.568  1.00  0.00     0.039 C 
HETATM    3  C3  UNL     1       1.905  -8.429 -12.783  1.00  0.00     0.006 C 
HETATM    4  C4  UNL     1       0.511  -8.208 -12.306  1.00  0.00     0.038 C 
HETATM    5  C5  UNL     1       0.166  -9.018 -11.070  1.00  0.00     0.067 C 
HETATM    6  C6  UNL     1      -1.299  -8.741 -10.778  1.00  0.00     0.038 C 
HETATM    7  C7  UNL     1      -1.507  -7.958  -9.523  1.00  0.00     0.005 C 
HETATM    8  C8  UNL     1      -0.478  -6.877  -9.353  1.00  0.00     0.026 C 
HETATM    9  C9  UNL     1       0.921  -7.356  -9.645  1.00  0.00     0.168 C 
HETATM   10  O2  UNL     1       0.999  -8.660 -10.043  1.00  0.00    -0.380 OA
HETATM   11  C10 UNL     1       0.362 -10.502 -11.298  1.00  0.00     0.055 C 
HETATM   12  C11 UNL     1       0.784 -11.192 -10.008  1.00  0.00     0.015 C 
HETATM   13  C12 UNL     1       0.672 -12.671 -10.233  1.00  0.00    -0.014 C 
HETATM   14  C13 UNL     1       1.878 -13.425  -9.658  1.00  0.00     0.005 C 
HETATM   15  C14 UNL     1       2.862 -13.713 -10.745  1.00  0.00     0.001 C 
HETATM   16  C15 UNL     1       2.982 -12.530 -11.720  1.00  0.00     0.007 C 
HETATM   17  C16 UNL     1       1.703 -12.219 -12.389  1.00  0.00     0.021 C 
HETATM   18  C17 UNL     1       0.607 -13.042 -11.697  1.00  0.00     0.012 C 
ENDROOT
BRANCH   1  19
HETATM   19  O1  UNL     1       0.509 -10.646 -13.615  1.00  0.00    -0.389 OA
ATOM     20  H1  UNL     1       1.132 -10.437 -14.302  1.00  0.00     0.210 HD
ENDBRANCH   1  19
TORSDOF 1
ENDMDL
MODEL 2
REMARK VINA RESULT: -7.811914788      1.541      4.889
REMARK  1 active torsions:
REMARK  status: ('A' for Active; 'I' for Inactive)
REMARK    1  A    between atoms: O1_1  and  C1_3 
ROOT
HETATM    1  C1  UNL     1       2.280  -9.317 -12.156  1.00  0.00     0.068 C 
HETATM    2  C2  UNL     1       1.652  -9.755 -13.449  1.00  0.00     0.039 C 
HETATM    3  C3  UNL     1       2.246 -11.039 -13.936  1.00  0.00     0.006 C 
HETATM    4  C4  UNL     1       2.884 -11.861 -12.869  1.00  0.00     0.038 C 
HETATM    5  C5  UNL     1       2.185 -11.745 -11.527  1.00  0.00     0.067 C 
HETATM    6  C6  UNL     1       3.009 -12.567 -10.549  1.00  0.00     0.038 C 
HETATM    7  C7  UNL     1       2.301 -13.794 -10.076  1.00  0.00     0.005 C 
HETATM    8  C8  UNL     1       1.533 -14.465 -11.178  1.00  0.00     0.026 C 
HETATM    9  C9  UNL     1       0.742 -13.491 -12.012  1.00  0.00     0.168 C 
HETATM   10  O2  UNL     1       0.893 -12.184 -11.646  1.00  0.00    -0.380 OA
HETATM   11  C10 UNL     1       2.120 -10.310 -11.049  1.00  0.00     0.055 C 
HETATM   12  C11 UNL     1       0.858 -10.074 -10.230  1.00  0.00     0.015 C 
HETATM   13  C12 UNL     1       1.006  -8.743  -9.554  1.00  0.00    -0.014 C 
HETATM   14  C13 UNL     1      -0.290  -7.925  -9.624  1.00  0.00     0.005 C 
HETATM   15  C14 UNL     1      -0.210  -6.942 -10.746  1.00  0.00     0.001 C 
HETATM   16  C15 UNL     1       0.480  -7.553 -11.977  1.00  0.00     0.007 C 
HETATM   17  C16 UNL     1       1.867  -7.975 -11.695  1.00  0.00     0.021 C 
HETATM   18  C17 UNL     1       2.078  -7.880 -10.177  1.00  0.00     0.012 C 
ENDROOT
BRANCH   1  19
HETATM   19  O1  UNL     1       3.673  -9.247 -12.417  1.00  0.00    -0.389 OA
ATOM     20  H1  UNL     1       3.834  -8.353 -12.697  1.00  0.00     0.210 HD
ENDBRANCH   1  19
TORSDOF 1
ENDMDL
MODEL 3
REMARK VINA RESULT: -7.777509109      1.950      2.753
REMARK  1 active torsions:
REMARK  status: ('A' for Active; 'I' for Inactive)
REMARK    1  A    between atoms: O1_1  and  C1_3 
ROOT
HETATM    1  C1  UNL     1       0.959 -10.292 -11.727  1.00  0.00     0.068 C 
HETATM    2  C2  UNL     1       1.383  -9.844 -13.096  1.00  0.00     0.039 C 
HETATM    3  C3  UNL     1       1.529  -8.356 -13.162  1.00  0.00     0.006 C 
HETATM    4  C4  UNL     1       1.760  -7.706 -11.842  1.00  0.00     0.038 C 
HETATM    5  C5  UNL     1       2.571  -8.562 -10.887  1.00  0.00     0.067 C 
HETATM    6  C6  UNL     1       2.635  -7.792  -9.578  1.00  0.00     0.038 C 
HETATM    7  C7  UNL     1       4.006  -7.292  -9.260  1.00  0.00     0.005 C 
HETATM    8  C8  UNL     1       4.719  -6.782 -10.479  1.00  0.00     0.026 C 
HETATM    9  C9  UNL     1       4.579  -7.704 -11.662  1.00  0.00     0.168 C 
HETATM   10  O2  UNL     1       3.805  -8.806 -11.429  1.00  0.00    -0.380 OA
HETATM   11  C10 UNL     1       1.922  -9.908 -10.648  1.00  0.00     0.055 C 
HETATM   12  C11 UNL     1       2.978 -10.977 -10.401  1.00  0.00     0.015 C 
HETATM   13  C12 UNL     1       2.270 -12.196  -9.888  1.00  0.00    -0.014 C 
HETATM   14  C13 UNL     1       2.803 -13.478 -10.541  1.00  0.00     0.005 C 
HETATM   15  C14 UNL     1       1.904 -13.888 -11.662  1.00  0.00     0.001 C 
HETATM   16  C15 UNL     1       1.408 -12.668 -12.457  1.00  0.00     0.007 C 
HETATM   17  C16 UNL     1       0.631 -11.729 -11.623  1.00  0.00     0.021 C 
HETATM   18  C17 UNL     1       0.784 -12.175 -10.162  1.00  0.00     0.012 C 
ENDROOT
BRANCH   1  19
HETATM   19  O1  UNL     1      -0.237  -9.581 -11.450  1.00  0.00    -0.389 OA
ATOM     20  H1  UNL     1       0.021  -8.669 -11.381  1.00  0.00     0.210 HD
ENDBRANCH   1  19
TORSDOF 1
ENDMDL
MODEL 4
REMARK VINA RESULT: -7.776717526      1.736      5.162
REMARK  1 active torsions:
REMARK  status: ('A' for Active; 'I' for Inactive)
REMARK    1  A    between atoms: O1_1  and  C1_3 
ROOT
HETATM    1  C1  UNL     1       1.889 -10.162  -9.444  1.00  0.00     0.068 C 
HETATM    2  C2  UNL     1       3.175  -9.808 -10.135  1.00  0.00     0.039 C 
HETATM    3  C3  UNL     1       4.117 -10.970 -10.165  1.00  0.00     0.006 C 
HETATM    4  C4  UNL     1       3.454 -12.297 -10.025  1.00  0.00     0.038 C 
HETATM    5  C5  UNL     1       2.078 -12.348 -10.662  1.00  0.00     0.067 C 
HETATM    6  C6  UNL     1       1.519 -13.727 -10.353  1.00  0.00     0.038 C 
HETATM    7  C7  UNL     1       1.394 -14.593 -11.564  1.00  0.00     0.005 C 
HETATM    8  C8  UNL     1       2.561 -14.435 -12.495  1.00  0.00     0.026 C 
HETATM    9  C9  UNL     1       2.939 -12.992 -12.714  1.00  0.00     0.168 C 
HETATM   10  O2  UNL     1       2.187 -12.099 -12.005  1.00  0.00    -0.380 OA
HETATM   11  C10 UNL     1       1.155 -11.292 -10.093  1.00  0.00     0.055 C 
HETATM   12  C11 UNL     1       0.168 -10.816 -11.150  1.00  0.00     0.015 C 
HETATM   13  C12 UNL     1      -0.884 -10.007 -10.449  1.00  0.00    -0.014 C 
HETATM   14  C13 UNL     1      -1.229  -8.730 -11.227  1.00  0.00     0.005 C 
HETATM   15  C14 UNL     1      -0.486  -7.568 -10.652  1.00  0.00     0.001 C 
HETATM   16  C15 UNL     1       0.946  -7.963 -10.252  1.00  0.00     0.007 C 
HETATM   17  C16 UNL     1       0.974  -9.023  -9.225  1.00  0.00     0.021 C 
HETATM   18  C17 UNL     1      -0.459  -9.554  -9.071  1.00  0.00     0.012 C 
ENDROOT
BRANCH   1  19
HETATM   19  O1  UNL     1       2.268 -10.633  -8.159  1.00  0.00    -0.389 OA
ATOM     20  H1  UNL     1       3.212 -10.531  -8.120  1.00  0.00     0.210 HD
ENDBRANCH   1  19
TORSDOF 1
ENDMDL
MODEL 5
REMARK VINA RESULT: -7.739560838      1.780      5.185
REMARK  1 active torsions:
REMARK  status: ('A' for Active; 'I' for Inactive)
REMARK    1  A    between atoms: O1_1  and  C1_3 
ROOT
HETATM    1  C1  UNL     1       0.979  -9.092 -11.092  1.00  0.00     0.068 C 
HETATM    2  C2  UNL     1       0.656  -9.936  -9.892  1.00  0.00     0.039 C 
HETATM    3  C3  UNL     1       0.074 -11.255 -10.294  1.00  0.00     0.006 C 
HETATM    4  C4  UNL     1       0.417 -11.677 -11.681  1.00  0.00     0.038 C 
HETATM    5  C5  UNL     1       1.800 -11.231 -12.117  1.00  0.00     0.067 C 
HETATM    6  C6  UNL     1       1.947 -11.664 -13.566  1.00  0.00     0.038 C 
HETATM    7  C7  UNL     1       2.953 -12.753 -13.752  1.00  0.00     0.005 C 
HETATM    8  C8  UNL     1       2.890 -13.775 -12.654  1.00  0.00     0.026 C 
HETATM    9  C9  UNL     1       2.792 -13.151 -11.285  1.00  0.00     0.168 C 
HETATM   10  O2  UNL     1       2.740 -11.787 -11.290  1.00  0.00    -0.380 OA
HETATM   11  C10 UNL     1       1.963  -9.729 -12.021  1.00  0.00     0.055 C 
HETATM   12  C11 UNL     1       3.403  -9.366 -11.686  1.00  0.00     0.015 C 
HETATM   13  C12 UNL     1       3.553  -7.889 -11.898  1.00  0.00    -0.014 C 
HETATM   14  C13 UNL     1       4.354  -7.232 -10.765  1.00  0.00     0.005 C 
HETATM   15  C14 UNL     1       3.421  -6.615  -9.775  1.00  0.00     0.001 C 
HETATM   16  C15 UNL     1       2.185  -7.502  -9.544  1.00  0.00     0.007 C 
HETATM   17  C16 UNL     1       1.402  -7.711 -10.778  1.00  0.00     0.021 C 
HETATM   18  C17 UNL     1       2.229  -7.161 -11.948  1.00  0.00     0.012 C 
ENDROOT
BRANCH   1  19
HETATM   19  O1  UNL     1      -0.234  -8.991 -11.821  1.00  0.00    -0.389 OA
ATOM     20  H1  UNL     1      -0.380  -9.854 -12.191  1.00  0.00     0.210 HD
ENDBRANCH   1  19
TORSDOF 1
ENDMDL
