MODEL 1
REMARK VINA RESULT: -6.081967425      0.000      0.000
REMARK  4 active torsions:
REMARK  status: ('A' for Active; 'I' for Inactive)
REMARK    1  A    between atoms: N1_1  and  C1_5 
REMARK    2  A    between atoms: C1_5  and  C2_6 
REMARK    3  A    between atoms: C2_6  and  C3_7 
REMARK    4  A    between atoms: C3_7  and  C4_8 
ROOT
HETATM    1  C4  UNL     1      23.667 -43.574 -11.533  1.00  0.00    -0.039 C 
HETATM    2  C5  UNL     1      24.429 -44.697 -12.149  1.00  0.00     0.014 C 
HETATM    3  C6  UNL     1      24.125 -45.958 -11.369  1.00  0.00    -0.013 C 
HETATM    4  C7  UNL     1      22.655 -46.276 -11.352  1.00  0.00     0.009 C 
HETATM    5  C8  UNL     1      21.872 -45.126 -10.782  1.00  0.00    -0.013 C 
HETATM    6  C9  UNL     1      22.299 -44.944  -9.347  1.00  0.00     0.009 C 
HETATM    7  C10 UNL     1      23.782 -44.679  -9.317  1.00  0.00    -0.013 C 
HETATM    8  C11 UNL     1      24.585 -45.790  -9.938  1.00  0.00     0.009 C 
HETATM    9  C12 UNL     1      24.067 -43.416 -10.068  1.00  0.00     0.014 C 
HETATM   10  C13 UNL     1      22.186 -43.873 -11.575  1.00  0.00     0.014 C 
ENDROOT
BRANCH   1  11
HETATM   11  C3  UNL     1      23.904 -42.248 -12.196  1.00  0.00     0.011 C 
BRANCH  11  12
HETATM   12  C2  UNL     1      24.564 -41.243 -11.313  1.00  0.00     0.028 C 
BRANCH  12  13
HETATM   13  C1  UNL     1      25.859 -40.814 -11.998  1.00  0.00     0.229 C 
BRANCH  13  14
HETATM   14  N1  UNL     1      26.824 -41.894 -12.011  1.00  0.00    -0.079 N 
ATOM     15  H13 UNL     1      26.414 -42.760 -12.361  1.00  0.00     0.274 HD
ATOM     16  H12 UNL     1      27.532 -41.756 -12.731  1.00  0.00     0.274 HD
ATOM     17  H11 UNL     1      27.244 -42.021 -11.090  1.00  0.00     0.274 HD
ENDBRANCH  13  14
ENDBRANCH  12  13
ENDBRANCH  11  12
ENDBRANCH   1  11
TORSDOF 4
ENDMDL
MODEL 2
REMARK VINA RESULT: -6.040915583      0.088      1.968
REMARK  4 active torsions:
REMARK  status: ('A' for Active; 'I' for Inactive)
REMARK    1  A    between atoms: N1_1  and  C1_5 
REMARK    2  A    between atoms: C1_5  and  C2_6 
REMARK    3  A    between atoms: C2_6  and  C3_7 
REMARK    4  A    between atoms: C3_7  and  C4_8 
ROOT
HETATM    1  C4  UNL     1      23.616 -43.549 -11.528  1.00  0.00    -0.039 C 
HETATM    2  C5  UNL     1      22.154 -43.832 -11.593  1.00  0.00     0.014 C 
HETATM    3  C6  UNL     1      21.879 -45.086 -10.793  1.00  0.00    -0.013 C 
HETATM    4  C7  UNL     1      22.320 -44.957  -9.361  1.00  0.00     0.009 C 
HETATM    5  C8  UNL     1      23.783 -44.619  -9.286  1.00  0.00    -0.013 C 
HETATM    6  C9  UNL     1      24.553 -45.771  -9.881  1.00  0.00     0.009 C 
HETATM    7  C10 UNL     1      24.098 -45.970 -11.303  1.00  0.00    -0.013 C 
HETATM    8  C11 UNL     1      22.624 -46.251 -11.409  1.00  0.00     0.009 C 
HETATM    9  C12 UNL     1      24.399 -44.733 -12.090  1.00  0.00     0.014 C 
HETATM   10  C13 UNL     1      24.040 -43.359 -10.089  1.00  0.00     0.014 C 
ENDROOT
BRANCH   1  11
HETATM   11  C3  UNL     1      24.033 -42.338 -12.312  1.00  0.00     0.011 C 
BRANCH  11  12
HETATM   12  C2  UNL     1      24.523 -41.214 -11.464  1.00  0.00     0.028 C 
BRANCH  12  13
HETATM   13  C1  UNL     1      25.891 -40.799 -12.001  1.00  0.00     0.229 C 
BRANCH  13  14
HETATM   14  N1  UNL     1      26.792 -41.932 -12.059  1.00  0.00    -0.079 N 
ATOM     15  H13 UNL     1      26.390 -42.756 -11.612  1.00  0.00     0.274 HD
ATOM     16  H12 UNL     1      26.877 -42.296 -13.007  1.00  0.00     0.274 HD
ATOM     17  H11 UNL     1      27.703 -41.696 -11.664  1.00  0.00     0.274 HD
ENDBRANCH  13  14
ENDBRANCH  12  13
ENDBRANCH  11  12
ENDBRANCH   1  11
TORSDOF 4
ENDMDL
MODEL 3
REMARK VINA RESULT: -6.009355164      0.135      1.951
REMARK  4 active torsions:
REMARK  status: ('A' for Active; 'I' for Inactive)
REMARK    1  A    between atoms: N1_1  and  C1_5 
REMARK    2  A    between atoms: C1_5  and  C2_6 
REMARK    3  A    between atoms: C2_6  and  C3_7 
REMARK    4  A    between atoms: C3_7  and  C4_8 
ROOT
HETATM    1  C4  UNL     1      23.686 -43.550 -11.366  1.00  0.00    -0.039 C 
HETATM    2  C5  UNL     1      24.165 -43.436  -9.960  1.00  0.00     0.014 C 
HETATM    3  C6  UNL     1      23.909 -44.755  -9.265  1.00  0.00    -0.013 C 
HETATM    4  C7  UNL     1      24.592 -45.904  -9.954  1.00  0.00     0.009 C 
HETATM    5  C8  UNL     1      24.156 -45.995 -11.389  1.00  0.00    -0.013 C 
HETATM    6  C9  UNL     1      22.677 -46.290 -11.403  1.00  0.00     0.009 C 
HETATM    7  C10 UNL     1      21.959 -45.187 -10.670  1.00  0.00    -0.013 C 
HETATM    8  C11 UNL     1      22.422 -45.036  -9.246  1.00  0.00     0.009 C 
HETATM    9  C12 UNL     1      22.198 -43.892 -11.381  1.00  0.00     0.014 C 
HETATM   10  C13 UNL     1      24.421 -44.667 -12.071  1.00  0.00     0.014 C 
ENDROOT
BRANCH   1  11
HETATM   11  C3  UNL     1      23.853 -42.290 -12.166  1.00  0.00     0.011 C 
BRANCH  11  12
HETATM   12  C2  UNL     1      24.467 -41.169 -11.399  1.00  0.00     0.028 C 
BRANCH  12  13
HETATM   13  C1  UNL     1      25.763 -40.785 -12.109  1.00  0.00     0.229 C 
BRANCH  13  14
HETATM   14  N1  UNL     1      26.747 -41.842 -12.003  1.00  0.00    -0.079 N 
ATOM     15  H13 UNL     1      27.385 -41.843 -12.798  1.00  0.00     0.274 HD
ATOM     16  H12 UNL     1      27.423 -41.653 -11.263  1.00  0.00     0.274 HD
ATOM     17  H11 UNL     1      26.299 -42.750 -11.879  1.00  0.00     0.274 HD
ENDBRANCH  13  14
ENDBRANCH  12  13
ENDBRANCH  11  12
ENDBRANCH   1  11
TORSDOF 4
ENDMDL
MODEL 4
REMARK VINA RESULT: -5.935942839      1.380      2.619
REMARK  4 active torsions:
REMARK  status: ('A' for Active; 'I' for Inactive)
REMARK    1  A    between atoms: N1_1  and  C1_5 
REMARK    2  A    between atoms: C1_5  and  C2_6 
REMARK    3  A    between atoms: C2_6  and  C3_7 
REMARK    4  A    between atoms: C3_7  and  C4_8 
ROOT
HETATM    1  C4  UNL     1      23.640 -43.619 -11.770  1.00  0.00    -0.039 C 
HETATM    2  C5  UNL     1      24.024 -43.215 -10.388  1.00  0.00     0.014 C 
HETATM    3  C6  UNL     1      23.746 -44.378  -9.461  1.00  0.00    -0.013 C 
HETATM    4  C7  UNL     1      24.492 -45.620  -9.865  1.00  0.00     0.009 C 
HETATM    5  C8  UNL     1      24.152 -46.005 -11.277  1.00  0.00    -0.013 C 
HETATM    6  C9  UNL     1      22.683 -46.341 -11.323  1.00  0.00     0.009 C 
HETATM    7  C10 UNL     1      21.900 -45.137 -10.869  1.00  0.00    -0.013 C 
HETATM    8  C11 UNL     1      22.266 -44.693  -9.478  1.00  0.00     0.009 C 
HETATM    9  C12 UNL     1      22.163 -44.001 -11.808  1.00  0.00     0.014 C 
HETATM   10  C13 UNL     1      24.440 -44.831 -12.192  1.00  0.00     0.014 C 
ENDROOT
BRANCH   1  11
HETATM   11  C3  UNL     1      23.839 -42.538 -12.793  1.00  0.00     0.011 C 
BRANCH  11  12
HETATM   12  C2  UNL     1      22.664 -42.334 -13.688  1.00  0.00     0.028 C 
BRANCH  12  13
HETATM   13  C1  UNL     1      22.990 -41.162 -14.611  1.00  0.00     0.229 C 
BRANCH  13  14
HETATM   14  N1  UNL     1      24.410 -40.873 -14.603  1.00  0.00    -0.079 N 
ATOM     15  H13 UNL     1      24.790 -40.880 -13.656  1.00  0.00     0.274 HD
ATOM     16  H12 UNL     1      24.952 -41.643 -14.993  1.00  0.00     0.274 HD
ATOM     17  H11 UNL     1      24.608 -39.994 -15.081  1.00  0.00     0.274 HD
ENDBRANCH  13  14
ENDBRANCH  12  13
ENDBRANCH  11  12
ENDBRANCH   1  11
TORSDOF 4
ENDMDL
MODEL 5
REMARK VINA RESULT: -5.915251457      1.305      2.417
REMARK  4 active torsions:
REMARK  status: ('A' for Active; 'I' for Inactive)
REMARK    1  A    between atoms: N1_1  and  C1_5 
REMARK    2  A    between atoms: C1_5  and  C2_6 
REMARK    3  A    between atoms: C2_6  and  C3_7 
REMARK    4  A    between atoms: C3_7  and  C4_8 
ROOT
HETATM    1  C4  UNL     1      23.802 -43.662 -11.850  1.00  0.00    -0.039 C 
HETATM    2  C5  UNL     1      22.325 -43.842 -11.938  1.00  0.00     0.014 C 
HETATM    3  C6  UNL     1      21.924 -44.936 -10.974  1.00  0.00    -0.013 C 
HETATM    4  C7  UNL     1      22.325 -44.623  -9.558  1.00  0.00     0.009 C 
HETATM    5  C8  UNL     1      23.807 -44.386  -9.468  1.00  0.00    -0.013 C 
HETATM    6  C9  UNL     1      24.503 -45.669  -9.849  1.00  0.00     0.009 C 
HETATM    7  C10 UNL     1      24.082 -46.049 -11.245  1.00  0.00    -0.013 C 
HETATM    8  C11 UNL     1      22.593 -46.233 -11.375  1.00  0.00     0.009 C 
HETATM    9  C12 UNL     1      24.506 -44.972 -12.193  1.00  0.00     0.014 C 
HETATM   10  C13 UNL     1      24.191 -43.286 -10.438  1.00  0.00     0.014 C 
ENDROOT
BRANCH   1  11
HETATM   11  C3  UNL     1      24.340 -42.618 -12.786  1.00  0.00     0.011 C 
BRANCH  11  12
HETATM   12  C2  UNL     1      23.840 -41.242 -12.504  1.00  0.00     0.028 C 
BRANCH  12  13
HETATM   13  C1  UNL     1      23.329 -40.662 -13.820  1.00  0.00     0.229 C 
BRANCH  13  14
HETATM   14  N1  UNL     1      24.317 -40.806 -14.870  1.00  0.00    -0.079 N 
ATOM     15  H13 UNL     1      24.911 -41.621 -14.719  1.00  0.00     0.274 HD
ATOM     16  H12 UNL     1      23.890 -41.088 -15.752  1.00  0.00     0.274 HD
ATOM     17  H11 UNL     1      24.868 -39.954 -14.975  1.00  0.00     0.274 HD
ENDBRANCH  13  14
ENDBRANCH  12  13
ENDBRANCH  11  12
ENDBRANCH   1  11
TORSDOF 4
ENDMDL
