MODEL 1
REMARK VINA RESULT: -6.620995443      0.000      0.000
REMARK  5 active torsions:
REMARK  status: ('A' for Active; 'I' for Inactive)
REMARK    1  A    between atoms: C2_2  and  N1_3 
REMARK    2  A    between atoms: C2_2  and  C3_7 
REMARK    3  A    between atoms: C3_7  and  N2_8 
REMARK    4  A    between atoms: C3_7  and  C4_12 
REMARK    5  A    between atoms: C4_12  and  C5_13 
ROOT
HETATM    1  C3  UNL     1      30.718 -48.884 -11.111  1.00  0.00     0.213 C 
ENDROOT
BRANCH   1   2
HETATM    2  C2  UNL     1      32.105 -49.346 -10.714  1.00  0.00     0.209 C 
HETATM    3  C1  UNL     1      33.070 -48.656 -11.681  1.00  0.00     0.042 C 
BRANCH   2   4
HETATM    4  N1  UNL     1      32.441 -48.886  -9.377  1.00  0.00    -0.073 N 
ATOM      5  H13 UNL     1      32.984 -48.022  -9.375  1.00  0.00     0.274 HD
ATOM      6  H12 UNL     1      31.635 -48.534  -8.860  1.00  0.00     0.274 HD
ATOM      7  H11 UNL     1      32.914 -49.657  -8.907  1.00  0.00     0.274 HD
ENDBRANCH   2   4
ENDBRANCH   1   2
BRANCH   1   8
HETATM    8  N2  UNL     1      29.753 -49.741 -10.472  1.00  0.00    -0.073 N 
ATOM      9  H23 UNL     1      29.518 -50.556 -11.036  1.00  0.00     0.274 HD
ATOM     10  H22 UNL     1      30.139 -50.235  -9.668  1.00  0.00     0.274 HD
ATOM     11  H21 UNL     1      28.935 -49.181 -10.232  1.00  0.00     0.274 HD
ENDBRANCH   1   8
BRANCH   1  12
HETATM   12  C4  UNL     1      30.535 -48.845 -12.610  1.00  0.00     0.040 C 
BRANCH  12  13
HETATM   13  C5  UNL     1      29.097 -49.106 -12.916  1.00  0.00    -0.008 C 
HETATM   14  C6  UNL     1      28.192 -47.941 -12.826  1.00  0.00     0.005 C 
HETATM   15  C7  UNL     1      27.000 -48.345 -13.679  1.00  0.00     0.005 C 
HETATM   16  C8  UNL     1      27.321 -49.670 -14.289  1.00  0.00    -0.010 C 
HETATM   17  C9  UNL     1      27.009 -49.777 -15.745  1.00  0.00     0.005 C 
HETATM   18  C12 UNL     1      28.852 -49.649 -14.294  1.00  0.00    -0.006 C 
HETATM   19  C10 UNL     1      28.001 -48.858 -16.398  1.00  0.00     0.001 C 
HETATM   20  C11 UNL     1      29.145 -48.682 -15.391  1.00  0.00     0.005 C 
ENDBRANCH  12  13
ENDBRANCH   1  12
TORSDOF 5
ENDMDL
MODEL 2
REMARK VINA RESULT: -6.452272043      1.366      2.237
REMARK  5 active torsions:
REMARK  status: ('A' for Active; 'I' for Inactive)
REMARK    1  A    between atoms: C2_2  and  N1_3 
REMARK    2  A    between atoms: C2_2  and  C3_7 
REMARK    3  A    between atoms: C3_7  and  N2_8 
REMARK    4  A    between atoms: C3_7  and  C4_12 
REMARK    5  A    between atoms: C4_12  and  C5_13 
ROOT
HETATM    1  C3  UNL     1      31.324 -48.971 -11.411  1.00  0.00     0.213 C 
ENDROOT
BRANCH   1   2
HETATM    2  C2  UNL     1      31.545 -49.419  -9.981  1.00  0.00     0.209 C 
HETATM    3  C1  UNL     1      30.280 -50.183  -9.581  1.00  0.00     0.042 C 
BRANCH   2   4
HETATM    4  N1  UNL     1      32.652 -50.357  -9.896  1.00  0.00    -0.073 N 
ATOM      5  H13 UNL     1      33.101 -50.366  -8.980  1.00  0.00     0.274 HD
ATOM      6  H12 UNL     1      32.352 -51.332  -9.904  1.00  0.00     0.274 HD
ATOM      7  H11 UNL     1      33.294 -50.129 -10.655  1.00  0.00     0.274 HD
ENDBRANCH   2   4
ENDBRANCH   1   2
BRANCH   1   8
HETATM    8  N2  UNL     1      31.899 -47.660 -11.570  1.00  0.00    -0.073 N 
ATOM      9  H23 UNL     1      31.862 -47.110 -10.714  1.00  0.00     0.274 HD
ATOM     10  H22 UNL     1      32.913 -47.687 -11.675  1.00  0.00     0.274 HD
ATOM     11  H21 UNL     1      31.437 -47.199 -12.353  1.00  0.00     0.274 HD
ENDBRANCH   1   8
BRANCH   1  12
HETATM   12  C4  UNL     1      29.866 -49.001 -11.803  1.00  0.00     0.040 C 
BRANCH  12  13
HETATM   13  C5  UNL     1      29.758 -48.634 -13.246  1.00  0.00    -0.008 C 
HETATM   14  C6  UNL     1      30.739 -49.267 -14.152  1.00  0.00     0.005 C 
HETATM   15  C7  UNL     1      30.080 -49.168 -15.519  1.00  0.00     0.005 C 
HETATM   16  C8  UNL     1      28.725 -48.575 -15.316  1.00  0.00    -0.010 C 
HETATM   17  C9  UNL     1      27.626 -49.271 -16.049  1.00  0.00     0.005 C 
HETATM   18  C12 UNL     1      28.430 -48.961 -13.864  1.00  0.00    -0.006 C 
HETATM   19  C10 UNL     1      27.515 -50.602 -15.364  1.00  0.00     0.001 C 
HETATM   20  C11 UNL     1      28.155 -50.422 -13.981  1.00  0.00     0.005 C 
ENDBRANCH  12  13
ENDBRANCH   1  12
TORSDOF 5
ENDMDL
MODEL 3
REMARK VINA RESULT: -6.331723469      1.347      1.712
REMARK  5 active torsions:
REMARK  status: ('A' for Active; 'I' for Inactive)
REMARK    1  A    between atoms: C2_2  and  N1_3 
REMARK    2  A    between atoms: C2_2  and  C3_7 
REMARK    3  A    between atoms: C3_7  and  N2_8 
REMARK    4  A    between atoms: C3_7  and  C4_12 
REMARK    5  A    between atoms: C4_12  and  C5_13 
ROOT
HETATM    1  C3  UNL     1      32.639 -48.273 -12.667  1.00  0.00     0.213 C 
ENDROOT
BRANCH   1   2
HETATM    2  C2  UNL     1      32.407 -49.369 -11.646  1.00  0.00     0.209 C 
HETATM    3  C1  UNL     1      33.703 -50.183 -11.602  1.00  0.00     0.042 C 
BRANCH   2   4
HETATM    4  N1  UNL     1      32.211 -48.809 -10.320  1.00  0.00    -0.073 N 
ATOM      5  H13 UNL     1      32.606 -47.874 -10.216  1.00  0.00     0.274 HD
ATOM      6  H12 UNL     1      31.240 -48.561 -10.128  1.00  0.00     0.274 HD
ATOM      7  H11 UNL     1      32.592 -49.481  -9.654  1.00  0.00     0.274 HD
ENDBRANCH   2   4
ENDBRANCH   1   2
BRANCH   1   8
HETATM    8  N2  UNL     1      32.382 -47.004 -12.037  1.00  0.00    -0.073 N 
ATOM      9  H23 UNL     1      32.874 -46.899 -11.151  1.00  0.00     0.274 HD
ATOM     10  H22 UNL     1      32.817 -46.225 -12.531  1.00  0.00     0.274 HD
ATOM     11  H21 UNL     1      31.373 -46.892 -11.941  1.00  0.00     0.274 HD
ENDBRANCH   1   8
BRANCH   1  12
HETATM   12  C4  UNL     1      31.809 -48.466 -13.914  1.00  0.00     0.040 C 
BRANCH  12  13
HETATM   13  C5  UNL     1      30.490 -49.041 -13.517  1.00  0.00    -0.008 C 
HETATM   14  C6  UNL     1      29.530 -48.101 -12.902  1.00  0.00     0.005 C 
HETATM   15  C7  UNL     1      28.183 -48.773 -13.114  1.00  0.00     0.005 C 
HETATM   16  C8  UNL     1      28.426 -50.008 -13.918  1.00  0.00    -0.010 C 
HETATM   17  C9  UNL     1      27.474 -50.210 -15.051  1.00  0.00     0.005 C 
HETATM   18  C12 UNL     1      29.721 -49.652 -14.652  1.00  0.00    -0.006 C 
HETATM   19  C10 UNL     1      27.816 -49.110 -16.014  1.00  0.00     0.001 C 
HETATM   20  C11 UNL     1      29.243 -48.668 -15.665  1.00  0.00     0.005 C 
ENDBRANCH  12  13
ENDBRANCH   1  12
TORSDOF 5
ENDMDL
MODEL 4
REMARK VINA RESULT: -6.319843364      1.379      2.098
REMARK  5 active torsions:
REMARK  status: ('A' for Active; 'I' for Inactive)
REMARK    1  A    between atoms: C2_2  and  N1_3 
REMARK    2  A    between atoms: C2_2  and  C3_7 
REMARK    3  A    between atoms: C3_7  and  N2_8 
REMARK    4  A    between atoms: C3_7  and  C4_12 
REMARK    5  A    between atoms: C4_12  and  C5_13 
ROOT
HETATM    1  C3  UNL     1      30.378 -48.323 -12.349  1.00  0.00     0.213 C 
ENDROOT
BRANCH   1   2
HETATM    2  C2  UNL     1      31.789 -48.872 -12.278  1.00  0.00     0.209 C 
HETATM    3  C1  UNL     1      32.454 -48.495 -13.604  1.00  0.00     0.042 C 
BRANCH   2   4
HETATM    4  N1  UNL     1      32.546 -48.220 -11.222  1.00  0.00    -0.073 N 
ATOM      5  H13 UNL     1      32.497 -48.712 -10.330  1.00  0.00     0.274 HD
ATOM      6  H12 UNL     1      33.556 -48.288 -11.353  1.00  0.00     0.274 HD
ATOM      7  H11 UNL     1      32.213 -47.257 -11.168  1.00  0.00     0.274 HD
ENDBRANCH   2   4
ENDBRANCH   1   2
BRANCH   1   8
HETATM    8  N2  UNL     1      30.165 -47.468 -11.210  1.00  0.00    -0.073 N 
ATOM      9  H23 UNL     1      31.015 -47.319 -10.668  1.00  0.00     0.274 HD
ATOM     10  H22 UNL     1      29.996 -46.498 -11.474  1.00  0.00     0.274 HD
ATOM     11  H21 UNL     1      29.408 -47.860 -10.651  1.00  0.00     0.274 HD
ENDBRANCH   1   8
BRANCH   1  12
HETATM   12  C4  UNL     1      29.341 -49.417 -12.438  1.00  0.00     0.040 C 
BRANCH  12  13
HETATM   13  C5  UNL     1      29.054 -49.677 -13.880  1.00  0.00    -0.008 C 
HETATM   14  C6  UNL     1      28.315 -50.921 -14.182  1.00  0.00     0.005 C 
HETATM   15  C7  UNL     1      27.710 -50.656 -15.551  1.00  0.00     0.005 C 
HETATM   16  C8  UNL     1      28.048 -49.249 -15.920  1.00  0.00    -0.010 C 
HETATM   17  C9  UNL     1      26.908 -48.460 -16.474  1.00  0.00     0.005 C 
HETATM   18  C12 UNL     1      28.242 -48.604 -14.546  1.00  0.00    -0.006 C 
HETATM   19  C10 UNL     1      25.983 -48.286 -15.304  1.00  0.00     0.001 C 
HETATM   20  C11 UNL     1      26.839 -48.504 -14.049  1.00  0.00     0.005 C 
ENDBRANCH  12  13
ENDBRANCH   1  12
TORSDOF 5
ENDMDL
MODEL 5
REMARK VINA RESULT: -6.290147143      1.299      1.917
REMARK  5 active torsions:
REMARK  status: ('A' for Active; 'I' for Inactive)
REMARK    1  A    between atoms: C2_2  and  N1_3 
REMARK    2  A    between atoms: C2_2  and  C3_7 
REMARK    3  A    between atoms: C3_7  and  N2_8 
REMARK    4  A    between atoms: C3_7  and  C4_12 
REMARK    5  A    between atoms: C4_12  and  C5_13 
ROOT
HETATM    1  C3  UNL     1      32.297 -49.400 -10.127  1.00  0.00     0.213 C 
ENDROOT
BRANCH   1   2
HETATM    2  C2  UNL     1      33.319 -50.467 -10.464  1.00  0.00     0.209 C 
HETATM    3  C1  UNL     1      33.905 -50.072 -11.822  1.00  0.00     0.042 C 
BRANCH   2   4
HETATM    4  N1  UNL     1      34.415 -50.455  -9.510  1.00  0.00    -0.073 N 
ATOM      5  H13 UNL     1      35.316 -50.687  -9.930  1.00  0.00     0.274 HD
ATOM      6  H12 UNL     1      34.658 -49.517  -9.190  1.00  0.00     0.274 HD
ATOM      7  H11 UNL     1      34.154 -51.083  -8.750  1.00  0.00     0.274 HD
ENDBRANCH   2   4
ENDBRANCH   1   2
BRANCH   1   8
HETATM    8  N2  UNL     1      31.154 -50.039  -9.530  1.00  0.00    -0.073 N 
ATOM      9  H23 UNL     1      31.031 -51.000  -9.848  1.00  0.00     0.274 HD
ATOM     10  H22 UNL     1      31.288 -50.238  -8.539  1.00  0.00     0.274 HD
ATOM     11  H21 UNL     1      30.333 -49.460  -9.706  1.00  0.00     0.274 HD
ENDBRANCH   1   8
BRANCH   1  12
HETATM   12  C4  UNL     1      31.919 -48.568 -11.330  1.00  0.00     0.040 C 
BRANCH  12  13
HETATM   13  C5  UNL     1      30.466 -48.775 -11.606  1.00  0.00    -0.008 C 
HETATM   14  C6  UNL     1      29.637 -47.553 -11.666  1.00  0.00     0.005 C 
HETATM   15  C7  UNL     1      28.418 -47.986 -12.466  1.00  0.00     0.005 C 
HETATM   16  C8  UNL     1      28.653 -49.394 -12.904  1.00  0.00    -0.010 C 
HETATM   17  C9  UNL     1      28.329 -49.662 -14.336  1.00  0.00     0.005 C 
HETATM   18  C12 UNL     1      30.182 -49.469 -12.905  1.00  0.00    -0.006 C 
HETATM   19  C10 UNL     1      29.374 -48.897 -15.096  1.00  0.00     0.001 C 
HETATM   20  C11 UNL     1      30.531 -48.669 -14.114  1.00  0.00     0.005 C 
ENDBRANCH  12  13
ENDBRANCH   1  12
TORSDOF 5
ENDMDL
