MODEL 1
REMARK VINA RESULT: -6.136602377      0.000      0.000
REMARK  3 active torsions:
REMARK  status: ('A' for Active; 'I' for Inactive)
REMARK    1  A    between atoms: C2_2  and  C3_3 
REMARK    2  A    between atoms: C8_11  and  N2_13 
REMARK    3  A    between atoms: N2_13  and  C10_15 
ROOT
HETATM    1  C3  UNL     1      23.724 -43.328 -10.176  1.00  0.00     0.192 C 
HETATM    2  N1  UNL     1      25.146 -43.159 -10.415  1.00  0.00    -0.064 N 
ATOM      3  H11 UNL     1      25.716 -43.908 -10.020  1.00  0.00     0.278 HD
ATOM      4  H12 UNL     1      25.558 -42.394  -9.882  1.00  0.00     0.278 HD
HETATM    5  C4  UNL     1      25.304 -43.013 -11.844  1.00  0.00     0.214 C 
HETATM    6  C5  UNL     1      24.961 -44.330 -12.491  1.00  0.00     0.036 C 
HETATM    7  C6  UNL     1      23.460 -44.462 -12.313  1.00  0.00     0.011 C 
HETATM    8  C7  UNL     1      23.084 -43.222 -11.518  1.00  0.00     0.046 C 
HETATM    9  C8  UNL     1      24.031 -42.219 -12.198  1.00  0.00     0.056 C 
HETATM   10  C9  UNL     1      24.054 -40.906 -11.525  1.00  0.00     0.041 C 
ENDROOT
BRANCH   9  11
HETATM   11  N2  UNL     1      23.924 -42.223 -13.602  1.00  0.00    -0.407 N 
ATOM     12  H2  UNL     1      24.520 -42.827 -14.168  1.00  0.00     0.154 HD
BRANCH  11  13
HETATM   13  C10 UNL     1      22.972 -41.372 -14.211  1.00  0.00     0.069 C 
HETATM   14  C11 UNL     1      23.742 -40.390 -15.104  1.00  0.00     0.031 C 
HETATM   15  C12 UNL     1      21.940 -42.030 -15.064  1.00  0.00     0.031 C 
ENDBRANCH  11  13
ENDBRANCH   9  11
BRANCH   1  16
HETATM   16  C2  UNL     1      23.512 -44.623  -9.467  1.00  0.00     0.029 C 
HETATM   17  C1  UNL     1      22.212 -44.685  -8.710  1.00  0.00     0.007 C 
ENDBRANCH   1  16
TORSDOF 3
ENDMDL
MODEL 2
REMARK VINA RESULT: -5.751018169      1.069      4.808
REMARK  3 active torsions:
REMARK  status: ('A' for Active; 'I' for Inactive)
REMARK    1  A    between atoms: C2_2  and  C3_3 
REMARK    2  A    between atoms: C8_11  and  N2_13 
REMARK    3  A    between atoms: N2_13  and  C10_15 
ROOT
HETATM    1  C3  UNL     1      23.749 -41.984 -13.333  1.00  0.00     0.192 C 
HETATM    2  N1  UNL     1      25.153 -42.254 -13.585  1.00  0.00    -0.064 N 
ATOM      3  H11 UNL     1      25.622 -41.511 -14.104  1.00  0.00     0.278 HD
ATOM      4  H12 UNL     1      25.307 -42.998 -14.265  1.00  0.00     0.278 HD
HETATM    5  C4  UNL     1      25.753 -42.521 -12.298  1.00  0.00     0.214 C 
HETATM    6  C5  UNL     1      25.746 -41.241 -11.503  1.00  0.00     0.036 C 
HETATM    7  C6  UNL     1      24.284 -41.008 -11.170  1.00  0.00     0.011 C 
HETATM    8  C7  UNL     1      23.571 -42.157 -11.863  1.00  0.00     0.046 C 
HETATM    9  C8  UNL     1      24.603 -43.264 -11.589  1.00  0.00     0.056 C 
HETATM   10  C9  UNL     1      24.300 -44.520 -12.303  1.00  0.00     0.041 C 
ENDROOT
BRANCH   9  11
HETATM   11  N2  UNL     1      24.957 -43.364 -10.230  1.00  0.00    -0.407 N 
ATOM     12  H2  UNL     1      25.929 -43.261  -9.936  1.00  0.00     0.154 HD
BRANCH  11  13
HETATM   13  C10 UNL     1      23.938 -43.611  -9.281  1.00  0.00     0.069 C 
HETATM   14  C11 UNL     1      23.700 -45.126  -9.248  1.00  0.00     0.031 C 
HETATM   15  C12 UNL     1      24.212 -43.176  -7.880  1.00  0.00     0.031 C 
ENDBRANCH  11  13
ENDBRANCH   9  11
BRANCH   1  16
HETATM   16  C2  UNL     1      23.424 -40.627 -13.861  1.00  0.00     0.029 C 
HETATM   17  C1  UNL     1      23.905 -40.401 -15.269  1.00  0.00     0.007 C 
ENDBRANCH   1  16
TORSDOF 3
ENDMDL
MODEL 3
REMARK VINA RESULT: -5.672192676      1.519      4.482
REMARK  3 active torsions:
REMARK  status: ('A' for Active; 'I' for Inactive)
REMARK    1  A    between atoms: C2_2  and  C3_3 
REMARK    2  A    between atoms: C8_11  and  N2_13 
REMARK    3  A    between atoms: N2_13  and  C10_15 
ROOT
HETATM    1  C3  UNL     1      22.364 -43.102 -13.102  1.00  0.00     0.192 C 
HETATM    2  N1  UNL     1      22.907 -44.441 -13.241  1.00  0.00    -0.064 N 
ATOM      3  H11 UNL     1      23.128 -44.691 -14.205  1.00  0.00     0.278 HD
ATOM      4  H12 UNL     1      22.219 -45.175 -13.077  1.00  0.00     0.278 HD
HETATM    5  C4  UNL     1      24.045 -44.513 -12.354  1.00  0.00     0.214 C 
HETATM    6  C5  UNL     1      25.119 -43.607 -12.896  1.00  0.00     0.036 C 
HETATM    7  C6  UNL     1      24.585 -42.205 -12.671  1.00  0.00     0.011 C 
HETATM    8  C7  UNL     1      23.209 -42.439 -12.068  1.00  0.00     0.046 C 
HETATM    9  C8  UNL     1      23.553 -43.646 -11.178  1.00  0.00     0.056 C 
HETATM   10  C9  UNL     1      22.361 -44.262 -10.562  1.00  0.00     0.041 C 
ENDROOT
BRANCH   9  11
HETATM   11  N2  UNL     1      24.665 -43.417 -10.345  1.00  0.00    -0.407 N 
ATOM     12  H2  UNL     1      25.527 -43.947 -10.472  1.00  0.00     0.154 HD
BRANCH  11  13
HETATM   13  C10 UNL     1      24.561 -42.439  -9.329  1.00  0.00     0.069 C 
HETATM   14  C11 UNL     1      24.579 -43.174  -7.982  1.00  0.00     0.031 C 
HETATM   15  C12 UNL     1      25.638 -41.408  -9.285  1.00  0.00     0.031 C 
ENDBRANCH  11  13
ENDBRANCH   9  11
BRANCH   1  16
HETATM   16  C2  UNL     1      22.364 -42.447 -14.442  1.00  0.00     0.029 C 
HETATM   17  C1  UNL     1      21.244 -42.912 -15.335  1.00  0.00     0.007 C 
ENDBRANCH   1  16
TORSDOF 3
ENDMDL
MODEL 4
REMARK VINA RESULT: -5.639653403      1.445      2.156
REMARK  3 active torsions:
REMARK  status: ('A' for Active; 'I' for Inactive)
REMARK    1  A    between atoms: C2_2  and  C3_3 
REMARK    2  A    between atoms: C8_11  and  N2_13 
REMARK    3  A    between atoms: N2_13  and  C10_15 
ROOT
HETATM    1  C3  UNL     1      24.377 -44.694 -10.892  1.00  0.00     0.192 C 
HETATM    2  N1  UNL     1      24.266 -45.332 -12.192  1.00  0.00    -0.064 N 
ATOM      3  H11 UNL     1      23.952 -46.301 -12.142  1.00  0.00     0.278 HD
ATOM      4  H12 UNL     1      25.168 -45.514 -12.631  1.00  0.00     0.278 HD
HETATM    5  C4  UNL     1      23.401 -44.490 -12.986  1.00  0.00     0.214 C 
HETATM    6  C5  UNL     1      22.013 -44.562 -12.405  1.00  0.00     0.036 C 
HETATM    7  C6  UNL     1      22.114 -43.820 -11.085  1.00  0.00     0.011 C 
HETATM    8  C7  UNL     1      23.582 -43.437 -11.001  1.00  0.00     0.046 C 
HETATM    9  C8  UNL     1      23.813 -43.092 -12.482  1.00  0.00     0.056 C 
HETATM   10  C9  UNL     1      25.233 -42.842 -12.798  1.00  0.00     0.041 C 
ENDROOT
BRANCH   9  11
HETATM   11  N2  UNL     1      22.868 -42.180 -12.990  1.00  0.00    -0.407 N 
ATOM     12  H2  UNL     1      22.086 -41.867 -12.414  1.00  0.00     0.154 HD
BRANCH  11  13
HETATM   13  C10 UNL     1      23.027 -41.707 -14.313  1.00  0.00     0.069 C 
HETATM   14  C11 UNL     1      21.775 -42.119 -15.099  1.00  0.00     0.031 C 
HETATM   15  C12 UNL     1      23.187 -40.233 -14.479  1.00  0.00     0.031 C 
ENDBRANCH  11  13
ENDBRANCH   9  11
BRANCH   1  16
HETATM   16  C2  UNL     1      23.913 -45.655  -9.850  1.00  0.00     0.029 C 
HETATM   17  C1  UNL     1      23.790 -47.069 -10.351  1.00  0.00     0.007 C 
ENDBRANCH   1  16
TORSDOF 3
ENDMDL
MODEL 5
REMARK VINA RESULT: -5.490377484      1.400      2.157
REMARK  3 active torsions:
REMARK  status: ('A' for Active; 'I' for Inactive)
REMARK    1  A    between atoms: C2_2  and  C3_3 
REMARK    2  A    between atoms: C8_11  and  N2_13 
REMARK    3  A    between atoms: N2_13  and  C10_15 
ROOT
HETATM    1  C3  UNL     1      23.691 -44.992 -10.928  1.00  0.00     0.192 C 
HETATM    2  N1  UNL     1      23.299 -43.716 -10.356  1.00  0.00    -0.064 N 
ATOM      3  H11 UNL     1      23.821 -43.472  -9.515  1.00  0.00     0.278 HD
ATOM      4  H12 UNL     1      22.374 -43.732  -9.929  1.00  0.00     0.278 HD
HETATM    5  C4  UNL     1      23.426 -42.741 -11.414  1.00  0.00     0.214 C 
HETATM    6  C5  UNL     1      24.890 -42.583 -11.733  1.00  0.00     0.036 C 
HETATM    7  C6  UNL     1      25.275 -43.886 -12.408  1.00  0.00     0.011 C 
HETATM    8  C7  UNL     1      23.996 -44.706 -12.358  1.00  0.00     0.046 C 
HETATM    9  C8  UNL     1      22.990 -43.576 -12.634  1.00  0.00     0.056 C 
HETATM   10  C9  UNL     1      21.587 -44.005 -12.475  1.00  0.00     0.041 C 
ENDROOT
BRANCH   9  11
HETATM   11  N2  UNL     1      23.308 -42.822 -13.780  1.00  0.00    -0.407 N 
ATOM     12  H2  UNL     1      24.217 -42.920 -14.232  1.00  0.00     0.154 HD
BRANCH  11  13
HETATM   13  C10 UNL     1      22.340 -41.926 -14.292  1.00  0.00     0.069 C 
HETATM   14  C11 UNL     1      23.079 -40.653 -14.724  1.00  0.00     0.031 C 
HETATM   15  C12 UNL     1      21.549 -42.399 -15.465  1.00  0.00     0.031 C 
ENDBRANCH  11  13
ENDBRANCH   9  11
BRANCH   1  16
HETATM   16  C2  UNL     1      24.826 -45.542 -10.130  1.00  0.00     0.029 C 
HETATM   17  C1  UNL     1      25.294 -46.891 -10.606  1.00  0.00     0.007 C 
ENDBRANCH   1  16
TORSDOF 3
ENDMDL
