MODEL 1
REMARK VINA RESULT: -5.147050899      0.000      0.000
REMARK  1 active torsions:
REMARK  status: ('A' for Active; 'I' for Inactive)
REMARK    1  A    between atoms: O1_1  and  C1_3 
ROOT
HETATM    1  C1  UNL     1     -25.349   1.454 -10.487  1.00  0.00     0.150 C 
HETATM    2  C2  UNL     1     -26.498   2.182 -11.078  1.00  0.00     0.062 C 
HETATM    3  C3  UNL     1     -27.618   2.539 -10.191  1.00  0.00     0.005 C 
HETATM    4  C4  UNL     1     -27.309   3.066  -8.852  1.00  0.00     0.003 C 
HETATM    5  C5  UNL     1     -27.192   1.978  -7.789  1.00  0.00     0.034 C 
HETATM    6  C6  UNL     1     -25.858   1.271  -7.854  1.00  0.00     0.152 C 
HETATM    7  C7  UNL     1     -26.040  -0.035  -8.590  1.00  0.00     0.039 C 
HETATM    8  C8  UNL     1     -25.704   0.045 -10.036  1.00  0.00     0.065 C 
HETATM    9  O2  UNL     1     -24.826   2.033  -8.280  1.00  0.00    -0.277 OA
HETATM   10  N1  UNL     1     -24.580   2.162  -9.538  1.00  0.00    -0.267 N 
ATOM     11  H1  UNL     1     -23.829   2.777  -9.849  1.00  0.00     0.191 HD
ENDROOT
BRANCH   1  12
HETATM   12  O1  UNL     1     -24.461   1.231 -11.580  1.00  0.00    -0.369 OA
ATOM     13  H1  UNL     1     -25.004   0.847 -12.258  1.00  0.00     0.212 HD
ENDBRANCH   1  12
TORSDOF 1
ENDMDL
MODEL 2
REMARK VINA RESULT: -5.047365425      2.542      4.274
REMARK  1 active torsions:
REMARK  status: ('A' for Active; 'I' for Inactive)
REMARK    1  A    between atoms: O1_1  and  C1_3 
ROOT
HETATM    1  C1  UNL     1     -24.540   2.158 -11.504  1.00  0.00     0.150 C 
HETATM    2  C2  UNL     1     -25.835   2.571 -10.908  1.00  0.00     0.062 C 
HETATM    3  C3  UNL     1     -26.996   2.698 -11.803  1.00  0.00     0.005 C 
HETATM    4  C4  UNL     1     -27.209   1.662 -12.827  1.00  0.00     0.003 C 
HETATM    5  C5  UNL     1     -26.518   1.973 -14.151  1.00  0.00     0.034 C 
HETATM    6  C6  UNL     1     -25.040   1.665 -14.099  1.00  0.00     0.152 C 
HETATM    7  C7  UNL     1     -24.287   2.954 -13.870  1.00  0.00     0.039 C 
HETATM    8  C8  UNL     1     -23.956   3.204 -12.442  1.00  0.00     0.065 C 
HETATM    9  O2  UNL     1     -24.696   0.645 -13.284  1.00  0.00    -0.277 OA
HETATM   10  N1  UNL     1     -24.482   0.850 -12.029  1.00  0.00    -0.267 N 
ATOM     11  H1  UNL     1     -24.269   0.064 -11.415  1.00  0.00     0.191 HD
ENDROOT
BRANCH   1  12
HETATM   12  O1  UNL     1     -23.624   2.153 -10.412  1.00  0.00    -0.369 OA
ATOM     13  H1  UNL     1     -23.193   1.308 -10.464  1.00  0.00     0.212 HD
ENDBRANCH   1  12
TORSDOF 1
ENDMDL
MODEL 3
REMARK VINA RESULT: -5.037959628      2.922      3.894
REMARK  1 active torsions:
REMARK  status: ('A' for Active; 'I' for Inactive)
REMARK    1  A    between atoms: O1_1  and  C1_3 
ROOT
HETATM    1  C1  UNL     1     -24.437   1.536 -12.955  1.00  0.00     0.150 C 
HETATM    2  C2  UNL     1     -23.860   2.385 -14.026  1.00  0.00     0.062 C 
HETATM    3  C3  UNL     1     -24.195   3.818 -14.025  1.00  0.00     0.005 C 
HETATM    4  C4  UNL     1     -24.191   4.538 -12.740  1.00  0.00     0.003 C 
HETATM    5  C5  UNL     1     -25.543   4.516 -12.033  1.00  0.00     0.034 C 
HETATM    6  C6  UNL     1     -25.789   3.200 -11.333  1.00  0.00     0.152 C 
HETATM    7  C7  UNL     1     -26.687   2.352 -12.203  1.00  0.00     0.039 C 
HETATM    8  C8  UNL     1     -25.947   1.388 -13.060  1.00  0.00     0.065 C 
HETATM    9  O2  UNL     1     -24.680   2.579 -10.874  1.00  0.00    -0.277 OA
HETATM   10  N1  UNL     1     -23.997   1.801 -11.641  1.00  0.00    -0.267 N 
ATOM     11  H1  UNL     1     -23.136   1.377 -11.297  1.00  0.00     0.191 HD
ENDROOT
BRANCH   1  12
HETATM   12  O1  UNL     1     -23.961   0.222 -13.239  1.00  0.00    -0.369 OA
ATOM     13  H1  UNL     1     -23.097   0.188 -12.845  1.00  0.00     0.212 HD
ENDBRANCH   1  12
TORSDOF 1
ENDMDL
MODEL 4
REMARK VINA RESULT: -5.024378937      2.256      3.737
REMARK  1 active torsions:
REMARK  status: ('A' for Active; 'I' for Inactive)
REMARK    1  A    between atoms: O1_1  and  C1_3 
ROOT
HETATM    1  C1  UNL     1     -24.690   2.386 -11.265  1.00  0.00     0.150 C 
HETATM    2  C2  UNL     1     -24.960   1.259 -12.191  1.00  0.00     0.062 C 
HETATM    3  C3  UNL     1     -26.114   1.373 -13.098  1.00  0.00     0.005 C 
HETATM    4  C4  UNL     1     -26.349   2.660 -13.773  1.00  0.00     0.003 C 
HETATM    5  C5  UNL     1     -27.249   3.601 -12.977  1.00  0.00     0.034 C 
HETATM    6  C6  UNL     1     -26.495   4.287 -11.861  1.00  0.00     0.152 C 
HETATM    7  C7  UNL     1     -26.791   3.566 -10.567  1.00  0.00     0.039 C 
HETATM    8  C8  UNL     1     -25.765   2.554 -10.201  1.00  0.00     0.065 C 
HETATM    9  O2  UNL     1     -25.187   4.513 -12.107  1.00  0.00    -0.277 OA
HETATM   10  N1  UNL     1     -24.305   3.607 -11.860  1.00  0.00    -0.267 N 
ATOM     11  H1  UNL     1     -23.326   3.771 -12.095  1.00  0.00     0.191 HD
ENDROOT
BRANCH   1  12
HETATM   12  O1  UNL     1     -23.551   1.973 -10.514  1.00  0.00    -0.369 OA
ATOM     13  H1  UNL     1     -23.220   1.212 -10.977  1.00  0.00     0.212 HD
ENDBRANCH   1  12
TORSDOF 1
ENDMDL
MODEL 5
REMARK VINA RESULT: -4.986644143      4.254      5.379
REMARK  1 active torsions:
REMARK  status: ('A' for Active; 'I' for Inactive)
REMARK    1  A    between atoms: O1_1  and  C1_3 
ROOT
HETATM    1  C1  UNL     1     -27.703   3.500 -13.408  1.00  0.00     0.150 C 
HETATM    2  C2  UNL     1     -28.963   4.169 -13.814  1.00  0.00     0.062 C 
HETATM    3  C3  UNL     1     -29.060   5.626 -13.635  1.00  0.00     0.005 C 
HETATM    4  C4  UNL     1     -27.899   6.455 -13.999  1.00  0.00     0.003 C 
HETATM    5  C5  UNL     1     -26.925   6.667 -12.843  1.00  0.00     0.034 C 
HETATM    6  C6  UNL     1     -26.039   5.463 -12.627  1.00  0.00     0.152 C 
HETATM    7  C7  UNL     1     -26.595   4.657 -11.476  1.00  0.00     0.039 C 
HETATM    8  C8  UNL     1     -27.469   3.533 -11.905  1.00  0.00     0.065 C 
HETATM    9  O2  UNL     1     -25.754   4.754 -13.741  1.00  0.00    -0.277 OA
HETATM   10  N1  UNL     1     -26.551   3.829 -14.154  1.00  0.00    -0.267 N 
ATOM     11  H1  UNL     1     -26.349   3.334 -15.022  1.00  0.00     0.191 HD
ENDROOT
BRANCH   1  12
HETATM   12  O1  UNL     1     -27.924   2.117 -13.673  1.00  0.00    -0.369 OA
ATOM     13  H1  UNL     1     -28.590   2.105 -14.350  1.00  0.00     0.212 HD
ENDBRANCH   1  12
TORSDOF 1
ENDMDL
