MODEL 1
REMARK VINA RESULT: -5.079933944      0.000      0.000
REMARK  1 active torsions:
REMARK  status: ('A' for Active; 'I' for Inactive)
REMARK    1  A    between atoms: C5_7  and  O1_8 
ROOT
HETATM    1  C1  UNL     1     -23.264  -0.282 -14.818  1.00  0.00     0.145 C 
HETATM    2  N1  UNL     1     -23.351   1.147 -14.795  1.00  0.00    -0.401 N 
ATOM      3  H1  UNL     1     -22.820   1.714 -15.455  1.00  0.00     0.158 HD
HETATM    4  C2  UNL     1     -24.107   1.686 -13.934  1.00  0.00    -0.018 C 
HETATM    5  C3  UNL     1     -24.209   3.162 -13.894  1.00  0.00     0.054 C 
HETATM    6  C4  UNL     1     -24.131   3.730 -12.522  1.00  0.00     0.038 C 
HETATM    7  C5  UNL     1     -24.428   2.732 -11.434  1.00  0.00     0.126 C 
HETATM    8  C6  UNL     1     -25.467   1.754 -11.902  1.00  0.00    -0.017 C 
HETATM    9  C7  UNL     1     -26.729   2.413 -12.390  1.00  0.00     0.018 C 
HETATM   10  C8  UNL     1     -25.827   0.817 -10.750  1.00  0.00     0.018 C 
HETATM   11  C9  UNL     1     -24.873   0.877 -12.986  1.00  0.00     0.063 C 
ENDROOT
BRANCH   7  12
HETATM   12  O1  UNL     1     -23.316   2.036 -11.013  1.00  0.00    -0.395 OA
ATOM     13  H1  UNL     1     -23.158   1.242 -11.510  1.00  0.00     0.210 HD
ENDBRANCH   7  12
TORSDOF 1
ENDMDL
MODEL 2
REMARK VINA RESULT: -4.983686471      2.362      4.009
REMARK  1 active torsions:
REMARK  status: ('A' for Active; 'I' for Inactive)
REMARK    1  A    between atoms: C5_7  and  O1_8 
ROOT
HETATM    1  C1  UNL     1     -27.405   3.220  -9.186  1.00  0.00     0.145 C 
HETATM    2  N1  UNL     1     -27.317   2.152 -10.136  1.00  0.00    -0.401 N 
ATOM      3  H1  UNL     1     -27.777   1.259  -9.963  1.00  0.00     0.158 HD
HETATM    4  C2  UNL     1     -26.652   2.348 -11.196  1.00  0.00    -0.018 C 
HETATM    5  C3  UNL     1     -26.549   1.255 -12.189  1.00  0.00     0.054 C 
HETATM    6  C4  UNL     1     -25.172   1.050 -12.712  1.00  0.00     0.038 C 
HETATM    7  C5  UNL     1     -24.265   2.236 -12.512  1.00  0.00     0.126 C 
HETATM    8  C6  UNL     1     -25.049   3.511 -12.631  1.00  0.00    -0.017 C 
HETATM    9  C7  UNL     1     -25.810   3.624 -13.925  1.00  0.00     0.018 C 
HETATM   10  C8  UNL     1     -24.093   4.698 -12.529  1.00  0.00     0.018 C 
HETATM   11  C9  UNL     1     -25.991   3.627 -11.450  1.00  0.00     0.063 C 
ENDROOT
BRANCH   7  12
HETATM   12  O1  UNL     1     -23.611   2.225 -11.300  1.00  0.00    -0.395 OA
ATOM     13  H1  UNL     1     -24.141   1.885 -10.588  1.00  0.00     0.210 HD
ENDBRANCH   7  12
TORSDOF 1
ENDMDL
MODEL 3
REMARK VINA RESULT: -4.981812914      2.503      3.692
REMARK  1 active torsions:
REMARK  status: ('A' for Active; 'I' for Inactive)
REMARK    1  A    between atoms: C5_7  and  O1_8 
ROOT
HETATM    1  C1  UNL     1     -24.064   3.052 -12.282  1.00  0.00     0.145 C 
HETATM    2  N1  UNL     1     -25.255   3.567 -11.679  1.00  0.00    -0.401 N 
ATOM      3  H1  UNL     1     -25.546   4.532 -11.835  1.00  0.00     0.158 HD
HETATM    4  C2  UNL     1     -25.939   2.792 -10.947  1.00  0.00    -0.018 C 
HETATM    5  C3  UNL     1     -27.174   3.307 -10.314  1.00  0.00     0.054 C 
HETATM    6  C4  UNL     1     -27.311   2.936  -8.881  1.00  0.00     0.038 C 
HETATM    7  C5  UNL     1     -26.456   1.765  -8.474  1.00  0.00     0.126 C 
HETATM    8  C6  UNL     1     -26.347   0.786  -9.607  1.00  0.00    -0.017 C 
HETATM    9  C7  UNL     1     -27.683   0.327 -10.129  1.00  0.00     0.018 C 
HETATM   10  C8  UNL     1     -25.565  -0.439  -9.138  1.00  0.00     0.018 C 
HETATM   11  C9  UNL     1     -25.528   1.406 -10.722  1.00  0.00     0.063 C 
ENDROOT
BRANCH   7  12
HETATM   12  O1  UNL     1     -25.189   2.126  -8.071  1.00  0.00    -0.395 OA
ATOM     13  H1  UNL     1     -25.181   2.656  -7.283  1.00  0.00     0.210 HD
ENDBRANCH   7  12
TORSDOF 1
ENDMDL
MODEL 4
REMARK VINA RESULT: -4.974106170      2.291      3.359
REMARK  1 active torsions:
REMARK  status: ('A' for Active; 'I' for Inactive)
REMARK    1  A    between atoms: C5_7  and  O1_8 
ROOT
HETATM    1  C1  UNL     1     -24.380   2.049  -9.640  1.00  0.00     0.145 C 
HETATM    2  N1  UNL     1     -23.842   1.948 -10.963  1.00  0.00    -0.401 N 
ATOM      3  H1  UNL     1     -23.016   1.380 -11.150  1.00  0.00     0.158 HD
HETATM    4  C2  UNL     1     -24.420   2.583 -11.894  1.00  0.00    -0.018 C 
HETATM    5  C3  UNL     1     -23.877   2.493 -13.268  1.00  0.00     0.054 C 
HETATM    6  C4  UNL     1     -23.789   3.804 -13.964  1.00  0.00     0.038 C 
HETATM    7  C5  UNL     1     -24.665   4.870 -13.361  1.00  0.00     0.126 C 
HETATM    8  C6  UNL     1     -25.932   4.260 -12.835  1.00  0.00    -0.017 C 
HETATM    9  C7  UNL     1     -26.683   3.462 -13.867  1.00  0.00     0.018 C 
HETATM   10  C8  UNL     1     -26.848   5.371 -12.324  1.00  0.00     0.018 C 
HETATM   11  C9  UNL     1     -25.606   3.398 -11.632  1.00  0.00     0.063 C 
ENDROOT
BRANCH   7  12
HETATM   12  O1  UNL     1     -24.052   5.572 -12.347  1.00  0.00    -0.395 OA
ATOM     13  H1  UNL     1     -23.499   6.279 -12.660  1.00  0.00     0.210 HD
ENDBRANCH   7  12
TORSDOF 1
ENDMDL
MODEL 5
REMARK VINA RESULT: -4.912947320      6.241      7.367
REMARK  1 active torsions:
REMARK  status: ('A' for Active; 'I' for Inactive)
REMARK    1  A    between atoms: C5_7  and  O1_8 
ROOT
HETATM    1  C1  UNL     1     -29.185   7.587 -16.158  1.00  0.00     0.145 C 
HETATM    2  N1  UNL     1     -28.695   8.767 -15.513  1.00  0.00    -0.401 N 
ATOM      3  H1  UNL     1     -29.082   9.684 -15.735  1.00  0.00     0.158 HD
HETATM    4  C2  UNL     1     -27.770   8.641 -14.658  1.00  0.00    -0.018 C 
HETATM    5  C3  UNL     1     -27.250   9.851 -13.982  1.00  0.00     0.054 C 
HETATM    6  C4  UNL     1     -25.765   9.904 -13.909  1.00  0.00     0.038 C 
HETATM    7  C5  UNL     1     -25.101   8.566 -14.098  1.00  0.00     0.126 C 
HETATM    8  C6  UNL     1     -25.951   7.480 -13.506  1.00  0.00    -0.017 C 
HETATM    9  C7  UNL     1     -26.296   7.713 -12.059  1.00  0.00     0.018 C 
HETATM   10  C8  UNL     1     -25.211   6.148 -13.616  1.00  0.00     0.018 C 
HETATM   11  C9  UNL     1     -27.212   7.329 -14.334  1.00  0.00     0.063 C 
ENDROOT
BRANCH   7  12
HETATM   12  O1  UNL     1     -24.844   8.265 -15.417  1.00  0.00    -0.395 OA
ATOM     13  H1  UNL     1     -24.208   7.568 -15.528  1.00  0.00     0.210 HD
ENDBRANCH   7  12
TORSDOF 1
ENDMDL
