MODEL 1
REMARK VINA RESULT: -5.367286520      0.000      0.000
REMARK  1 active torsions:
REMARK  status: ('A' for Active; 'I' for Inactive)
REMARK    1  A    between atoms: O1_1  and  C1_3 
ROOT
HETATM    1  C1  UNL     1     -27.014   8.919 -15.074  1.00  0.00     0.318 C 
HETATM    2  C2  UNL     1     -27.273   8.566 -16.521  1.00  0.00     0.061 C 
HETATM    3  C3  UNL     1     -28.708   8.794 -16.877  1.00  0.00     0.004 C 
HETATM    4  C4  UNL     1     -29.677   7.878 -16.171  1.00  0.00     0.000 C 
HETATM    5  C5  UNL     1     -29.520   6.452 -16.438  1.00  0.00     0.000 C 
HETATM    6  C6  UNL     1     -28.800   5.584 -15.484  1.00  0.00     0.000 C 
HETATM    7  C7  UNL     1     -28.976   5.808 -14.042  1.00  0.00     0.002 C 
HETATM    8  C8  UNL     1     -27.643   6.010 -13.302  1.00  0.00     0.027 C 
HETATM    9  C9  UNL     1     -27.292   7.463 -13.217  1.00  0.00     0.235 C 
HETATM   10  N1  UNL     1     -26.463   7.846 -14.311  1.00  0.00    -0.049 N 
ATOM     11  H11 UNL     1     -25.520   8.070 -13.994  1.00  0.00     0.280 HD
ATOM     12  H12 UNL     1     -26.251   7.045 -14.906  1.00  0.00     0.280 HD
ENDROOT
BRANCH   1  13
HETATM   13  O1  UNL     1     -26.154  10.017 -14.947  1.00  0.00    -0.370 OA
ATOM     14  H1  UNL     1     -25.454   9.852 -14.326  1.00  0.00     0.212 HD
ENDBRANCH   1  13
TORSDOF 1
ENDMDL
MODEL 2
REMARK VINA RESULT: -5.324382903      3.568      4.899
REMARK  1 active torsions:
REMARK  status: ('A' for Active; 'I' for Inactive)
REMARK    1  A    between atoms: O1_1  and  C1_3 
ROOT
HETATM    1  C1  UNL     1     -27.534   3.555 -13.564  1.00  0.00     0.318 C 
HETATM    2  C2  UNL     1     -28.587   4.432 -12.927  1.00  0.00     0.061 C 
HETATM    3  C3  UNL     1     -28.938   5.580 -13.820  1.00  0.00     0.004 C 
HETATM    4  C4  UNL     1     -27.817   6.569 -14.031  1.00  0.00     0.000 C 
HETATM    5  C5  UNL     1     -27.331   7.250 -12.836  1.00  0.00     0.000 C 
HETATM    6  C6  UNL     1     -26.106   6.787 -12.153  1.00  0.00     0.000 C 
HETATM    7  C7  UNL     1     -24.970   6.322 -12.962  1.00  0.00     0.002 C 
HETATM    8  C8  UNL     1     -24.502   4.909 -12.578  1.00  0.00     0.027 C 
HETATM    9  C9  UNL     1     -25.183   3.871 -13.415  1.00  0.00     0.235 C 
HETATM   10  N1  UNL     1     -26.360   3.395 -12.768  1.00  0.00    -0.049 N 
ATOM     11  H11 UNL     1     -26.248   2.425 -12.475  1.00  0.00     0.280 HD
ATOM     12  H12 UNL     1     -26.476   3.831 -11.853  1.00  0.00     0.280 HD
ENDROOT
BRANCH   1  13
HETATM   13  O1  UNL     1     -28.024   2.278 -13.862  1.00  0.00    -0.370 OA
ATOM     14  H1  UNL     1     -28.885   2.310 -14.262  1.00  0.00     0.212 HD
ENDBRANCH   1  13
TORSDOF 1
ENDMDL
MODEL 3
REMARK VINA RESULT: -5.315432177      3.222      4.879
REMARK  1 active torsions:
REMARK  status: ('A' for Active; 'I' for Inactive)
REMARK    1  A    between atoms: O1_1  and  C1_3 
ROOT
HETATM    1  C1  UNL     1     -29.035   3.755 -16.330  1.00  0.00     0.318 C 
HETATM    2  C2  UNL     1     -28.019   3.657 -15.216  1.00  0.00     0.061 C 
HETATM    3  C3  UNL     1     -28.664   3.876 -13.884  1.00  0.00     0.004 C 
HETATM    4  C4  UNL     1     -29.201   5.270 -13.674  1.00  0.00     0.000 C 
HETATM    5  C5  UNL     1     -28.217   6.348 -13.716  1.00  0.00     0.000 C 
HETATM    6  C6  UNL     1     -28.037   7.153 -14.940  1.00  0.00     0.000 C 
HETATM    7  C7  UNL     1     -29.220   7.523 -15.731  1.00  0.00     0.002 C 
HETATM    8  C8  UNL     1     -29.106   7.105 -17.207  1.00  0.00     0.027 C 
HETATM    9  C9  UNL     1     -29.707   5.752 -17.429  1.00  0.00     0.235 C 
HETATM   10  N1  UNL     1     -28.714   4.736 -17.317  1.00  0.00    -0.049 N 
ATOM     11  H11 UNL     1     -28.535   4.299 -18.220  1.00  0.00     0.280 HD
ATOM     12  H12 UNL     1     -27.794   5.141 -17.143  1.00  0.00     0.280 HD
ENDROOT
BRANCH   1  13
HETATM   13  O1  UNL     1     -29.214   2.532 -16.988  1.00  0.00    -0.370 OA
ATOM     14  H1  UNL     1     -29.047   1.792 -16.417  1.00  0.00     0.212 HD
ENDBRANCH   1  13
TORSDOF 1
ENDMDL
MODEL 4
REMARK VINA RESULT: -5.301979861      1.825      3.368
REMARK  1 active torsions:
REMARK  status: ('A' for Active; 'I' for Inactive)
REMARK    1  A    between atoms: O1_1  and  C1_3 
ROOT
HETATM    1  C1  UNL     1     -27.502   5.957 -13.363  1.00  0.00     0.318 C 
HETATM    2  C2  UNL     1     -28.912   5.464 -13.594  1.00  0.00     0.061 C 
HETATM    3  C3  UNL     1     -29.008   4.697 -14.874  1.00  0.00     0.004 C 
HETATM    4  C4  UNL     1     -28.778   5.526 -16.114  1.00  0.00     0.000 C 
HETATM    5  C5  UNL     1     -29.723   6.615 -16.340  1.00  0.00     0.000 C 
HETATM    6  C6  UNL     1     -29.374   8.001 -15.970  1.00  0.00     0.000 C 
HETATM    7  C7  UNL     1     -28.001   8.475 -16.192  1.00  0.00     0.002 C 
HETATM    8  C8  UNL     1     -27.353   9.048 -14.920  1.00  0.00     0.027 C 
HETATM    9  C9  UNL     1     -26.588   7.991 -14.185  1.00  0.00     0.235 C 
HETATM   10  N1  UNL     1     -27.408   7.371 -13.197  1.00  0.00    -0.049 N 
ATOM     11  H11 UNL     1     -27.089   7.608 -12.258  1.00  0.00     0.280 HD
ATOM     12  H12 UNL     1     -28.334   7.799 -13.170  1.00  0.00     0.280 HD
ENDROOT
BRANCH   1  13
HETATM   13  O1  UNL     1     -26.911   5.357 -12.245  1.00  0.00    -0.370 OA
ATOM     14  H1  UNL     1     -26.225   5.896 -11.871  1.00  0.00     0.212 HD
ENDBRANCH   1  13
TORSDOF 1
ENDMDL
MODEL 5
REMARK VINA RESULT: -5.276024741      1.807      3.551
REMARK  1 active torsions:
REMARK  status: ('A' for Active; 'I' for Inactive)
REMARK    1  A    between atoms: O1_1  and  C1_3 
ROOT
HETATM    1  C1  UNL     1     -25.653   7.853 -13.086  1.00  0.00     0.318 C 
HETATM    2  C2  UNL     1     -27.091   7.768 -12.626  1.00  0.00     0.061 C 
HETATM    3  C3  UNL     1     -27.768   6.570 -13.212  1.00  0.00     0.004 C 
HETATM    4  C4  UNL     1     -27.940   6.622 -14.710  1.00  0.00     0.000 C 
HETATM    5  C5  UNL     1     -28.758   7.716 -15.223  1.00  0.00     0.000 C 
HETATM    6  C6  UNL     1     -28.127   8.935 -15.766  1.00  0.00     0.000 C 
HETATM    7  C7  UNL     1     -26.901   8.809 -16.567  1.00  0.00     0.002 C 
HETATM    8  C8  UNL     1     -25.746   9.672 -16.032  1.00  0.00     0.027 C 
HETATM    9  C9  UNL     1     -24.890   8.893 -15.081  1.00  0.00     0.235 C 
HETATM   10  N1  UNL     1     -25.330   9.080 -13.739  1.00  0.00    -0.049 N 
ATOM     11  H11 UNL     1     -24.646   9.611 -13.201  1.00  0.00     0.280 HD
ATOM     12  H12 UNL     1     -26.114   9.733 -13.699  1.00  0.00     0.280 HD
ENDROOT
BRANCH   1  13
HETATM   13  O1  UNL     1     -24.752   7.684 -12.027  1.00  0.00    -0.370 OA
ATOM     14  H1  UNL     1     -24.021   8.288 -12.081  1.00  0.00     0.212 HD
ENDBRANCH   1  13
TORSDOF 1
ENDMDL
