MODEL 1
REMARK VINA RESULT: -5.368923763      0.000      0.000
REMARK  2 active torsions:
REMARK  status: ('A' for Active; 'I' for Inactive)
REMARK    1  A    between atoms: N2_4  and  C1_6 
REMARK    2  A    between atoms: C1_6  and  O1_7 
ROOT
HETATM    1  C1  UNL     1     -24.887   1.438 -11.750  1.00  0.00     0.144 C 
HETATM    2  C2  UNL     1     -25.692   0.784 -10.630  1.00  0.00     0.067 C 
HETATM    3  C3  UNL     1     -27.119   1.141 -10.915  1.00  0.00    -0.006 C 
HETATM    4  C4  UNL     1     -27.946   1.318  -9.677  1.00  0.00     0.005 C 
HETATM    5  C5  UNL     1     -27.856   2.780  -9.285  1.00  0.00     0.001 C 
HETATM    6  C6  UNL     1     -26.806   3.359 -10.214  1.00  0.00     0.005 C 
HETATM    7  C7  UNL     1     -27.021   2.552 -11.466  1.00  0.00    -0.006 C 
HETATM    8  C8  UNL     1     -25.819   2.491 -12.346  1.00  0.00     0.067 C 
ENDROOT
BRANCH   1   9
HETATM    9  N2  UNL     1     -23.714   2.061 -11.232  1.00  0.00    -0.308 N 
HETATM   10  N1  UNL     1     -23.457   2.046 -10.004  1.00  0.00    -0.347 N 
ATOM     11  H12 UNL     1     -24.111   1.576  -9.378  1.00  0.00     0.176 HD
ATOM     12  H11 UNL     1     -22.618   2.491  -9.632  1.00  0.00     0.176 HD
ATOM     13  H2  UNL     1     -23.069   2.527 -11.871  1.00  0.00     0.183 HD
ENDBRANCH   1   9
BRANCH   1  14
HETATM   14  O1  UNL     1     -24.526   0.498 -12.725  1.00  0.00    -0.370 OA
ATOM     15  H1  UNL     1     -25.248  -0.102 -12.869  1.00  0.00     0.212 HD
ENDBRANCH   1  14
TORSDOF 2
ENDMDL
MODEL 2
REMARK VINA RESULT: -5.294590421      1.934      2.911
REMARK  2 active torsions:
REMARK  status: ('A' for Active; 'I' for Inactive)
REMARK    1  A    between atoms: N2_4  and  C1_6 
REMARK    2  A    between atoms: C1_6  and  O1_7 
ROOT
HETATM    1  C1  UNL     1     -24.486   2.116 -11.995  1.00  0.00     0.144 C 
HETATM    2  C2  UNL     1     -25.713   2.890 -11.517  1.00  0.00     0.067 C 
HETATM    3  C3  UNL     1     -26.163   3.680 -12.708  1.00  0.00    -0.006 C 
HETATM    4  C4  UNL     1     -26.766   5.005 -12.349  1.00  0.00     0.005 C 
HETATM    5  C5  UNL     1     -25.640   6.020 -12.339  1.00  0.00     0.001 C 
HETATM    6  C6  UNL     1     -24.380   5.192 -12.503  1.00  0.00     0.005 C 
HETATM    7  C7  UNL     1     -24.860   4.068 -13.382  1.00  0.00    -0.006 C 
HETATM    8  C8  UNL     1     -24.036   2.831 -13.266  1.00  0.00     0.067 C 
ENDROOT
BRANCH   1   9
HETATM    9  N2  UNL     1     -23.450   2.157 -11.016  1.00  0.00    -0.308 N 
HETATM   10  N1  UNL     1     -23.700   2.005  -9.796  1.00  0.00    -0.347 N 
ATOM     11  H12 UNL     1     -24.668   1.849  -9.516  1.00  0.00     0.176 HD
ATOM     12  H11 UNL     1     -22.959   2.035  -9.096  1.00  0.00     0.176 HD
ATOM     13  H2  UNL     1     -22.487   2.314 -11.313  1.00  0.00     0.183 HD
ENDBRANCH   1   9
BRANCH   1  14
HETATM   14  O1  UNL     1     -24.813   0.782 -12.274  1.00  0.00    -0.370 OA
ATOM     15  H1  UNL     1     -24.044   0.237 -12.157  1.00  0.00     0.212 HD
ENDBRANCH   1  14
TORSDOF 2
ENDMDL
MODEL 3
REMARK VINA RESULT: -5.176581036      1.181      1.415
REMARK  2 active torsions:
REMARK  status: ('A' for Active; 'I' for Inactive)
REMARK    1  A    between atoms: N2_4  and  C1_6 
REMARK    2  A    between atoms: C1_6  and  O1_7 
ROOT
HETATM    1  C1  UNL     1     -25.163   1.336 -10.924  1.00  0.00     0.144 C 
HETATM    2  C2  UNL     1     -25.504   0.296  -9.859  1.00  0.00     0.067 C 
HETATM    3  C3  UNL     1     -26.998   0.318  -9.758  1.00  0.00    -0.006 C 
HETATM    4  C4  UNL     1     -27.505   0.037  -8.375  1.00  0.00     0.005 C 
HETATM    5  C5  UNL     1     -27.627   1.372  -7.666  1.00  0.00     0.001 C 
HETATM    6  C6  UNL     1     -26.990   2.367  -8.616  1.00  0.00     0.005 C 
HETATM    7  C7  UNL     1     -27.340   1.783  -9.958  1.00  0.00    -0.006 C 
HETATM    8  C8  UNL     1     -26.413   2.202 -11.048  1.00  0.00     0.067 C 
ENDROOT
BRANCH   1   9
HETATM    9  N2  UNL     1     -24.053   2.133 -10.515  1.00  0.00    -0.308 N 
HETATM   10  N1  UNL     1     -23.526   1.985  -9.386  1.00  0.00    -0.347 N 
ATOM     11  H12 UNL     1     -23.910   1.276  -8.761  1.00  0.00     0.176 HD
ATOM     12  H11 UNL     1     -22.732   2.555  -9.093  1.00  0.00     0.176 HD
ATOM     13  H2  UNL     1     -23.681   2.838 -11.152  1.00  0.00     0.183 HD
ENDBRANCH   1   9
BRANCH   1  14
HETATM   14  O1  UNL     1     -24.870   0.722 -12.149  1.00  0.00    -0.370 OA
ATOM     15  H1  UNL     1     -25.676   0.574 -12.630  1.00  0.00     0.212 HD
ENDBRANCH   1  14
TORSDOF 2
ENDMDL
MODEL 4
REMARK VINA RESULT: -5.136585947      7.696      8.624
REMARK  2 active torsions:
REMARK  status: ('A' for Active; 'I' for Inactive)
REMARK    1  A    between atoms: N2_4  and  C1_6 
REMARK    2  A    between atoms: C1_6  and  O1_7 
ROOT
HETATM    1  C1  UNL     1     -26.206   9.254 -15.424  1.00  0.00     0.144 C 
HETATM    2  C2  UNL     1     -26.744   8.725 -16.752  1.00  0.00     0.067 C 
HETATM    3  C3  UNL     1     -28.221   8.966 -16.697  1.00  0.00    -0.006 C 
HETATM    4  C4  UNL     1     -29.021   7.921 -17.416  1.00  0.00     0.005 C 
HETATM    5  C5  UNL     1     -29.352   6.840 -16.405  1.00  0.00     0.001 C 
HETATM    6  C6  UNL     1     -28.551   7.213 -15.173  1.00  0.00     0.005 C 
HETATM    7  C7  UNL     1     -28.562   8.716 -15.239  1.00  0.00    -0.006 C 
HETATM    8  C8  UNL     1     -27.425   9.351 -14.511  1.00  0.00     0.067 C 
ENDROOT
BRANCH   1   9
HETATM    9  N2  UNL     1     -25.250   8.352 -14.871  1.00  0.00    -0.308 N 
HETATM   10  N1  UNL     1     -25.142   8.198 -13.630  1.00  0.00    -0.347 N 
ATOM     11  H12 UNL     1     -25.756   8.736 -13.020  1.00  0.00     0.176 HD
ATOM     12  H11 UNL     1     -24.458   7.552 -13.234  1.00  0.00     0.176 HD
ATOM     13  H2  UNL     1     -24.643   7.820 -15.495  1.00  0.00     0.183 HD
ENDBRANCH   1   9
BRANCH   1  14
HETATM   14  O1  UNL     1     -25.618  10.515 -15.588  1.00  0.00    -0.370 OA
ATOM     15  H1  UNL     1     -25.264  10.588 -16.467  1.00  0.00     0.212 HD
ENDBRANCH   1  14
TORSDOF 2
ENDMDL
MODEL 5
REMARK VINA RESULT: -5.085924610      5.322      6.320
REMARK  2 active torsions:
REMARK  status: ('A' for Active; 'I' for Inactive)
REMARK    1  A    between atoms: N2_4  and  C1_6 
REMARK    2  A    between atoms: C1_6  and  O1_7 
ROOT
HETATM    1  C1  UNL     1     -25.158   6.677 -12.756  1.00  0.00     0.144 C 
HETATM    2  C2  UNL     1     -25.303   7.757 -13.825  1.00  0.00     0.067 C 
HETATM    3  C3  UNL     1     -26.568   8.481 -13.480  1.00  0.00    -0.006 C 
HETATM    4  C4  UNL     1     -27.311   8.986 -14.681  1.00  0.00     0.005 C 
HETATM    5  C5  UNL     1     -28.274   7.893 -15.101  1.00  0.00     0.001 C 
HETATM    6  C6  UNL     1     -27.905   6.706 -14.233  1.00  0.00     0.005 C 
HETATM    7  C7  UNL     1     -27.470   7.377 -12.959  1.00  0.00    -0.006 C 
HETATM    8  C8  UNL     1     -26.546   6.544 -12.135  1.00  0.00     0.067 C 
ENDROOT
BRANCH   1   9
HETATM    9  N2  UNL     1     -24.762   5.437 -13.340  1.00  0.00    -0.308 N 
HETATM   10  N1  UNL     1     -24.008   4.642 -12.730  1.00  0.00    -0.347 N 
ATOM     11  H12 UNL     1     -23.681   4.901 -11.799  1.00  0.00     0.176 HD
ATOM     12  H11 UNL     1     -23.725   3.755 -13.148  1.00  0.00     0.176 HD
ATOM     13  H2  UNL     1     -25.099   5.193 -14.271  1.00  0.00     0.183 HD
ENDBRANCH   1   9
BRANCH   1  14
HETATM   14  O1  UNL     1     -24.223   7.056 -11.783  1.00  0.00    -0.370 OA
ATOM     15  H1  UNL     1     -24.160   8.003 -11.755  1.00  0.00     0.212 HD
ENDBRANCH   1  14
TORSDOF 2
ENDMDL
