MODEL 1
REMARK VINA RESULT: -4.281366371      0.000      0.000
REMARK  2 active torsions:
REMARK  status: ('A' for Active; 'I' for Inactive)
REMARK    1  A    between atoms: O1_1  and  C1_3 
REMARK    2  A    between atoms: C4_6  and  N1_7 
ROOT
HETATM    1  C1  UNL     1     -29.296   8.258 -30.230  1.00  0.00     0.120 C 
HETATM    2  C2  UNL     1     -29.993   7.719 -31.466  1.00  0.00     0.034 C 
HETATM    3  C3  UNL     1     -28.808   7.147 -32.237  1.00  0.00     0.038 C 
HETATM    4  C4  UNL     1     -27.744   6.830 -31.250  1.00  0.00     0.225 C 
HETATM    5  C10 UNL     1     -28.400   7.070 -29.895  1.00  0.00     0.067 C 
ENDROOT
BRANCH   4   6
HETATM    6  N1  UNL     1     -27.162   5.537 -31.321  1.00  0.00     0.093 N 
HETATM    7  C5  UNL     1     -27.604   4.915 -32.544  1.00  0.00     0.273 C 
HETATM    8  C6  UNL     1     -26.972   3.583 -32.809  1.00  0.00     0.030 C 
HETATM    9  C7  UNL     1     -27.165   2.681 -31.634  1.00  0.00     0.003 C 
HETATM   10  C8  UNL     1     -26.923   3.302 -30.305  1.00  0.00     0.030 C 
HETATM   11  C9  UNL     1     -27.302   4.727 -30.154  1.00  0.00     0.273 C 
ENDBRANCH   4   6
BRANCH   1  12
HETATM   12  O1  UNL     1     -28.500   9.311 -30.631  1.00  0.00    -0.396 OA
ATOM     13  H1  UNL     1     -28.074   9.657 -29.855  1.00  0.00     0.210 HD
ENDBRANCH   1  12
TORSDOF 2
ENDMDL
MODEL 2
REMARK VINA RESULT: -4.233806790      2.303      4.756
REMARK  2 active torsions:
REMARK  status: ('A' for Active; 'I' for Inactive)
REMARK    1  A    between atoms: O1_1  and  C1_3 
REMARK    2  A    between atoms: C4_6  and  N1_7 
ROOT
HETATM    1  C1  UNL     1     -27.877   3.094 -32.572  1.00  0.00     0.120 C 
HETATM    2  C2  UNL     1     -27.501   2.915 -31.112  1.00  0.00     0.034 C 
HETATM    3  C3  UNL     1     -26.612   4.134 -30.892  1.00  0.00     0.038 C 
HETATM    4  C4  UNL     1     -27.007   5.160 -31.891  1.00  0.00     0.225 C 
HETATM    5  C10 UNL     1     -28.241   4.575 -32.570  1.00  0.00     0.067 C 
ENDROOT
BRANCH   4   6
HETATM    6  N1  UNL     1     -27.256   6.471 -31.407  1.00  0.00     0.093 N 
HETATM    7  C5  UNL     1     -28.276   6.385 -30.391  1.00  0.00     0.273 C 
HETATM    8  C6  UNL     1     -28.558   7.686 -29.705  1.00  0.00     0.030 C 
HETATM    9  C7  UNL     1     -28.878   8.740 -30.715  1.00  0.00     0.003 C 
HETATM   10  C8  UNL     1     -27.990   8.772 -31.907  1.00  0.00     0.030 C 
HETATM   11  C9  UNL     1     -27.486   7.468 -32.401  1.00  0.00     0.273 C 
ENDBRANCH   4   6
BRANCH   1  12
HETATM   12  O1  UNL     1     -26.727   2.924 -33.317  1.00  0.00    -0.396 OA
ATOM     13  H1  UNL     1     -26.893   2.223 -33.938  1.00  0.00     0.210 HD
ENDBRANCH   1  12
TORSDOF 2
ENDMDL
MODEL 3
REMARK VINA RESULT: -4.211143072      2.021      2.830
REMARK  2 active torsions:
REMARK  status: ('A' for Active; 'I' for Inactive)
REMARK    1  A    between atoms: O1_1  and  C1_3 
REMARK    2  A    between atoms: C4_6  and  N1_7 
ROOT
HETATM    1  C1  UNL     1     -26.293   7.588 -33.317  1.00  0.00     0.120 C 
HETATM    2  C2  UNL     1     -27.362   8.096 -32.366  1.00  0.00     0.034 C 
HETATM    3  C3  UNL     1     -28.402   6.988 -32.484  1.00  0.00     0.038 C 
HETATM    4  C4  UNL     1     -27.693   5.754 -32.911  1.00  0.00     0.225 C 
HETATM    5  C10 UNL     1     -26.216   6.131 -32.871  1.00  0.00     0.067 C 
ENDROOT
BRANCH   4   6
HETATM    6  N1  UNL     1     -27.945   4.573 -32.164  1.00  0.00     0.093 N 
HETATM    7  C5  UNL     1     -26.861   4.397 -31.229  1.00  0.00     0.273 C 
HETATM    8  C6  UNL     1     -27.053   3.247 -30.289  1.00  0.00     0.030 C 
HETATM    9  C7  UNL     1     -27.324   1.995 -31.058  1.00  0.00     0.003 C 
HETATM   10  C8  UNL     1     -28.289   2.131 -32.181  1.00  0.00     0.030 C 
HETATM   11  C9  UNL     1     -28.272   3.412 -32.926  1.00  0.00     0.273 C 
ENDBRANCH   4   6
BRANCH   1  12
HETATM   12  O1  UNL     1     -26.820   7.631 -34.592  1.00  0.00    -0.396 OA
ATOM     13  H1  UNL     1     -27.653   7.173 -34.570  1.00  0.00     0.210 HD
ENDBRANCH   1  12
TORSDOF 2
ENDMDL
MODEL 4
REMARK VINA RESULT: -4.101810949      3.779      5.422
REMARK  2 active torsions:
REMARK  status: ('A' for Active; 'I' for Inactive)
REMARK    1  A    between atoms: O1_1  and  C1_3 
REMARK    2  A    between atoms: C4_6  and  N1_7 
ROOT
HETATM    1  C1  UNL     1     -30.780   1.165 -34.769  1.00  0.00     0.120 C 
HETATM    2  C2  UNL     1     -29.658   1.286 -35.785  1.00  0.00     0.034 C 
HETATM    3  C3  UNL     1     -28.990   2.576 -35.321  1.00  0.00     0.038 C 
HETATM    4  C4  UNL     1     -29.297   2.744 -33.877  1.00  0.00     0.225 C 
HETATM    5  C10 UNL     1     -30.005   1.452 -33.487  1.00  0.00     0.067 C 
ENDROOT
BRANCH   4   6
HETATM    6  N1  UNL     1     -28.206   3.017 -33.012  1.00  0.00     0.093 N 
HETATM    7  C5  UNL     1     -28.241   2.060 -31.933  1.00  0.00     0.273 C 
HETATM    8  C6  UNL     1     -27.074   2.156 -31.000  1.00  0.00     0.030 C 
HETATM    9  C7  UNL     1     -26.937   3.553 -30.491  1.00  0.00     0.003 C 
HETATM   10  C8  UNL     1     -27.087   4.623 -31.512  1.00  0.00     0.030 C 
HETATM   11  C9  UNL     1     -28.061   4.375 -32.601  1.00  0.00     0.273 C 
ENDBRANCH   4   6
BRANCH   1  12
HETATM   12  O1  UNL     1     -31.657   2.206 -34.996  1.00  0.00    -0.396 OA
ATOM     13  H1  UNL     1     -31.431   2.904 -34.393  1.00  0.00     0.210 HD
ENDBRANCH   1  12
TORSDOF 2
ENDMDL
MODEL 5
REMARK VINA RESULT: -4.067475303      1.156      1.252
REMARK  2 active torsions:
REMARK  status: ('A' for Active; 'I' for Inactive)
REMARK    1  A    between atoms: O1_1  and  C1_3 
REMARK    2  A    between atoms: C4_6  and  N1_7 
ROOT
HETATM    1  C1  UNL     1     -28.375   8.374 -31.834  1.00  0.00     0.120 C 
HETATM    2  C2  UNL     1     -29.131   7.604 -32.902  1.00  0.00     0.034 C 
HETATM    3  C3  UNL     1     -28.062   6.614 -33.353  1.00  0.00     0.038 C 
HETATM    4  C4  UNL     1     -27.109   6.441 -32.226  1.00  0.00     0.225 C 
HETATM    5  C10 UNL     1     -27.741   7.214 -31.073  1.00  0.00     0.067 C 
ENDROOT
BRANCH   4   6
HETATM    6  N1  UNL     1     -26.794   5.111 -31.844  1.00  0.00     0.093 N 
HETATM    7  C5  UNL     1     -27.407   4.217 -32.795  1.00  0.00     0.273 C 
HETATM    8  C6  UNL     1     -27.059   2.776 -32.583  1.00  0.00     0.030 C 
HETATM    9  C7  UNL     1     -27.365   2.376 -31.176  1.00  0.00     0.003 C 
HETATM   10  C8  UNL     1     -26.943   3.344 -30.131  1.00  0.00     0.030 C 
HETATM   11  C9  UNL     1     -27.031   4.783 -30.477  1.00  0.00     0.273 C 
ENDBRANCH   4   6
BRANCH   1  12
HETATM   12  O1  UNL     1     -27.375   9.084 -32.467  1.00  0.00    -0.396 OA
ATOM     13  H1  UNL     1     -26.544   8.756 -32.141  1.00  0.00     0.210 HD
ENDBRANCH   1  12
TORSDOF 2
ENDMDL
