MODEL 1
REMARK VINA RESULT: -4.770467838      0.000      0.000
REMARK  1 active torsions:
REMARK  status: ('A' for Active; 'I' for Inactive)
REMARK    1  A    between atoms: C3_3  and  C4_4 
ROOT
HETATM    1  C4  UNL     1     -27.180   5.507 -31.998  1.00  0.00    -0.010 C 
HETATM    2  C5  UNL     1     -26.593   4.938 -30.752  1.00  0.00     0.005 C 
HETATM    3  C6  UNL     1     -26.707   3.478 -30.566  1.00  0.00     0.007 C 
HETATM    4  C7  UNL     1     -27.856   2.815 -31.198  1.00  0.00     0.017 C 
HETATM    5  C8  UNL     1     -27.756   1.364 -31.447  1.00  0.00     0.237 C 
HETATM    6  N1  UNL     1     -28.805   1.131 -32.451  1.00  0.00    -0.074 N 
ATOM      7  H11 UNL     1     -29.671   0.768 -32.053  1.00  0.00     0.277 HD
ATOM      8  H12 UNL     1     -28.606   0.342 -33.066  1.00  0.00     0.277 HD
HETATM    9  C9  UNL     1     -28.982   2.385 -33.165  1.00  0.00     0.237 C 
HETATM   10  C10 UNL     1     -27.972   3.337 -32.642  1.00  0.00     0.017 C 
HETATM   11  C11 UNL     1     -28.401   4.753 -32.495  1.00  0.00     0.011 C 
ENDROOT
BRANCH   1  12
HETATM   12  C3  UNL     1     -27.595   6.948 -31.833  1.00  0.00    -0.010 A 
HETATM   13  C1  UNL     1     -29.025   7.317 -31.717  1.00  0.00     0.005 A 
HETATM   14  C2  UNL     1     -28.154   7.306 -30.472  1.00  0.00     0.005 A 
ENDBRANCH   1  12
TORSDOF 1
ENDMDL
MODEL 2
REMARK VINA RESULT: -4.695996299      1.232      1.869
REMARK  1 active torsions:
REMARK  status: ('A' for Active; 'I' for Inactive)
REMARK    1  A    between atoms: C3_3  and  C4_4 
ROOT
HETATM    1  C4  UNL     1     -26.924   4.154 -31.946  1.00  0.00    -0.010 C 
HETATM    2  C5  UNL     1     -27.024   2.934 -31.096  1.00  0.00     0.005 C 
HETATM    3  C6  UNL     1     -27.883   1.842 -31.593  1.00  0.00     0.007 C 
HETATM    4  C7  UNL     1     -29.010   2.221 -32.455  1.00  0.00     0.017 C 
HETATM    5  C8  UNL     1     -29.578   1.183 -33.336  1.00  0.00     0.237 C 
HETATM    6  N1  UNL     1     -30.318   1.969 -34.334  1.00  0.00    -0.074 N 
ATOM      7  H11 UNL     1     -31.318   2.025 -34.143  1.00  0.00     0.277 HD
ATOM      8  H12 UNL     1     -30.387   1.507 -35.241  1.00  0.00     0.277 HD
HETATM    9  C9  UNL     1     -29.672   3.269 -34.401  1.00  0.00     0.237 C 
HETATM   10  C10 UNL     1     -28.491   3.222 -33.504  1.00  0.00     0.017 C 
HETATM   11  C11 UNL     1     -28.190   4.455 -32.730  1.00  0.00     0.011 C 
ENDROOT
BRANCH   1  12
HETATM   12  C3  UNL     1     -26.603   5.391 -31.144  1.00  0.00    -0.010 A 
HETATM   13  C1  UNL     1     -27.054   6.727 -31.599  1.00  0.00     0.005 A 
HETATM   14  C2  UNL     1     -27.787   6.040 -30.460  1.00  0.00     0.005 A 
ENDBRANCH   1  12
TORSDOF 1
ENDMDL
MODEL 3
REMARK VINA RESULT: -4.637038590      2.709      5.033
REMARK  1 active torsions:
REMARK  status: ('A' for Active; 'I' for Inactive)
REMARK    1  A    between atoms: C3_3  and  C4_4 
ROOT
HETATM    1  C4  UNL     1     -26.581   5.705 -30.973  1.00  0.00    -0.010 C 
HETATM    2  C5  UNL     1     -26.434   6.334 -32.317  1.00  0.00     0.005 C 
HETATM    3  C6  UNL     1     -27.157   7.601 -32.543  1.00  0.00     0.007 C 
HETATM    4  C7  UNL     1     -28.389   7.812 -31.771  1.00  0.00     0.017 C 
HETATM    5  C8  UNL     1     -28.860   9.199 -31.600  1.00  0.00     0.237 C 
HETATM    6  N1  UNL     1     -29.781   9.094 -30.459  1.00  0.00    -0.074 N 
ATOM      7  H11 UNL     1     -30.761   9.041 -30.735  1.00  0.00     0.277 HD
ATOM      8  H12 UNL     1     -29.848   9.954 -29.914  1.00  0.00     0.277 HD
HETATM    9  C9  UNL     1     -29.343   7.951 -29.675  1.00  0.00     0.237 C 
HETATM   10  C10 UNL     1     -28.104   7.433 -30.306  1.00  0.00     0.017 C 
HETATM   11  C11 UNL     1     -27.932   5.956 -30.327  1.00  0.00     0.011 C 
ENDROOT
BRANCH   1  12
HETATM   12  C3  UNL     1     -26.388   4.209 -31.014  1.00  0.00    -0.010 A 
HETATM   13  C1  UNL     1     -27.099   3.327 -30.058  1.00  0.00     0.005 A 
HETATM   14  C2  UNL     1     -27.587   3.418 -31.494  1.00  0.00     0.005 A 
ENDBRANCH   1  12
TORSDOF 1
ENDMDL
MODEL 4
REMARK VINA RESULT: -4.510715278      2.617      4.921
REMARK  1 active torsions:
REMARK  status: ('A' for Active; 'I' for Inactive)
REMARK    1  A    between atoms: C3_3  and  C4_4 
ROOT
HETATM    1  C4  UNL     1     -26.992   5.478 -31.341  1.00  0.00    -0.010 C 
HETATM    2  C5  UNL     1     -27.793   5.385 -32.595  1.00  0.00     0.005 C 
HETATM    3  C6  UNL     1     -28.823   6.420 -32.806  1.00  0.00     0.007 C 
HETATM    4  C7  UNL     1     -29.419   7.023 -31.606  1.00  0.00     0.017 C 
HETATM    5  C8  UNL     1     -30.063   8.343 -31.750  1.00  0.00     0.237 C 
HETATM    6  N1  UNL     1     -30.122   8.831 -30.364  1.00  0.00    -0.074 N 
ATOM      7  H11 UNL     1     -31.033   8.693 -29.927  1.00  0.00     0.277 HD
ATOM      8  H12 UNL     1     -30.100   9.848 -30.294  1.00  0.00     0.277 HD
HETATM    9  C9  UNL     1     -29.037   8.182 -29.648  1.00  0.00     0.237 C 
HETATM   10  C10 UNL     1     -28.277   7.376 -30.634  1.00  0.00     0.017 C 
HETATM   11  C11 UNL     1     -27.762   6.061 -30.168  1.00  0.00     0.011 C 
ENDROOT
BRANCH   1  12
HETATM   12  C3  UNL     1     -26.466   4.137 -30.893  1.00  0.00    -0.010 A 
HETATM   13  C1  UNL     1     -27.196   3.335 -29.883  1.00  0.00     0.005 A 
HETATM   14  C2  UNL     1     -27.277   2.942 -31.348  1.00  0.00     0.005 A 
ENDBRANCH   1  12
TORSDOF 1
ENDMDL
MODEL 5
REMARK VINA RESULT: -4.489963030      0.771      1.030
REMARK  1 active torsions:
REMARK  status: ('A' for Active; 'I' for Inactive)
REMARK    1  A    between atoms: C3_3  and  C4_4 
ROOT
HETATM    1  C4  UNL     1     -27.442   5.632 -32.646  1.00  0.00    -0.010 C 
HETATM    2  C5  UNL     1     -26.749   5.382 -31.350  1.00  0.00     0.005 C 
HETATM    3  C6  UNL     1     -26.700   3.984 -30.878  1.00  0.00     0.007 C 
HETATM    4  C7  UNL     1     -27.794   3.099 -31.300  1.00  0.00     0.017 C 
HETATM    5  C8  UNL     1     -27.549   1.645 -31.269  1.00  0.00     0.237 C 
HETATM    6  N1  UNL     1     -28.604   1.116 -32.145  1.00  0.00    -0.074 N 
ATOM      7  H11 UNL     1     -29.411   0.757 -31.634  1.00  0.00     0.277 HD
ATOM      8  H12 UNL     1     -28.346   0.244 -32.606  1.00  0.00     0.277 HD
HETATM    9  C9  UNL     1     -28.943   2.179 -33.077  1.00  0.00     0.237 C 
HETATM   10  C10 UNL     1     -28.021   3.310 -32.809  1.00  0.00     0.017 C 
HETATM   11  C11 UNL     1     -28.593   4.678 -32.915  1.00  0.00     0.011 C 
ENDROOT
BRANCH   1  12
HETATM   12  C3  UNL     1     -28.002   7.029 -32.740  1.00  0.00    -0.010 A 
HETATM   13  C1  UNL     1     -27.842   7.986 -31.620  1.00  0.00     0.005 A 
HETATM   14  C2  UNL     1     -26.969   8.131 -32.855  1.00  0.00     0.005 A 
ENDBRANCH   1  12
TORSDOF 1
ENDMDL
