MODEL 1
REMARK VINA RESULT: -4.522479238      0.000      0.000
REMARK  2 active torsions:
REMARK  status: ('A' for Active; 'I' for Inactive)
REMARK    1  A    between atoms: N1_1  and  C1_5 
REMARK    2  A    between atoms: C1_5  and  C2_6 
ROOT
HETATM    1  C2  UNL     1     -27.606   4.268 -31.507  1.00  0.00     0.019 C 
HETATM    2  C3  UNL     1     -27.892   4.517 -32.971  1.00  0.00    -0.008 C 
HETATM    3  C4  UNL     1     -28.924   5.616 -33.044  1.00  0.00     0.010 C 
HETATM    4  C5  UNL     1     -28.461   6.917 -32.494  1.00  0.00    -0.014 C 
HETATM    5  C6  UNL     1     -28.670   7.014 -30.984  1.00  0.00     0.005 C 
HETATM    6  C7  UNL     1     -27.491   6.408 -30.289  1.00  0.00     0.006 C 
HETATM    7  C8  UNL     1     -26.733   5.425 -31.147  1.00  0.00    -0.004 C 
HETATM    8  C9  UNL     1     -26.202   6.020 -32.409  1.00  0.00    -0.009 C 
HETATM    9  C10 UNL     1     -27.024   7.235 -32.764  1.00  0.00     0.009 C 
HETATM   10  C11 UNL     1     -26.544   4.971 -33.478  1.00  0.00     0.010 C 
ENDROOT
BRANCH   1  11
HETATM   11  C1  UNL     1     -26.929   2.937 -31.282  1.00  0.00     0.234 C 
BRANCH  11  12
HETATM   12  N1  UNL     1     -27.735   1.912 -31.918  1.00  0.00    -0.079 N 
ATOM     13  H13 UNL     1     -28.720   2.170 -31.985  1.00  0.00     0.274 HD
ATOM     14  H12 UNL     1     -27.549   1.827 -32.917  1.00  0.00     0.274 HD
ATOM     15  H11 UNL     1     -27.588   1.038 -31.413  1.00  0.00     0.274 HD
ENDBRANCH  11  12
ENDBRANCH   1  11
TORSDOF 2
ENDMDL
MODEL 2
REMARK VINA RESULT: -4.345646436      1.255      1.910
REMARK  2 active torsions:
REMARK  status: ('A' for Active; 'I' for Inactive)
REMARK    1  A    between atoms: N1_1  and  C1_5 
REMARK    2  A    between atoms: C1_5  and  C2_6 
ROOT
HETATM    1  C2  UNL     1     -28.671   3.577 -32.617  1.00  0.00     0.019 C 
HETATM    2  C3  UNL     1     -28.872   4.798 -33.487  1.00  0.00    -0.008 C 
HETATM    3  C4  UNL     1     -28.746   6.008 -32.595  1.00  0.00     0.010 C 
HETATM    4  C5  UNL     1     -27.403   6.168 -31.977  1.00  0.00    -0.014 C 
HETATM    5  C6  UNL     1     -27.266   5.373 -30.680  1.00  0.00     0.005 C 
HETATM    6  C7  UNL     1     -26.846   3.974 -31.008  1.00  0.00     0.006 C 
HETATM    7  C8  UNL     1     -27.191   3.562 -32.418  1.00  0.00    -0.004 C 
HETATM    8  C9  UNL     1     -26.570   4.431 -33.462  1.00  0.00    -0.009 C 
HETATM    9  C10 UNL     1     -26.259   5.779 -32.858  1.00  0.00     0.009 C 
HETATM   10  C11 UNL     1     -27.716   4.683 -34.453  1.00  0.00     0.010 C 
ENDROOT
BRANCH   1  11
HETATM   11  C1  UNL     1     -29.181   2.320 -33.279  1.00  0.00     0.234 C 
BRANCH  11  12
HETATM   12  N1  UNL     1     -28.885   1.202 -32.404  1.00  0.00    -0.079 N 
ATOM     13  H13 UNL     1     -27.888   0.986 -32.361  1.00  0.00     0.274 HD
ATOM     14  H12 UNL     1     -29.018   1.426 -31.418  1.00  0.00     0.274 HD
ATOM     15  H11 UNL     1     -29.448   0.407 -32.707  1.00  0.00     0.274 HD
ENDBRANCH  11  12
ENDBRANCH   1  11
TORSDOF 2
ENDMDL
MODEL 3
REMARK VINA RESULT: -4.267746937      1.917      3.311
REMARK  2 active torsions:
REMARK  status: ('A' for Active; 'I' for Inactive)
REMARK    1  A    between atoms: N1_1  and  C1_5 
REMARK    2  A    between atoms: C1_5  and  C2_6 
ROOT
HETATM    1  C2  UNL     1     -28.164   5.840 -31.133  1.00  0.00     0.019 C 
HETATM    2  C3  UNL     1     -26.806   5.179 -31.051  1.00  0.00    -0.008 C 
HETATM    3  C4  UNL     1     -26.964   3.769 -31.569  1.00  0.00     0.010 C 
HETATM    4  C5  UNL     1     -27.368   3.691 -32.997  1.00  0.00    -0.014 C 
HETATM    5  C6  UNL     1     -28.883   3.775 -33.174  1.00  0.00     0.005 C 
HETATM    6  C7  UNL     1     -29.287   5.215 -33.236  1.00  0.00     0.006 C 
HETATM    7  C8  UNL     1     -28.289   6.143 -32.589  1.00  0.00    -0.004 C 
HETATM    8  C9  UNL     1     -26.928   6.075 -33.200  1.00  0.00    -0.009 C 
HETATM    9  C10 UNL     1     -26.760   4.736 -33.878  1.00  0.00     0.009 C 
HETATM   10  C11 UNL     1     -25.987   6.037 -31.986  1.00  0.00     0.010 C 
ENDROOT
BRANCH   1  11
HETATM   11  C1  UNL     1     -28.243   7.078 -30.272  1.00  0.00     0.234 C 
BRANCH  11  12
HETATM   12  N1  UNL     1     -29.609   7.211 -29.804  1.00  0.00    -0.079 N 
ATOM     13  H13 UNL     1     -30.122   7.949 -30.286  1.00  0.00     0.274 HD
ATOM     14  H12 UNL     1     -30.200   6.429 -30.084  1.00  0.00     0.274 HD
ATOM     15  H11 UNL     1     -29.583   7.343 -28.793  1.00  0.00     0.274 HD
ENDBRANCH  11  12
ENDBRANCH   1  11
TORSDOF 2
ENDMDL
MODEL 4
REMARK VINA RESULT: -4.205860358      1.443      2.489
REMARK  2 active torsions:
REMARK  status: ('A' for Active; 'I' for Inactive)
REMARK    1  A    between atoms: N1_1  and  C1_5 
REMARK    2  A    between atoms: C1_5  and  C2_6 
ROOT
HETATM    1  C2  UNL     1     -27.271   5.096 -33.330  1.00  0.00     0.019 C 
HETATM    2  C3  UNL     1     -26.141   5.846 -32.661  1.00  0.00    -0.008 C 
HETATM    3  C4  UNL     1     -26.242   7.288 -33.095  1.00  0.00     0.010 C 
HETATM    4  C5  UNL     1     -27.491   7.964 -32.658  1.00  0.00    -0.014 C 
HETATM    5  C6  UNL     1     -28.643   7.736 -33.635  1.00  0.00     0.005 C 
HETATM    6  C7  UNL     1     -29.329   6.452 -33.288  1.00  0.00     0.006 C 
HETATM    7  C8  UNL     1     -28.454   5.499 -32.512  1.00  0.00    -0.004 C 
HETATM    8  C9  UNL     1     -27.960   6.060 -31.219  1.00  0.00    -0.009 C 
HETATM    9  C10 UNL     1     -27.976   7.568 -31.300  1.00  0.00     0.009 C 
HETATM   10  C11 UNL     1     -26.474   5.670 -31.198  1.00  0.00     0.010 C 
ENDROOT
BRANCH   1  11
HETATM   11  C1  UNL     1     -27.041   3.604 -33.324  1.00  0.00     0.234 C 
BRANCH  11  12
HETATM   12  N1  UNL     1     -26.527   3.226 -34.627  1.00  0.00    -0.079 N 
ATOM     13  H13 UNL     1     -26.510   2.216 -34.767  1.00  0.00     0.274 HD
ATOM     14  H12 UNL     1     -27.167   3.458 -35.386  1.00  0.00     0.274 HD
ATOM     15  H11 UNL     1     -25.609   3.656 -34.739  1.00  0.00     0.274 HD
ENDBRANCH  11  12
ENDBRANCH   1  11
TORSDOF 2
ENDMDL
MODEL 5
REMARK VINA RESULT: -4.186750885      1.030      1.150
REMARK  2 active torsions:
REMARK  status: ('A' for Active; 'I' for Inactive)
REMARK    1  A    between atoms: N1_1  and  C1_5 
REMARK    2  A    between atoms: C1_5  and  C2_6 
ROOT
HETATM    1  C2  UNL     1     -27.629   4.690 -32.621  1.00  0.00     0.019 C 
HETATM    2  C3  UNL     1     -28.313   5.588 -33.627  1.00  0.00    -0.008 C 
HETATM    3  C4  UNL     1     -29.210   6.524 -32.854  1.00  0.00     0.010 C 
HETATM    4  C5  UNL     1     -28.483   7.432 -31.928  1.00  0.00    -0.014 C 
HETATM    5  C6  UNL     1     -28.223   6.784 -30.570  1.00  0.00     0.005 C 
HETATM    6  C7  UNL     1     -26.954   5.994 -30.641  1.00  0.00     0.006 C 
HETATM    7  C8  UNL     1     -26.583   5.587 -32.045  1.00  0.00    -0.004 C 
HETATM    8  C9  UNL     1     -26.397   6.743 -32.972  1.00  0.00    -0.009 C 
HETATM    9  C10 UNL     1     -27.168   7.927 -32.441  1.00  0.00     0.009 C 
HETATM   10  C11 UNL     1     -27.139   6.311 -34.246  1.00  0.00     0.010 C 
ENDROOT
BRANCH   1  11
HETATM   11  C1  UNL     1     -27.045   3.457 -33.268  1.00  0.00     0.234 C 
BRANCH  11  12
HETATM   12  N1  UNL     1     -27.032   2.396 -32.279  1.00  0.00    -0.079 N 
ATOM     13  H13 UNL     1     -26.119   1.950 -32.190  1.00  0.00     0.274 HD
ATOM     14  H12 UNL     1     -27.105   2.747 -31.324  1.00  0.00     0.274 HD
ATOM     15  H11 UNL     1     -27.774   1.737 -32.515  1.00  0.00     0.274 HD
ENDBRANCH  11  12
ENDBRANCH   1  11
TORSDOF 2
ENDMDL
