MODEL 1
REMARK VINA RESULT: -4.519175187      0.000      0.000
REMARK  3 active torsions:
REMARK  status: ('A' for Active; 'I' for Inactive)
REMARK    1  A    between atoms: N1_1  and  C1_5 
REMARK    2  A    between atoms: C6_10  and  C11_15 
REMARK    3  A    between atoms: C8_12  and  C9_13 
ROOT
HETATM    1  C1  UNL     1     -28.143   5.724 -32.471  1.00  0.00     0.128 C 
HETATM    2  C2  UNL     1     -26.845   6.326 -31.924  1.00  0.00     0.039 C 
HETATM    3  C3  UNL     1     -25.897   6.458 -33.072  1.00  0.00     0.007 C 
HETATM    4  C4  UNL     1     -26.610   5.658 -34.171  1.00  0.00    -0.008 C 
HETATM    5  C5  UNL     1     -28.009   6.224 -33.884  1.00  0.00     0.044 C 
HETATM    6  C6  UNL     1     -26.524   4.188 -33.975  1.00  0.00    -0.005 C 
HETATM    7  C7  UNL     1     -27.936   3.654 -33.783  1.00  0.00     0.013 C 
HETATM    8  C8  UNL     1     -28.177   4.218 -32.377  1.00  0.00     0.026 C 
ENDROOT
BRANCH   1   9
HETATM    9  N1  UNL     1     -29.235   6.274 -31.747  1.00  0.00    -0.070 N 
ATOM     10  H13 UNL     1     -29.412   5.782 -30.871  1.00  0.00     0.275 HD
ATOM     11  H12 UNL     1     -29.022   7.190 -31.352  1.00  0.00     0.275 HD
ATOM     12  H11 UNL     1     -30.052   6.292 -32.358  1.00  0.00     0.275 HD
ENDBRANCH   1   9
BRANCH   8  13
HETATM   13  C9  UNL     1     -26.985   3.662 -31.650  1.00  0.00    -0.003 A 
HETATM   14  C10 UNL     1     -26.982   3.274 -30.248  1.00  0.00     0.011 A 
HETATM   15  C11 UNL     1     -27.411   2.317 -31.292  1.00  0.00    -0.005 A 
ENDBRANCH   8  13
TORSDOF 3
ENDMDL
MODEL 2
REMARK VINA RESULT: -4.292592537      1.882      2.963
REMARK  3 active torsions:
REMARK  status: ('A' for Active; 'I' for Inactive)
REMARK    1  A    between atoms: N1_1  and  C1_5 
REMARK    2  A    between atoms: C6_10  and  C11_15 
REMARK    3  A    between atoms: C8_12  and  C9_13 
ROOT
HETATM    1  C1  UNL     1     -27.331   3.826 -34.306  1.00  0.00     0.128 C 
HETATM    2  C2  UNL     1     -28.731   3.216 -34.421  1.00  0.00     0.039 C 
HETATM    3  C3  UNL     1     -29.714   4.338 -34.320  1.00  0.00     0.007 C 
HETATM    4  C4  UNL     1     -28.825   5.505 -33.869  1.00  0.00    -0.008 C 
HETATM    5  C5  UNL     1     -27.670   5.194 -34.833  1.00  0.00     0.044 C 
HETATM    6  C6  UNL     1     -28.431   5.422 -32.439  1.00  0.00    -0.005 C 
HETATM    7  C7  UNL     1     -26.916   5.291 -32.374  1.00  0.00     0.013 C 
HETATM    8  C8  UNL     1     -26.815   3.849 -32.888  1.00  0.00     0.026 C 
ENDROOT
BRANCH   1   9
HETATM    9  N1  UNL     1     -26.445   3.077 -35.126  1.00  0.00    -0.070 N 
ATOM     10  H13 UNL     1     -25.484   3.418 -35.078  1.00  0.00     0.275 HD
ATOM     11  H12 UNL     1     -26.277   2.138 -34.765  1.00  0.00     0.275 HD
ATOM     12  H11 UNL     1     -26.811   3.071 -36.077  1.00  0.00     0.275 HD
ENDBRANCH   1   9
BRANCH   8  13
HETATM   13  C9  UNL     1     -27.740   3.151 -31.930  1.00  0.00    -0.003 A 
HETATM   14  C10 UNL     1     -27.508   1.824 -31.380  1.00  0.00     0.011 A 
HETATM   15  C11 UNL     1     -26.935   3.020 -30.725  1.00  0.00    -0.005 A 
ENDBRANCH   8  13
TORSDOF 3
ENDMDL
MODEL 3
REMARK VINA RESULT: -4.110748571      1.589      2.706
REMARK  3 active torsions:
REMARK  status: ('A' for Active; 'I' for Inactive)
REMARK    1  A    between atoms: N1_1  and  C1_5 
REMARK    2  A    between atoms: C6_10  and  C11_15 
REMARK    3  A    between atoms: C8_12  and  C9_13 
ROOT
HETATM    1  C1  UNL     1     -27.236   4.870 -33.518  1.00  0.00     0.128 C 
HETATM    2  C2  UNL     1     -28.665   4.348 -33.696  1.00  0.00     0.039 C 
HETATM    3  C3  UNL     1     -29.594   5.457 -33.320  1.00  0.00     0.007 C 
HETATM    4  C4  UNL     1     -28.640   6.471 -32.673  1.00  0.00    -0.008 C 
HETATM    5  C5  UNL     1     -27.534   6.329 -33.731  1.00  0.00     0.044 C 
HETATM    6  C6  UNL     1     -28.199   6.074 -31.312  1.00  0.00    -0.005 C 
HETATM    7  C7  UNL     1     -26.690   5.878 -31.342  1.00  0.00     0.013 C 
HETATM    8  C8  UNL     1     -26.670   4.575 -32.150  1.00  0.00     0.026 C 
ENDROOT
BRANCH   1   9
HETATM    9  N1  UNL     1     -26.413   4.280 -34.514  1.00  0.00    -0.070 N 
ATOM     10  H13 UNL     1     -26.927   3.636 -35.116  1.00  0.00     0.275 HD
ATOM     11  H12 UNL     1     -26.129   4.945 -35.233  1.00  0.00     0.275 HD
ATOM     12  H11 UNL     1     -25.617   3.836 -34.056  1.00  0.00     0.275 HD
ENDBRANCH   1   9
BRANCH   8  13
HETATM   13  C9  UNL     1     -27.590   3.724 -31.320  1.00  0.00    -0.003 A 
HETATM   14  C10 UNL     1     -27.420   2.295 -31.103  1.00  0.00     0.011 A 
HETATM   15  C11 UNL     1     -26.737   3.275 -30.230  1.00  0.00    -0.005 A 
ENDBRANCH   8  13
TORSDOF 3
ENDMDL
MODEL 4
REMARK VINA RESULT: -3.980000171      1.078      1.590
REMARK  3 active torsions:
REMARK  status: ('A' for Active; 'I' for Inactive)
REMARK    1  A    between atoms: N1_1  and  C1_5 
REMARK    2  A    between atoms: C6_10  and  C11_15 
REMARK    3  A    between atoms: C8_12  and  C9_13 
ROOT
HETATM    1  C1  UNL     1     -28.630   5.769 -32.666  1.00  0.00     0.128 C 
HETATM    2  C2  UNL     1     -28.610   6.733 -31.476  1.00  0.00     0.039 C 
HETATM    3  C3  UNL     1     -27.613   7.802 -31.787  1.00  0.00     0.007 C 
HETATM    4  C4  UNL     1     -26.906   7.233 -33.026  1.00  0.00    -0.008 C 
HETATM    5  C5  UNL     1     -28.189   6.749 -33.719  1.00  0.00     0.044 C 
HETATM    6  C6  UNL     1     -25.963   6.130 -32.707  1.00  0.00    -0.005 C 
HETATM    7  C7  UNL     1     -26.461   4.869 -33.398  1.00  0.00     0.013 C 
HETATM    8  C8  UNL     1     -27.676   4.611 -32.498  1.00  0.00     0.026 C 
ENDROOT
BRANCH   1   9
HETATM    9  N1  UNL     1     -29.954   5.279 -32.827  1.00  0.00    -0.070 N 
ATOM     10  H13 UNL     1     -30.022   4.274 -32.667  1.00  0.00     0.275 HD
ATOM     11  H12 UNL     1     -30.577   5.581 -32.079  1.00  0.00     0.275 HD
ATOM     12  H11 UNL     1     -30.290   5.552 -33.750  1.00  0.00     0.275 HD
ENDBRANCH   1   9
BRANCH   8  13
HETATM   13  C9  UNL     1     -27.020   4.599 -31.147  1.00  0.00    -0.003 A 
HETATM   14  C10 UNL     1     -27.583   3.968 -29.962  1.00  0.00     0.011 A 
HETATM   15  C11 UNL     1     -26.762   3.186 -30.913  1.00  0.00    -0.005 A 
ENDBRANCH   8  13
TORSDOF 3
ENDMDL
MODEL 5
REMARK VINA RESULT: -3.881591691      1.181      3.138
REMARK  3 active torsions:
REMARK  status: ('A' for Active; 'I' for Inactive)
REMARK    1  A    between atoms: N1_1  and  C1_5 
REMARK    2  A    between atoms: C6_10  and  C11_15 
REMARK    3  A    between atoms: C8_12  and  C9_13 
ROOT
HETATM    1  C1  UNL     1     -28.413   5.246 -32.729  1.00  0.00     0.128 C 
HETATM    2  C2  UNL     1     -27.830   3.996 -32.062  1.00  0.00     0.039 C 
HETATM    3  C3  UNL     1     -26.889   4.459 -30.997  1.00  0.00     0.007 C 
HETATM    4  C4  UNL     1     -26.770   5.959 -31.302  1.00  0.00    -0.008 C 
HETATM    5  C5  UNL     1     -28.270   6.177 -31.556  1.00  0.00     0.044 C 
HETATM    6  C6  UNL     1     -25.928   6.250 -32.489  1.00  0.00    -0.005 C 
HETATM    7  C7  UNL     1     -26.804   6.922 -33.537  1.00  0.00     0.013 C 
HETATM    8  C8  UNL     1     -27.624   5.689 -33.937  1.00  0.00     0.026 C 
ENDROOT
BRANCH   1   9
HETATM    9  N1  UNL     1     -29.755   4.971 -33.108  1.00  0.00    -0.070 N 
ATOM     10  H13 UNL     1     -30.417   5.126 -32.347  1.00  0.00     0.275 HD
ATOM     11  H12 UNL     1     -30.127   5.661 -33.759  1.00  0.00     0.275 HD
ATOM     12  H11 UNL     1     -29.799   4.021 -33.477  1.00  0.00     0.275 HD
ENDBRANCH   1   9
BRANCH   8  13
HETATM   13  C9  UNL     1     -26.522   4.728 -34.285  1.00  0.00    -0.003 A 
HETATM   14  C10 UNL     1     -26.665   3.606 -35.202  1.00  0.00     0.011 A 
HETATM   15  C11 UNL     1     -26.321   4.954 -35.709  1.00  0.00    -0.005 A 
ENDBRANCH   8  13
TORSDOF 3
ENDMDL
