MODEL 1
REMARK VINA RESULT: -4.703040163      0.000      0.000
REMARK  1 active torsions:
REMARK  status: ('A' for Active; 'I' for Inactive)
REMARK    1  A    between atoms: N2_7  and  C4_8 
ROOT
HETATM    1  N1  UNL     1     -28.973   8.896 -29.006  1.00  0.00    -0.404 N 
ATOM      2  H11 UNL     1     -29.102   8.595 -28.040  1.00  0.00     0.155 HD
ATOM      3  H12 UNL     1     -29.099   9.909 -29.006  1.00  0.00     0.155 HD
HETATM    4  C1  UNL     1     -28.715   8.189 -30.014  1.00  0.00     0.010 C 
HETATM    5  C2  UNL     1     -28.528   8.626 -31.411  1.00  0.00     0.084 C 
HETATM    6  C3  UNL     1     -27.741   7.476 -32.035  1.00  0.00     0.279 C 
HETATM    7  N2  UNL     1     -27.438   6.596 -30.960  1.00  0.00     0.098 N 
HETATM    8  C10 UNL     1     -28.531   6.716 -30.013  1.00  0.00     0.324 C 
ENDROOT
BRANCH   7   9
HETATM    9  C4  UNL     1     -27.037   5.285 -31.267  1.00  0.00     0.223 C 
HETATM   10  C5  UNL     1     -27.748   4.790 -32.487  1.00  0.00     0.036 C 
HETATM   11  C6  UNL     1     -26.963   3.545 -32.913  1.00  0.00     0.002 C 
HETATM   12  C7  UNL     1     -27.333   2.501 -31.879  1.00  0.00     0.000 C 
HETATM   13  C8  UNL     1     -26.917   2.889 -30.494  1.00  0.00     0.002 C 
HETATM   14  C9  UNL     1     -27.126   4.312 -30.140  1.00  0.00     0.036 C 
ENDBRANCH   7   9
TORSDOF 1
ENDMDL
MODEL 2
REMARK VINA RESULT: -4.666408822      1.522      5.015
REMARK  1 active torsions:
REMARK  status: ('A' for Active; 'I' for Inactive)
REMARK    1  A    between atoms: N2_7  and  C4_8 
ROOT
HETATM    1  N1  UNL     1     -26.942   3.005 -33.827  1.00  0.00    -0.404 N 
ATOM      2  H11 UNL     1     -27.072   3.329 -34.786  1.00  0.00     0.155 HD
ATOM      3  H12 UNL     1     -26.548   2.067 -33.895  1.00  0.00     0.155 HD
HETATM    4  C1  UNL     1     -27.209   3.614 -32.759  1.00  0.00     0.010 C 
HETATM    5  C2  UNL     1     -27.021   3.146 -31.372  1.00  0.00     0.084 C 
HETATM    6  C3  UNL     1     -27.002   4.442 -30.565  1.00  0.00     0.279 C 
HETATM    7  N2  UNL     1     -27.033   5.489 -31.528  1.00  0.00     0.098 N 
HETATM    8  C10 UNL     1     -27.783   4.979 -32.660  1.00  0.00     0.324 C 
ENDROOT
BRANCH   7   9
HETATM    9  C4  UNL     1     -27.382   6.779 -31.095  1.00  0.00     0.223 C 
HETATM   10  C5  UNL     1     -28.559   6.725 -30.173  1.00  0.00     0.036 C 
HETATM   11  C6  UNL     1     -28.589   8.101 -29.502  1.00  0.00     0.002 C 
HETATM   12  C7  UNL     1     -29.077   9.035 -30.592  1.00  0.00     0.000 C 
HETATM   13  C8  UNL     1     -28.148   9.085 -31.766  1.00  0.00     0.002 C 
HETATM   14  C9  UNL     1     -27.573   7.784 -32.180  1.00  0.00     0.036 C 
ENDBRANCH   7   9
TORSDOF 1
ENDMDL
MODEL 3
REMARK VINA RESULT: -4.539493681      2.091      4.852
REMARK  1 active torsions:
REMARK  status: ('A' for Active; 'I' for Inactive)
REMARK    1  A    between atoms: N2_7  and  C4_8 
ROOT
HETATM    1  N1  UNL     1     -27.187   1.303 -31.821  1.00  0.00    -0.404 N 
ATOM      2  H11 UNL     1     -27.369   0.856 -32.720  1.00  0.00     0.155 HD
ATOM      3  H12 UNL     1     -26.851   0.567 -31.201  1.00  0.00     0.155 HD
HETATM    4  C1  UNL     1     -27.340   2.513 -31.509  1.00  0.00     0.010 C 
HETATM    5  C2  UNL     1     -27.078   3.159 -30.209  1.00  0.00     0.084 C 
HETATM    6  C3  UNL     1     -26.927   4.633 -30.574  1.00  0.00     0.279 C 
HETATM    7  N2  UNL     1     -26.971   4.678 -31.996  1.00  0.00     0.098 N 
HETATM    8  C10 UNL     1     -27.829   3.584 -32.412  1.00  0.00     0.324 C 
ENDROOT
BRANCH   7   9
HETATM    9  C4  UNL     1     -27.215   5.916 -32.614  1.00  0.00     0.223 C 
HETATM   10  C5  UNL     1     -25.928   6.579 -32.990  1.00  0.00     0.036 C 
HETATM   11  C6  UNL     1     -26.336   7.692 -33.961  1.00  0.00     0.002 C 
HETATM   12  C7  UNL     1     -26.988   8.735 -33.076  1.00  0.00     0.000 C 
HETATM   13  C8  UNL     1     -28.212   8.219 -32.383  1.00  0.00     0.002 C 
HETATM   14  C9  UNL     1     -28.114   6.837 -31.860  1.00  0.00     0.036 C 
ENDBRANCH   7   9
TORSDOF 1
ENDMDL
MODEL 4
REMARK VINA RESULT: -4.534729462      2.372      5.086
REMARK  1 active torsions:
REMARK  status: ('A' for Active; 'I' for Inactive)
REMARK    1  A    between atoms: N2_7  and  C4_8 
ROOT
HETATM    1  N1  UNL     1     -29.192   1.224 -33.334  1.00  0.00    -0.404 N 
ATOM      2  H11 UNL     1     -29.768   1.464 -34.142  1.00  0.00     0.155 HD
ATOM      3  H12 UNL     1     -29.174   0.205 -33.291  1.00  0.00     0.155 HD
HETATM    4  C1  UNL     1     -28.615   2.004 -32.533  1.00  0.00     0.010 C 
HETATM    5  C2  UNL     1     -27.783   1.657 -31.364  1.00  0.00     0.084 C 
HETATM    6  C3  UNL     1     -26.958   2.921 -31.134  1.00  0.00     0.279 C 
HETATM    7  N2  UNL     1     -27.270   3.781 -32.223  1.00  0.00     0.098 N 
HETATM    8  C10 UNL     1     -28.641   3.486 -32.596  1.00  0.00     0.324 C 
ENDROOT
BRANCH   7   9
HETATM    9  C4  UNL     1     -26.948   5.144 -32.107  1.00  0.00     0.223 C 
HETATM   10  C5  UNL     1     -28.152   5.936 -31.704  1.00  0.00     0.036 C 
HETATM   11  C6  UNL     1     -27.592   7.290 -31.257  1.00  0.00     0.002 C 
HETATM   12  C7  UNL     1     -27.180   7.966 -32.550  1.00  0.00     0.000 C 
HETATM   13  C8  UNL     1     -26.111   7.212 -33.279  1.00  0.00     0.002 C 
HETATM   14  C9  UNL     1     -26.264   5.739 -33.291  1.00  0.00     0.036 C 
ENDBRANCH   7   9
TORSDOF 1
ENDMDL
MODEL 5
REMARK VINA RESULT: -4.508001899      2.692      4.853
REMARK  1 active torsions:
REMARK  status: ('A' for Active; 'I' for Inactive)
REMARK    1  A    between atoms: N2_7  and  C4_8 
ROOT
HETATM    1  N1  UNL     1     -27.393   1.188 -31.497  1.00  0.00    -0.404 N 
ATOM      2  H11 UNL     1     -27.626   0.585 -32.286  1.00  0.00     0.155 HD
ATOM      3  H12 UNL     1     -27.138   0.566 -30.730  1.00  0.00     0.155 HD
HETATM    4  C1  UNL     1     -27.411   2.446 -31.447  1.00  0.00     0.010 C 
HETATM    5  C2  UNL     1     -27.074   3.318 -30.306  1.00  0.00     0.084 C 
HETATM    6  C3  UNL     1     -26.764   4.658 -30.968  1.00  0.00     0.279 C 
HETATM    7  N2  UNL     1     -26.807   4.407 -32.368  1.00  0.00     0.098 N 
HETATM    8  C10 UNL     1     -27.782   3.351 -32.563  1.00  0.00     0.324 C 
ENDROOT
BRANCH   7   9
HETATM    9  C4  UNL     1     -26.916   5.507 -33.236  1.00  0.00     0.223 C 
HETATM   10  C5  UNL     1     -26.557   5.111 -34.634  1.00  0.00     0.036 C 
HETATM   11  C6  UNL     1     -27.070   6.262 -35.505  1.00  0.00     0.002 C 
HETATM   12  C7  UNL     1     -26.100   7.395 -35.232  1.00  0.00     0.000 C 
HETATM   13  C8  UNL     1     -26.108   7.827 -33.798  1.00  0.00     0.002 C 
HETATM   14  C9  UNL     1     -26.186   6.734 -32.803  1.00  0.00     0.036 C 
ENDBRANCH   7   9
TORSDOF 1
ENDMDL
