MODEL 1
REMARK VINA RESULT: -4.756049430      0.000      0.000
REMARK  2 active torsions:
REMARK  status: ('A' for Active; 'I' for Inactive)
REMARK    1  A    between atoms: C2_2  and  C3_3 
REMARK    2  A    between atoms: C3_3  and  N1_4 
ROOT
HETATM    1  C3  UNL     1     -27.225   3.957 -32.941  1.00  0.00     0.145 C 
HETATM    2  C4  UNL     1     -26.280   5.071 -32.953  1.00  0.00     0.048 C 
HETATM    3  C5  UNL     1     -26.363   6.119 -31.945  1.00  0.00    -0.011 C 
HETATM    4  C6  UNL     1     -27.447   6.087 -30.959  1.00  0.00     0.009 C 
HETATM    5  C7  UNL     1     -28.217   7.026 -31.854  1.00  0.00    -0.013 C 
HETATM    6  C8  UNL     1     -26.999   7.351 -32.617  1.00  0.00     0.009 C 
HETATM    7  C9  UNL     1     -29.394   6.477 -32.492  1.00  0.00     0.010 C 
HETATM    8  C10 UNL     1     -29.494   5.192 -33.146  1.00  0.00    -0.007 A 
HETATM    9  C11 UNL     1     -28.884   4.908 -34.510  1.00  0.00     0.013 A 
HETATM   10  C12 UNL     1     -28.639   4.116 -33.178  1.00  0.00     0.030 A 
ENDROOT
BRANCH   1  11
HETATM   11  C2  UNL     1     -26.976   3.006 -31.805  1.00  0.00     0.002 C 
HETATM   12  C1  UNL     1     -27.771   1.984 -31.535  1.00  0.00     0.009 C 
ENDBRANCH   1  11
BRANCH   1  13
HETATM   13  N1  UNL     1     -26.773   3.152 -34.122  1.00  0.00    -0.067 N 
ATOM     14  H13 UNL     1     -27.045   2.170 -34.105  1.00  0.00     0.275 HD
ATOM     15  H12 UNL     1     -27.247   3.367 -34.999  1.00  0.00     0.275 HD
ATOM     16  H11 UNL     1     -25.768   3.324 -34.120  1.00  0.00     0.275 HD
ENDBRANCH   1  13
TORSDOF 2
ENDMDL
MODEL 2
REMARK VINA RESULT: -4.520289676      1.481      2.845
REMARK  2 active torsions:
REMARK  status: ('A' for Active; 'I' for Inactive)
REMARK    1  A    between atoms: C2_2  and  C3_3 
REMARK    2  A    between atoms: C3_3  and  N1_4 
ROOT
HETATM    1  C3  UNL     1     -27.405   3.762 -33.883  1.00  0.00     0.145 C 
HETATM    2  C4  UNL     1     -28.194   4.974 -33.685  1.00  0.00     0.048 C 
HETATM    3  C5  UNL     1     -27.655   6.088 -32.918  1.00  0.00    -0.011 C 
HETATM    4  C6  UNL     1     -26.339   5.957 -32.284  1.00  0.00     0.009 C 
HETATM    5  C7  UNL     1     -27.049   5.558 -31.014  1.00  0.00    -0.013 C 
HETATM    6  C8  UNL     1     -28.332   6.062 -31.534  1.00  0.00     0.009 C 
HETATM    7  C9  UNL     1     -26.882   4.183 -30.596  1.00  0.00     0.010 C 
HETATM    8  C10 UNL     1     -26.969   3.013 -31.441  1.00  0.00    -0.007 A 
HETATM    9  C11 UNL     1     -28.287   2.469 -31.968  1.00  0.00     0.013 A 
HETATM   10  C12 UNL     1     -27.026   2.878 -32.807  1.00  0.00     0.030 A 
ENDROOT
BRANCH   1  11
HETATM   11  C2  UNL     1     -26.258   3.973 -34.831  1.00  0.00     0.002 C 
HETATM   12  C1  UNL     1     -26.326   3.680 -36.118  1.00  0.00     0.009 C 
ENDBRANCH   1  11
BRANCH   1  13
HETATM   13  N1  UNL     1     -28.331   2.917 -34.704  1.00  0.00    -0.067 N 
ATOM     14  H13 UNL     1     -28.930   3.433 -35.349  1.00  0.00     0.275 HD
ATOM     15  H12 UNL     1     -27.880   2.353 -35.425  1.00  0.00     0.275 HD
ATOM     16  H11 UNL     1     -28.824   2.387 -33.986  1.00  0.00     0.275 HD
ENDBRANCH   1  13
TORSDOF 2
ENDMDL
MODEL 3
REMARK VINA RESULT: -4.233481609      2.317      3.976
REMARK  2 active torsions:
REMARK  status: ('A' for Active; 'I' for Inactive)
REMARK    1  A    between atoms: C2_2  and  C3_3 
REMARK    2  A    between atoms: C3_3  and  N1_4 
ROOT
HETATM    1  C3  UNL     1     -28.936   7.147 -31.579  1.00  0.00     0.145 C 
HETATM    2  C4  UNL     1     -28.759   5.792 -32.095  1.00  0.00     0.048 C 
HETATM    3  C5  UNL     1     -27.461   5.136 -32.016  1.00  0.00    -0.011 C 
HETATM    4  C6  UNL     1     -26.312   5.873 -31.480  1.00  0.00     0.009 C 
HETATM    5  C7  UNL     1     -25.939   6.219 -32.900  1.00  0.00    -0.013 C 
HETATM    6  C8  UNL     1     -26.840   5.179 -33.425  1.00  0.00     0.009 C 
HETATM    7  C9  UNL     1     -26.077   7.610 -33.275  1.00  0.00     0.010 C 
HETATM    8  C10 UNL     1     -27.201   8.470 -32.977  1.00  0.00    -0.007 A 
HETATM    9  C11 UNL     1     -28.537   8.365 -33.694  1.00  0.00     0.013 A 
HETATM   10  C12 UNL     1     -28.284   8.301 -32.148  1.00  0.00     0.030 A 
ENDROOT
BRANCH   1  11
HETATM   11  C2  UNL     1     -28.902   7.198 -30.078  1.00  0.00     0.002 C 
HETATM   12  C1  UNL     1     -28.944   8.331 -29.397  1.00  0.00     0.009 C 
ENDBRANCH   1  11
BRANCH   1  13
HETATM   13  N1  UNL     1     -30.385   7.402 -31.864  1.00  0.00    -0.067 N 
ATOM     14  H13 UNL     1     -30.815   8.132 -31.297  1.00  0.00     0.275 HD
ATOM     15  H12 UNL     1     -30.577   7.851 -32.760  1.00  0.00     0.275 HD
ATOM     16  H11 UNL     1     -30.788   6.472 -31.752  1.00  0.00     0.275 HD
ENDBRANCH   1  13
TORSDOF 2
ENDMDL
MODEL 4
REMARK VINA RESULT: -4.090485298      1.816      3.646
REMARK  2 active torsions:
REMARK  status: ('A' for Active; 'I' for Inactive)
REMARK    1  A    between atoms: C2_2  and  C3_3 
REMARK    2  A    between atoms: C3_3  and  N1_4 
ROOT
HETATM    1  C3  UNL     1     -26.778   6.678 -33.190  1.00  0.00     0.145 C 
HETATM    2  C4  UNL     1     -28.143   7.059 -33.540  1.00  0.00     0.048 C 
HETATM    3  C5  UNL     1     -28.831   8.106 -32.798  1.00  0.00    -0.011 C 
HETATM    4  C6  UNL     1     -28.168   8.729 -31.648  1.00  0.00     0.009 C 
HETATM    5  C7  UNL     1     -28.907   7.755 -30.763  1.00  0.00    -0.013 C 
HETATM    6  C8  UNL     1     -29.835   7.416 -31.856  1.00  0.00     0.009 C 
HETATM    7  C9  UNL     1     -28.099   6.751 -30.106  1.00  0.00     0.010 C 
HETATM    8  C10 UNL     1     -27.052   5.961 -30.715  1.00  0.00    -0.007 A 
HETATM    9  C11 UNL     1     -27.330   4.809 -31.667  1.00  0.00     0.013 A 
HETATM   10  C12 UNL     1     -26.425   6.062 -31.934  1.00  0.00     0.030 A 
ENDROOT
BRANCH   1  11
HETATM   11  C2  UNL     1     -25.774   7.729 -33.571  1.00  0.00     0.002 C 
HETATM   12  C1  UNL     1     -25.725   8.274 -34.775  1.00  0.00     0.009 C 
ENDBRANCH   1  11
BRANCH   1  13
HETATM   13  N1  UNL     1     -26.488   5.599 -34.188  1.00  0.00    -0.067 N 
ATOM     14  H13 UNL     1     -26.986   5.685 -35.074  1.00  0.00     0.275 HD
ATOM     15  H12 UNL     1     -25.556   5.628 -34.601  1.00  0.00     0.275 HD
ATOM     16  H11 UNL     1     -26.698   4.757 -33.653  1.00  0.00     0.275 HD
ENDBRANCH   1  13
TORSDOF 2
ENDMDL
MODEL 5
REMARK VINA RESULT: -3.998604230      1.795      3.314
REMARK  2 active torsions:
REMARK  status: ('A' for Active; 'I' for Inactive)
REMARK    1  A    between atoms: C2_2  and  C3_3 
REMARK    2  A    between atoms: C3_3  and  N1_4 
ROOT
HETATM    1  C3  UNL     1     -27.366   5.244 -31.671  1.00  0.00     0.145 C 
HETATM    2  C4  UNL     1     -28.597   4.970 -32.407  1.00  0.00     0.048 C 
HETATM    3  C5  UNL     1     -28.548   4.345 -33.722  1.00  0.00    -0.011 C 
HETATM    4  C6  UNL     1     -27.247   4.059 -34.335  1.00  0.00     0.009 C 
HETATM    5  C7  UNL     1     -27.366   5.370 -35.073  1.00  0.00    -0.013 C 
HETATM    6  C8  UNL     1     -28.804   5.451 -34.764  1.00  0.00     0.009 C 
HETATM    7  C9  UNL     1     -26.439   6.409 -34.679  1.00  0.00     0.010 C 
HETATM    8  C10 UNL     1     -26.100   6.786 -33.325  1.00  0.00    -0.007 A 
HETATM    9  C11 UNL     1     -27.037   7.577 -32.426  1.00  0.00     0.013 A 
HETATM   10  C12 UNL     1     -26.372   6.190 -32.117  1.00  0.00     0.030 A 
ENDROOT
BRANCH   1  11
HETATM   11  C2  UNL     1     -26.718   3.993 -31.150  1.00  0.00     0.002 C 
HETATM   12  C1  UNL     1     -27.062   3.430 -30.004  1.00  0.00     0.009 C 
ENDBRANCH   1  11
BRANCH   1  13
HETATM   13  N1  UNL     1     -27.887   5.869 -30.413  1.00  0.00    -0.067 N 
ATOM     14  H13 UNL     1     -27.180   6.076 -29.708  1.00  0.00     0.275 HD
ATOM     15  H12 UNL     1     -28.209   6.833 -30.509  1.00  0.00     0.275 HD
ATOM     16  H11 UNL     1     -28.602   5.201 -30.128  1.00  0.00     0.275 HD
ENDBRANCH   1  13
TORSDOF 2
ENDMDL
