MODEL 1
REMARK VINA RESULT: -5.096919676      0.000      0.000
REMARK  3 active torsions:
REMARK  status: ('A' for Active; 'I' for Inactive)
REMARK    1  A    between atoms: C1_2  and  C2_3 
REMARK       I    between atoms: C1_2  and  N1_6 
REMARK    2  A    between atoms: C2_3  and  C3_4 
REMARK       I    between atoms: N1_6  and  C4_8 
REMARK    3  A    between atoms: C4_8  and  C5_10 
ROOT
HETATM    1  O1  UNL     1     125.615  99.246 -47.536  1.00  0.00    -0.273 OA
HETATM    2  C1  UNL     1     125.073 100.283 -47.073  1.00  0.00     0.224 C 
HETATM    3  N1  UNL     1     125.276 100.655 -45.730  1.00  0.00    -0.297 N 
ATOM      4  H1  UNL     1     125.872 100.054 -45.161  1.00  0.00     0.171 HD
HETATM    5  C4  UNL     1     124.721 101.792 -45.110  1.00  0.00     0.228 C 
HETATM    6  O2  UNL     1     123.985 102.561 -45.758  1.00  0.00    -0.273 OA
ENDROOT
BRANCH   5   7
HETATM    7  C5  UNL     1     125.018 102.060 -43.697  1.00  0.00     0.078 C 
HETATM    8  C6  UNL     1     124.437 103.406 -43.251  1.00  0.00     0.014 C 
HETATM    9  C7  UNL     1     124.861 103.615 -41.832  1.00  0.00     0.001 C 
HETATM   10  C8  UNL     1     125.428 102.370 -41.197  1.00  0.00     0.000 C 
HETATM   11  C9  UNL     1     126.634 101.837 -41.894  1.00  0.00     0.001 C 
HETATM   12  C10 UNL     1     126.479 102.088 -43.380  1.00  0.00     0.014 C 
ENDBRANCH   5   7
BRANCH   2  13
HETATM   13  C2  UNL     1     124.218 101.112 -47.946  1.00  0.00     0.114 C 
BRANCH  13  14
HETATM   14  C3  UNL     1     123.604 100.238 -49.049  1.00  0.00     0.094 C 
HETATM   15 BR1  UNL     1     123.319 101.343 -50.617  1.00  0.00    -0.096 Br
ENDBRANCH  13  14
ENDBRANCH   2  13
TORSDOF 3
ENDMDL
MODEL 2
REMARK VINA RESULT: -5.010428539      3.757      4.889
REMARK  3 active torsions:
REMARK  status: ('A' for Active; 'I' for Inactive)
REMARK    1  A    between atoms: C1_2  and  C2_3 
REMARK       I    between atoms: C1_2  and  N1_6 
REMARK    2  A    between atoms: C2_3  and  C3_4 
REMARK       I    between atoms: N1_6  and  C4_8 
REMARK    3  A    between atoms: C4_8  and  C5_10 
ROOT
HETATM    1  O1  UNL     1     124.805 102.258 -43.258  1.00  0.00    -0.273 OA
HETATM    2  C1  UNL     1     124.609 103.127 -44.146  1.00  0.00     0.224 C 
HETATM    3  N1  UNL     1     124.685 104.498 -43.831  1.00  0.00    -0.297 N 
ATOM      4  H1  UNL     1     124.901 104.747 -42.866  1.00  0.00     0.171 HD
HETATM    5  C4  UNL     1     124.484 105.553 -44.744  1.00  0.00     0.228 C 
HETATM    6  O2  UNL     1     124.217 105.305 -45.936  1.00  0.00    -0.273 OA
ENDROOT
BRANCH   5   7
HETATM    7  C5  UNL     1     124.594 106.940 -44.277  1.00  0.00     0.078 C 
HETATM    8  C6  UNL     1     125.795 107.648 -44.913  1.00  0.00     0.014 C 
HETATM    9  C7  UNL     1     125.860 109.017 -44.315  1.00  0.00     0.001 C 
HETATM   10  C8  UNL     1     124.614 109.387 -43.551  1.00  0.00     0.000 C 
HETATM   11  C9  UNL     1     124.316 108.473 -42.410  1.00  0.00     0.001 C 
HETATM   12  C10 UNL     1     124.743 107.071 -42.796  1.00  0.00     0.014 C 
ENDBRANCH   5   7
BRANCH   2  13
HETATM   13  C2  UNL     1     124.297 102.704 -45.526  1.00  0.00     0.114 C 
BRANCH  13  14
HETATM   14  C3  UNL     1     124.626 101.214 -45.696  1.00  0.00     0.094 C 
HETATM   15 BR1  UNL     1     124.394 100.746 -47.564  1.00  0.00    -0.096 Br
ENDBRANCH  13  14
ENDBRANCH   2  13
TORSDOF 3
ENDMDL
MODEL 3
REMARK VINA RESULT: -4.925234958      3.692      4.940
REMARK  3 active torsions:
REMARK  status: ('A' for Active; 'I' for Inactive)
REMARK    1  A    between atoms: C1_2  and  C2_3 
REMARK       I    between atoms: C1_2  and  N1_6 
REMARK    2  A    between atoms: C2_3  and  C3_4 
REMARK       I    between atoms: N1_6  and  C4_8 
REMARK    3  A    between atoms: C4_8  and  C5_10 
ROOT
HETATM    1  O1  UNL     1     124.883 102.202 -43.293  1.00  0.00    -0.273 OA
HETATM    2  C1  UNL     1     124.632 103.094 -44.143  1.00  0.00     0.224 C 
HETATM    3  N1  UNL     1     124.621 104.452 -43.770  1.00  0.00    -0.297 N 
ATOM      4  H1  UNL     1     124.822 104.672 -42.795  1.00  0.00     0.171 HD
HETATM    5  C4  UNL     1     124.354 105.530 -44.637  1.00  0.00     0.228 C 
HETATM    6  O2  UNL     1     124.101 105.317 -45.839  1.00  0.00    -0.273 OA
ENDROOT
BRANCH   5   7
HETATM    7  C5  UNL     1     124.376 106.901 -44.112  1.00  0.00     0.078 C 
HETATM    8  C6  UNL     1     124.639 106.914 -42.602  1.00  0.00     0.014 C 
HETATM    9  C7  UNL     1     124.563 108.341 -42.160  1.00  0.00     0.001 C 
HETATM   10  C8  UNL     1     124.572 109.316 -43.310  1.00  0.00     0.000 C 
HETATM   11  C9  UNL     1     123.432 109.137 -44.257  1.00  0.00     0.001 C 
HETATM   12  C10 UNL     1     123.109 107.659 -44.342  1.00  0.00     0.014 C 
ENDBRANCH   5   7
BRANCH   2  13
HETATM   13  C2  UNL     1     124.346 102.712 -45.541  1.00  0.00     0.114 C 
BRANCH  13  14
HETATM   14  C3  UNL     1     124.588 101.207 -45.724  1.00  0.00     0.094 C 
HETATM   15 BR1  UNL     1     124.387 100.779 -47.605  1.00  0.00    -0.096 Br
ENDBRANCH  13  14
ENDBRANCH   2  13
TORSDOF 3
ENDMDL
MODEL 4
REMARK VINA RESULT: -4.788605090      4.487      6.133
REMARK  3 active torsions:
REMARK  status: ('A' for Active; 'I' for Inactive)
REMARK    1  A    between atoms: C1_2  and  C2_3 
REMARK       I    between atoms: C1_2  and  N1_6 
REMARK    2  A    between atoms: C2_3  and  C3_4 
REMARK       I    between atoms: N1_6  and  C4_8 
REMARK    3  A    between atoms: C4_8  and  C5_10 
ROOT
HETATM    1  O1  UNL     1     123.363 108.412 -42.675  1.00  0.00    -0.273 OA
HETATM    2  C1  UNL     1     123.540 107.650 -43.660  1.00  0.00     0.224 C 
HETATM    3  N1  UNL     1     124.060 106.354 -43.475  1.00  0.00    -0.297 N 
ATOM      4  H1  UNL     1     124.284 106.070 -42.522  1.00  0.00     0.171 HD
HETATM    5  C4  UNL     1     124.297 105.420 -44.504  1.00  0.00     0.228 C 
HETATM    6  O2  UNL     1     124.042 105.716 -45.687  1.00  0.00    -0.273 OA
ENDROOT
BRANCH   5   7
HETATM    7  C5  UNL     1     124.845 104.100 -44.166  1.00  0.00     0.078 C 
HETATM    8  C6  UNL     1     124.387 103.035 -45.168  1.00  0.00     0.014 C 
HETATM    9  C7  UNL     1     124.931 101.726 -44.691  1.00  0.00     0.001 C 
HETATM   10  C8  UNL     1     125.974 101.880 -43.611  1.00  0.00     0.000 C 
HETATM   11  C9  UNL     1     125.472 102.567 -42.386  1.00  0.00     0.001 C 
HETATM   12  C10 UNL     1     124.461 103.615 -42.805  1.00  0.00     0.014 C 
ENDBRANCH   5   7
BRANCH   2  13
HETATM   13  C2  UNL     1     123.199 108.120 -45.018  1.00  0.00     0.114 C 
BRANCH  13  14
HETATM   14  C3  UNL     1     124.012 109.380 -45.348  1.00  0.00     0.094 C 
HETATM   15 BR1  UNL     1     125.893 108.910 -45.355  1.00  0.00    -0.096 Br
ENDBRANCH  13  14
ENDBRANCH   2  13
TORSDOF 3
ENDMDL
MODEL 5
REMARK VINA RESULT: -4.746312919      7.395      9.049
REMARK  3 active torsions:
REMARK  status: ('A' for Active; 'I' for Inactive)
REMARK    1  A    between atoms: C1_2  and  C2_3 
REMARK       I    between atoms: C1_2  and  N1_6 
REMARK    2  A    between atoms: C2_3  and  C3_4 
REMARK       I    between atoms: N1_6  and  C4_8 
REMARK    3  A    between atoms: C4_8  and  C5_10 
ROOT
HETATM    1  O1  UNL     1     125.421 105.755 -41.245  1.00  0.00    -0.273 OA
HETATM    2  C1  UNL     1     125.046 106.932 -41.482  1.00  0.00     0.224 C 
HETATM    3  N1  UNL     1     125.496 107.999 -40.681  1.00  0.00    -0.297 N 
ATOM      4  H1  UNL     1     126.129 107.775 -39.913  1.00  0.00     0.171 HD
HETATM    5  C4  UNL     1     125.141 109.352 -40.856  1.00  0.00     0.228 C 
HETATM    6  O2  UNL     1     124.370 109.681 -41.778  1.00  0.00    -0.273 OA
ENDROOT
BRANCH   5   7
HETATM    7  C5  UNL     1     125.687 110.364 -39.943  1.00  0.00     0.078 C 
HETATM    8  C6  UNL     1     124.595 111.322 -39.456  1.00  0.00     0.014 C 
HETATM    9  C7  UNL     1     125.267 112.351 -38.604  1.00  0.00     0.001 C 
HETATM   10  C8  UNL     1     126.681 111.979 -38.236  1.00  0.00     0.000 C 
HETATM   11  C9  UNL     1     127.579 111.796 -39.413  1.00  0.00     0.001 C 
HETATM   12  C10 UNL     1     126.768 111.203 -40.546  1.00  0.00     0.014 C 
ENDBRANCH   5   7
BRANCH   2  13
HETATM   13  C2  UNL     1     124.126 107.193 -42.607  1.00  0.00     0.114 C 
BRANCH  13  14
HETATM   14  C3  UNL     1     124.725 106.631 -43.905  1.00  0.00     0.094 C 
HETATM   15 BR1  UNL     1     125.859 107.993 -44.694  1.00  0.00    -0.096 Br
ENDBRANCH  13  14
ENDBRANCH   2  13
TORSDOF 3
ENDMDL
