MODEL 1
REMARK VINA RESULT: -5.375843325      0.000      0.000
REMARK  3 active torsions:
REMARK  status: ('A' for Active; 'I' for Inactive)
REMARK       I    between atoms: C1_2  and  N1_3 
REMARK    1  A    between atoms: C1_2  and  C4_8 
REMARK    2  A    between atoms: N1_3  and  C2_5 
REMARK    3  A    between atoms: C2_5  and  C3_6 
ROOT
HETATM    1  C4  UNL     1     124.353 106.443 -44.493  1.00  0.00     0.042 C 
HETATM    2  C5  UNL     1     124.327 106.565 -42.989  1.00  0.00     0.024 C 
HETATM    3  C6  UNL     1     124.116 108.010 -42.562  1.00  0.00    -0.013 C 
HETATM    4  C7  UNL     1     122.687 108.432 -42.636  1.00  0.00     0.005 C 
HETATM    5  C8  UNL     1     122.174 108.865 -43.931  1.00  0.00     0.005 C 
HETATM    6  C9  UNL     1     122.909 108.401 -45.151  1.00  0.00    -0.013 C 
HETATM    7  C10 UNL     1     124.156 109.191 -45.431  1.00  0.00     0.009 C 
HETATM    8  C11 UNL     1     125.348 108.677 -44.646  1.00  0.00    -0.013 C 
HETATM    9  C12 UNL     1     125.076 108.951 -43.206  1.00  0.00     0.009 C 
HETATM   10  C13 UNL     1     125.544 107.237 -44.984  1.00  0.00     0.024 C 
HETATM   11  C14 UNL     1     123.096 106.932 -45.115  1.00  0.00     0.024 C 
ENDROOT
BRANCH   1  12
HETATM   12  C1  UNL     1     124.498 104.999 -44.809  1.00  0.00     0.226 C 
HETATM   13  O1  UNL     1     124.561 104.568 -45.988  1.00  0.00    -0.273 OA
HETATM   14  N1  UNL     1     124.575 104.043 -43.760  1.00  0.00    -0.359 N 
ATOM     15  H1  UNL     1     124.527 104.364 -42.793  1.00  0.00     0.162 HD
BRANCH  14  16
HETATM   16  C2  UNL     1     124.717 102.632 -44.025  1.00  0.00     0.137 C 
BRANCH  16  17
HETATM   17  C3  UNL     1     125.250 101.961 -42.781  1.00  0.00     0.134 C 
HETATM   18 CL1  UNL     1     125.486 103.110 -41.457  1.00  0.00    -0.129 Cl
ENDBRANCH  16  17
ENDBRANCH  14  16
ENDBRANCH   1  12
TORSDOF 3
ENDMDL
MODEL 2
REMARK VINA RESULT: -5.190146833      0.542      2.094
REMARK  3 active torsions:
REMARK  status: ('A' for Active; 'I' for Inactive)
REMARK       I    between atoms: C1_2  and  N1_3 
REMARK    1  A    between atoms: C1_2  and  C4_8 
REMARK    2  A    between atoms: N1_3  and  C2_5 
REMARK    3  A    between atoms: C2_5  and  C3_6 
ROOT
HETATM    1  C4  UNL     1     124.228 106.396 -44.481  1.00  0.00     0.042 C 
HETATM    2  C5  UNL     1     125.302 107.232 -45.135  1.00  0.00     0.024 C 
HETATM    3  C6  UNL     1     125.059 108.715 -44.900  1.00  0.00    -0.013 C 
HETATM    4  C7  UNL     1     125.507 109.167 -43.551  1.00  0.00     0.005 C 
HETATM    5  C8  UNL     1     124.597 108.962 -42.430  1.00  0.00     0.005 C 
HETATM    6  C9  UNL     1     123.546 107.907 -42.583  1.00  0.00    -0.013 C 
HETATM    7  C10 UNL     1     122.367 108.355 -43.400  1.00  0.00     0.009 C 
HETATM    8  C11 UNL     1     122.604 108.186 -44.888  1.00  0.00    -0.013 C 
HETATM    9  C12 UNL     1     123.681 109.143 -45.272  1.00  0.00     0.009 C 
HETATM   10  C13 UNL     1     122.918 106.751 -45.151  1.00  0.00     0.024 C 
HETATM   11  C14 UNL     1     124.156 106.628 -43.017  1.00  0.00     0.024 C 
ENDROOT
BRANCH   1  12
HETATM   12  C1  UNL     1     124.585 104.973 -44.711  1.00  0.00     0.226 C 
HETATM   13  O1  UNL     1     124.776 104.503 -45.861  1.00  0.00    -0.273 OA
HETATM   14  N1  UNL     1     124.727 104.085 -43.611  1.00  0.00    -0.359 N 
ATOM     15  H1  UNL     1     124.578 104.440 -42.666  1.00  0.00     0.162 HD
BRANCH  14  16
HETATM   16  C2  UNL     1     125.073 102.697 -43.793  1.00  0.00     0.137 C 
BRANCH  16  17
HETATM   17  C3  UNL     1     125.065 102.019 -42.444  1.00  0.00     0.134 C 
HETATM   18 CL1  UNL     1     126.523 102.381 -41.511  1.00  0.00    -0.129 Cl
ENDBRANCH  16  17
ENDBRANCH  14  16
ENDBRANCH   1  12
TORSDOF 3
ENDMDL
MODEL 3
REMARK VINA RESULT: -5.139985652      0.414      2.019
REMARK  3 active torsions:
REMARK  status: ('A' for Active; 'I' for Inactive)
REMARK       I    between atoms: C1_2  and  N1_3 
REMARK    1  A    between atoms: C1_2  and  C4_8 
REMARK    2  A    between atoms: N1_3  and  C2_5 
REMARK    3  A    between atoms: C2_5  and  C3_6 
ROOT
HETATM    1  C4  UNL     1     124.288 106.396 -44.394  1.00  0.00     0.042 C 
HETATM    2  C5  UNL     1     122.929 106.765 -44.936  1.00  0.00     0.024 C 
HETATM    3  C6  UNL     1     122.619 108.233 -44.681  1.00  0.00    -0.013 C 
HETATM    4  C7  UNL     1     123.276 109.141 -45.665  1.00  0.00     0.005 C 
HETATM    5  C8  UNL     1     124.664 109.515 -45.421  1.00  0.00     0.005 C 
HETATM    6  C9  UNL     1     125.473 108.615 -44.539  1.00  0.00    -0.013 C 
HETATM    7  C10 UNL     1     125.208 108.822 -43.075  1.00  0.00     0.009 C 
HETATM    8  C11 UNL     1     124.003 108.035 -42.594  1.00  0.00    -0.013 C 
HETATM    9  C12 UNL     1     122.803 108.625 -43.255  1.00  0.00     0.009 C 
HETATM   10  C13 UNL     1     124.238 106.592 -42.894  1.00  0.00     0.024 C 
HETATM   11  C14 UNL     1     125.371 107.211 -45.000  1.00  0.00     0.024 C 
ENDROOT
BRANCH   1  12
HETATM   12  C1  UNL     1     124.523 104.972 -44.745  1.00  0.00     0.226 C 
HETATM   13  O1  UNL     1     124.658 104.583 -45.932  1.00  0.00    -0.273 OA
HETATM   14  N1  UNL     1     124.606 103.988 -43.723  1.00  0.00    -0.359 N 
ATOM     15  H1  UNL     1     124.501 104.275 -42.749  1.00  0.00     0.162 HD
BRANCH  14  16
HETATM   16  C2  UNL     1     124.833 102.596 -44.023  1.00  0.00     0.137 C 
BRANCH  16  17
HETATM   17  C3  UNL     1     125.856 102.057 -43.052  1.00  0.00     0.134 C 
HETATM   18 CL1  UNL     1     125.768 102.861 -41.479  1.00  0.00    -0.129 Cl
ENDBRANCH  16  17
ENDBRANCH  14  16
ENDBRANCH   1  12
TORSDOF 3
ENDMDL
MODEL 4
REMARK VINA RESULT: -5.062155029      2.096      2.938
REMARK  3 active torsions:
REMARK  status: ('A' for Active; 'I' for Inactive)
REMARK       I    between atoms: C1_2  and  N1_3 
REMARK    1  A    between atoms: C1_2  and  C4_8 
REMARK    2  A    between atoms: N1_3  and  C2_5 
REMARK    3  A    between atoms: C2_5  and  C3_6 
ROOT
HETATM    1  C4  UNL     1     124.714 107.884 -42.449  1.00  0.00     0.042 C 
HETATM    2  C5  UNL     1     123.228 107.891 -42.714  1.00  0.00     0.024 C 
HETATM    3  C6  UNL     1     122.849 109.012 -43.671  1.00  0.00    -0.013 C 
HETATM    4  C7  UNL     1     123.117 108.670 -45.097  1.00  0.00     0.005 C 
HETATM    5  C8  UNL     1     124.474 108.863 -45.597  1.00  0.00     0.005 C 
HETATM    6  C9  UNL     1     125.579 108.897 -44.588  1.00  0.00    -0.013 C 
HETATM    7  C10 UNL     1     125.700 110.218 -43.881  1.00  0.00     0.009 C 
HETATM    8  C11 UNL     1     124.758 110.321 -42.696  1.00  0.00    -0.013 C 
HETATM    9  C12 UNL     1     123.370 110.341 -43.241  1.00  0.00     0.009 C 
HETATM   10  C13 UNL     1     125.050 109.192 -41.767  1.00  0.00     0.024 C 
HETATM   11  C14 UNL     1     125.502 107.717 -43.695  1.00  0.00     0.024 C 
ENDROOT
BRANCH   1  12
HETATM   12  C1  UNL     1     124.990 106.725 -41.562  1.00  0.00     0.226 C 
HETATM   13  O1  UNL     1     125.629 106.836 -40.486  1.00  0.00    -0.273 OA
HETATM   14  N1  UNL     1     124.527 105.429 -41.916  1.00  0.00    -0.359 N 
ATOM     15  H1  UNL     1     124.006 105.309 -42.784  1.00  0.00     0.162 HD
BRANCH  14  16
HETATM   16  C2  UNL     1     124.775 104.278 -41.082  1.00  0.00     0.137 C 
BRANCH  16  17
HETATM   17  C3  UNL     1     125.183 103.123 -41.965  1.00  0.00     0.134 C 
HETATM   18 CL1  UNL     1     126.643 102.319 -41.376  1.00  0.00    -0.129 Cl
ENDBRANCH  16  17
ENDBRANCH  14  16
ENDBRANCH   1  12
TORSDOF 3
ENDMDL
MODEL 5
REMARK VINA RESULT: -4.997631418      2.138      3.296
REMARK  3 active torsions:
REMARK  status: ('A' for Active; 'I' for Inactive)
REMARK       I    between atoms: C1_2  and  N1_3 
REMARK    1  A    between atoms: C1_2  and  C4_8 
REMARK    2  A    between atoms: N1_3  and  C2_5 
REMARK    3  A    between atoms: C2_5  and  C3_6 
ROOT
HETATM    1  C4  UNL     1     124.577 107.834 -42.467  1.00  0.00     0.042 C 
HETATM    2  C5  UNL     1     125.305 107.733 -43.786  1.00  0.00     0.024 C 
HETATM    3  C6  UNL     1     125.046 108.960 -44.647  1.00  0.00    -0.013 C 
HETATM    4  C7  UNL     1     125.885 110.129 -44.256  1.00  0.00     0.005 C 
HETATM    5  C8  UNL     1     125.421 110.957 -43.148  1.00  0.00     0.005 C 
HETATM    6  C9  UNL     1     124.461 110.335 -42.182  1.00  0.00    -0.013 C 
HETATM    7  C10 UNL     1     123.046 110.299 -42.689  1.00  0.00     0.009 C 
HETATM    8  C11 UNL     1     122.783 109.089 -43.566  1.00  0.00    -0.013 C 
HETATM    9  C12 UNL     1     123.595 109.262 -44.805  1.00  0.00     0.009 C 
HETATM   10  C13 UNL     1     123.096 107.863 -42.777  1.00  0.00     0.024 C 
HETATM   11  C14 UNL     1     124.982 109.036 -41.696  1.00  0.00     0.024 C 
ENDROOT
BRANCH   1  12
HETATM   12  C1  UNL     1     124.941 106.629 -41.678  1.00  0.00     0.226 C 
HETATM   13  O1  UNL     1     125.606 106.695 -40.613  1.00  0.00    -0.273 OA
HETATM   14  N1  UNL     1     124.535 105.339 -42.116  1.00  0.00    -0.359 N 
ATOM     15  H1  UNL     1     123.994 105.256 -42.976  1.00  0.00     0.162 HD
BRANCH  14  16
HETATM   16  C2  UNL     1     124.868 104.145 -41.377  1.00  0.00     0.137 C 
BRANCH  16  17
HETATM   17  C3  UNL     1     124.879 102.977 -42.334  1.00  0.00     0.134 C 
HETATM   18 CL1  UNL     1     124.667 103.491 -44.013  1.00  0.00    -0.129 Cl
ENDBRANCH  16  17
ENDBRANCH  14  16
ENDBRANCH   1  12
TORSDOF 3
ENDMDL
