MODEL 1
REMARK VINA RESULT: -4.871167752      0.000      0.000
REMARK  5 active torsions:
REMARK  status: ('A' for Active; 'I' for Inactive)
REMARK       I    between atoms: N1_2  and  C3_4 
REMARK    1  A    between atoms: C3_4  and  C4_6 
REMARK    2  A    between atoms: C8_10  and  C9_12 
REMARK    3  A    between atoms: C9_12  and  N2_13 
REMARK    4  A    between atoms: C9_12  and  C10_17 
REMARK    5  A    between atoms: C10_17  and  C11_18 
ROOT
HETATM    1  C4  UNL     1     124.730 108.058 -43.628  1.00  0.00     0.114 A 
HETATM    2  C5  UNL     1     123.282 107.750 -43.649  1.00  0.00    -0.009 A 
HETATM    3  C6  UNL     1     122.518 107.756 -44.977  1.00  0.00     0.018 C 
HETATM    4  C7  UNL     1     122.476 108.289 -42.504  1.00  0.00     0.018 C 
HETATM    5  C8  UNL     1     124.246 106.664 -43.505  1.00  0.00     0.085 A 
HETATM    6 CL1  UNL     1     124.628 105.597 -44.875  1.00  0.00    -0.115 Cl
ENDROOT
BRANCH   5   7
HETATM    7  C9  UNL     1     124.411 105.938 -42.151  1.00  0.00     0.208 C 
BRANCH   7   8
HETATM    8  N2  UNL     1     125.501 106.624 -41.512  1.00  0.00    -0.073 N 
ATOM      9  H23 UNL     1     126.394 106.132 -41.565  1.00  0.00     0.274 HD
ATOM     10  H22 UNL     1     125.808 107.465 -42.000  1.00  0.00     0.274 HD
ATOM     11  H21 UNL     1     125.170 106.788 -40.562  1.00  0.00     0.274 HD
ENDBRANCH   7   8
BRANCH   7  12
HETATM   12  C10 UNL     1     124.764 104.530 -42.506  1.00  0.00     0.039 C 
BRANCH  12  13
HETATM   13  C11 UNL     1     125.068 103.607 -41.386  1.00  0.00    -0.013 A 
HETATM   14  C12 UNL     1     126.374 102.969 -41.287  1.00  0.00     0.005 A 
HETATM   15  C13 UNL     1     125.186 102.122 -41.713  1.00  0.00     0.005 A 
ENDBRANCH  12  13
ENDBRANCH   7  12
ENDBRANCH   5   7
BRANCH   1  16
HETATM   16  C3  UNL     1     125.423 108.444 -44.882  1.00  0.00     0.226 C 
HETATM   17  N1  UNL     1     125.428 109.787 -45.338  1.00  0.00    -0.360 N 
HETATM   18  C1  UNL     1     124.742 110.792 -44.554  1.00  0.00     0.152 C 
HETATM   19  C2  UNL     1     126.088 110.214 -46.553  1.00  0.00     0.152 C 
HETATM   20  O1  UNL     1     126.033 107.605 -45.600  1.00  0.00    -0.273 OA
ENDBRANCH   1  16
TORSDOF 5
ENDMDL
MODEL 2
REMARK VINA RESULT: -4.844683142      3.160      5.050
REMARK  5 active torsions:
REMARK  status: ('A' for Active; 'I' for Inactive)
REMARK       I    between atoms: N1_2  and  C3_4 
REMARK    1  A    between atoms: C3_4  and  C4_6 
REMARK    2  A    between atoms: C8_10  and  C9_12 
REMARK    3  A    between atoms: C9_12  and  N2_13 
REMARK    4  A    between atoms: C9_12  and  C10_17 
REMARK    5  A    between atoms: C10_17  and  C11_18 
ROOT
HETATM    1  C4  UNL     1     123.149 107.560 -43.456  1.00  0.00     0.114 A 
HETATM    2  C5  UNL     1     124.559 107.856 -43.115  1.00  0.00    -0.009 A 
HETATM    3  C6  UNL     1     125.617 107.913 -44.222  1.00  0.00     0.018 C 
HETATM    4  C7  UNL     1     125.071 107.253 -41.841  1.00  0.00     0.018 C 
HETATM    5  C8  UNL     1     123.584 108.942 -43.148  1.00  0.00     0.085 A 
HETATM    6 CL1  UNL     1     123.535 110.082 -44.513  1.00  0.00    -0.115 Cl
ENDROOT
BRANCH   5   7
HETATM    7  C9  UNL     1     123.098 109.599 -41.836  1.00  0.00     0.208 C 
BRANCH   7   8
HETATM    8  N2  UNL     1     121.865 110.243 -42.199  1.00  0.00    -0.073 N 
ATOM      9  H23 UNL     1     121.856 111.250 -42.036  1.00  0.00     0.274 HD
ATOM     10  H22 UNL     1     121.699 110.291 -43.204  1.00  0.00     0.274 HD
ATOM     11  H21 UNL     1     121.153 109.729 -41.681  1.00  0.00     0.274 HD
ENDBRANCH   7   8
BRANCH   7  12
HETATM   12  C10 UNL     1     124.163 110.583 -41.478  1.00  0.00     0.039 C 
BRANCH  12  13
HETATM   13  C11 UNL     1     124.721 110.504 -40.106  1.00  0.00    -0.013 A 
HETATM   14  C12 UNL     1     125.399 111.651 -39.516  1.00  0.00     0.005 A 
HETATM   15  C13 UNL     1     126.239 110.467 -39.968  1.00  0.00     0.005 A 
ENDBRANCH  12  13
ENDBRANCH   7  12
ENDBRANCH   5   7
BRANCH   1  16
HETATM   16  C3  UNL     1     122.777 107.245 -44.857  1.00  0.00     0.226 C 
HETATM   17  N1  UNL     1     121.433 107.337 -45.302  1.00  0.00    -0.360 N 
HETATM   18  C1  UNL     1     120.414 107.750 -44.360  1.00  0.00     0.152 C 
HETATM   19  C2  UNL     1     121.019 107.041 -46.656  1.00  0.00     0.152 C 
HETATM   20  O1  UNL     1     123.628 106.881 -45.714  1.00  0.00    -0.273 OA
ENDBRANCH   1  16
TORSDOF 5
ENDMDL
MODEL 3
REMARK VINA RESULT: -4.833567610      3.019      3.689
REMARK  5 active torsions:
REMARK  status: ('A' for Active; 'I' for Inactive)
REMARK       I    between atoms: N1_2  and  C3_4 
REMARK    1  A    between atoms: C3_4  and  C4_6 
REMARK    2  A    between atoms: C8_10  and  C9_12 
REMARK    3  A    between atoms: C9_12  and  N2_13 
REMARK    4  A    between atoms: C9_12  and  C10_17 
REMARK    5  A    between atoms: C10_17  and  C11_18 
ROOT
HETATM    1  C4  UNL     1     123.327 109.447 -42.485  1.00  0.00     0.114 A 
HETATM    2  C5  UNL     1     122.800 109.012 -43.798  1.00  0.00    -0.009 A 
HETATM    3  C6  UNL     1     122.799 109.983 -44.982  1.00  0.00     0.018 C 
HETATM    4  C7  UNL     1     121.589 108.127 -43.761  1.00  0.00     0.018 C 
HETATM    5  C8  UNL     1     124.124 108.569 -43.372  1.00  0.00     0.085 A 
HETATM    6 CL1  UNL     1     125.593 109.303 -44.057  1.00  0.00    -0.115 Cl
ENDROOT
BRANCH   5   7
HETATM    7  C9  UNL     1     124.361 107.103 -42.947  1.00  0.00     0.208 C 
BRANCH   7   8
HETATM    8  N2  UNL     1     125.468 107.174 -42.034  1.00  0.00    -0.073 N 
ATOM      9  H23 UNL     1     125.371 107.890 -41.314  1.00  0.00     0.274 HD
ATOM     10  H22 UNL     1     125.535 106.382 -41.395  1.00  0.00     0.274 HD
ATOM     11  H21 UNL     1     126.282 107.296 -42.636  1.00  0.00     0.274 HD
ENDBRANCH   7   8
BRANCH   7  12
HETATM   12  C10 UNL     1     124.718 106.386 -44.209  1.00  0.00     0.039 C 
BRANCH  12  13
HETATM   13  C11 UNL     1     123.926 105.179 -44.547  1.00  0.00    -0.013 A 
HETATM   14  C12 UNL     1     124.392 104.251 -45.569  1.00  0.00     0.005 A 
HETATM   15  C13 UNL     1     123.219 105.160 -45.897  1.00  0.00     0.005 A 
ENDBRANCH  12  13
ENDBRANCH   7  12
ENDBRANCH   5   7
BRANCH   1  16
HETATM   16  C3  UNL     1     123.785 110.846 -42.299  1.00  0.00     0.226 C 
HETATM   17  N1  UNL     1     124.652 111.203 -41.235  1.00  0.00    -0.360 N 
HETATM   18  C1  UNL     1     125.094 110.172 -40.320  1.00  0.00     0.152 C 
HETATM   19  C2  UNL     1     125.127 112.552 -41.010  1.00  0.00     0.152 C 
HETATM   20  O1  UNL     1     123.428 111.780 -43.069  1.00  0.00    -0.273 OA
ENDBRANCH   1  16
TORSDOF 5
ENDMDL
MODEL 4
REMARK VINA RESULT: -4.832010691      3.490      5.210
REMARK  5 active torsions:
REMARK  status: ('A' for Active; 'I' for Inactive)
REMARK       I    between atoms: N1_2  and  C3_4 
REMARK    1  A    between atoms: C3_4  and  C4_6 
REMARK    2  A    between atoms: C8_10  and  C9_12 
REMARK    3  A    between atoms: C9_12  and  N2_13 
REMARK    4  A    between atoms: C9_12  and  C10_17 
REMARK    5  A    between atoms: C10_17  and  C11_18 
ROOT
HETATM    1  C4  UNL     1     123.066 107.968 -42.597  1.00  0.00     0.114 A 
HETATM    2  C5  UNL     1     124.525 107.728 -42.686  1.00  0.00    -0.009 A 
HETATM    3  C6  UNL     1     125.186 107.536 -44.054  1.00  0.00     0.018 C 
HETATM    4  C7  UNL     1     125.117 106.856 -41.618  1.00  0.00     0.018 C 
HETATM    5  C8  UNL     1     124.032 109.079 -42.431  1.00  0.00     0.085 A 
HETATM    6 CL1  UNL     1     124.020 110.302 -43.721  1.00  0.00    -0.115 Cl
ENDROOT
BRANCH   5   7
HETATM    7  C9  UNL     1     124.192 109.720 -41.034  1.00  0.00     0.208 C 
BRANCH   7   8
HETATM    8  N2  UNL     1     123.060 110.598 -40.917  1.00  0.00    -0.073 N 
ATOM      9  H23 UNL     1     123.088 111.210 -40.101  1.00  0.00     0.274 HD
ATOM     10  H22 UNL     1     123.033 111.341 -41.615  1.00  0.00     0.274 HD
ATOM     11  H21 UNL     1     122.255 109.971 -40.941  1.00  0.00     0.274 HD
ENDBRANCH   7   8
BRANCH   7  12
HETATM   12  C10 UNL     1     125.482 110.472 -41.100  1.00  0.00     0.039 C 
BRANCH  12  13
HETATM   13  C11 UNL     1     126.395 110.346 -39.938  1.00  0.00    -0.013 A 
HETATM   14  C12 UNL     1     126.556 111.450 -39.001  1.00  0.00     0.005 A 
HETATM   15  C13 UNL     1     127.688 111.154 -39.972  1.00  0.00     0.005 A 
ENDBRANCH  12  13
ENDBRANCH   7  12
ENDBRANCH   5   7
BRANCH   1  16
HETATM   16  C3  UNL     1     122.237 107.947 -43.826  1.00  0.00     0.226 C 
HETATM   17  N1  UNL     1     120.940 108.519 -43.851  1.00  0.00    -0.360 N 
HETATM   18  C1  UNL     1     120.428 109.137 -42.646  1.00  0.00     0.152 C 
HETATM   19  C2  UNL     1     120.092 108.525 -45.024  1.00  0.00     0.152 C 
HETATM   20  O1  UNL     1     122.638 107.420 -44.901  1.00  0.00    -0.273 OA
ENDBRANCH   1  16
TORSDOF 5
ENDMDL
MODEL 5
REMARK VINA RESULT: -4.831729322      2.735      3.425
REMARK  5 active torsions:
REMARK  status: ('A' for Active; 'I' for Inactive)
REMARK       I    between atoms: N1_2  and  C3_4 
REMARK    1  A    between atoms: C3_4  and  C4_6 
REMARK    2  A    between atoms: C8_10  and  C9_12 
REMARK    3  A    between atoms: C9_12  and  N2_13 
REMARK    4  A    between atoms: C9_12  and  C10_17 
REMARK    5  A    between atoms: C10_17  and  C11_18 
ROOT
HETATM    1  C4  UNL     1     124.787 109.112 -42.869  1.00  0.00     0.114 A 
HETATM    2  C5  UNL     1     123.821 108.019 -42.618  1.00  0.00    -0.009 A 
HETATM    3  C6  UNL     1     122.362 108.348 -42.285  1.00  0.00     0.018 C 
HETATM    4  C7  UNL     1     124.345 106.836 -41.860  1.00  0.00     0.018 C 
HETATM    5  C8  UNL     1     124.218 108.328 -43.989  1.00  0.00     0.085 A 
HETATM    6 CL1  UNL     1     123.129 109.222 -45.074  1.00  0.00    -0.115 Cl
ENDROOT
BRANCH   5   7
HETATM    7  C9  UNL     1     125.146 107.370 -44.770  1.00  0.00     0.208 C 
BRANCH   7   8
HETATM    8  N2  UNL     1     125.540 108.126 -45.927  1.00  0.00    -0.073 N 
ATOM      9  H23 UNL     1     125.188 107.754 -46.810  1.00  0.00     0.274 HD
ATOM     10  H22 UNL     1     125.090 109.038 -46.003  1.00  0.00     0.274 HD
ATOM     11  H21 UNL     1     126.557 108.165 -45.866  1.00  0.00     0.274 HD
ENDBRANCH   7   8
BRANCH   7  12
HETATM   12  C10 UNL     1     124.284 106.203 -45.127  1.00  0.00     0.039 C 
BRANCH  12  13
HETATM   13  C11 UNL     1     124.957 104.889 -45.278  1.00  0.00    -0.013 A 
HETATM   14  C12 UNL     1     124.240 103.751 -45.838  1.00  0.00     0.005 A 
HETATM   15  C13 UNL     1     124.519 103.766 -44.344  1.00  0.00     0.005 A 
ENDBRANCH  12  13
ENDBRANCH   7  12
ENDBRANCH   5   7
BRANCH   1  16
HETATM   16  C3  UNL     1     124.359 110.525 -42.723  1.00  0.00     0.226 C 
HETATM   17  N1  UNL     1     125.033 111.574 -43.399  1.00  0.00    -0.360 N 
HETATM   18  C1  UNL     1     126.160 111.245 -44.247  1.00  0.00     0.152 C 
HETATM   19  C2  UNL     1     124.656 112.967 -43.290  1.00  0.00     0.152 C 
HETATM   20  O1  UNL     1     123.385 110.862 -41.995  1.00  0.00    -0.273 OA
ENDBRANCH   1  16
TORSDOF 5
ENDMDL
