MODEL 1
REMARK VINA RESULT: -4.849242068      0.000      0.000
REMARK  4 active torsions:
REMARK  status: ('A' for Active; 'I' for Inactive)
REMARK       I    between atoms: C1_2  and  N1_3 
REMARK    1  A    between atoms: C1_2  and  C8_12 
REMARK    2  A    between atoms: N1_3  and  C2_5 
REMARK    3  A    between atoms: C2_5  and  C3_6 
REMARK    4  A    between atoms: C3_6  and  C4_7 
ROOT
HETATM    1  O1  UNL     1     123.996 103.045 -42.205  1.00  0.00    -0.273 OA
HETATM    2  C1  UNL     1     125.075 103.152 -41.576  1.00  0.00     0.221 C 
HETATM    3  N1  UNL     1     125.414 104.390 -41.014  1.00  0.00    -0.361 N 
ATOM      4  H1  UNL     1     126.291 104.474 -40.501  1.00  0.00     0.162 HD
ENDROOT
BRANCH   3   5
HETATM    5  C2  UNL     1     124.581 105.530 -41.133  1.00  0.00     0.123 C 
BRANCH   5   6
HETATM    6  C3  UNL     1     125.289 106.850 -41.286  1.00  0.00     0.025 C 
BRANCH   6   7
HETATM    7  C4  UNL     1     124.853 107.423 -42.617  1.00  0.00     0.001 C 
HETATM    8  C5  UNL     1     123.690 108.411 -42.513  1.00  0.00     0.007 C 
HETATM    9  C6  UNL     1     123.219 107.829 -43.853  1.00  0.00     0.016 C 
HETATM   10  C7  UNL     1     123.908 106.532 -43.405  1.00  0.00     0.062 C 
HETATM   11 BR1  UNL     1     124.711 105.543 -44.829  1.00  0.00    -0.091 Br
ENDBRANCH   6   7
ENDBRANCH   5   6
ENDBRANCH   3   5
BRANCH   2  12
HETATM   12  C8  UNL     1     125.937 101.943 -41.466  1.00  0.00     0.078 A 
HETATM   13  C9  UNL     1     127.373 102.079 -41.121  1.00  0.00     0.015 A 
HETATM   14  C10 UNL     1     127.003 101.736 -42.537  1.00  0.00     0.015 A 
ENDBRANCH   2  12
TORSDOF 4
ENDMDL
MODEL 2
REMARK VINA RESULT: -4.830233989      1.433      1.660
REMARK  4 active torsions:
REMARK  status: ('A' for Active; 'I' for Inactive)
REMARK       I    between atoms: C1_2  and  N1_3 
REMARK    1  A    between atoms: C1_2  and  C8_12 
REMARK    2  A    between atoms: N1_3  and  C2_5 
REMARK    3  A    between atoms: C2_5  and  C3_6 
REMARK    4  A    between atoms: C3_6  and  C4_7 
ROOT
HETATM    1  O1  UNL     1     124.008 103.217 -42.149  1.00  0.00    -0.273 OA
HETATM    2  C1  UNL     1     125.091 103.208 -41.516  1.00  0.00     0.221 C 
HETATM    3  N1  UNL     1     125.476 104.357 -40.813  1.00  0.00    -0.361 N 
ATOM      4  H1  UNL     1     126.356 104.346 -40.297  1.00  0.00     0.162 HD
ENDROOT
BRANCH   3   5
HETATM    5  C2  UNL     1     124.687 105.533 -40.793  1.00  0.00     0.123 C 
BRANCH   5   6
HETATM    6  C3  UNL     1     125.111 106.626 -41.738  1.00  0.00     0.025 C 
BRANCH   6   7
HETATM    7  C4  UNL     1     124.041 106.715 -42.805  1.00  0.00     0.001 C 
HETATM    8  C5  UNL     1     124.556 106.447 -44.220  1.00  0.00     0.007 C 
HETATM    9  C6  UNL     1     123.548 107.513 -44.671  1.00  0.00     0.016 C 
HETATM   10  C7  UNL     1     123.743 108.128 -43.278  1.00  0.00     0.062 C 
HETATM   11 BR1  UNL     1     122.165 108.921 -42.547  1.00  0.00    -0.091 Br
ENDBRANCH   6   7
ENDBRANCH   5   6
ENDBRANCH   3   5
BRANCH   2  12
HETATM   12  C8  UNL     1     125.906 101.962 -41.554  1.00  0.00     0.078 A 
HETATM   13  C9  UNL     1     127.349 102.004 -41.217  1.00  0.00     0.015 A 
HETATM   14  C10 UNL     1     126.952 101.836 -42.656  1.00  0.00     0.015 A 
ENDBRANCH   2  12
TORSDOF 4
ENDMDL
MODEL 3
REMARK VINA RESULT: -4.736739625      2.521      5.010
REMARK  4 active torsions:
REMARK  status: ('A' for Active; 'I' for Inactive)
REMARK       I    between atoms: C1_2  and  N1_3 
REMARK    1  A    between atoms: C1_2  and  C8_12 
REMARK    2  A    between atoms: N1_3  and  C2_5 
REMARK    3  A    between atoms: C2_5  and  C3_6 
REMARK    4  A    between atoms: C3_6  and  C4_7 
ROOT
HETATM    1  O1  UNL     1     125.522 105.669 -40.718  1.00  0.00    -0.273 OA
HETATM    2  C1  UNL     1     124.863 105.861 -41.767  1.00  0.00     0.221 C 
HETATM    3  N1  UNL     1     124.496 104.759 -42.550  1.00  0.00    -0.361 N 
ATOM      4  H1  UNL     1     123.957 104.918 -43.401  1.00  0.00     0.162 HD
ENDROOT
BRANCH   3   5
HETATM    5  C2  UNL     1     124.845 103.431 -42.201  1.00  0.00     0.123 C 
BRANCH   5   6
HETATM    6  C3  UNL     1     125.576 102.644 -43.256  1.00  0.00     0.025 C 
BRANCH   6   7
HETATM    7  C4  UNL     1     124.566 102.326 -44.337  1.00  0.00     0.001 C 
HETATM    8  C5  UNL     1     124.889 101.060 -45.131  1.00  0.00     0.007 C 
HETATM    9  C6  UNL     1     124.314 101.805 -46.344  1.00  0.00     0.016 C 
HETATM   10  C7  UNL     1     124.776 103.087 -45.636  1.00  0.00     0.062 C 
HETATM   11 BR1  UNL     1     123.622 104.586 -45.903  1.00  0.00    -0.091 Br
ENDBRANCH   6   7
ENDBRANCH   5   6
ENDBRANCH   3   5
BRANCH   2  12
HETATM   12  C8  UNL     1     124.509 107.265 -42.116  1.00  0.00     0.078 A 
HETATM   13  C9  UNL     1     123.643 107.547 -43.286  1.00  0.00     0.015 A 
HETATM   14  C10 UNL     1     125.112 107.848 -43.390  1.00  0.00     0.015 A 
ENDBRANCH   2  12
TORSDOF 4
ENDMDL
MODEL 4
REMARK VINA RESULT: -4.718792924      2.744      4.708
REMARK  4 active torsions:
REMARK  status: ('A' for Active; 'I' for Inactive)
REMARK       I    between atoms: C1_2  and  N1_3 
REMARK    1  A    between atoms: C1_2  and  C8_12 
REMARK    2  A    between atoms: N1_3  and  C2_5 
REMARK    3  A    between atoms: C2_5  and  C3_6 
REMARK    4  A    between atoms: C3_6  and  C4_7 
ROOT
HETATM    1  O1  UNL     1     126.263 103.813 -41.052  1.00  0.00    -0.273 OA
HETATM    2  C1  UNL     1     125.091 104.044 -41.434  1.00  0.00     0.221 C 
HETATM    3  N1  UNL     1     124.420 103.077 -42.193  1.00  0.00    -0.361 N 
ATOM      4  H1  UNL     1     123.467 103.267 -42.500  1.00  0.00     0.162 HD
ENDROOT
BRANCH   3   5
HETATM    5  C2  UNL     1     125.020 101.844 -42.550  1.00  0.00     0.123 C 
BRANCH   5   6
HETATM    6  C3  UNL     1     125.627 101.782 -43.927  1.00  0.00     0.025 C 
BRANCH   6   7
HETATM    7  C4  UNL     1     124.515 102.094 -44.905  1.00  0.00     0.001 C 
HETATM    8  C5  UNL     1     124.519 101.202 -46.148  1.00  0.00     0.007 C 
HETATM    9  C6  UNL     1     124.050 102.449 -46.910  1.00  0.00     0.016 C 
HETATM   10  C7  UNL     1     124.812 103.251 -45.845  1.00  0.00     0.062 C 
HETATM   11 BR1  UNL     1     123.991 104.913 -45.382  1.00  0.00    -0.091 Br
ENDBRANCH   6   7
ENDBRANCH   5   6
ENDBRANCH   3   5
BRANCH   2  12
HETATM   12  C8  UNL     1     124.482 105.348 -41.050  1.00  0.00     0.078 A 
HETATM   13  C9  UNL     1     124.678 106.544 -41.904  1.00  0.00     0.015 A 
HETATM   14  C10 UNL     1     125.422 106.461 -40.601  1.00  0.00     0.015 A 
ENDBRANCH   2  12
TORSDOF 4
ENDMDL
MODEL 5
REMARK VINA RESULT: -4.706205566      6.222      7.152
REMARK  4 active torsions:
REMARK  status: ('A' for Active; 'I' for Inactive)
REMARK       I    between atoms: C1_2  and  N1_3 
REMARK    1  A    between atoms: C1_2  and  C8_12 
REMARK    2  A    between atoms: N1_3  and  C2_5 
REMARK    3  A    between atoms: C2_5  and  C3_6 
REMARK    4  A    between atoms: C3_6  and  C4_7 
ROOT
HETATM    1  O1  UNL     1     123.322 100.975 -49.357  1.00  0.00    -0.273 OA
HETATM    2  C1  UNL     1     123.579  99.920 -48.731  1.00  0.00     0.221 C 
HETATM    3  N1  UNL     1     124.196 100.007 -47.476  1.00  0.00    -0.361 N 
ATOM      4  H1  UNL     1     124.401  99.147 -46.968  1.00  0.00     0.162 HD
ENDROOT
BRANCH   3   5
HETATM    5  C2  UNL     1     124.545 101.248 -46.888  1.00  0.00     0.123 C 
BRANCH   5   6
HETATM    6  C3  UNL     1     124.738 101.237 -45.395  1.00  0.00     0.025 C 
BRANCH   6   7
HETATM    7  C4  UNL     1     124.182 102.545 -44.877  1.00  0.00     0.001 C 
HETATM    8  C5  UNL     1     124.262 103.693 -45.885  1.00  0.00     0.007 C 
HETATM    9  C6  UNL     1     124.536 104.594 -44.673  1.00  0.00     0.016 C 
HETATM   10  C7  UNL     1     125.153 103.346 -44.024  1.00  0.00     0.062 C 
HETATM   11 BR1  UNL     1     124.875 103.228 -42.137  1.00  0.00    -0.091 Br
ENDBRANCH   6   7
ENDBRANCH   5   6
ENDBRANCH   3   5
BRANCH   2  12
HETATM   12  C8  UNL     1     123.207  98.627 -49.369  1.00  0.00     0.078 A 
HETATM   13  C9  UNL     1     121.907  98.488 -50.070  1.00  0.00     0.015 A 
HETATM   14  C10 UNL     1     122.077  97.825 -48.732  1.00  0.00     0.015 A 
ENDBRANCH   2  12
TORSDOF 4
ENDMDL
