MODEL 1
REMARK VINA RESULT: -4.774792957      0.000      0.000
REMARK  4 active torsions:
REMARK  status: ('A' for Active; 'I' for Inactive)
REMARK    1  A    between atoms: C2_2  and  C3_4 
REMARK       I    between atoms: C3_4  and  N1_6 
REMARK    2  A    between atoms: N1_6  and  C4_8 
REMARK    3  A    between atoms: C6_10  and  C7_11 
REMARK    4  A    between atoms: C7_11  and  C8_12 
ROOT
HETATM    1  C4  UNL     1     124.501 107.077 -42.511  1.00  0.00     0.089 A 
HETATM    2  C5  UNL     1     125.084 107.937 -43.607  1.00  0.00     0.032 A 
HETATM    3  C6  UNL     1     123.603 107.976 -43.244  1.00  0.00     0.010 A 
ENDROOT
BRANCH   1   4
HETATM    4  N1  UNL     1     124.465 105.649 -42.676  1.00  0.00    -0.355 N 
HETATM    5  C3  UNL     1     124.941 104.755 -41.681  1.00  0.00     0.232 C 
HETATM    6  O1  UNL     1     125.420 105.167 -40.600  1.00  0.00    -0.272 OA
ATOM      7  H1  UNL     1     124.083 105.264 -43.540  1.00  0.00     0.162 HD
BRANCH   5   8
HETATM    8  C2  UNL     1     124.876 103.289 -41.910  1.00  0.00     0.145 C 
HETATM    9  C1  UNL     1     126.146 102.658 -41.368  1.00  0.00     0.032 C 
HETATM   10 BR1  UNL     1     124.711 103.012 -43.812  1.00  0.00    -0.082 Br
ENDBRANCH   5   8
ENDBRANCH   1   4
BRANCH   3  11
HETATM   11  C7  UNL     1     122.708 107.536 -44.350  1.00  0.00     0.011 C 
BRANCH  11  12
HETATM   12  C8  UNL     1     121.421 108.306 -44.229  1.00  0.00    -0.014 C 
HETATM   13  C9  UNL     1     120.943 108.542 -42.814  1.00  0.00     0.005 C 
HETATM   14  C10 UNL     1     119.527 108.373 -43.366  1.00  0.00     0.001 C 
HETATM   15  C11 UNL     1     120.165 107.489 -44.447  1.00  0.00     0.005 C 
ENDBRANCH  11  12
ENDBRANCH   3  11
TORSDOF 4
ENDMDL
MODEL 2
REMARK VINA RESULT: -4.741149706      1.427      1.806
REMARK  4 active torsions:
REMARK  status: ('A' for Active; 'I' for Inactive)
REMARK    1  A    between atoms: C2_2  and  C3_4 
REMARK       I    between atoms: C3_4  and  N1_6 
REMARK    2  A    between atoms: N1_6  and  C4_8 
REMARK    3  A    between atoms: C6_10  and  C7_11 
REMARK    4  A    between atoms: C7_11  and  C8_12 
ROOT
HETATM    1  C4  UNL     1     124.336 106.093 -42.247  1.00  0.00     0.089 A 
HETATM    2  C5  UNL     1     125.187 107.321 -42.469  1.00  0.00     0.032 A 
HETATM    3  C6  UNL     1     123.947 107.030 -43.307  1.00  0.00     0.010 A 
ENDROOT
BRANCH   1   4
HETATM    4  N1  UNL     1     124.884 104.793 -42.531  1.00  0.00    -0.355 N 
HETATM    5  C3  UNL     1     124.698 103.684 -41.666  1.00  0.00     0.232 C 
HETATM    6  O1  UNL     1     124.044 103.780 -40.603  1.00  0.00    -0.272 OA
ATOM      7  H1  UNL     1     125.425 104.664 -43.386  1.00  0.00     0.162 HD
BRANCH   5   8
HETATM    8  C2  UNL     1     125.288 102.366 -42.014  1.00  0.00     0.145 C 
HETATM    9  C1  UNL     1     126.679 102.284 -41.410  1.00  0.00     0.032 C 
HETATM   10 BR1  UNL     1     125.352 102.256 -43.939  1.00  0.00    -0.082 Br
ENDBRANCH   5   8
ENDBRANCH   1   4
BRANCH   3  11
HETATM   11  C7  UNL     1     124.241 106.820 -44.752  1.00  0.00     0.011 C 
BRANCH  11  12
HETATM   12  C8  UNL     1     122.991 107.144 -45.524  1.00  0.00    -0.014 C 
HETATM   13  C9  UNL     1     121.778 107.463 -44.679  1.00  0.00     0.005 C 
HETATM   14  C10 UNL     1     120.959 106.751 -45.756  1.00  0.00     0.001 C 
HETATM   15  C11 UNL     1     122.232 105.941 -46.042  1.00  0.00     0.005 C 
ENDBRANCH  11  12
ENDBRANCH   3  11
TORSDOF 4
ENDMDL
MODEL 3
REMARK VINA RESULT: -4.732695655      1.483      2.090
REMARK  4 active torsions:
REMARK  status: ('A' for Active; 'I' for Inactive)
REMARK    1  A    between atoms: C2_2  and  C3_4 
REMARK       I    between atoms: C3_4  and  N1_6 
REMARK    2  A    between atoms: N1_6  and  C4_8 
REMARK    3  A    between atoms: C6_10  and  C7_11 
REMARK    4  A    between atoms: C7_11  and  C8_12 
ROOT
HETATM    1  C4  UNL     1     124.360 105.938 -41.649  1.00  0.00     0.089 A 
HETATM    2  C5  UNL     1     125.436 106.872 -41.148  1.00  0.00     0.032 A 
HETATM    3  C6  UNL     1     124.410 107.301 -42.192  1.00  0.00     0.010 A 
ENDROOT
BRANCH   1   4
HETATM    4  N1  UNL     1     124.729 104.785 -42.425  1.00  0.00    -0.355 N 
HETATM    5  C3  UNL     1     124.684 103.467 -41.899  1.00  0.00     0.232 C 
HETATM    6  O1  UNL     1     124.317 103.239 -40.724  1.00  0.00    -0.272 OA
ATOM      7  H1  UNL     1     125.035 104.919 -43.389  1.00  0.00     0.162 HD
BRANCH   5   8
HETATM    8  C2  UNL     1     125.078 102.316 -42.750  1.00  0.00     0.145 C 
HETATM    9  C1  UNL     1     126.560 102.051 -42.551  1.00  0.00     0.032 C 
HETATM   10 BR1  UNL     1     124.691 102.795 -44.579  1.00  0.00    -0.082 Br
ENDBRANCH   5   8
ENDBRANCH   1   4
BRANCH   3  11
HETATM   11  C7  UNL     1     125.012 107.647 -43.510  1.00  0.00     0.011 C 
BRANCH  11  12
HETATM   12  C8  UNL     1     123.884 107.884 -44.478  1.00  0.00    -0.014 C 
HETATM   13  C9  UNL     1     122.516 108.029 -43.848  1.00  0.00     0.005 C 
HETATM   14  C10 UNL     1     121.978 107.298 -45.079  1.00  0.00     0.001 C 
HETATM   15  C11 UNL     1     123.363 106.640 -45.166  1.00  0.00     0.005 C 
ENDBRANCH  11  12
ENDBRANCH   3  11
TORSDOF 4
ENDMDL
MODEL 4
REMARK VINA RESULT: -4.609689071      2.921      5.544
REMARK  4 active torsions:
REMARK  status: ('A' for Active; 'I' for Inactive)
REMARK    1  A    between atoms: C2_2  and  C3_4 
REMARK       I    between atoms: C3_4  and  N1_6 
REMARK    2  A    between atoms: N1_6  and  C4_8 
REMARK    3  A    between atoms: C6_10  and  C7_11 
REMARK    4  A    between atoms: C7_11  and  C8_12 
ROOT
HETATM    1  C4  UNL     1     125.546 104.058 -41.898  1.00  0.00     0.089 A 
HETATM    2  C5  UNL     1     124.946 102.984 -41.021  1.00  0.00     0.032 A 
HETATM    3  C6  UNL     1     125.460 102.691 -42.426  1.00  0.00     0.010 A 
ENDROOT
BRANCH   1   4
HETATM    4  N1  UNL     1     124.710 105.124 -42.381  1.00  0.00    -0.355 N 
HETATM    5  C3  UNL     1     124.762 106.436 -41.840  1.00  0.00     0.232 C 
HETATM    6  O1  UNL     1     125.542 106.734 -40.908  1.00  0.00    -0.272 OA
ATOM      7  H1  UNL     1     124.058 104.931 -43.141  1.00  0.00     0.162 HD
BRANCH   5   8
HETATM    8  C2  UNL     1     123.873 107.496 -42.383  1.00  0.00     0.145 C 
HETATM    9  C1  UNL     1     123.581 107.184 -43.839  1.00  0.00     0.032 C 
HETATM   10 BR1  UNL     1     124.805 109.175 -42.198  1.00  0.00    -0.082 Br
ENDBRANCH   5   8
ENDBRANCH   1   4
BRANCH   3  11
HETATM   11  C7  UNL     1     124.400 102.228 -43.363  1.00  0.00     0.011 C 
BRANCH  11  12
HETATM   12  C8  UNL     1     124.934 102.370 -44.763  1.00  0.00    -0.014 C 
HETATM   13  C9  UNL     1     124.154 103.310 -45.656  1.00  0.00     0.005 C 
HETATM   14  C10 UNL     1     124.474 102.340 -46.794  1.00  0.00     0.001 C 
HETATM   15  C11 UNL     1     124.546 101.255 -45.710  1.00  0.00     0.005 C 
ENDBRANCH  11  12
ENDBRANCH   3  11
TORSDOF 4
ENDMDL
MODEL 5
REMARK VINA RESULT: -4.584917240      2.355      5.809
REMARK  4 active torsions:
REMARK  status: ('A' for Active; 'I' for Inactive)
REMARK    1  A    between atoms: C2_2  and  C3_4 
REMARK       I    between atoms: C3_4  and  N1_6 
REMARK    2  A    between atoms: N1_6  and  C4_8 
REMARK    3  A    between atoms: C6_10  and  C7_11 
REMARK    4  A    between atoms: C7_11  and  C8_12 
ROOT
HETATM    1  C4  UNL     1     125.190 106.640 -41.534  1.00  0.00     0.089 A 
HETATM    2  C5  UNL     1     125.172 106.341 -40.053  1.00  0.00     0.032 A 
HETATM    3  C6  UNL     1     125.376 105.251 -41.100  1.00  0.00     0.010 A 
ENDROOT
BRANCH   1   4
HETATM    4  N1  UNL     1     123.985 107.092 -42.178  1.00  0.00    -0.355 N 
HETATM    5  C3  UNL     1     123.793 108.442 -42.571  1.00  0.00     0.232 C 
HETATM    6  O1  UNL     1     124.667 109.316 -42.376  1.00  0.00    -0.272 OA
ATOM      7  H1  UNL     1     123.242 106.417 -42.359  1.00  0.00     0.162 HD
BRANCH   5   8
HETATM    8  C2  UNL     1     122.526 108.847 -43.233  1.00  0.00     0.145 C 
HETATM    9  C1  UNL     1     121.414 108.835 -42.200  1.00  0.00     0.032 C 
HETATM   10 BR1  UNL     1     122.185 107.578 -44.646  1.00  0.00    -0.082 Br
ENDBRANCH   5   8
ENDBRANCH   1   4
BRANCH   3  11
HETATM   11  C7  UNL     1     124.295 104.226 -41.110  1.00  0.00     0.011 C 
BRANCH  11  12
HETATM   12  C8  UNL     1     124.908 102.921 -41.541  1.00  0.00    -0.014 C 
HETATM   13  C9  UNL     1     126.409 102.832 -41.380  1.00  0.00     0.005 C 
HETATM   14  C10 UNL     1     126.402 102.009 -42.669  1.00  0.00     0.001 C 
HETATM   15  C11 UNL     1     125.126 102.781 -43.032  1.00  0.00     0.005 C 
ENDBRANCH  11  12
ENDBRANCH   3  11
TORSDOF 4
ENDMDL
