MODEL 1
REMARK VINA RESULT: -5.973093514      0.000      0.000
REMARK  5 active torsions:
REMARK  status: ('A' for Active; 'I' for Inactive)
REMARK    1  A    between atoms: C1_2  and  C2_3 
REMARK       I    between atoms: C1_2  and  N1_6 
REMARK    2  A    between atoms: C2_3  and  C3_4 
REMARK    3  A    between atoms: N1_6  and  C4_8 
REMARK    4  A    between atoms: C4_8  and  C5_9 
REMARK    5  A    between atoms: C5_9  and  C6_10 
ROOT
HETATM    1  C6  UNL     1     124.524 107.148 -42.966  1.00  0.00    -0.032 C 
HETATM    2  C7  UNL     1     125.411 108.099 -43.786  1.00  0.00     0.015 C 
HETATM    3  C8  UNL     1     124.571 108.232 -45.058  1.00  0.00    -0.006 C 
HETATM    4  C9  UNL     1     123.489 109.259 -44.692  1.00  0.00     0.048 C 
HETATM    5  C10 UNL     1     122.545 108.350 -43.917  1.00  0.00     0.105 C 
HETATM    6  F1  UNL     1     121.368 108.940 -43.602  1.00  0.00    -0.243 F 
HETATM    7  C11 UNL     1     122.386 107.224 -44.946  1.00  0.00     0.048 C 
HETATM    8  C12 UNL     1     123.868 106.914 -45.196  1.00  0.00    -0.006 C 
HETATM    9  C13 UNL     1     124.306 106.067 -43.991  1.00  0.00     0.015 C 
HETATM   10  C14 UNL     1     123.208 107.800 -42.687  1.00  0.00     0.053 C 
ENDROOT
BRANCH   1  11
HETATM   11  C5  UNL     1     125.217 106.700 -41.727  1.00  0.00     0.054 C 
BRANCH  11  12
HETATM   12  C4  UNL     1     124.576 105.576 -41.010  1.00  0.00     0.064 C 
BRANCH  12  13
HETATM   13  N1  UNL     1     125.269 104.354 -40.926  1.00  0.00    -0.341 N 
HETATM   14  C1  UNL     1     125.005 103.158 -41.626  1.00  0.00     0.222 C 
HETATM   15  O1  UNL     1     124.073 103.012 -42.457  1.00  0.00    -0.273 OA
ATOM     16  H1  UNL     1     126.059 104.330 -40.281  1.00  0.00     0.167 HD
BRANCH  14  17
HETATM   17  C2  UNL     1     125.835 101.946 -41.425  1.00  0.00     0.118 C 
BRANCH  17  18
HETATM   18  C3  UNL     1     127.276 102.246 -41.184  1.00  0.00     0.124 C 
HETATM   19 CL1  UNL     1     128.242 100.780 -41.524  1.00  0.00    -0.130 Cl
ENDBRANCH  17  18
ENDBRANCH  14  17
ENDBRANCH  12  13
ENDBRANCH  11  12
ENDBRANCH   1  11
TORSDOF 5
ENDMDL
MODEL 2
REMARK VINA RESULT: -5.916003141      1.062      1.839
REMARK  5 active torsions:
REMARK  status: ('A' for Active; 'I' for Inactive)
REMARK    1  A    between atoms: C1_2  and  C2_3 
REMARK       I    between atoms: C1_2  and  N1_6 
REMARK    2  A    between atoms: C2_3  and  C3_4 
REMARK    3  A    between atoms: N1_6  and  C4_8 
REMARK    4  A    between atoms: C4_8  and  C5_9 
REMARK    5  A    between atoms: C5_9  and  C6_10 
ROOT
HETATM    1  C6  UNL     1     124.489 107.336 -42.807  1.00  0.00    -0.032 C 
HETATM    2  C7  UNL     1     123.161 107.970 -42.362  1.00  0.00     0.015 C 
HETATM    3  C8  UNL     1     122.743 108.672 -43.657  1.00  0.00    -0.006 C 
HETATM    4  C9  UNL     1     122.133 107.552 -44.514  1.00  0.00     0.048 C 
HETATM    5  C10 UNL     1     123.416 106.917 -45.030  1.00  0.00     0.105 C 
HETATM    6  F1  UNL     1     123.207 105.979 -45.984  1.00  0.00    -0.243 F 
HETATM    7  C11 UNL     1     124.112 108.171 -45.574  1.00  0.00     0.048 C 
HETATM    8  C12 UNL     1     124.031 109.054 -44.322  1.00  0.00    -0.006 C 
HETATM    9  C13 UNL     1     125.155 108.547 -43.405  1.00  0.00     0.015 C 
HETATM   10  C14 UNL     1     124.235 106.352 -43.904  1.00  0.00     0.053 C 
ENDROOT
BRANCH   1  11
HETATM   11  C5  UNL     1     125.211 106.734 -41.653  1.00  0.00     0.054 C 
BRANCH  11  12
HETATM   12  C4  UNL     1     124.543 105.577 -41.019  1.00  0.00     0.064 C 
BRANCH  12  13
HETATM   13  N1  UNL     1     125.238 104.355 -40.955  1.00  0.00    -0.341 N 
HETATM   14  C1  UNL     1     124.984 103.174 -41.684  1.00  0.00     0.222 C 
HETATM   15  O1  UNL     1     124.061 103.045 -42.528  1.00  0.00    -0.273 OA
ATOM     16  H1  UNL     1     126.021 104.319 -40.303  1.00  0.00     0.167 HD
BRANCH  14  17
HETATM   17  C2  UNL     1     125.815 101.959 -41.502  1.00  0.00     0.118 C 
BRANCH  17  18
HETATM   18  C3  UNL     1     127.240 102.259 -41.177  1.00  0.00     0.124 C 
HETATM   19 CL1  UNL     1     128.227 100.801 -41.490  1.00  0.00    -0.130 Cl
ENDBRANCH  17  18
ENDBRANCH  14  17
ENDBRANCH  12  13
ENDBRANCH  11  12
ENDBRANCH   1  11
TORSDOF 5
ENDMDL
MODEL 3
REMARK VINA RESULT: -5.755209785      1.247      2.145
REMARK  5 active torsions:
REMARK  status: ('A' for Active; 'I' for Inactive)
REMARK    1  A    between atoms: C1_2  and  C2_3 
REMARK       I    between atoms: C1_2  and  N1_6 
REMARK    2  A    between atoms: C2_3  and  C3_4 
REMARK    3  A    between atoms: N1_6  and  C4_8 
REMARK    4  A    between atoms: C4_8  and  C5_9 
REMARK    5  A    between atoms: C5_9  and  C6_10 
ROOT
HETATM    1  C6  UNL     1     124.542 106.350 -44.640  1.00  0.00    -0.032 C 
HETATM    2  C7  UNL     1     124.614 106.475 -43.110  1.00  0.00     0.015 C 
HETATM    3  C8  UNL     1     124.290 107.961 -42.939  1.00  0.00    -0.006 C 
HETATM    4  C9  UNL     1     122.760 108.031 -43.057  1.00  0.00     0.048 C 
HETATM    5  C10 UNL     1     122.632 107.966 -44.572  1.00  0.00     0.105 C 
HETATM    6  F1  UNL     1     121.373 108.191 -45.015  1.00  0.00    -0.243 F 
HETATM    7  C11 UNL     1     123.603 109.092 -44.951  1.00  0.00     0.048 C 
HETATM    8  C12 UNL     1     124.836 108.619 -44.171  1.00  0.00    -0.006 C 
HETATM    9  C13 UNL     1     125.441 107.495 -45.025  1.00  0.00     0.015 C 
HETATM   10  C14 UNL     1     123.157 106.665 -45.107  1.00  0.00     0.053 C 
ENDROOT
BRANCH   1  11
HETATM   11  C5  UNL     1     125.009 105.011 -45.093  1.00  0.00     0.054 C 
BRANCH  11  12
HETATM   12  C4  UNL     1     124.258 103.858 -44.551  1.00  0.00     0.064 C 
BRANCH  12  13
HETATM   13  N1  UNL     1     124.945 102.932 -43.744  1.00  0.00    -0.341 N 
HETATM   14  C1  UNL     1     124.894 102.800 -42.340  1.00  0.00     0.222 C 
HETATM   15  O1  UNL     1     124.199 103.524 -41.583  1.00  0.00    -0.273 OA
ATOM     16  H1  UNL     1     125.552 102.275 -44.234  1.00  0.00     0.167 HD
BRANCH  14  17
HETATM   17  C2  UNL     1     125.683 101.763 -41.632  1.00  0.00     0.118 C 
BRANCH  17  18
HETATM   18  C3  UNL     1     127.052 102.218 -41.251  1.00  0.00     0.124 C 
HETATM   19 CL1  UNL     1     128.213 100.893 -41.563  1.00  0.00    -0.130 Cl
ENDBRANCH  17  18
ENDBRANCH  14  17
ENDBRANCH  12  13
ENDBRANCH  11  12
ENDBRANCH   1  11
TORSDOF 5
ENDMDL
MODEL 4
REMARK VINA RESULT: -5.748988625      1.686      2.568
REMARK  5 active torsions:
REMARK  status: ('A' for Active; 'I' for Inactive)
REMARK    1  A    between atoms: C1_2  and  C2_3 
REMARK       I    between atoms: C1_2  and  N1_6 
REMARK    2  A    between atoms: C2_3  and  C3_4 
REMARK    3  A    between atoms: N1_6  and  C4_8 
REMARK    4  A    between atoms: C4_8  and  C5_9 
REMARK    5  A    between atoms: C5_9  and  C6_10 
ROOT
HETATM    1  C6  UNL     1     124.599 106.296 -44.645  1.00  0.00    -0.032 C 
HETATM    2  C7  UNL     1     123.188 106.647 -45.142  1.00  0.00     0.015 C 
HETATM    3  C8  UNL     1     122.942 107.950 -44.379  1.00  0.00    -0.006 C 
HETATM    4  C9  UNL     1     123.694 109.014 -45.195  1.00  0.00     0.048 C 
HETATM    5  C10 UNL     1     125.107 108.747 -44.696  1.00  0.00     0.105 C 
HETATM    6  F1  UNL     1     126.007 109.669 -45.110  1.00  0.00    -0.243 F 
HETATM    7  C11 UNL     1     124.851 108.806 -43.185  1.00  0.00     0.048 C 
HETATM    8  C12 UNL     1     123.701 107.794 -43.095  1.00  0.00    -0.006 C 
HETATM    9  C13 UNL     1     124.377 106.416 -43.161  1.00  0.00     0.015 C 
HETATM   10  C14 UNL     1     125.561 107.363 -45.062  1.00  0.00     0.053 C 
ENDROOT
BRANCH   1  11
HETATM   11  C5  UNL     1     125.011 104.941 -45.105  1.00  0.00     0.054 C 
BRANCH  11  12
HETATM   12  C4  UNL     1     124.249 103.814 -44.526  1.00  0.00     0.064 C 
BRANCH  12  13
HETATM   13  N1  UNL     1     124.932 102.891 -43.713  1.00  0.00    -0.341 N 
HETATM   14  C1  UNL     1     124.903 102.788 -42.306  1.00  0.00     0.222 C 
HETATM   15  O1  UNL     1     124.233 103.538 -41.552  1.00  0.00    -0.273 OA
ATOM     16  H1  UNL     1     125.520 102.214 -44.200  1.00  0.00     0.167 HD
BRANCH  14  17
HETATM   17  C2  UNL     1     125.686 101.751 -41.591  1.00  0.00     0.118 C 
BRANCH  17  18
HETATM   18  C3  UNL     1     127.066 102.191 -41.234  1.00  0.00     0.124 C 
HETATM   19 CL1  UNL     1     128.206 100.851 -41.558  1.00  0.00    -0.130 Cl
ENDBRANCH  17  18
ENDBRANCH  14  17
ENDBRANCH  12  13
ENDBRANCH  11  12
ENDBRANCH   1  11
TORSDOF 5
ENDMDL
MODEL 5
REMARK VINA RESULT: -5.683568655      1.115      1.765
REMARK  5 active torsions:
REMARK  status: ('A' for Active; 'I' for Inactive)
REMARK    1  A    between atoms: C1_2  and  C2_3 
REMARK       I    between atoms: C1_2  and  N1_6 
REMARK    2  A    between atoms: C2_3  and  C3_4 
REMARK    3  A    between atoms: N1_6  and  C4_8 
REMARK    4  A    between atoms: C4_8  and  C5_9 
REMARK    5  A    between atoms: C5_9  and  C6_10 
ROOT
HETATM    1  C6  UNL     1     124.537 107.380 -42.674  1.00  0.00    -0.032 C 
HETATM    2  C7  UNL     1     124.353 106.382 -43.829  1.00  0.00     0.015 C 
HETATM    3  C8  UNL     1     123.456 107.200 -44.761  1.00  0.00    -0.006 C 
HETATM    4  C9  UNL     1     124.427 108.144 -45.488  1.00  0.00     0.048 C 
HETATM    5  C10 UNL     1     124.604 109.193 -44.399  1.00  0.00     0.105 C 
HETATM    6  F1  UNL     1     125.288 110.286 -44.812  1.00  0.00    -0.243 F 
HETATM    7  C11 UNL     1     123.129 109.494 -44.103  1.00  0.00     0.048 C 
HETATM    8  C12 UNL     1     122.637 108.064 -43.848  1.00  0.00    -0.006 C 
HETATM    9  C13 UNL     1     123.096 107.734 -42.419  1.00  0.00     0.015 C 
HETATM   10  C14 UNL     1     125.239 108.603 -43.173  1.00  0.00     0.053 C 
ENDROOT
BRANCH   1  11
HETATM   11  C5  UNL     1     125.237 106.747 -41.522  1.00  0.00     0.054 C 
BRANCH  11  12
HETATM   12  C4  UNL     1     124.558 105.572 -40.933  1.00  0.00     0.064 C 
BRANCH  12  13
HETATM   13  N1  UNL     1     125.245 104.344 -40.909  1.00  0.00    -0.341 N 
HETATM   14  C1  UNL     1     124.995 103.196 -41.690  1.00  0.00     0.222 C 
HETATM   15  O1  UNL     1     124.084 103.107 -42.552  1.00  0.00    -0.273 OA
ATOM     16  H1  UNL     1     126.017 104.277 -40.247  1.00  0.00     0.167 HD
BRANCH  14  17
HETATM   17  C2  UNL     1     125.816 101.970 -41.545  1.00  0.00     0.118 C 
BRANCH  17  18
HETATM   18  C3  UNL     1     127.233 102.246 -41.170  1.00  0.00     0.124 C 
HETATM   19 CL1  UNL     1     128.217 100.789 -41.500  1.00  0.00    -0.130 Cl
ENDBRANCH  17  18
ENDBRANCH  14  17
ENDBRANCH  12  13
ENDBRANCH  11  12
ENDBRANCH   1  11
TORSDOF 5
ENDMDL
