MODEL 1
REMARK VINA RESULT: -4.269849164      0.000      0.000
REMARK  4 active torsions:
REMARK  status: ('A' for Active; 'I' for Inactive)
REMARK    1  A    between atoms: C1_2  and  C2_3 
REMARK    2  A    between atoms: C2_3  and  C3_4 
REMARK    3  A    between atoms: C3_4  and  C4_5 
REMARK    4  A    between atoms: C4_5  and  C5_6 
ROOT
HETATM    1  C5  UNL     1     124.316 107.080 -44.679  1.00  0.00    -0.002 C 
HETATM    2  C6  UNL     1     125.713 107.487 -45.017  1.00  0.00     0.243 C 
HETATM    3  N1  UNL     1     126.067 108.468 -43.983  1.00  0.00    -0.070 N 
ATOM      4  H11 UNL     1     126.341 109.374 -44.363  1.00  0.00     0.277 HD
ATOM      5  H12 UNL     1     126.947 108.256 -43.512  1.00  0.00     0.277 HD
HETATM    6  C7  UNL     1     124.937 108.543 -43.078  1.00  0.00     0.188 C 
HETATM    7  C8  UNL     1     123.839 109.261 -43.791  1.00  0.00     0.049 C 
HETATM    8  C9  UNL     1     123.399 108.253 -44.866  1.00  0.00     0.070 C 
HETATM    9 BR1  UNL     1     121.589 107.706 -44.603  1.00  0.00    -0.090 Br
HETATM   10  C10 UNL     1     124.421 107.091 -43.142  1.00  0.00     0.045 C 
ENDROOT
BRANCH   1  11
HETATM   11  C4  UNL     1     123.836 105.800 -45.221  1.00  0.00     0.012 C 
BRANCH  11  12
HETATM   12  C3  UNL     1     124.864 104.733 -45.360  1.00  0.00     0.002 C 
BRANCH  12  13
HETATM   13  C2  UNL     1     124.298 103.425 -44.878  1.00  0.00     0.015 C 
BRANCH  13  14
HETATM   14  C1  UNL     1     125.111 102.745 -43.832  1.00  0.00     0.114 C 
HETATM   15 CL1  UNL     1     124.795 103.547 -42.251  1.00  0.00    -0.130 Cl
ENDBRANCH  13  14
ENDBRANCH  12  13
ENDBRANCH  11  12
ENDBRANCH   1  11
TORSDOF 4
ENDMDL
MODEL 2
REMARK VINA RESULT: -4.238642914      1.381      1.386
REMARK  4 active torsions:
REMARK  status: ('A' for Active; 'I' for Inactive)
REMARK    1  A    between atoms: C1_2  and  C2_3 
REMARK    2  A    between atoms: C2_3  and  C3_4 
REMARK    3  A    between atoms: C3_4  and  C4_5 
REMARK    4  A    between atoms: C4_5  and  C5_6 
ROOT
HETATM    1  C5  UNL     1     124.294 106.973 -44.716  1.00  0.00    -0.002 C 
HETATM    2  C6  UNL     1     125.699 107.338 -45.065  1.00  0.00     0.243 C 
HETATM    3  N1  UNL     1     126.085 108.318 -44.040  1.00  0.00    -0.070 N 
ATOM      4  H11 UNL     1     126.382 109.213 -44.429  1.00  0.00     0.277 HD
ATOM      5  H12 UNL     1     126.961 108.086 -43.572  1.00  0.00     0.277 HD
HETATM    6  C7  UNL     1     124.962 108.432 -43.131  1.00  0.00     0.188 C 
HETATM    7  C8  UNL     1     123.880 109.174 -43.845  1.00  0.00     0.049 C 
HETATM    8  C9  UNL     1     123.408 108.170 -44.910  1.00  0.00     0.070 C 
HETATM    9 BR1  UNL     1     121.585 107.675 -44.633  1.00  0.00    -0.090 Br
HETATM   10  C10 UNL     1     124.406 106.995 -43.180  1.00  0.00     0.045 C 
ENDROOT
BRANCH   1  11
HETATM   11  C4  UNL     1     123.776 105.703 -45.246  1.00  0.00     0.012 C 
BRANCH  11  12
HETATM   12  C3  UNL     1     124.776 104.611 -45.396  1.00  0.00     0.002 C 
BRANCH  12  13
HETATM   13  C2  UNL     1     124.432 103.482 -44.465  1.00  0.00     0.015 C 
BRANCH  13  14
HETATM   14  C1  UNL     1     124.658 102.122 -45.028  1.00  0.00     0.114 C 
HETATM   15 CL1  UNL     1     123.976 102.072 -46.694  1.00  0.00    -0.130 Cl
ENDBRANCH  13  14
ENDBRANCH  12  13
ENDBRANCH  11  12
ENDBRANCH   1  11
TORSDOF 4
ENDMDL
MODEL 3
REMARK VINA RESULT: -4.232264893      1.860      2.254
REMARK  4 active torsions:
REMARK  status: ('A' for Active; 'I' for Inactive)
REMARK    1  A    between atoms: C1_2  and  C2_3 
REMARK    2  A    between atoms: C2_3  and  C3_4 
REMARK    3  A    between atoms: C3_4  and  C4_5 
REMARK    4  A    between atoms: C4_5  and  C5_6 
ROOT
HETATM    1  C5  UNL     1     124.078 106.247 -44.388  1.00  0.00    -0.002 C 
HETATM    2  C6  UNL     1     123.085 106.332 -45.500  1.00  0.00     0.243 C 
HETATM    3  N1  UNL     1     123.281 107.675 -46.063  1.00  0.00    -0.070 N 
ATOM      4  H11 UNL     1     122.434 108.243 -46.054  1.00  0.00     0.277 HD
ATOM      5  H12 UNL     1     123.422 107.671 -47.073  1.00  0.00     0.277 HD
HETATM    6  C7  UNL     1     124.381 108.274 -45.333  1.00  0.00     0.188 C 
HETATM    7  C8  UNL     1     123.883 108.605 -43.964  1.00  0.00     0.049 C 
HETATM    8  C9  UNL     1     123.701 107.224 -43.312  1.00  0.00     0.070 C 
HETATM    9 BR1  UNL     1     124.860 107.009 -41.810  1.00  0.00    -0.090 Br
HETATM   10  C10 UNL     1     125.239 107.028 -45.034  1.00  0.00     0.045 C 
ENDROOT
BRANCH   1  11
HETATM   11  C4  UNL     1     124.462 104.905 -43.927  1.00  0.00     0.012 C 
BRANCH  11  12
HETATM   12  C3  UNL     1     124.514 103.853 -44.978  1.00  0.00     0.002 C 
BRANCH  12  13
HETATM   13  C2  UNL     1     124.811 102.522 -44.342  1.00  0.00     0.015 C 
BRANCH  13  14
HETATM   14  C1  UNL     1     124.850 102.541 -42.853  1.00  0.00     0.114 C 
HETATM   15 CL1  UNL     1     126.525 102.156 -42.319  1.00  0.00    -0.130 Cl
ENDBRANCH  13  14
ENDBRANCH  12  13
ENDBRANCH  11  12
ENDBRANCH   1  11
TORSDOF 4
ENDMDL
MODEL 4
REMARK VINA RESULT: -4.217292134      2.176      2.457
REMARK  4 active torsions:
REMARK  status: ('A' for Active; 'I' for Inactive)
REMARK    1  A    between atoms: C1_2  and  C2_3 
REMARK    2  A    between atoms: C2_3  and  C3_4 
REMARK    3  A    between atoms: C3_4  and  C4_5 
REMARK    4  A    between atoms: C4_5  and  C5_6 
ROOT
HETATM    1  C5  UNL     1     124.636 106.830 -43.899  1.00  0.00    -0.002 C 
HETATM    2  C6  UNL     1     124.563 106.236 -42.531  1.00  0.00     0.243 C 
HETATM    3  N1  UNL     1     123.839 107.238 -41.737  1.00  0.00    -0.070 N 
ATOM      4  H11 UNL     1     124.362 107.565 -40.925  1.00  0.00     0.277 HD
ATOM      5  H12 UNL     1     123.044 106.852 -41.229  1.00  0.00     0.277 HD
HETATM    6  C7  UNL     1     123.473 108.304 -42.649  1.00  0.00     0.188 C 
HETATM    7  C8  UNL     1     124.720 109.053 -42.988  1.00  0.00     0.049 C 
HETATM    8  C9  UNL     1     125.502 108.057 -43.861  1.00  0.00     0.070 C 
HETATM    9 BR1  UNL     1     125.744 108.730 -45.632  1.00  0.00    -0.090 Br
HETATM   10  C10 UNL     1     123.253 107.506 -43.950  1.00  0.00     0.045 C 
ENDROOT
BRANCH   1  11
HETATM   11  C4  UNL     1     124.878 105.912 -45.021  1.00  0.00     0.012 C 
BRANCH  11  12
HETATM   12  C3  UNL     1     123.688 105.165 -45.511  1.00  0.00     0.002 C 
BRANCH  12  13
HETATM   13  C2  UNL     1     124.128 103.860 -46.116  1.00  0.00     0.015 C 
BRANCH  13  14
HETATM   14  C1  UNL     1     124.418 102.784 -45.128  1.00  0.00     0.114 C 
HETATM   15 CL1  UNL     1     124.436 101.204 -45.990  1.00  0.00    -0.130 Cl
ENDBRANCH  13  14
ENDBRANCH  12  13
ENDBRANCH  11  12
ENDBRANCH   1  11
TORSDOF 4
ENDMDL
MODEL 5
REMARK VINA RESULT: -4.117970552      1.796      2.426
REMARK  4 active torsions:
REMARK  status: ('A' for Active; 'I' for Inactive)
REMARK    1  A    between atoms: C1_2  and  C2_3 
REMARK    2  A    between atoms: C2_3  and  C3_4 
REMARK    3  A    between atoms: C3_4  and  C4_5 
REMARK    4  A    between atoms: C4_5  and  C5_6 
ROOT
HETATM    1  C5  UNL     1     124.270 107.410 -43.810  1.00  0.00    -0.002 C 
HETATM    2  C6  UNL     1     125.051 106.821 -44.938  1.00  0.00     0.243 C 
HETATM    3  N1  UNL     1     125.528 107.984 -45.698  1.00  0.00    -0.070 N 
ATOM      4  H11 UNL     1     125.236 107.974 -46.675  1.00  0.00     0.277 HD
ATOM      5  H12 UNL     1     126.534 107.970 -45.866  1.00  0.00     0.277 HD
HETATM    6  C7  UNL     1     125.083 109.161 -44.978  1.00  0.00     0.188 C 
HETATM    7  C8  UNL     1     123.607 109.275 -45.174  1.00  0.00     0.049 C 
HETATM    8  C9  UNL     1     123.051 108.096 -44.357  1.00  0.00     0.070 C 
HETATM    9 BR1  UNL     1     121.954 108.707 -42.919  1.00  0.00    -0.090 Br
HETATM   10  C10 UNL     1     125.142 108.648 -43.525  1.00  0.00     0.045 C 
ENDROOT
BRANCH   1  11
HETATM   11  C4  UNL     1     124.051 106.566 -42.627  1.00  0.00     0.012 C 
BRANCH  11  12
HETATM   12  C3  UNL     1     125.076 106.680 -41.554  1.00  0.00     0.002 C 
BRANCH  12  13
HETATM   13  C2  UNL     1     125.102 105.411 -40.747  1.00  0.00     0.015 C 
BRANCH  13  14
HETATM   14  C1  UNL     1     124.768 104.180 -41.515  1.00  0.00     0.114 C 
HETATM   15 CL1  UNL     1     126.106 102.994 -41.305  1.00  0.00    -0.130 Cl
ENDBRANCH  13  14
ENDBRANCH  12  13
ENDBRANCH  11  12
ENDBRANCH   1  11
TORSDOF 4
ENDMDL
