MODEL 1
REMARK VINA RESULT: -4.701825019      0.000      0.000
REMARK  4 active torsions:
REMARK  status: ('A' for Active; 'I' for Inactive)
REMARK    1  A    between atoms: C2_2  and  C4_4 
REMARK    2  A    between atoms: C4_4  and  N1_5 
REMARK    3  A    between atoms: N1_5  and  C5_7 
REMARK    4  A    between atoms: C5_7  and  C7_11 
ROOT
HETATM    1  C4  UNL     1     123.953 109.172 -42.445  1.00  0.00     0.100 A 
HETATM    2  C10 UNL     1     124.216 110.198 -41.431  1.00  0.00     0.023 A 
HETATM    3  C11 UNL     1     125.520 110.017 -40.621  1.00  0.00     0.021 C 
HETATM    4  C12 UNL     1     123.212 110.994 -40.689  1.00  0.00     0.021 C 
HETATM    5  C13 UNL     1     124.541 110.543 -42.864  1.00  0.00     0.152 A 
HETATM    6 CL1  UNL     1     123.453 111.729 -43.586  1.00  0.00    -0.098 Cl
HETATM    7 CL2  UNL     1     126.198 110.578 -43.439  1.00  0.00    -0.098 Cl
ENDROOT
BRANCH   1   8
HETATM    8  C2  UNL     1     122.698 108.911 -43.136  1.00  0.00    -0.061 C 
HETATM    9  C1  UNL     1     122.456 108.852 -44.431  1.00  0.00     0.016 C 
HETATM   10  C3  UNL     1     121.484 108.671 -42.256  1.00  0.00     0.045 C 
ENDBRANCH   1   8
BRANCH   1  11
HETATM   11  N1  UNL     1     124.957 108.093 -42.469  1.00  0.00    -0.363 N 
ATOM     12  H1  UNL     1     125.934 108.368 -42.373  1.00  0.00     0.162 HD
BRANCH  11  13
HETATM   13  C5  UNL     1     124.694 106.730 -42.612  1.00  0.00     0.076 C 
HETATM   14  N2  UNL     1     124.565 106.006 -43.612  1.00  0.00    -0.384 N 
HETATM   15  C6  UNL     1     124.598 106.092 -44.997  1.00  0.00     0.147 C 
ATOM     16  H2  UNL     1     124.377 105.046 -43.326  1.00  0.00     0.160 HD
BRANCH  13  17
HETATM   17  C7  UNL     1     124.509 105.976 -41.289  1.00  0.00     0.044 C 
HETATM   18  C8  UNL     1     124.755 104.514 -41.450  1.00  0.00     0.017 C 
HETATM   19  C9  UNL     1     125.459 106.609 -40.309  1.00  0.00     0.017 C 
ENDBRANCH  13  17
ENDBRANCH  11  13
ENDBRANCH   1  11
TORSDOF 4
ENDMDL
MODEL 2
REMARK VINA RESULT: -4.526269621      1.237      2.449
REMARK  4 active torsions:
REMARK  status: ('A' for Active; 'I' for Inactive)
REMARK    1  A    between atoms: C2_2  and  C4_4 
REMARK    2  A    between atoms: C4_4  and  N1_5 
REMARK    3  A    between atoms: N1_5  and  C5_7 
REMARK    4  A    between atoms: C5_7  and  C7_11 
ROOT
HETATM    1  C4  UNL     1     124.437 109.870 -41.960  1.00  0.00     0.100 A 
HETATM    2  C10 UNL     1     124.882 110.496 -40.711  1.00  0.00     0.023 A 
HETATM    3  C11 UNL     1     126.226 109.981 -40.148  1.00  0.00     0.021 C 
HETATM    4  C12 UNL     1     124.025 111.073 -39.651  1.00  0.00     0.021 C 
HETATM    5  C13 UNL     1     125.116 111.262 -41.990  1.00  0.00     0.152 A 
HETATM    6 CL1  UNL     1     124.090 112.684 -42.178  1.00  0.00    -0.098 Cl
HETATM    7 CL2  UNL     1     126.715 111.374 -42.704  1.00  0.00    -0.098 Cl
ENDROOT
BRANCH   1   8
HETATM    8  C2  UNL     1     123.110 109.927 -42.555  1.00  0.00    -0.061 C 
HETATM    9  C1  UNL     1     121.934 109.729 -41.992  1.00  0.00     0.016 C 
HETATM   10  C3  UNL     1     123.052 110.260 -44.037  1.00  0.00     0.045 C 
ENDBRANCH   1   8
BRANCH   1  11
HETATM   11  N1  UNL     1     125.327 108.794 -42.432  1.00  0.00    -0.363 N 
ATOM     12  H1  UNL     1     126.303 109.041 -42.597  1.00  0.00     0.162 HD
BRANCH  11  13
HETATM   13  C5  UNL     1     124.959 107.470 -42.675  1.00  0.00     0.076 C 
HETATM   14  N2  UNL     1     124.864 106.482 -41.930  1.00  0.00    -0.384 N 
HETATM   15  C6  UNL     1     125.040 106.136 -40.597  1.00  0.00     0.147 C 
ATOM     16  H2  UNL     1     124.562 105.669 -42.466  1.00  0.00     0.160 HD
BRANCH  13  17
HETATM   17  C7  UNL     1     124.624 107.161 -44.139  1.00  0.00     0.044 C 
HETATM   18  C8  UNL     1     125.693 107.642 -45.061  1.00  0.00     0.017 C 
HETATM   19  C9  UNL     1     124.429 105.672 -44.220  1.00  0.00     0.017 C 
ENDBRANCH  13  17
ENDBRANCH  11  13
ENDBRANCH   1  11
TORSDOF 4
ENDMDL
MODEL 3
REMARK VINA RESULT: -4.482163249      1.542      3.534
REMARK  4 active torsions:
REMARK  status: ('A' for Active; 'I' for Inactive)
REMARK    1  A    between atoms: C2_2  and  C4_4 
REMARK    2  A    between atoms: C4_4  and  N1_5 
REMARK    3  A    between atoms: N1_5  and  C5_7 
REMARK    4  A    between atoms: C5_7  and  C7_11 
ROOT
HETATM    1  C4  UNL     1     123.596 109.416 -43.014  1.00  0.00     0.100 A 
HETATM    2  C10 UNL     1     122.774 110.040 -44.055  1.00  0.00     0.023 A 
HETATM    3  C11 UNL     1     121.692 109.134 -44.685  1.00  0.00     0.021 C 
HETATM    4  C12 UNL     1     123.176 111.136 -44.967  1.00  0.00     0.021 C 
HETATM    5  C13 UNL     1     122.421 110.347 -42.620  1.00  0.00     0.152 A 
HETATM    6 CL1  UNL     1     122.799 111.996 -42.120  1.00  0.00    -0.098 Cl
HETATM    7 CL2  UNL     1     121.024 109.616 -41.851  1.00  0.00    -0.098 Cl
ENDROOT
BRANCH   1   8
HETATM    8  C2  UNL     1     124.852 109.905 -42.465  1.00  0.00    -0.061 C 
HETATM    9  C1  UNL     1     125.836 110.540 -43.070  1.00  0.00     0.016 C 
HETATM   10  C3  UNL     1     125.080 109.655 -40.983  1.00  0.00     0.045 C 
ENDBRANCH   1   8
BRANCH   1  11
HETATM   11  N1  UNL     1     123.288 107.991 -42.793  1.00  0.00    -0.363 N 
ATOM     12  H1  UNL     1     122.381 107.772 -42.381  1.00  0.00     0.162 HD
BRANCH  11  13
HETATM   13  C5  UNL     1     124.123 106.914 -43.094  1.00  0.00     0.076 C 
HETATM   14  N2  UNL     1     124.724 106.099 -42.377  1.00  0.00    -0.384 N 
HETATM   15  C6  UNL     1     124.909 105.800 -41.034  1.00  0.00     0.147 C 
ATOM     16  H2  UNL     1     125.245 105.442 -42.957  1.00  0.00     0.160 HD
BRANCH  13  17
HETATM   17  C7  UNL     1     124.366 106.699 -44.593  1.00  0.00     0.044 C 
HETATM   18  C8  UNL     1     125.642 107.329 -45.039  1.00  0.00     0.017 C 
HETATM   19  C9  UNL     1     124.359 105.210 -44.810  1.00  0.00     0.017 C 
ENDBRANCH  13  17
ENDBRANCH  11  13
ENDBRANCH   1  11
TORSDOF 4
ENDMDL
MODEL 4
REMARK VINA RESULT: -4.423874191      1.846      4.003
REMARK  4 active torsions:
REMARK  status: ('A' for Active; 'I' for Inactive)
REMARK    1  A    between atoms: C2_2  and  C4_4 
REMARK    2  A    between atoms: C4_4  and  N1_5 
REMARK    3  A    between atoms: N1_5  and  C5_7 
REMARK    4  A    between atoms: C5_7  and  C7_11 
ROOT
HETATM    1  C4  UNL     1     124.072 109.140 -43.560  1.00  0.00     0.100 A 
HETATM    2  C10 UNL     1     122.815 108.440 -43.845  1.00  0.00     0.023 A 
HETATM    3  C11 UNL     1     121.776 108.441 -42.701  1.00  0.00     0.021 C 
HETATM    4  C12 UNL     1     122.624 107.293 -44.762  1.00  0.00     0.021 C 
HETATM    5  C13 UNL     1     122.972 109.833 -44.404  1.00  0.00     0.152 A 
HETATM    6 CL1  UNL     1     123.179 109.890 -46.154  1.00  0.00    -0.098 Cl
HETATM    7 CL2  UNL     1     122.136 111.200 -43.688  1.00  0.00    -0.098 Cl
ENDROOT
BRANCH   1   8
HETATM    8  C2  UNL     1     125.321 109.056 -44.303  1.00  0.00    -0.061 C 
HETATM    9  C1  UNL     1     125.894 108.004 -44.853  1.00  0.00     0.016 C 
HETATM   10  C3  UNL     1     126.086 110.357 -44.479  1.00  0.00     0.045 C 
ENDBRANCH   1   8
BRANCH   1  11
HETATM   11  N1  UNL     1     124.154 109.673 -42.188  1.00  0.00    -0.363 N 
ATOM     12  H1  UNL     1     123.567 110.477 -41.968  1.00  0.00     0.162 HD
BRANCH  11  13
HETATM   13  C5  UNL     1     124.961 109.179 -41.162  1.00  0.00     0.076 C 
HETATM   14  N2  UNL     1     125.326 108.030 -40.869  1.00  0.00    -0.384 N 
HETATM   15  C6  UNL     1     125.180 106.722 -41.314  1.00  0.00     0.147 C 
ATOM     16  H2  UNL     1     125.921 108.053 -40.042  1.00  0.00     0.160 HD
BRANCH  13  17
HETATM   17  C7  UNL     1     125.486 110.248 -40.196  1.00  0.00     0.044 C 
HETATM   18  C8  UNL     1     126.522 111.108 -40.837  1.00  0.00     0.017 C 
HETATM   19  C9  UNL     1     124.285 111.038 -39.750  1.00  0.00     0.017 C 
ENDBRANCH  13  17
ENDBRANCH  11  13
ENDBRANCH   1  11
TORSDOF 4
ENDMDL
MODEL 5
REMARK VINA RESULT: -4.423372435      1.338      2.906
REMARK  4 active torsions:
REMARK  status: ('A' for Active; 'I' for Inactive)
REMARK    1  A    between atoms: C2_2  and  C4_4 
REMARK    2  A    between atoms: C4_4  and  N1_5 
REMARK    3  A    between atoms: N1_5  and  C5_7 
REMARK    4  A    between atoms: C5_7  and  C7_11 
ROOT
HETATM    1  C4  UNL     1     123.641 108.872 -43.180  1.00  0.00     0.100 A 
HETATM    2  C10 UNL     1     122.669 109.016 -44.268  1.00  0.00     0.023 A 
HETATM    3  C11 UNL     1     121.590 107.912 -44.349  1.00  0.00     0.021 C 
HETATM    4  C12 UNL     1     122.889 109.669 -45.578  1.00  0.00     0.021 C 
HETATM    5  C13 UNL     1     122.455 109.858 -43.034  1.00  0.00     0.152 A 
HETATM    6 CL1  UNL     1     122.769 111.577 -43.269  1.00  0.00    -0.098 Cl
HETATM    7 CL2  UNL     1     121.206 109.462 -41.867  1.00  0.00    -0.098 Cl
ENDROOT
BRANCH   1   8
HETATM    8  C2  UNL     1     124.914 109.564 -43.033  1.00  0.00    -0.061 C 
HETATM    9  C1  UNL     1     125.824 109.840 -43.945  1.00  0.00     0.016 C 
HETATM   10  C3  UNL     1     125.257 110.045 -41.633  1.00  0.00     0.045 C 
ENDBRANCH   1   8
BRANCH   1  11
HETATM   11  N1  UNL     1     123.461 107.645 -42.384  1.00  0.00    -0.363 N 
ATOM     12  H1  UNL     1     122.731 107.659 -41.671  1.00  0.00     0.162 HD
BRANCH  11  13
HETATM   13  C5  UNL     1     124.196 106.466 -42.514  1.00  0.00     0.076 C 
HETATM   14  N2  UNL     1     124.637 105.864 -43.505  1.00  0.00    -0.384 N 
HETATM   15  C6  UNL     1     124.668 105.975 -44.889  1.00  0.00     0.147 C 
ATOM     16  H2  UNL     1     125.134 105.023 -43.211  1.00  0.00     0.160 HD
BRANCH  13  17
HETATM   17  C7  UNL     1     124.506 105.761 -41.188  1.00  0.00     0.044 C 
HETATM   18  C8  UNL     1     125.009 104.374 -41.407  1.00  0.00     0.017 C 
HETATM   19  C9  UNL     1     125.511 106.626 -40.477  1.00  0.00     0.017 C 
ENDBRANCH  13  17
ENDBRANCH  11  13
ENDBRANCH   1  11
TORSDOF 4
ENDMDL
