MODEL 1
REMARK VINA RESULT: -5.561598866      0.000      0.000
REMARK  4 active torsions:
REMARK  status: ('A' for Active; 'I' for Inactive)
REMARK    1  A    between atoms: C3_3  and  C4_4 
REMARK    2  A    between atoms: C5_7  and  C6_8 
REMARK       I    between atoms: C6_8  and  N2_10 
REMARK    3  A    between atoms: C7_12  and  C8_13 
REMARK    4  A    between atoms: C8_13  and  C9_14 
ROOT
HETATM    1  C6  UNL     1     125.034 102.514 -43.991  1.00  0.00     0.226 C 
HETATM    2  O2  UNL     1     124.673 101.430 -44.472  1.00  0.00    -0.273 OA
HETATM    3  N2  UNL     1     124.263 103.656 -44.342  1.00  0.00    -0.340 N 
ATOM      4  H2  UNL     1     123.243 103.630 -44.302  1.00  0.00     0.167 HD
HETATM    5  C7  UNL     1     124.875 104.716 -44.709  1.00  0.00     0.067 C 
ENDROOT
BRANCH   1   6
HETATM    6  C5  UNL     1     126.189 102.670 -43.101  1.00  0.00     0.095 A 
HETATM    7  C2  UNL     1     126.216 101.937 -41.791  1.00  0.00     0.009 A 
HETATM    8  C1  UNL     1     127.453 101.160 -41.439  1.00  0.00     0.011 C 
HETATM    9  C3  UNL     1     126.233 103.420 -41.849  1.00  0.00     0.093 A 
BRANCH   9  10
HETATM   10  C4  UNL     1     125.117 104.115 -41.195  1.00  0.00     0.236 C 
HETATM   11  N1  UNL     1     125.281 105.467 -40.786  1.00  0.00    -0.062 NA
HETATM   12  O1  UNL     1     123.983 103.593 -40.956  1.00  0.00    -0.276 OA
ENDBRANCH   9  10
ENDBRANCH   1   6
BRANCH   5  13
HETATM   13  C8  UNL     1     124.164 105.964 -45.096  1.00  0.00     0.074 C 
BRANCH  13  14
HETATM   14  C9  UNL     1     124.056 106.805 -43.886  1.00  0.00     0.015 C 
HETATM   15  C10 UNL     1     124.928 107.776 -43.644  1.00  0.00     0.100 C 
HETATM   16 CL1  UNL     1     126.234 108.090 -44.754  1.00  0.00    -0.071 Cl
HETATM   17 CL2  UNL     1     124.771 108.758 -42.194  1.00  0.00    -0.071 Cl
ENDBRANCH  13  14
ENDBRANCH   5  13
TORSDOF 4
ENDMDL
MODEL 2
REMARK VINA RESULT: -5.553392150      4.064      5.627
REMARK  4 active torsions:
REMARK  status: ('A' for Active; 'I' for Inactive)
REMARK    1  A    between atoms: C3_3  and  C4_4 
REMARK    2  A    between atoms: C5_7  and  C6_8 
REMARK       I    between atoms: C6_8  and  N2_10 
REMARK    3  A    between atoms: C7_12  and  C8_13 
REMARK    4  A    between atoms: C8_13  and  C9_14 
ROOT
HETATM    1  C6  UNL     1     125.087 106.885 -44.995  1.00  0.00     0.226 C 
HETATM    2  O2  UNL     1     125.866 107.613 -45.627  1.00  0.00    -0.273 OA
HETATM    3  N2  UNL     1     125.228 105.482 -45.185  1.00  0.00    -0.340 N 
ATOM      4  H2  UNL     1     126.148 105.042 -45.156  1.00  0.00     0.167 HD
HETATM    5  C7  UNL     1     124.177 104.786 -45.394  1.00  0.00     0.067 C 
ENDROOT
BRANCH   1   6
HETATM    6  C5  UNL     1     124.053 107.388 -44.085  1.00  0.00     0.095 A 
HETATM    7  C2  UNL     1     124.430 108.361 -43.005  1.00  0.00     0.009 A 
HETATM    8  C1  UNL     1     123.603 109.605 -42.853  1.00  0.00     0.011 C 
HETATM    9  C3  UNL     1     123.870 107.024 -42.682  1.00  0.00     0.093 A 
BRANCH   9  10
HETATM   10  C4  UNL     1     124.720 106.133 -41.882  1.00  0.00     0.236 C 
HETATM   11  N1  UNL     1     125.550 106.686 -40.869  1.00  0.00    -0.062 NA
HETATM   12  O1  UNL     1     124.779 104.872 -42.025  1.00  0.00    -0.276 OA
ENDBRANCH   9  10
ENDBRANCH   1   6
BRANCH   5  13
HETATM   13  C8  UNL     1     124.214 103.314 -45.605  1.00  0.00     0.074 C 
BRANCH  13  14
HETATM   14  C9  UNL     1     123.681 103.048 -46.956  1.00  0.00     0.015 C 
HETATM   15  C10 UNL     1     123.746 101.838 -47.497  1.00  0.00     0.100 C 
HETATM   16 CL1  UNL     1     124.470 100.517 -46.621  1.00  0.00    -0.071 Cl
HETATM   17 CL2  UNL     1     123.102 101.557 -49.107  1.00  0.00    -0.071 Cl
ENDBRANCH  13  14
ENDBRANCH   5  13
TORSDOF 4
ENDMDL
MODEL 3
REMARK VINA RESULT: -5.343882360      3.787      6.335
REMARK  4 active torsions:
REMARK  status: ('A' for Active; 'I' for Inactive)
REMARK    1  A    between atoms: C3_3  and  C4_4 
REMARK    2  A    between atoms: C5_7  and  C6_8 
REMARK       I    between atoms: C6_8  and  N2_10 
REMARK    3  A    between atoms: C7_12  and  C8_13 
REMARK    4  A    between atoms: C8_13  and  C9_14 
ROOT
HETATM    1  C6  UNL     1     123.885 108.224 -42.826  1.00  0.00     0.226 C 
HETATM    2  O2  UNL     1     122.738 108.687 -42.909  1.00  0.00    -0.273 OA
HETATM    3  N2  UNL     1     123.993 106.832 -42.558  1.00  0.00    -0.340 N 
ATOM      4  H2  UNL     1     123.428 106.155 -43.072  1.00  0.00     0.167 HD
HETATM    5  C7  UNL     1     124.813 106.446 -41.657  1.00  0.00     0.067 C 
ENDROOT
BRANCH   1   6
HETATM    6  C5  UNL     1     125.103 109.023 -42.988  1.00  0.00     0.095 A 
HETATM    7  C2  UNL     1     125.113 110.166 -43.962  1.00  0.00     0.009 A 
HETATM    8  C1  UNL     1     125.634 111.494 -43.490  1.00  0.00     0.011 C 
HETATM    9  C3  UNL     1     126.019 109.002 -44.125  1.00  0.00     0.093 A 
BRANCH   9  10
HETATM   10  C4  UNL     1     125.873 108.226 -45.364  1.00  0.00     0.236 C 
HETATM   11  N1  UNL     1     125.908 108.898 -46.616  1.00  0.00    -0.062 NA
HETATM   12  O1  UNL     1     125.711 106.966 -45.411  1.00  0.00    -0.276 OA
ENDBRANCH   9  10
ENDBRANCH   1   6
BRANCH   5  13
HETATM   13  C8  UNL     1     125.003 105.015 -41.298  1.00  0.00     0.074 C 
BRANCH  13  14
HETATM   14  C9  UNL     1     124.679 104.213 -42.496  1.00  0.00     0.015 C 
HETATM   15  C10 UNL     1     125.192 103.003 -42.674  1.00  0.00     0.100 C 
HETATM   16 CL1  UNL     1     126.273 102.318 -41.490  1.00  0.00    -0.071 Cl
HETATM   17 CL2  UNL     1     124.786 102.076 -44.111  1.00  0.00    -0.071 Cl
ENDBRANCH  13  14
ENDBRANCH   5  13
TORSDOF 4
ENDMDL
MODEL 4
REMARK VINA RESULT: -5.188295881      3.345      6.023
REMARK  4 active torsions:
REMARK  status: ('A' for Active; 'I' for Inactive)
REMARK    1  A    between atoms: C3_3  and  C4_4 
REMARK    2  A    between atoms: C5_7  and  C6_8 
REMARK       I    between atoms: C6_8  and  N2_10 
REMARK    3  A    between atoms: C7_12  and  C8_13 
REMARK    4  A    between atoms: C8_13  and  C9_14 
ROOT
HETATM    1  C6  UNL     1     124.450 108.499 -42.383  1.00  0.00     0.226 C 
HETATM    2  O2  UNL     1     123.882 109.495 -41.911  1.00  0.00    -0.273 OA
HETATM    3  N2  UNL     1     124.173 107.252 -41.758  1.00  0.00    -0.340 N 
ATOM      4  H2  UNL     1     123.215 106.980 -41.537  1.00  0.00     0.167 HD
HETATM    5  C7  UNL     1     125.152 106.478 -41.480  1.00  0.00     0.067 C 
ENDROOT
BRANCH   1   6
HETATM    6  C5  UNL     1     125.368 108.545 -43.524  1.00  0.00     0.095 A 
HETATM    7  C2  UNL     1     124.878 109.060 -44.847  1.00  0.00     0.009 A 
HETATM    8  C1  UNL     1     125.707 110.092 -45.557  1.00  0.00     0.011 C 
HETATM    9  C3  UNL     1     125.361 107.665 -44.690  1.00  0.00     0.093 A 
BRANCH   9  10
HETATM   10  C4  UNL     1     124.395 106.599 -44.986  1.00  0.00     0.236 C 
HETATM   11  N1  UNL     1     124.857 105.376 -45.545  1.00  0.00    -0.062 NA
HETATM   12  O1  UNL     1     123.145 106.681 -44.779  1.00  0.00    -0.276 OA
ENDBRANCH   9  10
ENDBRANCH   1   6
BRANCH   5  13
HETATM   13  C8  UNL     1     124.972 105.154 -40.828  1.00  0.00     0.074 C 
BRANCH  13  14
HETATM   14  C9  UNL     1     124.584 104.193 -41.880  1.00  0.00     0.015 C 
HETATM   15  C10 UNL     1     125.303 103.103 -42.116  1.00  0.00     0.100 C 
HETATM   16 CL1  UNL     1     126.739 102.772 -41.186  1.00  0.00    -0.071 Cl
HETATM   17 CL2  UNL     1     124.812 101.980 -43.376  1.00  0.00    -0.071 Cl
ENDBRANCH  13  14
ENDBRANCH   5  13
TORSDOF 4
ENDMDL
MODEL 5
REMARK VINA RESULT: -5.169849816      1.860      3.100
REMARK  4 active torsions:
REMARK  status: ('A' for Active; 'I' for Inactive)
REMARK    1  A    between atoms: C3_3  and  C4_4 
REMARK    2  A    between atoms: C5_7  and  C6_8 
REMARK       I    between atoms: C6_8  and  N2_10 
REMARK    3  A    between atoms: C7_12  and  C8_13 
REMARK    4  A    between atoms: C8_13  and  C9_14 
ROOT
HETATM    1  C6  UNL     1     124.700 104.311 -41.646  1.00  0.00     0.226 C 
HETATM    2  O2  UNL     1     124.094 103.682 -40.767  1.00  0.00    -0.273 OA
HETATM    3  N2  UNL     1     124.790 105.720 -41.475  1.00  0.00    -0.340 N 
ATOM      4  H2  UNL     1     125.058 106.120 -40.576  1.00  0.00     0.167 HD
HETATM    5  C7  UNL     1     124.529 106.473 -42.474  1.00  0.00     0.067 C 
ENDROOT
BRANCH   1   6
HETATM    6  C5  UNL     1     125.312 103.687 -42.824  1.00  0.00     0.095 A 
HETATM    7  C2  UNL     1     124.715 102.430 -43.387  1.00  0.00     0.009 A 
HETATM    8  C1  UNL     1     124.456 102.369 -44.866  1.00  0.00     0.011 C 
HETATM    9  C3  UNL     1     126.101 102.459 -42.854  1.00  0.00     0.093 A 
BRANCH   9  10
HETATM   10  C4  UNL     1     126.387 101.565 -41.724  1.00  0.00     0.236 C 
HETATM   11  N1  UNL     1     127.701 101.523 -41.184  1.00  0.00    -0.062 NA
HETATM   12  O1  UNL     1     125.532 100.802 -41.173  1.00  0.00    -0.276 OA
ENDBRANCH   9  10
ENDBRANCH   1   6
BRANCH   5  13
HETATM   13  C8  UNL     1     124.593 107.958 -42.402  1.00  0.00     0.074 C 
BRANCH  13  14
HETATM   14  C9  UNL     1     123.928 108.487 -43.610  1.00  0.00     0.015 C 
HETATM   15  C10 UNL     1     124.609 108.717 -44.726  1.00  0.00     0.100 C 
HETATM   16 CL1  UNL     1     126.321 108.398 -44.798  1.00  0.00    -0.071 Cl
HETATM   17 CL2  UNL     1     123.786 109.347 -46.145  1.00  0.00    -0.071 Cl
ENDBRANCH  13  14
ENDBRANCH   5  13
TORSDOF 4
ENDMDL
