MODEL 1
REMARK VINA RESULT: -4.890827598      0.000      0.000
REMARK  5 active torsions:
REMARK  status: ('A' for Active; 'I' for Inactive)
REMARK    1  A    between atoms: C2_2  and  C3_3 
REMARK    2  A    between atoms: C3_3  and  N1_5 
REMARK    3  A    between atoms: N1_5  and  C4_7 
REMARK    4  A    between atoms: C4_7  and  C5_8 
REMARK    5  A    between atoms: C5_8  and  C6_9 
ROOT
HETATM    1  C3  UNL     1     124.235 105.960 -43.805  1.00  0.00     0.082 C 
HETATM    2  S1  UNL     1     123.523 106.254 -45.251  1.00  0.00    -0.065 SA
ENDROOT
BRANCH   1   3
HETATM    3  C2  UNL     1     124.481 107.048 -42.836  1.00  0.00     0.015 C 
HETATM    4  C1  UNL     1     125.020 106.531 -41.526  1.00  0.00     0.023 C 
HETATM    5  C9  UNL     1     125.236 108.222 -43.405  1.00  0.00     0.058 C 
HETATM    6  C10 UNL     1     124.246 109.142 -42.761  1.00  0.00     0.115 C 
HETATM    7 CL1  UNL     1     124.735 109.830 -41.204  1.00  0.00    -0.102 Cl
HETATM    8 CL2  UNL     1     123.616 110.412 -43.846  1.00  0.00    -0.102 Cl
HETATM    9  C11 UNL     1     123.277 107.985 -42.668  1.00  0.00     0.058 C 
ENDBRANCH   1   3
BRANCH   1  10
HETATM   10  N1  UNL     1     124.614 104.630 -43.494  1.00  0.00    -0.384 N 
ATOM     11  H1  UNL     1     124.916 104.427 -42.541  1.00  0.00     0.160 HD
BRANCH  10  12
HETATM   12  C4  UNL     1     124.599 103.557 -44.437  1.00  0.00     0.120 C 
BRANCH  12  13
HETATM   13  C5  UNL     1     125.256 102.329 -43.795  1.00  0.00     0.024 C 
BRANCH  13  14
HETATM   14  C6  UNL     1     125.419 102.666 -42.325  1.00  0.00    -0.013 A 
HETATM   15  C7  UNL     1     125.486 101.455 -41.370  1.00  0.00     0.005 A 
HETATM   16  C8  UNL     1     126.689 102.331 -41.636  1.00  0.00     0.005 A 
ENDBRANCH  13  14
ENDBRANCH  12  13
ENDBRANCH  10  12
ENDBRANCH   1  10
TORSDOF 5
ENDMDL
MODEL 2
REMARK VINA RESULT: -4.737733709      1.490      1.838
REMARK  5 active torsions:
REMARK  status: ('A' for Active; 'I' for Inactive)
REMARK    1  A    between atoms: C2_2  and  C3_3 
REMARK    2  A    between atoms: C3_3  and  N1_5 
REMARK    3  A    between atoms: N1_5  and  C4_7 
REMARK    4  A    between atoms: C4_7  and  C5_8 
REMARK    5  A    between atoms: C5_8  and  C6_9 
ROOT
HETATM    1  C3  UNL     1     123.850 105.922 -45.355  1.00  0.00     0.082 C 
HETATM    2  S1  UNL     1     122.405 105.877 -46.127  1.00  0.00    -0.065 SA
ENDROOT
BRANCH   1   3
HETATM    3  C2  UNL     1     124.279 107.117 -44.600  1.00  0.00     0.015 C 
HETATM    4  C1  UNL     1     125.712 107.486 -44.888  1.00  0.00     0.023 C 
HETATM    5  C9  UNL     1     123.309 108.269 -44.664  1.00  0.00     0.058 C 
HETATM    6  C10 UNL     1     123.448 108.439 -43.183  1.00  0.00     0.115 C 
HETATM    7 CL1  UNL     1     124.591 109.683 -42.654  1.00  0.00    -0.102 Cl
HETATM    8 CL2  UNL     1     121.894 108.596 -42.317  1.00  0.00    -0.102 Cl
HETATM    9  C11 UNL     1     123.968 107.021 -43.100  1.00  0.00     0.058 C 
ENDBRANCH   1   3
BRANCH   1  10
HETATM   10  N1  UNL     1     124.691 104.783 -45.425  1.00  0.00    -0.384 N 
ATOM     11  H1  UNL     1     125.640 104.908 -45.776  1.00  0.00     0.160 HD
BRANCH  10  12
HETATM   12  C4  UNL     1     124.286 103.470 -45.032  1.00  0.00     0.120 C 
BRANCH  12  13
HETATM   13  C5  UNL     1     125.328 102.906 -44.057  1.00  0.00     0.024 C 
BRANCH  13  14
HETATM   14  C6  UNL     1     124.623 102.787 -42.719  1.00  0.00    -0.013 A 
HETATM   15  C7  UNL     1     125.508 102.327 -41.541  1.00  0.00     0.005 A 
HETATM   16  C8  UNL     1     124.963 103.734 -41.630  1.00  0.00     0.005 A 
ENDBRANCH  13  14
ENDBRANCH  12  13
ENDBRANCH  10  12
ENDBRANCH   1  10
TORSDOF 5
ENDMDL
MODEL 3
REMARK VINA RESULT: -4.687359025      1.724      2.626
REMARK  5 active torsions:
REMARK  status: ('A' for Active; 'I' for Inactive)
REMARK    1  A    between atoms: C2_2  and  C3_3 
REMARK    2  A    between atoms: C3_3  and  N1_5 
REMARK    3  A    between atoms: N1_5  and  C4_7 
REMARK    4  A    between atoms: C4_7  and  C5_8 
REMARK    5  A    between atoms: C5_8  and  C6_9 
ROOT
HETATM    1  C3  UNL     1     122.981 107.149 -45.121  1.00  0.00     0.082 C 
HETATM    2  S1  UNL     1     121.372 107.162 -45.428  1.00  0.00    -0.065 SA
ENDROOT
BRANCH   1   3
HETATM    3  C2  UNL     1     123.581 108.068 -44.132  1.00  0.00     0.015 C 
HETATM    4  C1  UNL     1     123.447 109.512 -44.544  1.00  0.00     0.023 C 
HETATM    5  C9  UNL     1     123.185 107.783 -42.706  1.00  0.00     0.058 C 
HETATM    6  C10 UNL     1     124.621 107.917 -42.304  1.00  0.00     0.115 C 
HETATM    7 CL1  UNL     1     125.095 109.494 -41.653  1.00  0.00    -0.102 Cl
HETATM    8 CL2  UNL     1     125.213 106.596 -41.259  1.00  0.00    -0.102 Cl
HETATM    9  C11 UNL     1     125.015 107.680 -43.745  1.00  0.00     0.058 C 
ENDBRANCH   1   3
BRANCH   1  10
HETATM   10  N1  UNL     1     123.799 106.232 -45.828  1.00  0.00    -0.384 N 
ATOM     11  H1  UNL     1     124.533 106.606 -46.428  1.00  0.00     0.160 HD
BRANCH  10  12
HETATM   12  C4  UNL     1     123.654 104.812 -45.749  1.00  0.00     0.120 C 
BRANCH  12  13
HETATM   13  C5  UNL     1     124.928 104.222 -45.131  1.00  0.00     0.024 C 
BRANCH  13  14
HETATM   14  C6  UNL     1     124.461 103.173 -44.140  1.00  0.00    -0.013 A 
HETATM   15  C7  UNL     1     125.581 102.366 -43.450  1.00  0.00     0.005 A 
HETATM   16  C8  UNL     1     124.734 103.364 -42.694  1.00  0.00     0.005 A 
ENDBRANCH  13  14
ENDBRANCH  12  13
ENDBRANCH  10  12
ENDBRANCH   1  10
TORSDOF 5
ENDMDL
MODEL 4
REMARK VINA RESULT: -4.676073732      1.429      2.186
REMARK  5 active torsions:
REMARK  status: ('A' for Active; 'I' for Inactive)
REMARK    1  A    between atoms: C2_2  and  C3_3 
REMARK    2  A    between atoms: C3_3  and  N1_5 
REMARK    3  A    between atoms: N1_5  and  C4_7 
REMARK    4  A    between atoms: C4_7  and  C5_8 
REMARK    5  A    between atoms: C5_8  and  C6_9 
ROOT
HETATM    1  C3  UNL     1     123.709 106.224 -45.133  1.00  0.00     0.082 C 
HETATM    2  S1  UNL     1     122.397 106.078 -46.103  1.00  0.00    -0.065 SA
ENDROOT
BRANCH   1   3
HETATM    3  C2  UNL     1     123.959 107.458 -44.362  1.00  0.00     0.015 C 
HETATM    4  C1  UNL     1     123.625 108.699 -45.151  1.00  0.00     0.023 C 
HETATM    5  C9  UNL     1     123.400 107.436 -42.962  1.00  0.00     0.058 C 
HETATM    6  C10 UNL     1     124.702 107.975 -42.457  1.00  0.00     0.115 C 
HETATM    7 CL1  UNL     1     124.762 109.726 -42.197  1.00  0.00    -0.102 Cl
HETATM    8 CL2  UNL     1     125.355 107.102 -41.044  1.00  0.00    -0.102 Cl
HETATM    9  C11 UNL     1     125.359 107.500 -43.733  1.00  0.00     0.058 C 
ENDBRANCH   1   3
BRANCH   1  10
HETATM   10  N1  UNL     1     124.610 105.133 -45.044  1.00  0.00    -0.384 N 
ATOM     11  H1  UNL     1     125.610 105.334 -45.058  1.00  0.00     0.160 HD
BRANCH  10  12
HETATM   12  C4  UNL     1     124.200 103.768 -44.935  1.00  0.00     0.120 C 
BRANCH  12  13
HETATM   13  C5  UNL     1     125.237 103.009 -44.098  1.00  0.00     0.024 C 
BRANCH  13  14
HETATM   14  C6  UNL     1     124.594 102.788 -42.742  1.00  0.00    -0.013 A 
HETATM   15  C7  UNL     1     125.557 102.365 -41.612  1.00  0.00     0.005 A 
HETATM   16  C8  UNL     1     124.896 103.724 -41.631  1.00  0.00     0.005 A 
ENDBRANCH  13  14
ENDBRANCH  12  13
ENDBRANCH  10  12
ENDBRANCH   1  10
TORSDOF 5
ENDMDL
MODEL 5
REMARK VINA RESULT: -4.573093989      1.813      2.317
REMARK  5 active torsions:
REMARK  status: ('A' for Active; 'I' for Inactive)
REMARK    1  A    between atoms: C2_2  and  C3_3 
REMARK    2  A    between atoms: C3_3  and  N1_5 
REMARK    3  A    between atoms: N1_5  and  C4_7 
REMARK    4  A    between atoms: C4_7  and  C5_8 
REMARK    5  A    between atoms: C5_8  and  C6_9 
ROOT
HETATM    1  C3  UNL     1     124.570 105.811 -42.893  1.00  0.00     0.082 C 
HETATM    2  S1  UNL     1     124.827 105.768 -41.276  1.00  0.00    -0.065 SA
ENDROOT
BRANCH   1   3
HETATM    3  C2  UNL     1     124.210 107.068 -43.580  1.00  0.00     0.015 C 
HETATM    4  C1  UNL     1     125.426 107.825 -44.051  1.00  0.00     0.023 C 
HETATM    5  C9  UNL     1     123.124 106.918 -44.614  1.00  0.00     0.058 C 
HETATM    6  C10 UNL     1     122.451 108.131 -44.051  1.00  0.00     0.115 C 
HETATM    7 CL1  UNL     1     122.776 109.654 -44.895  1.00  0.00    -0.102 Cl
HETATM    8 CL2  UNL     1     120.701 107.928 -43.762  1.00  0.00    -0.102 Cl
HETATM    9  C11 UNL     1     123.233 107.934 -42.772  1.00  0.00     0.058 C 
ENDBRANCH   1   3
BRANCH   1  10
HETATM   10  N1  UNL     1     124.700 104.608 -43.632  1.00  0.00    -0.384 N 
ATOM     11  H1  UNL     1     125.058 104.666 -44.586  1.00  0.00     0.160 HD
BRANCH  10  12
HETATM   12  C4  UNL     1     124.360 103.318 -43.120  1.00  0.00     0.120 C 
BRANCH  12  13
HETATM   13  C5  UNL     1     125.574 102.393 -43.273  1.00  0.00     0.024 C 
BRANCH  13  14
HETATM   14  C6  UNL     1     125.923 101.931 -41.871  1.00  0.00    -0.013 A 
HETATM   15  C7  UNL     1     127.335 101.331 -41.702  1.00  0.00     0.005 A 
HETATM   16  C8  UNL     1     126.955 102.664 -41.098  1.00  0.00     0.005 A 
ENDBRANCH  13  14
ENDBRANCH  12  13
ENDBRANCH  10  12
ENDBRANCH   1  10
TORSDOF 5
ENDMDL
