MODEL 1
REMARK VINA RESULT: -4.743325588      0.000      0.000
REMARK  3 active torsions:
REMARK  status: ('A' for Active; 'I' for Inactive)
REMARK    1  A    between atoms: C2_2  and  C3_3 
REMARK    2  A    between atoms: C3_3  and  C4_4 
REMARK       I    between atoms: C4_4  and  N1_6 
REMARK    3  A    between atoms: N1_6  and  C5_8 
ROOT
HETATM    1  C3  UNL     1      87.453  87.475 -39.533  1.00  0.00     0.097 A 
HETATM    2  C8  UNL     1      87.366  86.215 -40.222  1.00  0.00     0.085 A 
HETATM    3  C9  UNL     1      86.382  85.863 -41.297  1.00  0.00     0.037 C 
HETATM    4 CL1  UNL     1      88.911  85.294 -40.424  1.00  0.00    -0.115 Cl
HETATM    5  C10 UNL     1      86.921  86.213 -38.776  1.00  0.00     0.135 A 
HETATM    6 CL2  UNL     1      85.191  86.135 -38.419  1.00  0.00    -0.103 Cl
HETATM    7 BR1  UNL     1      88.044  85.458 -37.415  1.00  0.00    -0.064 Br
ENDROOT
BRANCH   1   8
HETATM    8  C2  UNL     1      88.863  87.877 -39.055  1.00  0.00     0.020 C 
HETATM    9  C1  UNL     1      89.660  88.476 -40.155  1.00  0.00     0.006 C 
ENDBRANCH   1   8
BRANCH   1  10
HETATM   10  C4  UNL     1      86.483  88.559 -39.449  1.00  0.00     0.231 C 
HETATM   11  O1  UNL     1      85.782  88.756 -40.513  1.00  0.00    -0.273 OA
HETATM   12  N1  UNL     1      86.200  89.419 -38.377  1.00  0.00    -0.356 N 
ATOM     13  H1  UNL     1      86.722  89.312 -37.507  1.00  0.00     0.162 HD
BRANCH  12  14
HETATM   14  C5  UNL     1      85.193  90.450 -38.470  1.00  0.00     0.084 A 
HETATM   15  C6  UNL     1      85.111  91.524 -37.453  1.00  0.00     0.027 A 
HETATM   16  C7  UNL     1      85.553  91.833 -38.900  1.00  0.00     0.027 A 
ENDBRANCH  12  14
ENDBRANCH   1  10
TORSDOF 3
ENDMDL
MODEL 2
REMARK VINA RESULT: -4.495091220     10.844     12.451
REMARK  3 active torsions:
REMARK  status: ('A' for Active; 'I' for Inactive)
REMARK    1  A    between atoms: C2_2  and  C3_3 
REMARK    2  A    between atoms: C3_3  and  C4_4 
REMARK       I    between atoms: C4_4  and  N1_6 
REMARK    3  A    between atoms: N1_6  and  C5_8 
ROOT
HETATM    1  C3  UNL     1      90.359  98.032 -44.858  1.00  0.00     0.097 A 
HETATM    2  C8  UNL     1      90.768  99.411 -44.854  1.00  0.00     0.085 A 
HETATM    3  C9  UNL     1      92.149  99.923 -45.132  1.00  0.00     0.037 C 
HETATM    4 CL1  UNL     1      89.513 100.628 -45.324  1.00  0.00    -0.115 Cl
HETATM    5  C10 UNL     1      90.456  98.808 -43.502  1.00  0.00     0.135 A 
HETATM    6 CL2  UNL     1      91.796  98.410 -42.418  1.00  0.00    -0.103 Cl
HETATM    7 BR1  UNL     1      88.812  99.231 -42.605  1.00  0.00    -0.064 Br
ENDROOT
BRANCH   1   8
HETATM    8  C2  UNL     1      88.895  97.771 -45.264  1.00  0.00     0.020 C 
HETATM    9  C1  UNL     1      88.808  97.115 -46.593  1.00  0.00     0.006 C 
ENDBRANCH   1   8
BRANCH   1  10
HETATM   10  C4  UNL     1      91.168  96.821 -44.803  1.00  0.00     0.231 C 
HETATM   11  O1  UNL     1      92.259  96.854 -45.491  1.00  0.00    -0.273 OA
HETATM   12  N1  UNL     1      90.934  95.624 -44.110  1.00  0.00    -0.356 N 
ATOM     13  H1  UNL     1      90.088  95.536 -43.547  1.00  0.00     0.162 HD
BRANCH  12  14
HETATM   14  C5  UNL     1      91.855  94.513 -44.170  1.00  0.00     0.084 A 
HETATM   15  C6  UNL     1      91.688  93.340 -43.281  1.00  0.00     0.027 A 
HETATM   16  C7  UNL     1      91.454  93.222 -44.803  1.00  0.00     0.027 A 
ENDBRANCH  12  14
ENDBRANCH   1  10
TORSDOF 3
ENDMDL
MODEL 3
REMARK VINA RESULT: -4.347746681     11.124     12.534
REMARK  3 active torsions:
REMARK  status: ('A' for Active; 'I' for Inactive)
REMARK    1  A    between atoms: C2_2  and  C3_3 
REMARK    2  A    between atoms: C3_3  and  C4_4 
REMARK       I    between atoms: C4_4  and  N1_6 
REMARK    3  A    between atoms: N1_6  and  C5_8 
ROOT
HETATM    1  C3  UNL     1      90.456  98.174 -43.757  1.00  0.00     0.097 A 
HETATM    2  C8  UNL     1      89.149  98.774 -43.732  1.00  0.00     0.085 A 
HETATM    3  C9  UNL     1      87.924  98.251 -44.421  1.00  0.00     0.037 C 
HETATM    4 CL1  UNL     1      88.713  99.701 -42.239  1.00  0.00    -0.115 Cl
HETATM    5  C10 UNL     1      90.200  99.507 -44.537  1.00  0.00     0.135 A 
HETATM    6 CL2  UNL     1      90.127  99.430 -46.301  1.00  0.00    -0.103 Cl
HETATM    7 BR1  UNL     1      91.011 101.105 -43.848  1.00  0.00    -0.064 Br
ENDROOT
BRANCH   1   8
HETATM    8  C2  UNL     1      91.319  98.403 -42.501  1.00  0.00     0.020 C 
HETATM    9  C1  UNL     1      91.472  97.155 -41.711  1.00  0.00     0.006 C 
ENDBRANCH   1   8
BRANCH   1  10
HETATM   10  C4  UNL     1      90.999  97.163 -44.655  1.00  0.00     0.231 C 
HETATM   11  O1  UNL     1      92.149  97.441 -45.170  1.00  0.00    -0.273 OA
HETATM   12  N1  UNL     1      90.454  95.930 -45.041  1.00  0.00    -0.356 N 
ATOM     13  H1  UNL     1      89.546  95.653 -44.668  1.00  0.00     0.162 HD
BRANCH  12  14
HETATM   14  C5  UNL     1      91.139  95.042 -45.951  1.00  0.00     0.084 A 
HETATM   15  C6  UNL     1      91.286  93.602 -45.639  1.00  0.00     0.027 A 
HETATM   16  C7  UNL     1      90.375  94.074 -46.793  1.00  0.00     0.027 A 
ENDBRANCH  12  14
ENDBRANCH   1  10
TORSDOF 3
ENDMDL
MODEL 4
REMARK VINA RESULT: -4.321199484     12.499     13.807
REMARK  3 active torsions:
REMARK  status: ('A' for Active; 'I' for Inactive)
REMARK    1  A    between atoms: C2_2  and  C3_3 
REMARK    2  A    between atoms: C3_3  and  C4_4 
REMARK       I    between atoms: C4_4  and  N1_6 
REMARK    3  A    between atoms: N1_6  and  C5_8 
ROOT
HETATM    1  C3  UNL     1      91.291  99.165 -43.186  1.00  0.00     0.097 A 
HETATM    2  C8  UNL     1      91.656  98.795 -44.527  1.00  0.00     0.085 A 
HETATM    3  C9  UNL     1      92.747  99.414 -45.348  1.00  0.00     0.037 C 
HETATM    4 CL1  UNL     1      91.394  97.064 -44.989  1.00  0.00    -0.115 Cl
HETATM    5  C10 UNL     1      90.337  99.520 -44.375  1.00  0.00     0.135 A 
HETATM    6 CL2  UNL     1      90.235 101.213 -44.873  1.00  0.00    -0.103 Cl
HETATM    7 BR1  UNL     1      88.680  98.558 -44.497  1.00  0.00    -0.064 Br
ENDROOT
BRANCH   1   8
HETATM    8  C2  UNL     1      90.720  98.030 -42.313  1.00  0.00     0.020 C 
HETATM    9  C1  UNL     1      91.774  97.403 -41.476  1.00  0.00     0.006 C 
ENDBRANCH   1   8
BRANCH   1  10
HETATM   10  C4  UNL     1      91.620 100.366 -42.429  1.00  0.00     0.231 C 
HETATM   11  O1  UNL     1      90.697 100.788 -41.634  1.00  0.00    -0.273 OA
HETATM   12  N1  UNL     1      92.796 101.130 -42.439  1.00  0.00    -0.356 N 
ATOM     13  H1  UNL     1      93.564 100.847 -43.048  1.00  0.00     0.162 HD
BRANCH  12  14
HETATM   14  C5  UNL     1      92.952 102.305 -41.614  1.00  0.00     0.084 A 
HETATM   15  C6  UNL     1      93.605 102.219 -40.287  1.00  0.00     0.027 A 
HETATM   16  C7  UNL     1      94.285 102.959 -41.460  1.00  0.00     0.027 A 
ENDBRANCH  12  14
ENDBRANCH   1  10
TORSDOF 3
ENDMDL
MODEL 5
REMARK VINA RESULT: -4.290312671     10.042     10.945
REMARK  3 active torsions:
REMARK  status: ('A' for Active; 'I' for Inactive)
REMARK    1  A    between atoms: C2_2  and  C3_3 
REMARK    2  A    between atoms: C3_3  and  C4_4 
REMARK       I    between atoms: C4_4  and  N1_6 
REMARK    3  A    between atoms: N1_6  and  C5_8 
ROOT
HETATM    1  C3  UNL     1      88.998  89.294 -49.708  1.00  0.00     0.097 A 
HETATM    2  C8  UNL     1      88.264  89.287 -50.945  1.00  0.00     0.085 A 
HETATM    3  C9  UNL     1      88.555  90.131 -52.150  1.00  0.00     0.037 C 
HETATM    4 CL1  UNL     1      87.490  87.720 -51.417  1.00  0.00    -0.115 Cl
HETATM    5  C10 UNL     1      87.557  89.903 -49.758  1.00  0.00     0.135 A 
HETATM    6 CL2  UNL     1      87.402  91.663 -49.680  1.00  0.00    -0.103 Cl
HETATM    7 BR1  UNL     1      86.160  88.945 -48.854  1.00  0.00    -0.064 Br
ENDROOT
BRANCH   1   8
HETATM    8  C2  UNL     1      89.028  87.957 -48.943  1.00  0.00     0.020 C 
HETATM    9  C1  UNL     1      90.307  87.234 -49.161  1.00  0.00     0.006 C 
ENDBRANCH   1   8
BRANCH   1  10
HETATM   10  C4  UNL     1      89.942  90.278 -49.192  1.00  0.00     0.231 C 
HETATM   11  O1  UNL     1      90.732  90.798 -50.068  1.00  0.00    -0.273 OA
HETATM   12  N1  UNL     1      90.115  90.742 -47.880  1.00  0.00    -0.356 N 
ATOM     13  H1  UNL     1      89.519  90.368 -47.141  1.00  0.00     0.162 HD
BRANCH  12  14
HETATM   14  C5  UNL     1      91.111  91.732 -47.544  1.00  0.00     0.084 A 
HETATM   15  C6  UNL     1      90.714  93.072 -47.053  1.00  0.00     0.027 A 
HETATM   16  C7  UNL     1      91.413  92.059 -46.119  1.00  0.00     0.027 A 
ENDBRANCH  12  14
ENDBRANCH   1  10
TORSDOF 3
ENDMDL
