MODEL 1
REMARK VINA RESULT: -5.133014508      0.000      0.000
REMARK  4 active torsions:
REMARK  status: ('A' for Active; 'I' for Inactive)
REMARK    1  A    between atoms: C2_2  and  C3_3 
REMARK    2  A    between atoms: C3_3  and  C4_5 
REMARK    3  A    between atoms: C4_5  and  N1_6 
REMARK       I    between atoms: N1_6  and  C5_8 
REMARK    4  A    between atoms: C5_8  and  C6_10 
ROOT
HETATM    1  N1  UNL     1      91.342  96.221 -42.123  1.00  0.00    -0.335 N 
ATOM      2  H1  UNL     1      90.673  95.974 -42.852  1.00  0.00     0.168 HD
HETATM    3  C5  UNL     1      91.583  97.598 -42.077  1.00  0.00     0.233 C 
HETATM    4  O1  UNL     1      92.380  98.219 -41.335  1.00  0.00    -0.272 OA
ENDROOT
BRANCH   3   5
HETATM    5  C6  UNL     1      90.809  98.484 -43.025  1.00  0.00     0.075 A 
HETATM    6  C7  UNL     1      89.475  98.982 -42.449  1.00  0.00     0.029 C 
HETATM    7  C8  UNL     1      90.584  97.758 -44.372  1.00  0.00     0.065 A 
HETATM    8  C9  UNL     1      91.304  99.060 -44.285  1.00  0.00     0.130 A 
HETATM    9 CL1  UNL     1      90.345 100.400 -45.044  1.00  0.00    -0.100 Cl
HETATM   10 CL2  UNL     1      93.029  99.119 -44.700  1.00  0.00    -0.100 Cl
ENDBRANCH   3   5
BRANCH   1  11
HETATM   11  C4  UNL     1      91.783  95.115 -41.430  1.00  0.00     0.109 C 
BRANCH  11  12
HETATM   12  C3  UNL     1      92.241  93.877 -42.019  1.00  0.00     0.022 C 
HETATM   13 BR1  UNL     1      91.733  93.710 -43.938  1.00  0.00    -0.050 Br
BRANCH  12  14
HETATM   14  C2  UNL     1      92.894  92.884 -41.469  1.00  0.00    -0.011 C 
HETATM   15  C1  UNL     1      94.395  92.868 -41.477  1.00  0.00     0.037 C 
ENDBRANCH  12  14
ENDBRANCH  11  12
ENDBRANCH   1  11
TORSDOF 4
ENDMDL
MODEL 2
REMARK VINA RESULT: -4.994766388      0.996      1.123
REMARK  4 active torsions:
REMARK  status: ('A' for Active; 'I' for Inactive)
REMARK    1  A    between atoms: C2_2  and  C3_3 
REMARK    2  A    between atoms: C3_3  and  C4_5 
REMARK    3  A    between atoms: C4_5  and  N1_6 
REMARK       I    between atoms: N1_6  and  C5_8 
REMARK    4  A    between atoms: C5_8  and  C6_10 
ROOT
HETATM    1  N1  UNL     1      91.465  96.279 -41.933  1.00  0.00    -0.335 N 
ATOM      2  H1  UNL     1      90.928  96.250 -42.799  1.00  0.00     0.168 HD
HETATM    3  C5  UNL     1      91.901  97.572 -41.629  1.00  0.00     0.233 C 
HETATM    4  O1  UNL     1      92.617  97.941 -40.667  1.00  0.00    -0.272 OA
ENDROOT
BRANCH   3   5
HETATM    5  C6  UNL     1      91.483  98.695 -42.549  1.00  0.00     0.075 A 
HETATM    6  C7  UNL     1      91.650 100.091 -41.930  1.00  0.00     0.029 C 
HETATM    7  C8  UNL     1      90.026  98.481 -43.025  1.00  0.00     0.065 A 
HETATM    8  C9  UNL     1      91.165  98.581 -43.981  1.00  0.00     0.130 A 
HETATM    9 CL1  UNL     1      91.079 100.106 -44.959  1.00  0.00    -0.100 Cl
HETATM   10 CL2  UNL     1      91.602  97.159 -44.949  1.00  0.00    -0.100 Cl
ENDBRANCH   3   5
BRANCH   1  11
HETATM   11  C4  UNL     1      91.579  95.034 -41.354  1.00  0.00     0.109 C 
BRANCH  11  12
HETATM   12  C3  UNL     1      92.210  93.879 -41.952  1.00  0.00     0.022 C 
HETATM   13 BR1  UNL     1      91.784  93.694 -43.889  1.00  0.00    -0.050 Br
BRANCH  12  14
HETATM   14  C2  UNL     1      92.970  92.966 -41.402  1.00  0.00    -0.011 C 
HETATM   15  C1  UNL     1      94.453  93.175 -41.302  1.00  0.00     0.037 C 
ENDBRANCH  12  14
ENDBRANCH  11  12
ENDBRANCH   1  11
TORSDOF 4
ENDMDL
MODEL 3
REMARK VINA RESULT: -4.956232291      2.773      3.285
REMARK  4 active torsions:
REMARK  status: ('A' for Active; 'I' for Inactive)
REMARK    1  A    between atoms: C2_2  and  C3_3 
REMARK    2  A    between atoms: C3_3  and  C4_5 
REMARK    3  A    between atoms: C4_5  and  N1_6 
REMARK       I    between atoms: N1_6  and  C5_8 
REMARK    4  A    between atoms: C5_8  and  C6_10 
ROOT
HETATM    1  N1  UNL     1      90.923  95.973 -44.788  1.00  0.00    -0.335 N 
ATOM      2  H1  UNL     1      90.219  95.822 -44.066  1.00  0.00     0.168 HD
HETATM    3  C5  UNL     1      91.482  97.253 -44.715  1.00  0.00     0.233 C 
HETATM    4  O1  UNL     1      92.333  97.769 -45.478  1.00  0.00    -0.272 OA
ENDROOT
BRANCH   3   5
HETATM    5  C6  UNL     1      91.032  98.159 -43.594  1.00  0.00     0.075 A 
HETATM    6  C7  UNL     1      91.250  97.563 -42.196  1.00  0.00     0.029 C 
HETATM    7  C8  UNL     1      89.550  98.558 -43.792  1.00  0.00     0.065 A 
HETATM    8  C9  UNL     1      90.639  99.572 -43.716  1.00  0.00     0.130 A 
HETATM    9 CL1  UNL     1      90.523 100.558 -42.197  1.00  0.00    -0.100 Cl
HETATM   10 CL2  UNL     1      91.007 100.549 -45.152  1.00  0.00    -0.100 Cl
ENDBRANCH   3   5
BRANCH   1  11
HETATM   11  C4  UNL     1      91.085  94.866 -45.593  1.00  0.00     0.109 C 
BRANCH  11  12
HETATM   12  C3  UNL     1      91.395  93.530 -45.136  1.00  0.00     0.022 C 
HETATM   13 BR1  UNL     1      91.932  93.482 -43.219  1.00  0.00    -0.050 Br
BRANCH  12  14
HETATM   14  C2  UNL     1      91.393  92.401 -45.800  1.00  0.00    -0.011 C 
HETATM   15  C1  UNL     1      90.794  92.332 -47.175  1.00  0.00     0.037 C 
ENDBRANCH  12  14
ENDBRANCH  11  12
ENDBRANCH   1  11
TORSDOF 4
ENDMDL
MODEL 4
REMARK VINA RESULT: -4.931442469      2.897      3.607
REMARK  4 active torsions:
REMARK  status: ('A' for Active; 'I' for Inactive)
REMARK    1  A    between atoms: C2_2  and  C3_3 
REMARK    2  A    between atoms: C3_3  and  C4_5 
REMARK    3  A    between atoms: C4_5  and  N1_6 
REMARK       I    between atoms: N1_6  and  C5_8 
REMARK    4  A    between atoms: C5_8  and  C6_10 
ROOT
HETATM    1  N1  UNL     1      91.429  96.202 -44.906  1.00  0.00    -0.335 N 
ATOM      2  H1  UNL     1      92.322  96.230 -44.414  1.00  0.00     0.168 HD
HETATM    3  C5  UNL     1      90.701  97.384 -44.739  1.00  0.00     0.233 C 
HETATM    4  O1  UNL     1      89.555  97.653 -45.170  1.00  0.00    -0.272 OA
ENDROOT
BRANCH   3   5
HETATM    5  C6  UNL     1      91.337  98.501 -43.945  1.00  0.00     0.075 A 
HETATM    6  C7  UNL     1      92.632  99.039 -44.571  1.00  0.00     0.029 C 
HETATM    7  C8  UNL     1      91.584  98.047 -42.487  1.00  0.00     0.065 A 
HETATM    8  C9  UNL     1      90.733  99.226 -42.816  1.00  0.00     0.130 A 
HETATM    9 CL1  UNL     1      91.512 100.776 -42.283  1.00  0.00    -0.100 Cl
HETATM   10 CL2  UNL     1      88.997  99.161 -42.454  1.00  0.00    -0.100 Cl
ENDBRANCH   3   5
BRANCH   1  11
HETATM   11  C4  UNL     1      91.242  95.009 -45.569  1.00  0.00     0.109 C 
BRANCH  11  12
HETATM   12  C3  UNL     1      91.434  93.691 -45.006  1.00  0.00     0.022 C 
HETATM   13 BR1  UNL     1      91.889  93.747 -43.068  1.00  0.00    -0.050 Br
BRANCH  12  14
HETATM   14  C2  UNL     1      91.376  92.519 -45.589  1.00  0.00    -0.011 C 
HETATM   15  C1  UNL     1      90.882  92.399 -47.001  1.00  0.00     0.037 C 
ENDBRANCH  12  14
ENDBRANCH  11  12
ENDBRANCH   1  11
TORSDOF 4
ENDMDL
MODEL 5
REMARK VINA RESULT: -4.899113182      1.325      1.495
REMARK  4 active torsions:
REMARK  status: ('A' for Active; 'I' for Inactive)
REMARK    1  A    between atoms: C2_2  and  C3_3 
REMARK    2  A    between atoms: C3_3  and  C4_5 
REMARK    3  A    between atoms: C4_5  and  N1_6 
REMARK       I    between atoms: N1_6  and  C5_8 
REMARK    4  A    between atoms: C5_8  and  C6_10 
ROOT
HETATM    1  N1  UNL     1      91.403  96.216 -42.024  1.00  0.00    -0.335 N 
ATOM      2  H1  UNL     1      90.784  96.087 -42.824  1.00  0.00     0.168 HD
HETATM    3  C5  UNL     1      91.719  97.563 -41.817  1.00  0.00     0.233 C 
HETATM    4  O1  UNL     1      92.486  98.053 -40.955  1.00  0.00    -0.272 OA
ENDROOT
BRANCH   3   5
HETATM    5  C6  UNL     1      91.080  98.587 -42.725  1.00  0.00     0.075 A 
HETATM    6  C7  UNL     1      89.987  98.007 -43.634  1.00  0.00     0.029 C 
HETATM    7  C8  UNL     1      92.163  99.305 -43.566  1.00  0.00     0.065 A 
HETATM    8  C9  UNL     1      91.250 100.047 -42.652  1.00  0.00     0.130 A 
HETATM    9 CL1  UNL     1      90.087 101.087 -43.578  1.00  0.00    -0.100 Cl
HETATM   10 CL2  UNL     1      91.931 100.863 -41.230  1.00  0.00    -0.100 Cl
ENDBRANCH   3   5
BRANCH   1  11
HETATM   11  C4  UNL     1      91.718  95.020 -41.416  1.00  0.00     0.109 C 
BRANCH  11  12
HETATM   12  C3  UNL     1      92.236  93.847 -42.082  1.00  0.00     0.022 C 
HETATM   13 BR1  UNL     1      91.778  93.803 -44.021  1.00  0.00    -0.050 Br
BRANCH  12  14
HETATM   14  C2  UNL     1      92.914  92.840 -41.590  1.00  0.00    -0.011 C 
HETATM   15  C1  UNL     1      94.393  92.962 -41.364  1.00  0.00     0.037 C 
ENDBRANCH  12  14
ENDBRANCH  11  12
ENDBRANCH   1  11
TORSDOF 4
ENDMDL
