MODEL 1
REMARK VINA RESULT: -5.786777797      0.000      0.000
REMARK  3 active torsions:
REMARK  status: ('A' for Active; 'I' for Inactive)
REMARK       I    between atoms: C1_2  and  N1_3 
REMARK    1  A    between atoms: C1_2  and  C12_18 
REMARK    2  A    between atoms: N1_3  and  C2_5 
REMARK    3  A    between atoms: C5_8  and  C6_9 
ROOT
HETATM    1  C2  UNL     1      91.249  98.273 -42.514  1.00  0.00     0.094 C 
HETATM    2  C3  UNL     1      89.879  98.950 -42.545  1.00  0.00     0.012 C 
HETATM    3  C4  UNL     1      89.178  98.769 -43.843  1.00  0.00     0.020 C 
HETATM    4  C5  UNL     1      90.006  99.182 -45.021  1.00  0.00     0.006 C 
HETATM    5  C7  UNL     1      91.297  98.368 -44.968  1.00  0.00     0.022 C 
HETATM    6  C8  UNL     1      91.900  98.916 -43.695  1.00  0.00     0.036 C 
HETATM    7  C9  UNL     1      91.403 100.367 -43.589  1.00  0.00     0.074 C 
HETATM    8 CL2  UNL     1      92.700 101.518 -43.421  1.00  0.00    -0.116 Cl
HETATM    9  C10 UNL     1      90.393 100.399 -42.465  1.00  0.00     0.036 C 
HETATM   10  C11 UNL     1      90.584 100.570 -44.872  1.00  0.00     0.203 C 
HETATM   11  F1  UNL     1      91.429 100.817 -45.913  1.00  0.00    -0.246 F 
ENDROOT
BRANCH   1  12
HETATM   12  N1  UNL     1      91.203  96.870 -42.463  1.00  0.00    -0.355 N 
HETATM   13  C1  UNL     1      91.773  96.204 -41.346  1.00  0.00     0.222 C 
HETATM   14  O1  UNL     1      92.316  96.836 -40.405  1.00  0.00    -0.273 OA
ATOM     15  H1  UNL     1      90.766  96.338 -43.216  1.00  0.00     0.162 HD
BRANCH  13  16
HETATM   16  C12 UNL     1      91.755  94.704 -41.232  1.00  0.00     0.078 A 
HETATM   17  C13 UNL     1      93.064  94.001 -41.465  1.00  0.00     0.015 A 
HETATM   18  C14 UNL     1      92.004  93.932 -42.489  1.00  0.00     0.015 A 
ENDBRANCH  13  16
ENDBRANCH   1  12
BRANCH   4  19
HETATM   19  C6  UNL     1      89.281  99.039 -46.309  1.00  0.00     0.127 C 
HETATM   20 CL1  UNL     1      88.758  97.414 -46.704  1.00  0.00    -0.130 Cl
ENDBRANCH   4  19
TORSDOF 3
ENDMDL
MODEL 2
REMARK VINA RESULT: -5.433612904      2.343      3.399
REMARK  3 active torsions:
REMARK  status: ('A' for Active; 'I' for Inactive)
REMARK       I    between atoms: C1_2  and  N1_3 
REMARK    1  A    between atoms: C1_2  and  C12_18 
REMARK    2  A    between atoms: N1_3  and  C2_5 
REMARK    3  A    between atoms: C5_8  and  C6_9 
ROOT
HETATM    1  C2  UNL     1      91.324  97.862 -44.709  1.00  0.00     0.094 C 
HETATM    2  C3  UNL     1      92.109  98.946 -43.972  1.00  0.00     0.012 C 
HETATM    3  C4  UNL     1      91.363  99.510 -42.816  1.00  0.00     0.020 C 
HETATM    4  C5  UNL     1      89.993  99.994 -43.180  1.00  0.00     0.006 C 
HETATM    5  C7  UNL     1      89.250  98.811 -43.797  1.00  0.00     0.022 C 
HETATM    6  C8  UNL     1      90.075  98.607 -45.048  1.00  0.00     0.036 C 
HETATM    7  C9  UNL     1      90.619  99.997 -45.419  1.00  0.00     0.074 C 
HETATM    8 CL2  UNL     1      90.230 100.463 -47.053  1.00  0.00    -0.116 Cl
HETATM    9  C10 UNL     1      92.098  99.981 -45.112  1.00  0.00     0.036 C 
HETATM   10  C11 UNL     1      89.998 100.928 -44.367  1.00  0.00     0.203 C 
HETATM   11  F1  UNL     1      88.712 101.213 -44.718  1.00  0.00    -0.246 F 
ENDROOT
BRANCH   1  12
HETATM   12  N1  UNL     1      91.205  96.652 -44.005  1.00  0.00    -0.355 N 
HETATM   13  C1  UNL     1      91.270  95.429 -44.725  1.00  0.00     0.222 C 
HETATM   14  O1  UNL     1      91.430  95.402 -45.971  1.00  0.00    -0.273 OA
ATOM     15  H1  UNL     1      91.075  96.651 -42.994  1.00  0.00     0.162 HD
BRANCH  13  16
HETATM   16  C12 UNL     1      91.149  94.100 -44.029  1.00  0.00     0.078 A 
HETATM   17  C13 UNL     1      92.436  93.452 -43.597  1.00  0.00     0.015 A 
HETATM   18  C14 UNL     1      91.695  92.911 -44.753  1.00  0.00     0.015 A 
ENDBRANCH  13  16
ENDBRANCH   1  12
BRANCH   4  19
HETATM   19  C6  UNL     1      89.274 100.595 -42.028  1.00  0.00     0.127 C 
HETATM   20 CL1  UNL     1      90.205 101.722 -41.062  1.00  0.00    -0.130 Cl
ENDBRANCH   4  19
TORSDOF 3
ENDMDL
MODEL 3
REMARK VINA RESULT: -5.353633992      2.370      2.821
REMARK  3 active torsions:
REMARK  status: ('A' for Active; 'I' for Inactive)
REMARK       I    between atoms: C1_2  and  N1_3 
REMARK    1  A    between atoms: C1_2  and  C12_18 
REMARK    2  A    between atoms: N1_3  and  C2_5 
REMARK    3  A    between atoms: C5_8  and  C6_9 
ROOT
HETATM    1  C2  UNL     1      91.277  97.902 -44.186  1.00  0.00     0.094 C 
HETATM    2  C3  UNL     1      91.259  98.998 -43.121  1.00  0.00     0.012 C 
HETATM    3  C4  UNL     1      89.900  99.240 -42.570  1.00  0.00     0.020 C 
HETATM    4  C5  UNL     1      88.875  99.507 -43.628  1.00  0.00     0.006 C 
HETATM    5  C7  UNL     1      88.885  98.307 -44.573  1.00  0.00     0.022 C 
HETATM    6  C8  UNL     1      90.275  98.442 -45.153  1.00  0.00     0.036 C 
HETATM    7  C9  UNL     1      90.588  99.947 -45.137  1.00  0.00     0.074 C 
HETATM    8 CL2  UNL     1      91.045 100.561 -46.703  1.00  0.00    -0.116 Cl
HETATM    9  C10 UNL     1      91.622 100.165 -44.058  1.00  0.00     0.036 C 
HETATM   10  C11 UNL     1      89.300 100.586 -44.597  1.00  0.00     0.203 C 
HETATM   11  F1  UNL     1      88.382 100.673 -45.601  1.00  0.00    -0.246 F 
ENDROOT
BRANCH   1  12
HETATM   12  N1  UNL     1      91.086  96.603 -43.687  1.00  0.00    -0.355 N 
HETATM   13  C1  UNL     1      91.346  95.495 -44.536  1.00  0.00     0.222 C 
HETATM   14  O1  UNL     1      91.742  95.647 -45.719  1.00  0.00    -0.273 OA
ATOM     15  H1  UNL     1      90.765  96.458 -42.730  1.00  0.00     0.162 HD
BRANCH  13  16
HETATM   16  C12 UNL     1      91.161  94.080 -44.060  1.00  0.00     0.078 A 
HETATM   17  C13 UNL     1      92.412  93.324 -43.706  1.00  0.00     0.015 A 
HETATM   18  C14 UNL     1      91.687  92.998 -44.949  1.00  0.00     0.015 A 
ENDBRANCH  13  16
ENDBRANCH   1  12
BRANCH   4  19
HETATM   19  C6  UNL     1      87.531  99.792 -43.065  1.00  0.00     0.127 C 
HETATM   20 CL1  UNL     1      86.292  98.609 -43.434  1.00  0.00    -0.130 Cl
ENDBRANCH   4  19
TORSDOF 3
ENDMDL
MODEL 4
REMARK VINA RESULT: -5.283675934      1.601      1.825
REMARK  3 active torsions:
REMARK  status: ('A' for Active; 'I' for Inactive)
REMARK       I    between atoms: C1_2  and  N1_3 
REMARK    1  A    between atoms: C1_2  and  C12_18 
REMARK    2  A    between atoms: N1_3  and  C2_5 
REMARK    3  A    between atoms: C5_8  and  C6_9 
ROOT
HETATM    1  C2  UNL     1      90.839  97.725 -42.866  1.00  0.00     0.094 C 
HETATM    2  C3  UNL     1      89.688  98.553 -43.435  1.00  0.00     0.012 C 
HETATM    3  C4  UNL     1      89.961  99.048 -44.809  1.00  0.00     0.020 C 
HETATM    4  C5  UNL     1      91.259  99.787 -44.921  1.00  0.00     0.006 C 
HETATM    5  C7  UNL     1      92.356  98.839 -44.443  1.00  0.00     0.022 C 
HETATM    6  C8  UNL     1      91.966  98.697 -42.990  1.00  0.00     0.036 C 
HETATM    7  C9  UNL     1      91.291 100.025 -42.608  1.00  0.00     0.074 C 
HETATM    8 CL2  UNL     1      92.020 100.782 -41.219  1.00  0.00    -0.116 Cl
HETATM    9  C10 UNL     1      89.816  99.735 -42.456  1.00  0.00     0.036 C 
HETATM   10  C11 UNL     1      91.404 100.875 -43.883  1.00  0.00     0.203 C 
HETATM   11  F1  UNL     1      92.658 101.405 -43.962  1.00  0.00    -0.246 F 
ENDROOT
BRANCH   1  12
HETATM   12  N1  UNL     1      90.988  96.457 -43.452  1.00  0.00    -0.355 N 
HETATM   13  C1  UNL     1      91.280  95.344 -42.620  1.00  0.00     0.222 C 
HETATM   14  O1  UNL     1      91.409  95.465 -41.376  1.00  0.00    -0.273 OA
ATOM     15  H1  UNL     1      90.887  96.337 -44.460  1.00  0.00     0.162 HD
BRANCH  13  16
HETATM   16  C12 UNL     1      91.451  93.961 -43.187  1.00  0.00     0.078 A 
HETATM   17  C13 UNL     1      92.823  93.612 -43.696  1.00  0.00     0.015 A 
HETATM   18  C14 UNL     1      91.731  93.867 -44.654  1.00  0.00     0.015 A 
ENDBRANCH  13  16
ENDBRANCH   1  12
BRANCH   4  19
HETATM   19  C6  UNL     1      91.501 100.316 -46.288  1.00  0.00     0.127 C 
HETATM   20 CL1  UNL     1      90.065 100.639 -47.237  1.00  0.00    -0.130 Cl
ENDBRANCH   4  19
TORSDOF 3
ENDMDL
MODEL 5
REMARK VINA RESULT: -5.150933069      1.704      1.919
REMARK  3 active torsions:
REMARK  status: ('A' for Active; 'I' for Inactive)
REMARK       I    between atoms: C1_2  and  N1_3 
REMARK    1  A    between atoms: C1_2  and  C12_18 
REMARK    2  A    between atoms: N1_3  and  C2_5 
REMARK    3  A    between atoms: C5_8  and  C6_9 
ROOT
HETATM    1  C2  UNL     1      91.119  98.430 -43.156  1.00  0.00     0.094 C 
HETATM    2  C3  UNL     1      90.297  99.378 -42.283  1.00  0.00     0.012 C 
HETATM    3  C4  UNL     1      88.834  99.231 -42.497  1.00  0.00     0.020 C 
HETATM    4  C5  UNL     1      88.435  99.349 -43.936  1.00  0.00     0.006 C 
HETATM    5  C7  UNL     1      89.219  98.287 -44.705  1.00  0.00     0.022 C 
HETATM    6  C8  UNL     1      90.625  98.808 -44.514  1.00  0.00     0.036 C 
HETATM    7  C9  UNL     1      90.490 100.335 -44.396  1.00  0.00     0.074 C 
HETATM    8 CL2  UNL     1      91.485 101.194 -45.540  1.00  0.00    -0.116 Cl
HETATM    9  C10 UNL     1      90.761 100.685 -42.951  1.00  0.00     0.036 C 
HETATM   10  C11 UNL     1      88.989 100.590 -44.597  1.00  0.00     0.203 C 
HETATM   11  F1  UNL     1      88.700 100.554 -45.929  1.00  0.00    -0.246 F 
ENDROOT
BRANCH   1  12
HETATM   12  N1  UNL     1      91.048  97.080 -42.775  1.00  0.00    -0.355 N 
HETATM   13  C1  UNL     1      91.746  96.655 -41.614  1.00  0.00     0.222 C 
HETATM   14  O1  UNL     1      92.423  97.455 -40.920  1.00  0.00    -0.273 OA
ATOM     15  H1  UNL     1      90.503  96.414 -43.324  1.00  0.00     0.162 HD
BRANCH  13  16
HETATM   16  C12 UNL     1      91.709  95.223 -41.154  1.00  0.00     0.078 A 
HETATM   17  C13 UNL     1      92.971  94.427 -41.345  1.00  0.00     0.015 A 
HETATM   18  C14 UNL     1      91.806  94.174 -42.216  1.00  0.00     0.015 A 
ENDBRANCH  13  16
ENDBRANCH   1  12
BRANCH   4  19
HETATM   19  C6  UNL     1      86.967  99.246 -44.135  1.00  0.00     0.127 C 
HETATM   20 CL1  UNL     1      86.057 100.706 -43.803  1.00  0.00    -0.130 Cl
ENDBRANCH   4  19
TORSDOF 3
ENDMDL
