MODEL 1
REMARK VINA RESULT: -5.406624817      0.000      0.000
REMARK  3 active torsions:
REMARK  status: ('A' for Active; 'I' for Inactive)
REMARK    1  A    between atoms: C2_2  and  C4_4 
REMARK       I    between atoms: N1_7  and  C7_8 
REMARK       I    between atoms: C7_8  and  N2_10 
REMARK    2  A    between atoms: N2_10  and  C8_12 
REMARK    3  A    between atoms: C8_12  and  C10_14 
ROOT
HETATM    1  C4  UNL     1      91.426  96.509 -44.287  1.00  0.00     0.033 C 
HETATM    2  C5  UNL     1      90.191  96.793 -45.153  1.00  0.00     0.030 C 
HETATM    3  C6  UNL     1      90.285  95.644 -46.132  1.00  0.00     0.128 C 
HETATM    4  N1  UNL     1      90.869  94.548 -45.364  1.00  0.00    -0.334 N 
HETATM    5  C7  UNL     1      90.992  93.235 -45.884  1.00  0.00     0.318 C 
HETATM    6  O1  UNL     1      91.507  92.358 -45.148  1.00  0.00    -0.247 OA
HETATM    7  N2  UNL     1      90.559  92.878 -47.187  1.00  0.00    -0.335 N 
ATOM      8  H2  UNL     1      90.142  93.601 -47.772  1.00  0.00     0.164 HD
HETATM    9  C11 UNL     1      91.272  95.036 -44.052  1.00  0.00     0.136 C 
ENDROOT
BRANCH   7  10
HETATM   10  C8  UNL     1      90.677  91.550 -47.727  1.00  0.00     0.136 C 
HETATM   11  C9  UNL     1      92.106  91.190 -48.079  1.00  0.00     0.036 C 
BRANCH  10  12
HETATM   12  C10 UNL     1      89.836  91.396 -48.995  1.00  0.00     0.208 C 
HETATM   13 CL1  UNL     1      88.841  92.864 -49.209  1.00  0.00    -0.082 Cl
HETATM   14 CL2  UNL     1      88.834  89.933 -48.920  1.00  0.00    -0.082 Cl
HETATM   15 CL3  UNL     1      90.886  91.268 -50.423  1.00  0.00    -0.082 Cl
ENDBRANCH  10  12
ENDBRANCH   7  10
BRANCH   1  16
HETATM   16  C2  UNL     1      91.337  97.315 -43.039  1.00  0.00    -0.087 C 
HETATM   17  C1  UNL     1      91.158  98.619 -43.185  1.00  0.00     0.014 C 
HETATM   18  C3  UNL     1      91.437  96.736 -41.692  1.00  0.00     0.043 C 
ENDBRANCH   1  16
TORSDOF 3
ENDMDL
MODEL 2
REMARK VINA RESULT: -5.321747546      2.126      2.932
REMARK  3 active torsions:
REMARK  status: ('A' for Active; 'I' for Inactive)
REMARK    1  A    between atoms: C2_2  and  C4_4 
REMARK       I    between atoms: N1_7  and  C7_8 
REMARK       I    between atoms: C7_8  and  N2_10 
REMARK    2  A    between atoms: N2_10  and  C8_12 
REMARK    3  A    between atoms: C8_12  and  C10_14 
ROOT
HETATM    1  C4  UNL     1      92.390  93.898 -44.037  1.00  0.00     0.033 C 
HETATM    2  C5  UNL     1      91.406  95.043 -44.312  1.00  0.00     0.030 C 
HETATM    3  C6  UNL     1      91.002  94.708 -45.732  1.00  0.00     0.128 C 
HETATM    4  N1  UNL     1      91.050  93.250 -45.797  1.00  0.00    -0.334 N 
HETATM    5  C7  UNL     1      90.598  92.524 -46.928  1.00  0.00     0.318 C 
HETATM    6  O1  UNL     1      90.678  91.272 -46.891  1.00  0.00    -0.247 OA
HETATM    7  N2  UNL     1      90.064  93.150 -48.083  1.00  0.00    -0.335 N 
ATOM      8  H2  UNL     1      90.004  94.168 -48.097  1.00  0.00     0.164 HD
HETATM    9  C11 UNL     1      91.613  92.727 -44.560  1.00  0.00     0.136 C 
ENDROOT
BRANCH   7  10
HETATM   10  C8  UNL     1      89.602  92.425 -49.237  1.00  0.00     0.136 C 
HETATM   11  C9  UNL     1      90.711  92.140 -50.228  1.00  0.00     0.036 C 
BRANCH  10  12
HETATM   12  C10 UNL     1      88.513  93.206 -49.975  1.00  0.00     0.208 C 
HETATM   13 CL1  UNL     1      87.004  92.251 -49.958  1.00  0.00    -0.082 Cl
HETATM   14 CL2  UNL     1      89.021  93.595 -51.630  1.00  0.00    -0.082 Cl
HETATM   15 CL3  UNL     1      88.168  94.734 -49.135  1.00  0.00    -0.082 Cl
ENDBRANCH  10  12
ENDBRANCH   7  10
BRANCH   1  16
HETATM   16  C2  UNL     1      92.647  93.825 -42.573  1.00  0.00    -0.087 C 
HETATM   17  C1  UNL     1      91.852  94.540 -41.793  1.00  0.00     0.014 C 
HETATM   18  C3  UNL     1      93.718  93.013 -41.979  1.00  0.00     0.043 C 
ENDBRANCH   1  16
TORSDOF 3
ENDMDL
MODEL 3
REMARK VINA RESULT: -5.310282899      2.107      2.918
REMARK  3 active torsions:
REMARK  status: ('A' for Active; 'I' for Inactive)
REMARK    1  A    between atoms: C2_2  and  C4_4 
REMARK       I    between atoms: N1_7  and  C7_8 
REMARK       I    between atoms: C7_8  and  N2_10 
REMARK    2  A    between atoms: N2_10  and  C8_12 
REMARK    3  A    between atoms: C8_12  and  C10_14 
ROOT
HETATM    1  C4  UNL     1      92.392  93.901 -44.040  1.00  0.00     0.033 C 
HETATM    2  C5  UNL     1      91.417  95.049 -44.335  1.00  0.00     0.030 C 
HETATM    3  C6  UNL     1      91.018  94.698 -45.752  1.00  0.00     0.128 C 
HETATM    4  N1  UNL     1      91.057  93.239 -45.798  1.00  0.00    -0.334 N 
HETATM    5  C7  UNL     1      90.605  92.501 -46.921  1.00  0.00     0.318 C 
HETATM    6  O1  UNL     1      90.677  91.249 -46.868  1.00  0.00    -0.247 OA
HETATM    7  N2  UNL     1      90.082  93.116 -48.088  1.00  0.00    -0.335 N 
ATOM      8  H2  UNL     1      90.029  94.134 -48.115  1.00  0.00     0.164 HD
HETATM    9  C11 UNL     1      91.610  92.729 -44.551  1.00  0.00     0.136 C 
ENDROOT
BRANCH   7  10
HETATM   10  C8  UNL     1      89.620  92.379 -49.234  1.00  0.00     0.136 C 
HETATM   11  C9  UNL     1      90.732  92.075 -50.217  1.00  0.00     0.036 C 
BRANCH  10  12
HETATM   12  C10 UNL     1      88.539  93.156 -49.987  1.00  0.00     0.208 C 
HETATM   13 CL1  UNL     1      89.034  93.329 -51.694  1.00  0.00    -0.082 Cl
HETATM   14 CL2  UNL     1      88.247  94.735 -49.229  1.00  0.00    -0.082 Cl
HETATM   15 CL3  UNL     1      87.007  92.255 -49.979  1.00  0.00    -0.082 Cl
ENDBRANCH  10  12
ENDBRANCH   7  10
BRANCH   1  16
HETATM   16  C2  UNL     1      92.642  93.846 -42.573  1.00  0.00    -0.087 C 
HETATM   17  C1  UNL     1      91.840  94.569 -41.806  1.00  0.00     0.014 C 
HETATM   18  C3  UNL     1      93.711  93.043 -41.964  1.00  0.00     0.043 C 
ENDBRANCH   1  16
TORSDOF 3
ENDMDL
MODEL 4
REMARK VINA RESULT: -5.270711024      1.837      2.451
REMARK  3 active torsions:
REMARK  status: ('A' for Active; 'I' for Inactive)
REMARK    1  A    between atoms: C2_2  and  C4_4 
REMARK       I    between atoms: N1_7  and  C7_8 
REMARK       I    between atoms: C7_8  and  N2_10 
REMARK    2  A    between atoms: N2_10  and  C8_12 
REMARK    3  A    between atoms: C8_12  and  C10_14 
ROOT
HETATM    1  C4  UNL     1      92.003  94.020 -44.468  1.00  0.00     0.033 C 
HETATM    2  C5  UNL     1      90.811  94.854 -44.955  1.00  0.00     0.030 C 
HETATM    3  C6  UNL     1      90.720  94.373 -46.387  1.00  0.00     0.128 C 
HETATM    4  N1  UNL     1      91.147  92.978 -46.338  1.00  0.00    -0.334 N 
HETATM    5  C7  UNL     1      91.067  92.118 -47.462  1.00  0.00     0.318 C 
HETATM    6  O1  UNL     1      91.458  90.933 -47.324  1.00  0.00    -0.247 OA
HETATM    7  N2  UNL     1      90.567  92.539 -48.721  1.00  0.00    -0.335 N 
ATOM      8  H2  UNL     1      90.252  93.504 -48.817  1.00  0.00     0.164 HD
HETATM    9  C11 UNL     1      91.637  92.667 -45.002  1.00  0.00     0.136 C 
ENDROOT
BRANCH   7  10
HETATM   10  C8  UNL     1      90.480  91.677 -49.870  1.00  0.00     0.136 C 
HETATM   11  C9  UNL     1      90.849  92.383 -51.158  1.00  0.00     0.036 C 
BRANCH  10  12
HETATM   12  C10 UNL     1      89.063  91.126 -50.035  1.00  0.00     0.208 C 
HETATM   13 CL1  UNL     1      87.891  92.422 -49.667  1.00  0.00    -0.082 Cl
HETATM   14 CL2  UNL     1      88.809  89.704 -49.003  1.00  0.00    -0.082 Cl
HETATM   15 CL3  UNL     1      88.781  90.635 -51.720  1.00  0.00    -0.082 Cl
ENDBRANCH  10  12
ENDBRANCH   7  10
BRANCH   1  16
HETATM   16  C2  UNL     1      92.053  94.070 -42.982  1.00  0.00    -0.087 C 
HETATM   17  C1  UNL     1      91.425  95.081 -42.400  1.00  0.00     0.014 C 
HETATM   18  C3  UNL     1      92.751  93.071 -42.161  1.00  0.00     0.043 C 
ENDBRANCH   1  16
TORSDOF 3
ENDMDL
MODEL 5
REMARK VINA RESULT: -5.141169623      5.549      8.143
REMARK  3 active torsions:
REMARK  status: ('A' for Active; 'I' for Inactive)
REMARK    1  A    between atoms: C2_2  and  C4_4 
REMARK       I    between atoms: N1_7  and  C7_8 
REMARK       I    between atoms: C7_8  and  N2_10 
REMARK    2  A    between atoms: N2_10  and  C8_12 
REMARK    3  A    between atoms: C8_12  and  C10_14 
ROOT
HETATM    1  C4  UNL     1      91.035  94.619 -44.403  1.00  0.00     0.033 C 
HETATM    2  C5  UNL     1      91.370  95.578 -45.553  1.00  0.00     0.030 C 
HETATM    3  C6  UNL     1      90.860  96.877 -44.970  1.00  0.00     0.128 C 
HETATM    4  N1  UNL     1      91.084  96.753 -43.533  1.00  0.00    -0.334 N 
HETATM    5  C7  UNL     1      90.871  97.828 -42.633  1.00  0.00     0.318 C 
HETATM    6  O1  UNL     1      91.092  97.626 -41.415  1.00  0.00    -0.247 OA
HETATM    7  N2  UNL     1      90.425  99.108 -43.053  1.00  0.00    -0.335 N 
ATOM      8  H2  UNL     1      90.251  99.256 -44.047  1.00  0.00     0.164 HD
HETATM    9  C11 UNL     1      91.537  95.403 -43.227  1.00  0.00     0.136 C 
ENDROOT
BRANCH   7  10
HETATM   10  C8  UNL     1      90.205 100.207 -42.152  1.00  0.00     0.136 C 
HETATM   11  C9  UNL     1      88.892 100.917 -42.408  1.00  0.00     0.036 C 
BRANCH  10  12
HETATM   12  C10 UNL     1      91.322 101.246 -42.271  1.00  0.00     0.208 C 
HETATM   13 CL1  UNL     1      90.589 102.867 -42.424  1.00  0.00    -0.082 Cl
HETATM   14 CL2  UNL     1      92.387 100.879 -43.643  1.00  0.00    -0.082 Cl
HETATM   15 CL3  UNL     1      92.314 101.261 -40.797  1.00  0.00    -0.082 Cl
ENDBRANCH  10  12
ENDBRANCH   7  10
BRANCH   1  16
HETATM   16  C2  UNL     1      91.768  93.340 -44.611  1.00  0.00    -0.087 C 
HETATM   17  C1  UNL     1      92.770  93.088 -43.783  1.00  0.00     0.014 C 
HETATM   18  C3  UNL     1      91.431  92.377 -45.669  1.00  0.00     0.043 C 
ENDBRANCH   1  16
TORSDOF 3
ENDMDL
