MODEL 1
REMARK VINA RESULT: -8.671358705      0.000      0.000
REMARK  14 active torsions:
REMARK  status: ('A' for Active; 'I' for Inactive)
REMARK    1  A    between atoms: C2_2  and  C3_3 
REMARK    2  A    between atoms: C3_3  and  C4_4 
REMARK    3  A    between atoms: C4_4  and  O2_6 
REMARK    4  A    between atoms: O2_6  and  C5_7 
REMARK    5  A    between atoms: C8_11  and  O4_12 
REMARK    6  A    between atoms: O4_12  and  C9_13 
REMARK    7  A    between atoms: C14_19  and  O6_20 
REMARK    8  A    between atoms: C17_24  and  C19_26 
REMARK    9  A    between atoms: C20_27  and  C21_28 
REMARK   10  A    between atoms: C21_28  and  O7_30 
REMARK   11  A    between atoms: C21_28  and  C25_34 
REMARK   12  A    between atoms: O7_30  and  C23_31 
REMARK   13  A    between atoms: C25_34  and  C27_36 
REMARK   14  A    between atoms: C27_36  and  C28_37 
ROOT
HETATM    1  C5  UNL     1      26.172   8.451  -9.031  1.00  0.00     0.207 C 
HETATM    2  C6  UNL     1      24.708   8.429  -9.361  1.00  0.00     0.159 C 
HETATM    3  O3  UNL     1      23.928   9.277  -8.913  1.00  0.00    -0.295 OA
HETATM    4  C7  UNL     1      24.097   7.401 -10.238  1.00  0.00     0.114 C 
HETATM    5  C8  UNL     1      25.194   6.442 -10.644  1.00  0.00     0.147 C 
HETATM    6  C11 UNL     1      26.026   5.962  -9.512  1.00  0.00    -0.007 C 
HETATM    7  C12 UNL     1      27.056   4.979 -10.092  1.00  0.00     0.018 C 
HETATM    8  C13 UNL     1      25.145   5.118  -8.618  1.00  0.00     0.044 C 
HETATM    9  C14 UNL     1      25.905   4.544  -7.471  1.00  0.00     0.123 C 
HETATM   10  C15 UNL     1      27.113   5.282  -7.075  1.00  0.00     0.022 C 
HETATM   11  C16 UNL     1      27.381   5.083  -5.601  1.00  0.00     0.014 C 
HETATM   12  C17 UNL     1      27.134   6.773  -7.378  1.00  0.00    -0.014 C 
HETATM   13  C18 UNL     1      28.672   7.044  -7.289  1.00  0.00     0.020 C 
HETATM   14  C32 UNL     1      26.735   7.085  -8.777  1.00  0.00     0.046 C 
ENDROOT
BRANCH  12  15
HETATM   15  C19 UNL     1      26.576   7.582  -6.292  1.00  0.00    -0.018 C 
HETATM   16  C20 UNL     1      27.136   8.434  -5.499  1.00  0.00     0.008 C 
BRANCH  16  17
HETATM   17  C21 UNL     1      26.532   9.235  -4.407  1.00  0.00     0.088 C 
HETATM   18  C22 UNL     1      25.139   9.713  -4.772  1.00  0.00     0.051 C 
BRANCH  17  19
HETATM   19  O7  UNL     1      26.588   8.683  -3.139  1.00  0.00    -0.306 OA
BRANCH  19  20
HETATM   20  C23 UNL     1      26.568   7.398  -2.733  1.00  0.00     0.255 C 
HETATM   21  C24 UNL     1      27.746   6.633  -2.235  1.00  0.00     0.126 C 
HETATM   22  O8  UNL     1      25.494   6.794  -2.774  1.00  0.00    -0.266 OA
ENDBRANCH  19  20
ENDBRANCH  17  19
BRANCH  17  23
HETATM   23  C25 UNL     1      27.392  10.509  -4.306  1.00  0.00     0.024 C 
HETATM   24  C26 UNL     1      26.587  11.725  -4.683  1.00  0.00     0.014 C 
BRANCH  23  25
HETATM   25  C27 UNL     1      28.121  10.741  -3.059  1.00  0.00     0.035 C 
BRANCH  25  26
HETATM   26  C28 UNL     1      28.104  12.094  -2.468  1.00  0.00    -0.024 C 
HETATM   27  C29 UNL     1      27.956  12.393  -1.194  1.00  0.00    -0.091 C 
HETATM   28  C30 UNL     1      27.959  13.806  -0.747  1.00  0.00     0.042 C 
HETATM   29  C31 UNL     1      27.798  11.319  -0.193  1.00  0.00     0.042 C 
ENDBRANCH  25  26
ENDBRANCH  23  25
ENDBRANCH  17  23
ENDBRANCH  16  17
ENDBRANCH  12  15
BRANCH   9  30
HETATM   30  O6  UNL     1      25.018   4.247  -6.414  1.00  0.00    -0.395 OA
ATOM     31  H6  UNL     1      25.287   4.711  -5.630  1.00  0.00     0.210 HD
ENDBRANCH   9  30
BRANCH   1  32
HETATM   32  O2  UNL     1      26.765   9.085 -10.149  1.00  0.00    -0.308 OA
BRANCH  32  33
HETATM   33  C4  UNL     1      26.975  10.437 -10.151  1.00  0.00     0.259 C 
HETATM   34  O1  UNL     1      26.810  11.193 -11.131  1.00  0.00    -0.265 OA
BRANCH  33  35
HETATM   35  C3  UNL     1      27.443  11.103  -8.884  1.00  0.00     0.111 C 
BRANCH  35  36
HETATM   36  C2  UNL     1      26.771  12.431  -8.677  1.00  0.00     0.005 C 
HETATM   37  C1  UNL     1      25.390  12.322  -8.093  1.00  0.00     0.005 C 
ENDBRANCH  35  36
ENDBRANCH  33  35
ENDBRANCH  32  33
ENDBRANCH   1  32
BRANCH   5  38
HETATM   38  O4  UNL     1      25.925   6.905 -11.747  1.00  0.00    -0.315 OA
BRANCH  38  39
HETATM   39  C9  UNL     1      25.392   7.562 -12.846  1.00  0.00     0.255 C 
HETATM   40  C10 UNL     1      24.367   6.840 -13.647  1.00  0.00     0.126 C 
HETATM   41  O5  UNL     1      25.783   8.715 -13.121  1.00  0.00    -0.266 OA
ENDBRANCH  38  39
ENDBRANCH   5  38
TORSDOF 14
ENDMDL
MODEL 2
REMARK VINA RESULT: -8.440623627      1.328      1.525
REMARK  14 active torsions:
REMARK  status: ('A' for Active; 'I' for Inactive)
REMARK    1  A    between atoms: C2_2  and  C3_3 
REMARK    2  A    between atoms: C3_3  and  C4_4 
REMARK    3  A    between atoms: C4_4  and  O2_6 
REMARK    4  A    between atoms: O2_6  and  C5_7 
REMARK    5  A    between atoms: C8_11  and  O4_12 
REMARK    6  A    between atoms: O4_12  and  C9_13 
REMARK    7  A    between atoms: C14_19  and  O6_20 
REMARK    8  A    between atoms: C17_24  and  C19_26 
REMARK    9  A    between atoms: C20_27  and  C21_28 
REMARK   10  A    between atoms: C21_28  and  O7_30 
REMARK   11  A    between atoms: C21_28  and  C25_34 
REMARK   12  A    between atoms: O7_30  and  C23_31 
REMARK   13  A    between atoms: C25_34  and  C27_36 
REMARK   14  A    between atoms: C27_36  and  C28_37 
ROOT
HETATM    1  C5  UNL     1      26.498   9.100  -8.662  1.00  0.00     0.207 C 
HETATM    2  C6  UNL     1      25.037   9.409  -8.818  1.00  0.00     0.159 C 
HETATM    3  O3  UNL     1      24.477  10.266  -8.125  1.00  0.00    -0.295 OA
HETATM    4  C7  UNL     1      24.170   8.718  -9.802  1.00  0.00     0.114 C 
HETATM    5  C8  UNL     1      25.021   7.689 -10.512  1.00  0.00     0.147 C 
HETATM    6  C11 UNL     1      25.827   6.838  -9.601  1.00  0.00    -0.007 C 
HETATM    7  C12 UNL     1      26.594   5.836 -10.478  1.00  0.00     0.018 C 
HETATM    8  C13 UNL     1      24.868   5.992  -8.792  1.00  0.00     0.044 C 
HETATM    9  C14 UNL     1      25.586   5.061  -7.876  1.00  0.00     0.123 C 
HETATM   10  C15 UNL     1      26.943   5.471  -7.487  1.00  0.00     0.022 C 
HETATM   11  C16 UNL     1      27.279   4.917  -6.122  1.00  0.00     0.014 C 
HETATM   12  C17 UNL     1      27.234   6.964  -7.493  1.00  0.00    -0.014 C 
HETATM   13  C18 UNL     1      28.798   6.933  -7.533  1.00  0.00     0.020 C 
HETATM   14  C32 UNL     1      26.798   7.634  -8.748  1.00  0.00     0.046 C 
ENDROOT
BRANCH  12  15
HETATM   15  C19 UNL     1      26.933   7.607  -6.212  1.00  0.00    -0.018 C 
HETATM   16  C20 UNL     1      27.619   8.441  -5.503  1.00  0.00     0.008 C 
BRANCH  16  17
HETATM   17  C21 UNL     1      27.275   9.071  -4.205  1.00  0.00     0.088 C 
HETATM   18  C22 UNL     1      25.801   8.911  -3.882  1.00  0.00     0.051 C 
BRANCH  17  19
HETATM   19  O7  UNL     1      28.090   8.751  -3.134  1.00  0.00    -0.306 OA
BRANCH  19  20
HETATM   20  C23 UNL     1      27.927   7.865  -2.133  1.00  0.00     0.255 C 
HETATM   21  C24 UNL     1      27.818   6.387  -2.300  1.00  0.00     0.126 C 
HETATM   22  O8  UNL     1      27.860   8.297  -0.980  1.00  0.00    -0.266 OA
ENDBRANCH  19  20
ENDBRANCH  17  19
BRANCH  17  23
HETATM   23  C25 UNL     1      27.490  10.582  -4.411  1.00  0.00     0.024 C 
HETATM   24  C26 UNL     1      26.371  11.173  -5.226  1.00  0.00     0.014 C 
BRANCH  23  25
HETATM   25  C27 UNL     1      27.751  11.401  -3.227  1.00  0.00     0.035 C 
BRANCH  25  26
HETATM   26  C28 UNL     1      27.803  12.868  -3.375  1.00  0.00    -0.024 C 
HETATM   27  C29 UNL     1      27.886  13.754  -2.403  1.00  0.00    -0.091 C 
HETATM   28  C30 UNL     1      27.929  15.203  -2.708  1.00  0.00     0.042 C 
HETATM   29  C31 UNL     1      27.950  13.309  -0.997  1.00  0.00     0.042 C 
ENDBRANCH  25  26
ENDBRANCH  23  25
ENDBRANCH  17  23
ENDBRANCH  16  17
ENDBRANCH  12  15
BRANCH   9  30
HETATM   30  O6  UNL     1      24.742   4.706  -6.802  1.00  0.00    -0.395 OA
ATOM     31  H6  UNL     1      25.186   4.869  -5.978  1.00  0.00     0.210 HD
ENDBRANCH   9  30
BRANCH   1  32
HETATM   32  O2  UNL     1      27.117   9.843  -9.696  1.00  0.00    -0.308 OA
BRANCH  32  33
HETATM   33  C4  UNL     1      27.031  11.208  -9.718  1.00  0.00     0.259 C 
HETATM   34  O1  UNL     1      27.409  11.973  -8.806  1.00  0.00    -0.265 OA
BRANCH  33  35
HETATM   35  C3  UNL     1      26.435  11.880 -10.928  1.00  0.00     0.111 C 
BRANCH  35  36
HETATM   36  C2  UNL     1      25.557  13.037 -10.540  1.00  0.00     0.005 C 
HETATM   37  C1  UNL     1      25.972  14.342 -11.161  1.00  0.00     0.005 C 
ENDBRANCH  35  36
ENDBRANCH  33  35
ENDBRANCH  32  33
ENDBRANCH   1  32
BRANCH   5  38
HETATM   38  O4  UNL     1      25.742   8.240 -11.581  1.00  0.00    -0.315 OA
BRANCH  38  39
HETATM   39  C9  UNL     1      25.322   8.270 -12.903  1.00  0.00     0.255 C 
HETATM   40  C10 UNL     1      24.819   9.566 -13.434  1.00  0.00     0.126 C 
HETATM   41  O5  UNL     1      25.378   7.228 -13.588  1.00  0.00    -0.266 OA
ENDBRANCH  38  39
ENDBRANCH   5  38
TORSDOF 14
ENDMDL
MODEL 3
REMARK VINA RESULT: -8.416757768      1.039      1.150
REMARK  14 active torsions:
REMARK  status: ('A' for Active; 'I' for Inactive)
REMARK    1  A    between atoms: C2_2  and  C3_3 
REMARK    2  A    between atoms: C3_3  and  C4_4 
REMARK    3  A    between atoms: C4_4  and  O2_6 
REMARK    4  A    between atoms: O2_6  and  C5_7 
REMARK    5  A    between atoms: C8_11  and  O4_12 
REMARK    6  A    between atoms: O4_12  and  C9_13 
REMARK    7  A    between atoms: C14_19  and  O6_20 
REMARK    8  A    between atoms: C17_24  and  C19_26 
REMARK    9  A    between atoms: C20_27  and  C21_28 
REMARK   10  A    between atoms: C21_28  and  O7_30 
REMARK   11  A    between atoms: C21_28  and  C25_34 
REMARK   12  A    between atoms: O7_30  and  C23_31 
REMARK   13  A    between atoms: C25_34  and  C27_36 
REMARK   14  A    between atoms: C27_36  and  C28_37 
ROOT
HETATM    1  C5  UNL     1      26.210   9.044  -8.841  1.00  0.00     0.207 C 
HETATM    2  C6  UNL     1      24.750   9.200  -9.154  1.00  0.00     0.159 C 
HETATM    3  O3  UNL     1      24.051  10.047  -8.588  1.00  0.00    -0.295 OA
HETATM    4  C7  UNL     1      24.048   8.360 -10.154  1.00  0.00     0.114 C 
HETATM    5  C8  UNL     1      25.053   7.368 -10.698  1.00  0.00     0.147 C 
HETATM    6  C11 UNL     1      25.837   6.667  -9.651  1.00  0.00    -0.007 C 
HETATM    7  C12 UNL     1      26.772   5.681 -10.369  1.00  0.00     0.018 C 
HETATM    8  C13 UNL     1      24.881   5.794  -8.867  1.00  0.00     0.044 C 
HETATM    9  C14 UNL     1      25.585   5.004  -7.817  1.00  0.00     0.123 C 
HETATM   10  C15 UNL     1      26.856   5.569  -7.340  1.00  0.00     0.022 C 
HETATM   11  C16 UNL     1      27.103   5.150  -5.909  1.00  0.00     0.014 C 
HETATM   12  C17 UNL     1      27.013   7.079  -7.441  1.00  0.00    -0.014 C 
HETATM   13  C18 UNL     1      28.570   7.195  -7.334  1.00  0.00     0.020 C 
HETATM   14  C32 UNL     1      26.645   7.612  -8.779  1.00  0.00     0.046 C 
ENDROOT
BRANCH  12  15
HETATM   15  C19 UNL     1      26.531   7.781  -6.249  1.00  0.00    -0.018 C 
HETATM   16  C20 UNL     1      27.150   8.541  -5.407  1.00  0.00     0.008 C 
BRANCH  16  17
HETATM   17  C21 UNL     1      26.621   9.236  -4.208  1.00  0.00     0.088 C 
HETATM   18  C22 UNL     1      25.223   9.773  -4.447  1.00  0.00     0.051 C 
BRANCH  17  19
HETATM   19  O7  UNL     1      26.731   8.555  -3.008  1.00  0.00    -0.306 OA
BRANCH  19  20
HETATM   20  C23 UNL     1      26.643   7.241  -2.727  1.00  0.00     0.255 C 
HETATM   21  C24 UNL     1      27.793   6.353  -2.390  1.00  0.00     0.126 C 
HETATM   22  O8  UNL     1      25.528   6.716  -2.747  1.00  0.00    -0.266 OA
ENDBRANCH  19  20
ENDBRANCH  17  19
BRANCH  17  23
HETATM   23  C25 UNL     1      27.514  10.478  -4.025  1.00  0.00     0.024 C 
HETATM   24  C26 UNL     1      26.802  11.719  -4.493  1.00  0.00     0.014 C 
BRANCH  23  25
HETATM   25  C27 UNL     1      28.116  10.696  -2.709  1.00  0.00     0.035 C 
BRANCH  25  26
HETATM   26  C28 UNL     1      28.107  12.058  -2.142  1.00  0.00    -0.024 C 
HETATM   27  C29 UNL     1      27.948  12.381  -0.874  1.00  0.00    -0.091 C 
HETATM   28  C30 UNL     1      27.961  13.801  -0.451  1.00  0.00     0.042 C 
HETATM   29  C31 UNL     1      27.767  11.326   0.143  1.00  0.00     0.042 C 
ENDBRANCH  25  26
ENDBRANCH  23  25
ENDBRANCH  17  23
ENDBRANCH  16  17
ENDBRANCH  12  15
BRANCH   9  30
HETATM   30  O6  UNL     1      24.674   4.649  -6.798  1.00  0.00    -0.395 OA
ATOM     31  H6  UNL     1      23.785   4.711  -7.128  1.00  0.00     0.210 HD
ENDBRANCH   9  30
BRANCH   1  32
HETATM   32  O2  UNL     1      26.859   9.766  -9.871  1.00  0.00    -0.308 OA
BRANCH  32  33
HETATM   33  C4  UNL     1      26.975  11.128  -9.799  1.00  0.00     0.259 C 
HETATM   34  O1  UNL     1      27.507  11.761  -8.863  1.00  0.00    -0.265 OA
BRANCH  33  35
HETATM   35  C3  UNL     1      26.426  11.966 -10.924  1.00  0.00     0.111 C 
BRANCH  35  36
HETATM   36  C2  UNL     1      25.700  13.176 -10.407  1.00  0.00     0.005 C 
HETATM   37  C1  UNL     1      25.954  14.420 -11.212  1.00  0.00     0.005 C 
ENDBRANCH  35  36
ENDBRANCH  33  35
ENDBRANCH  32  33
ENDBRANCH   1  32
BRANCH   5  38
HETATM   38  O4  UNL     1      25.824   7.907 -11.738  1.00  0.00    -0.315 OA
BRANCH  38  39
HETATM   39  C9  UNL     1      25.378   8.143 -13.029  1.00  0.00     0.255 C 
HETATM   40  C10 UNL     1      25.133   9.557 -13.424  1.00  0.00     0.126 C 
HETATM   41  O5  UNL     1      25.198   7.180 -13.803  1.00  0.00    -0.266 OA
ENDBRANCH  38  39
ENDBRANCH   5  38
TORSDOF 14
ENDMDL
MODEL 4
REMARK VINA RESULT: -8.399101473      0.897      1.058
REMARK  14 active torsions:
REMARK  status: ('A' for Active; 'I' for Inactive)
REMARK    1  A    between atoms: C2_2  and  C3_3 
REMARK    2  A    between atoms: C3_3  and  C4_4 
REMARK    3  A    between atoms: C4_4  and  O2_6 
REMARK    4  A    between atoms: O2_6  and  C5_7 
REMARK    5  A    between atoms: C8_11  and  O4_12 
REMARK    6  A    between atoms: O4_12  and  C9_13 
REMARK    7  A    between atoms: C14_19  and  O6_20 
REMARK    8  A    between atoms: C17_24  and  C19_26 
REMARK    9  A    between atoms: C20_27  and  C21_28 
REMARK   10  A    between atoms: C21_28  and  O7_30 
REMARK   11  A    between atoms: C21_28  and  C25_34 
REMARK   12  A    between atoms: O7_30  and  C23_31 
REMARK   13  A    between atoms: C25_34  and  C27_36 
REMARK   14  A    between atoms: C27_36  and  C28_37 
ROOT
HETATM    1  C5  UNL     1      26.487   8.459  -8.780  1.00  0.00     0.207 C 
HETATM    2  C6  UNL     1      25.007   8.588  -8.997  1.00  0.00     0.159 C 
HETATM    3  O3  UNL     1      24.338   9.451  -8.418  1.00  0.00    -0.295 OA
HETATM    4  C7  UNL     1      24.248   7.702  -9.913  1.00  0.00     0.114 C 
HETATM    5  C8  UNL     1      25.225   6.699 -10.485  1.00  0.00     0.147 C 
HETATM    6  C11 UNL     1      26.088   6.047  -9.468  1.00  0.00    -0.007 C 
HETATM    7  C12 UNL     1      26.983   5.043 -10.210  1.00  0.00     0.018 C 
HETATM    8  C13 UNL     1      25.198   5.197  -8.587  1.00  0.00     0.044 C 
HETATM    9  C14 UNL     1      25.982   4.457  -7.558  1.00  0.00     0.123 C 
HETATM   10  C15 UNL     1      27.276   5.052  -7.192  1.00  0.00     0.022 C 
HETATM   11  C16 UNL     1      27.625   4.692  -5.767  1.00  0.00     0.014 C 
HETATM   12  C17 UNL     1      27.408   6.558  -7.362  1.00  0.00    -0.014 C 
HETATM   13  C18 UNL     1      28.967   6.692  -7.368  1.00  0.00     0.020 C 
HETATM   14  C32 UNL     1      26.942   7.033  -8.692  1.00  0.00     0.046 C 
ENDROOT
BRANCH  12  15
HETATM   15  C19 UNL     1      27.000   7.303  -6.169  1.00  0.00    -0.018 C 
HETATM   16  C20 UNL     1      27.611   8.220  -5.495  1.00  0.00     0.008 C 
BRANCH  16  17
HETATM   17  C21 UNL     1      27.161   8.952  -4.286  1.00  0.00     0.088 C 
HETATM   18  C22 UNL     1      25.689   8.713  -4.008  1.00  0.00     0.051 C 
BRANCH  17  19
HETATM   19  O7  UNL     1      27.946   8.808  -3.155  1.00  0.00    -0.306 OA
BRANCH  19  20
HETATM   20  C23 UNL     1      27.881   7.923  -2.142  1.00  0.00     0.255 C 
HETATM   21  C24 UNL     1      27.869   6.440  -2.292  1.00  0.00     0.126 C 
HETATM   22  O8  UNL     1      27.824   8.362  -0.991  1.00  0.00    -0.266 OA
ENDBRANCH  19  20
ENDBRANCH  17  19
BRANCH  17  23
HETATM   23  C25 UNL     1      27.276  10.446  -4.643  1.00  0.00     0.024 C 
HETATM   24  C26 UNL     1      25.963  10.973  -5.156  1.00  0.00     0.014 C 
BRANCH  23  25
HETATM   25  C27 UNL     1      27.831  11.346  -3.632  1.00  0.00     0.035 C 
BRANCH  25  26
HETATM   26  C28 UNL     1      27.703  12.803  -3.831  1.00  0.00    -0.024 C 
HETATM   27  C29 UNL     1      27.789  13.734  -2.903  1.00  0.00    -0.091 C 
HETATM   28  C30 UNL     1      27.637  15.165  -3.256  1.00  0.00     0.042 C 
HETATM   29  C31 UNL     1      28.050  13.360  -1.499  1.00  0.00     0.042 C 
ENDBRANCH  25  26
ENDBRANCH  23  25
ENDBRANCH  17  23
ENDBRANCH  16  17
ENDBRANCH  12  15
BRANCH   9  30
HETATM   30  O6  UNL     1      25.147   4.134  -6.466  1.00  0.00    -0.395 OA
ATOM     31  H6  UNL     1      24.706   3.309  -6.632  1.00  0.00     0.210 HD
ENDBRANCH   9  30
BRANCH   1  32
HETATM   32  O2  UNL     1      27.056   9.145  -9.880  1.00  0.00    -0.308 OA
BRANCH  32  33
HETATM   33  C4  UNL     1      27.067  10.513  -9.915  1.00  0.00     0.259 C 
HETATM   34  O1  UNL     1      26.865  11.212 -10.930  1.00  0.00    -0.265 OA
BRANCH  33  35
HETATM   35  C3  UNL     1      27.342  11.271  -8.643  1.00  0.00     0.111 C 
BRANCH  35  36
HETATM   36  C2  UNL     1      26.814  12.676  -8.713  1.00  0.00     0.005 C 
HETATM   37  C1  UNL     1      25.392  12.809  -8.243  1.00  0.00     0.005 C 
ENDBRANCH  35  36
ENDBRANCH  33  35
ENDBRANCH  32  33
ENDBRANCH   1  32
BRANCH   5  38
HETATM   38  O4  UNL     1      25.917   7.204 -11.596  1.00  0.00    -0.315 OA
BRANCH  38  39
HETATM   39  C9  UNL     1      25.331   7.788 -12.709  1.00  0.00     0.255 C 
HETATM   40  C10 UNL     1      24.340   6.979 -13.468  1.00  0.00     0.126 C 
HETATM   41  O5  UNL     1      25.651   8.951 -13.033  1.00  0.00    -0.266 OA
ENDBRANCH  38  39
ENDBRANCH   5  38
TORSDOF 14
ENDMDL
MODEL 5
REMARK VINA RESULT: -8.145251895      2.300      4.277
REMARK  14 active torsions:
REMARK  status: ('A' for Active; 'I' for Inactive)
REMARK    1  A    between atoms: C2_2  and  C3_3 
REMARK    2  A    between atoms: C3_3  and  C4_4 
REMARK    3  A    between atoms: C4_4  and  O2_6 
REMARK    4  A    between atoms: O2_6  and  C5_7 
REMARK    5  A    between atoms: C8_11  and  O4_12 
REMARK    6  A    between atoms: O4_12  and  C9_13 
REMARK    7  A    between atoms: C14_19  and  O6_20 
REMARK    8  A    between atoms: C17_24  and  C19_26 
REMARK    9  A    between atoms: C20_27  and  C21_28 
REMARK   10  A    between atoms: C21_28  and  O7_30 
REMARK   11  A    between atoms: C21_28  and  C25_34 
REMARK   12  A    between atoms: O7_30  and  C23_31 
REMARK   13  A    between atoms: C25_34  and  C27_36 
REMARK   14  A    between atoms: C27_36  and  C28_37 
ROOT
HETATM    1  C5  UNL     1      25.931  10.598  -6.690  1.00  0.00     0.207 C 
HETATM    2  C6  UNL     1      24.453  10.741  -6.463  1.00  0.00     0.159 C 
HETATM    3  O3  UNL     1      23.953  10.613  -5.340  1.00  0.00    -0.295 OA
HETATM    4  C7  UNL     1      23.498  11.042  -7.556  1.00  0.00     0.114 C 
HETATM    5  C8  UNL     1      24.289  11.117  -8.842  1.00  0.00     0.147 C 
HETATM    6  C11 UNL     1      25.219   9.978  -9.048  1.00  0.00    -0.007 C 
HETATM    7  C12 UNL     1      25.907  10.194 -10.405  1.00  0.00     0.018 C 
HETATM    8  C13 UNL     1      24.384   8.730  -9.230  1.00  0.00     0.044 C 
HETATM    9  C14 UNL     1      25.229   7.531  -9.494  1.00  0.00     0.123 C 
HETATM   10  C15 UNL     1      26.610   7.603  -8.995  1.00  0.00     0.022 C 
HETATM   11  C16 UNL     1      27.117   6.215  -8.676  1.00  0.00     0.014 C 
HETATM   12  C17 UNL     1      26.857   8.502  -7.793  1.00  0.00    -0.014 C 
HETATM   13  C18 UNL     1      28.406   8.688  -7.910  1.00  0.00     0.020 C 
HETATM   14  C32 UNL     1      26.259   9.855  -7.949  1.00  0.00     0.046 C 
ENDROOT
BRANCH  12  15
HETATM   15  C19 UNL     1      26.688   7.803  -6.516  1.00  0.00    -0.018 C 
HETATM   16  C20 UNL     1      27.472   7.706  -5.495  1.00  0.00     0.008 C 
BRANCH  16  17
HETATM   17  C21 UNL     1      27.261   6.985  -4.216  1.00  0.00     0.088 C 
HETATM   18  C22 UNL     1      25.888   7.270  -3.637  1.00  0.00     0.051 C 
BRANCH  17  19
HETATM   19  O7  UNL     1      27.568   5.636  -4.216  1.00  0.00    -0.306 OA
BRANCH  19  20
HETATM   20  C23 UNL     1      27.303   4.670  -5.117  1.00  0.00     0.255 C 
HETATM   21  C24 UNL     1      25.943   4.278  -5.586  1.00  0.00     0.126 C 
HETATM   22  O8  UNL     1      28.254   4.050  -5.600  1.00  0.00    -0.266 OA
ENDBRANCH  19  20
ENDBRANCH  17  19
BRANCH  17  23
HETATM   23  C25 UNL     1      28.263   7.604  -3.224  1.00  0.00     0.024 C 
HETATM   24  C26 UNL     1      29.296   8.423  -3.952  1.00  0.00     0.014 C 
BRANCH  23  25
HETATM   25  C27 UNL     1      27.724   8.351  -2.087  1.00  0.00     0.035 C 
BRANCH  25  26
HETATM   26  C28 UNL     1      28.438   9.559  -1.628  1.00  0.00    -0.024 C 
HETATM   27  C29 UNL     1      28.128  10.307  -0.589  1.00  0.00    -0.091 C 
HETATM   28  C30 UNL     1      28.943  11.497  -0.249  1.00  0.00     0.042 C 
HETATM   29  C31 UNL     1      26.969   9.959   0.257  1.00  0.00     0.042 C 
ENDBRANCH  25  26
ENDBRANCH  23  25
ENDBRANCH  17  23
ENDBRANCH  16  17
ENDBRANCH  12  15
BRANCH   9  30
HETATM   30  O6  UNL     1      24.526   6.363  -9.128  1.00  0.00    -0.395 OA
ATOM     31  H6  UNL     1      25.131   5.722  -8.774  1.00  0.00     0.210 HD
ENDBRANCH   9  30
BRANCH   1  32
HETATM   32  O2  UNL     1      26.404  11.932  -6.707  1.00  0.00    -0.308 OA
BRANCH  32  33
HETATM   33  C4  UNL     1      26.524  12.641  -5.543  1.00  0.00     0.259 C 
HETATM   34  O1  UNL     1      26.137  13.816  -5.367  1.00  0.00    -0.265 OA
BRANCH  33  35
HETATM   35  C3  UNL     1      27.173  11.983  -4.353  1.00  0.00     0.111 C 
BRANCH  35  36
HETATM   36  C2  UNL     1      27.460  12.976  -3.261  1.00  0.00     0.005 C 
HETATM   37  C1  UNL     1      28.867  13.504  -3.283  1.00  0.00     0.005 C 
ENDBRANCH  35  36
ENDBRANCH  33  35
ENDBRANCH  32  33
ENDBRANCH   1  32
BRANCH   5  38
HETATM   38  O4  UNL     1      24.866  12.381  -9.040  1.00  0.00    -0.315 OA
BRANCH  38  39
HETATM   39  C9  UNL     1      24.175  13.582  -9.072  1.00  0.00     0.255 C 
HETATM   40  C10 UNL     1      23.330  13.857 -10.266  1.00  0.00     0.126 C 
HETATM   41  O5  UNL     1      24.285  14.380  -8.118  1.00  0.00    -0.266 OA
ENDBRANCH  38  39
ENDBRANCH   5  38
TORSDOF 14
ENDMDL
