MODEL 1
REMARK VINA RESULT: -9.145067844      0.000      0.000
REMARK  15 active torsions:
REMARK  status: ('A' for Active; 'I' for Inactive)
REMARK    1  A    between atoms: C2_2  and  C3_3 
REMARK    2  A    between atoms: C2_2  and  C26_33 
REMARK    3  A    between atoms: C3_3  and  C4_4 
REMARK    4  A    between atoms: C4_4  and  C5_5 
REMARK    5  A    between atoms: C5_5  and  O2_7 
REMARK    6  A    between atoms: O2_7  and  C6_8 
REMARK    7  A    between atoms: C16_18  and  O3_19 
REMARK    8  A    between atoms: O3_19  and  C17_20 
REMARK    9  A    between atoms: C17_20  and  C18_22 
REMARK   10  A    between atoms: C18_22  and  C19_23 
REMARK   11  A    between atoms: C24_29  and  O6_31 
REMARK   12  A    between atoms: C26_33  and  C27_34 
REMARK   13  A    between atoms: C26_33  and  C30_37 
REMARK   14  A    between atoms: C31_38  and  C33_40 
REMARK   15  A    between atoms: C33_40  and  O8_42 
ROOT
HETATM    1  C6  UNL     1      27.483   6.208  -6.447  1.00  0.00     0.222 C 
HETATM    2  C7  UNL     1      28.104   7.531  -6.577  1.00  0.00    -0.054 C 
HETATM    3  C8  UNL     1      29.128   7.561  -7.416  1.00  0.00     0.017 C 
HETATM    4  C9  UNL     1      27.868   8.866  -5.992  1.00  0.00     0.044 C 
HETATM    5  C10 UNL     1      28.120   8.948  -4.514  1.00  0.00     0.029 C 
HETATM    6  C11 UNL     1      28.059   7.566  -3.964  1.00  0.00     0.134 C 
HETATM    7  C12 UNL     1      28.539   7.420  -2.553  1.00  0.00     0.060 C 
HETATM    8  C13 UNL     1      27.776   8.182  -1.562  1.00  0.00    -0.019 C 
HETATM    9  C14 UNL     1      27.354   9.443  -1.486  1.00  0.00    -0.058 C 
HETATM   10  C15 UNL     1      26.588   9.843  -0.289  1.00  0.00     0.046 C 
HETATM   11  C16 UNL     1      27.632  10.435  -2.557  1.00  0.00     0.168 C 
HETATM   12  C21 UNL     1      27.183   9.946  -3.934  1.00  0.00    -0.011 C 
HETATM   13  C22 UNL     1      25.733   9.528  -3.914  1.00  0.00     0.018 C 
HETATM   14  C23 UNL     1      27.261  11.177  -4.827  1.00  0.00     0.018 C 
HETATM   15  O5  UNL     1      26.843   7.006  -4.230  1.00  0.00    -0.347 OA
HETATM   16  C24 UNL     1      26.794   5.982  -5.120  1.00  0.00     0.189 C 
HETATM   17  C25 UNL     1      27.362   4.736  -4.421  1.00  0.00     0.082 C 
ENDROOT
BRANCH   1  18
HETATM   18  O2  UNL     1      28.334   5.127  -6.672  1.00  0.00    -0.306 OA
BRANCH  18  19
HETATM   19  C5  UNL     1      28.218   4.273  -7.740  1.00  0.00     0.259 C 
HETATM   20  O1  UNL     1      28.140   3.062  -7.465  1.00  0.00    -0.265 OA
BRANCH  19  21
HETATM   21  C4  UNL     1      28.186   4.794  -9.171  1.00  0.00     0.115 C 
BRANCH  21  22
HETATM   22  C3  UNL     1      26.865   4.509  -9.766  1.00  0.00     0.044 C 
BRANCH  22  23
HETATM   23  C2  UNL     1      25.702   5.304  -9.446  1.00  0.00    -0.077 C 
HETATM   24  C1  UNL     1      24.821   4.789  -8.556  1.00  0.00     0.015 C 
BRANCH  23  25
HETATM   25  C26 UNL     1      25.310   6.613 -10.067  1.00  0.00     0.059 C 
BRANCH  25  26
HETATM   26  C27 UNL     1      24.226   6.445 -11.033  1.00  0.00    -0.018 C 
HETATM   27  C28 UNL     1      24.375   6.779 -12.343  1.00  0.00    -0.034 C 
HETATM   28  C29 UNL     1      25.662   7.329 -12.827  1.00  0.00     0.036 C 
ENDBRANCH  25  26
BRANCH  25  29
HETATM   29  C30 UNL     1      25.205   7.732  -9.161  1.00  0.00    -0.001 C 
HETATM   30  C31 UNL     1      25.649   8.921  -9.047  1.00  0.00     0.010 C 
HETATM   31  C32 UNL     1      25.107   9.639  -7.755  1.00  0.00     0.054 C 
BRANCH  30  32
HETATM   32  C33 UNL     1      26.551   9.767  -9.764  1.00  0.00     0.288 C 
HETATM   33  O7  UNL     1      27.654  10.190  -9.400  1.00  0.00    -0.260 OA
BRANCH  32  34
HETATM   34  O8  UNL     1      26.207  10.231 -11.080  1.00  0.00    -0.323 OA
HETATM   35  C34 UNL     1      24.896  10.704 -11.270  1.00  0.00     0.213 C 
ENDBRANCH  32  34
ENDBRANCH  30  32
ENDBRANCH  25  29
ENDBRANCH  23  25
ENDBRANCH  22  23
ENDBRANCH  21  22
ENDBRANCH  19  21
ENDBRANCH  18  19
ENDBRANCH   1  18
BRANCH  16  36
HETATM   36  O6  UNL     1      25.419   5.674  -5.285  1.00  0.00    -0.363 OA
ATOM     37  H6  UNL     1      24.938   6.396  -5.672  1.00  0.00     0.213 HD
ENDBRANCH  16  36
BRANCH  11  38
HETATM   38  O3  UNL     1      27.231  11.728  -2.267  1.00  0.00    -0.311 OA
BRANCH  38  39
HETATM   39  C17 UNL     1      28.001  12.780  -1.831  1.00  0.00     0.259 C 
HETATM   40  O4  UNL     1      28.626  13.419  -2.682  1.00  0.00    -0.265 OA
BRANCH  39  41
HETATM   41  C18 UNL     1      28.085  13.142  -0.399  1.00  0.00     0.111 C 
BRANCH  41  42
HETATM   42  C19 UNL     1      29.193  12.432   0.304  1.00  0.00     0.005 C 
HETATM   43  C20 UNL     1      29.595  13.224   1.530  1.00  0.00     0.005 C 
ENDBRANCH  41  42
ENDBRANCH  39  41
ENDBRANCH  38  39
ENDBRANCH  11  38
TORSDOF 15
ENDMDL
MODEL 2
REMARK VINA RESULT: -8.993956068      0.812      1.299
REMARK  15 active torsions:
REMARK  status: ('A' for Active; 'I' for Inactive)
REMARK    1  A    between atoms: C2_2  and  C3_3 
REMARK    2  A    between atoms: C2_2  and  C26_33 
REMARK    3  A    between atoms: C3_3  and  C4_4 
REMARK    4  A    between atoms: C4_4  and  C5_5 
REMARK    5  A    between atoms: C5_5  and  O2_7 
REMARK    6  A    between atoms: O2_7  and  C6_8 
REMARK    7  A    between atoms: C16_18  and  O3_19 
REMARK    8  A    between atoms: O3_19  and  C17_20 
REMARK    9  A    between atoms: C17_20  and  C18_22 
REMARK   10  A    between atoms: C18_22  and  C19_23 
REMARK   11  A    between atoms: C24_29  and  O6_31 
REMARK   12  A    between atoms: C26_33  and  C27_34 
REMARK   13  A    between atoms: C26_33  and  C30_37 
REMARK   14  A    between atoms: C31_38  and  C33_40 
REMARK   15  A    between atoms: C33_40  and  O8_42 
ROOT
HETATM    1  C6  UNL     1      27.529   6.212  -6.426  1.00  0.00     0.222 C 
HETATM    2  C7  UNL     1      28.187   7.519  -6.522  1.00  0.00    -0.054 C 
HETATM    3  C8  UNL     1      29.235   7.533  -7.330  1.00  0.00     0.017 C 
HETATM    4  C9  UNL     1      27.969   8.854  -5.927  1.00  0.00     0.044 C 
HETATM    5  C10 UNL     1      28.179   8.911  -4.441  1.00  0.00     0.029 C 
HETATM    6  C11 UNL     1      28.067   7.525  -3.910  1.00  0.00     0.134 C 
HETATM    7  C12 UNL     1      28.501   7.351  -2.488  1.00  0.00     0.060 C 
HETATM    8  C13 UNL     1      27.730   8.121  -1.510  1.00  0.00    -0.019 C 
HETATM    9  C14 UNL     1      27.339   9.391  -1.430  1.00  0.00    -0.058 C 
HETATM   10  C15 UNL     1      26.549   9.796  -0.251  1.00  0.00     0.046 C 
HETATM   11  C16 UNL     1      27.673  10.387  -2.481  1.00  0.00     0.168 C 
HETATM   12  C21 UNL     1      27.252   9.927  -3.875  1.00  0.00    -0.011 C 
HETATM   13  C22 UNL     1      25.792   9.547  -3.903  1.00  0.00     0.018 C 
HETATM   14  C23 UNL     1      27.387  11.166  -4.751  1.00  0.00     0.018 C 
HETATM   15  O5  UNL     1      26.845   7.000  -4.219  1.00  0.00    -0.347 OA
HETATM   16  C24 UNL     1      26.795   5.989  -5.122  1.00  0.00     0.189 C 
HETATM   17  C25 UNL     1      27.310   4.720  -4.423  1.00  0.00     0.082 C 
ENDROOT
BRANCH   1  18
HETATM   18  O2  UNL     1      28.358   5.112  -6.640  1.00  0.00    -0.306 OA
BRANCH  18  19
HETATM   19  C5  UNL     1      28.234   4.259  -7.707  1.00  0.00     0.259 C 
HETATM   20  O1  UNL     1      28.145   3.048  -7.432  1.00  0.00    -0.265 OA
BRANCH  19  21
HETATM   21  C4  UNL     1      28.207   4.780  -9.139  1.00  0.00     0.115 C 
BRANCH  21  22
HETATM   22  C3  UNL     1      26.891   4.487  -9.741  1.00  0.00     0.044 C 
BRANCH  22  23
HETATM   23  C2  UNL     1      25.723   5.280  -9.433  1.00  0.00    -0.077 C 
HETATM   24  C1  UNL     1      24.826   4.757  -8.564  1.00  0.00     0.015 C 
BRANCH  23  25
HETATM   25  C26 UNL     1      25.343   6.596 -10.047  1.00  0.00     0.059 C 
BRANCH  25  26
HETATM   26  C27 UNL     1      24.260   6.442 -11.017  1.00  0.00    -0.018 C 
HETATM   27  C28 UNL     1      24.402   6.819 -12.316  1.00  0.00    -0.034 C 
HETATM   28  C29 UNL     1      25.681   7.402 -12.784  1.00  0.00     0.036 C 
ENDBRANCH  25  26
BRANCH  25  29
HETATM   29  C30 UNL     1      25.245   7.710  -9.135  1.00  0.00    -0.001 C 
HETATM   30  C31 UNL     1      25.715   8.886  -9.000  1.00  0.00     0.010 C 
HETATM   31  C32 UNL     1      25.161   9.608  -7.716  1.00  0.00     0.054 C 
BRANCH  30  32
HETATM   32  C33 UNL     1      26.655   9.715  -9.689  1.00  0.00     0.288 C 
HETATM   33  O7  UNL     1      27.830   9.950  -9.388  1.00  0.00    -0.260 OA
BRANCH  32  34
HETATM   34  O8  UNL     1      26.263  10.399 -10.891  1.00  0.00    -0.323 OA
HETATM   35  C34 UNL     1      26.238  11.804 -10.849  1.00  0.00     0.213 C 
ENDBRANCH  32  34
ENDBRANCH  30  32
ENDBRANCH  25  29
ENDBRANCH  23  25
ENDBRANCH  22  23
ENDBRANCH  21  22
ENDBRANCH  19  21
ENDBRANCH  18  19
ENDBRANCH   1  18
BRANCH  16  36
HETATM   36  O6  UNL     1      25.418   5.719  -5.330  1.00  0.00    -0.363 OA
ATOM     37  H6  UNL     1      24.863   6.366  -4.912  1.00  0.00     0.213 HD
ENDBRANCH  16  36
BRANCH  11  38
HETATM   38  O3  UNL     1      27.297  11.687  -2.186  1.00  0.00    -0.311 OA
BRANCH  38  39
HETATM   39  C17 UNL     1      28.045  12.674  -1.589  1.00  0.00     0.259 C 
HETATM   40  O4  UNL     1      28.830  12.335  -0.700  1.00  0.00    -0.265 OA
BRANCH  39  41
HETATM   41  C18 UNL     1      27.922  14.093  -1.990  1.00  0.00     0.111 C 
BRANCH  41  42
HETATM   42  C19 UNL     1      28.463  14.349  -3.356  1.00  0.00     0.005 C 
HETATM   43  C20 UNL     1      27.351  14.863  -4.246  1.00  0.00     0.005 C 
ENDBRANCH  41  42
ENDBRANCH  39  41
ENDBRANCH  38  39
ENDBRANCH  11  38
TORSDOF 15
ENDMDL
MODEL 3
REMARK VINA RESULT: -8.857743226      2.203      9.188
REMARK  15 active torsions:
REMARK  status: ('A' for Active; 'I' for Inactive)
REMARK    1  A    between atoms: C2_2  and  C3_3 
REMARK    2  A    between atoms: C2_2  and  C26_33 
REMARK    3  A    between atoms: C3_3  and  C4_4 
REMARK    4  A    between atoms: C4_4  and  C5_5 
REMARK    5  A    between atoms: C5_5  and  O2_7 
REMARK    6  A    between atoms: O2_7  and  C6_8 
REMARK    7  A    between atoms: C16_18  and  O3_19 
REMARK    8  A    between atoms: O3_19  and  C17_20 
REMARK    9  A    between atoms: C17_20  and  C18_22 
REMARK   10  A    between atoms: C18_22  and  C19_23 
REMARK   11  A    between atoms: C24_29  and  O6_31 
REMARK   12  A    between atoms: C26_33  and  C27_34 
REMARK   13  A    between atoms: C26_33  and  C30_37 
REMARK   14  A    between atoms: C31_38  and  C33_40 
REMARK   15  A    between atoms: C33_40  and  O8_42 
ROOT
HETATM    1  C6  UNL     1      27.304   8.788  -3.259  1.00  0.00     0.222 C 
HETATM    2  C7  UNL     1      26.366   9.066  -4.352  1.00  0.00    -0.054 C 
HETATM    3  C8  UNL     1      25.279   9.717  -3.972  1.00  0.00     0.017 C 
HETATM    4  C9  UNL     1      26.332   8.793  -5.804  1.00  0.00     0.044 C 
HETATM    5  C10 UNL     1      26.237   7.337  -6.158  1.00  0.00     0.029 C 
HETATM    6  C11 UNL     1      26.698   6.550  -4.982  1.00  0.00     0.134 C 
HETATM    7  C12 UNL     1      26.432   5.078  -5.056  1.00  0.00     0.060 C 
HETATM    8  C13 UNL     1      27.091   4.390  -6.167  1.00  0.00    -0.019 C 
HETATM    9  C14 UNL     1      27.196   4.625  -7.473  1.00  0.00    -0.058 C 
HETATM   10  C15 UNL     1      27.971   3.668  -8.287  1.00  0.00     0.046 C 
HETATM   11  C16 UNL     1      26.563   5.807  -8.115  1.00  0.00     0.168 C 
HETATM   12  C21 UNL     1      26.959   7.119  -7.439  1.00  0.00    -0.011 C 
HETATM   13  C22 UNL     1      28.459   7.256  -7.361  1.00  0.00     0.018 C 
HETATM   14  C23 UNL     1      26.480   8.207  -8.392  1.00  0.00     0.018 C 
HETATM   15  O5  UNL     1      27.976   6.899  -4.653  1.00  0.00    -0.347 OA
HETATM   16  C24 UNL     1      28.174   7.573  -3.491  1.00  0.00     0.189 C 
HETATM   17  C25 UNL     1      28.014   6.565  -2.340  1.00  0.00     0.082 C 
ENDROOT
BRANCH   1  18
HETATM   18  O2  UNL     1      26.726   8.661  -1.998  1.00  0.00    -0.306 OA
BRANCH  18  19
HETATM   19  C5  UNL     1      26.880   9.579  -0.990  1.00  0.00     0.259 C 
HETATM   20  O1  UNL     1      25.841   9.921  -0.397  1.00  0.00    -0.265 OA
BRANCH  19  21
HETATM   21  C4  UNL     1      28.251  10.138  -0.632  1.00  0.00     0.115 C 
BRANCH  21  22
HETATM   22  C3  UNL     1      28.772  10.922  -1.769  1.00  0.00     0.044 C 
BRANCH  22  23
HETATM   23  C2  UNL     1      28.219  12.212  -2.118  1.00  0.00    -0.077 C 
HETATM   24  C1  UNL     1      27.692  12.349  -3.358  1.00  0.00     0.015 C 
BRANCH  23  25
HETATM   25  C26 UNL     1      28.248  13.457  -1.281  1.00  0.00     0.059 C 
BRANCH  25  26
HETATM   26  C27 UNL     1      29.364  13.443  -0.337  1.00  0.00    -0.018 C 
HETATM   27  C28 UNL     1      29.170  13.280   1.000  1.00  0.00    -0.034 C 
HETATM   28  C29 UNL     1      27.799  13.109   1.536  1.00  0.00     0.036 C 
ENDBRANCH  25  26
BRANCH  25  29
HETATM   29  C30 UNL     1      28.009  14.693  -1.986  1.00  0.00    -0.001 C 
HETATM   30  C31 UNL     1      28.668  15.580  -2.621  1.00  0.00     0.010 C 
HETATM   31  C32 UNL     1      27.745  16.728  -3.174  1.00  0.00     0.054 C 
BRANCH  30  32
HETATM   32  C33 UNL     1      30.041  15.833  -2.928  1.00  0.00     0.288 C 
HETATM   33  O7  UNL     1      30.955  16.131  -2.152  1.00  0.00    -0.260 OA
BRANCH  32  34
HETATM   34  O8  UNL     1      30.499  15.752  -4.289  1.00  0.00    -0.323 OA
HETATM   35  C34 UNL     1      31.107  16.900  -4.828  1.00  0.00     0.213 C 
ENDBRANCH  32  34
ENDBRANCH  30  32
ENDBRANCH  25  29
ENDBRANCH  23  25
ENDBRANCH  22  23
ENDBRANCH  21  22
ENDBRANCH  19  21
ENDBRANCH  18  19
ENDBRANCH   1  18
BRANCH  16  36
HETATM   36  O6  UNL     1      29.555   7.897  -3.459  1.00  0.00    -0.363 OA
ATOM     37  H6  UNL     1      30.072   7.298  -3.985  1.00  0.00     0.213 HD
ENDBRANCH  16  36
BRANCH  11  38
HETATM   38  O3  UNL     1      26.664   5.839  -9.496  1.00  0.00    -0.311 OA
BRANCH  38  39
HETATM   39  C17 UNL     1      25.709   5.504 -10.426  1.00  0.00     0.259 C 
HETATM   40  O4  UNL     1      25.081   4.458 -10.247  1.00  0.00    -0.265 OA
BRANCH  39  41
HETATM   41  C18 UNL     1      25.435   6.359 -11.603  1.00  0.00     0.111 C 
BRANCH  41  42
HETATM   42  C19 UNL     1      23.984   6.666 -11.758  1.00  0.00     0.005 C 
HETATM   43  C20 UNL     1      23.535   7.550 -10.614  1.00  0.00     0.005 C 
ENDBRANCH  41  42
ENDBRANCH  39  41
ENDBRANCH  38  39
ENDBRANCH  11  38
TORSDOF 15
ENDMDL
MODEL 4
REMARK VINA RESULT: -8.828877892      1.298      2.250
REMARK  15 active torsions:
REMARK  status: ('A' for Active; 'I' for Inactive)
REMARK    1  A    between atoms: C2_2  and  C3_3 
REMARK    2  A    between atoms: C2_2  and  C26_33 
REMARK    3  A    between atoms: C3_3  and  C4_4 
REMARK    4  A    between atoms: C4_4  and  C5_5 
REMARK    5  A    between atoms: C5_5  and  O2_7 
REMARK    6  A    between atoms: O2_7  and  C6_8 
REMARK    7  A    between atoms: C16_18  and  O3_19 
REMARK    8  A    between atoms: O3_19  and  C17_20 
REMARK    9  A    between atoms: C17_20  and  C18_22 
REMARK   10  A    between atoms: C18_22  and  C19_23 
REMARK   11  A    between atoms: C24_29  and  O6_31 
REMARK   12  A    between atoms: C26_33  and  C27_34 
REMARK   13  A    between atoms: C26_33  and  C30_37 
REMARK   14  A    between atoms: C31_38  and  C33_40 
REMARK   15  A    between atoms: C33_40  and  O8_42 
ROOT
HETATM    1  C6  UNL     1      27.429   6.187  -6.366  1.00  0.00     0.222 C 
HETATM    2  C7  UNL     1      28.027   7.517  -6.526  1.00  0.00    -0.054 C 
HETATM    3  C8  UNL     1      29.031   7.553  -7.389  1.00  0.00     0.017 C 
HETATM    4  C9  UNL     1      27.785   8.856  -5.951  1.00  0.00     0.044 C 
HETATM    5  C10 UNL     1      28.069   8.959  -4.480  1.00  0.00     0.029 C 
HETATM    6  C11 UNL     1      28.042   7.583  -3.913  1.00  0.00     0.134 C 
HETATM    7  C12 UNL     1      28.555   7.461  -2.511  1.00  0.00     0.060 C 
HETATM    8  C13 UNL     1      27.805   8.224  -1.513  1.00  0.00    -0.019 C 
HETATM    9  C14 UNL     1      27.366   9.479  -1.441  1.00  0.00    -0.058 C 
HETATM   10  C15 UNL     1      26.622   9.882  -0.231  1.00  0.00     0.046 C 
HETATM   11  C16 UNL     1      27.604  10.462  -2.530  1.00  0.00     0.168 C 
HETATM   12  C21 UNL     1      27.131   9.950  -3.890  1.00  0.00    -0.011 C 
HETATM   13  C22 UNL     1      25.689   9.512  -3.832  1.00  0.00     0.018 C 
HETATM   14  C23 UNL     1      27.170  11.171  -4.800  1.00  0.00     0.018 C 
HETATM   15  O5  UNL     1      26.828   7.002  -4.145  1.00  0.00    -0.347 OA
HETATM   16  C24 UNL     1      26.774   5.967  -5.021  1.00  0.00     0.189 C 
HETATM   17  C25 UNL     1      27.376   4.738  -4.321  1.00  0.00     0.082 C 
ENDROOT
BRANCH   1  18
HETATM   18  O2  UNL     1      28.291   5.116  -6.598  1.00  0.00    -0.306 OA
BRANCH  18  19
HETATM   19  C5  UNL     1      28.180   4.265  -7.669  1.00  0.00     0.259 C 
HETATM   20  O1  UNL     1      28.083   3.054  -7.398  1.00  0.00    -0.265 OA
BRANCH  19  21
HETATM   21  C4  UNL     1      28.177   4.789  -9.100  1.00  0.00     0.115 C 
BRANCH  21  22
HETATM   22  C3  UNL     1      26.874   4.490  -9.726  1.00  0.00     0.044 C 
BRANCH  22  23
HETATM   23  C2  UNL     1      25.700   5.288  -9.453  1.00  0.00    -0.077 C 
HETATM   24  C1  UNL     1      24.852   4.841  -8.496  1.00  0.00     0.015 C 
BRANCH  23  25
HETATM   25  C26 UNL     1      25.264   6.524 -10.184  1.00  0.00     0.059 C 
BRANCH  25  26
HETATM   26  C27 UNL     1      26.327   7.527 -10.223  1.00  0.00    -0.018 C 
HETATM   27  C28 UNL     1      26.259   8.672  -9.491  1.00  0.00    -0.034 C 
HETATM   28  C29 UNL     1      25.087   8.929  -8.623  1.00  0.00     0.036 C 
ENDBRANCH  25  26
BRANCH  25  29
HETATM   29  C30 UNL     1      24.533   6.304 -11.410  1.00  0.00    -0.001 C 
HETATM   30  C31 UNL     1      23.606   6.855 -12.087  1.00  0.00     0.010 C 
HETATM   31  C32 UNL     1      23.271   6.056 -13.401  1.00  0.00     0.054 C 
BRANCH  30  32
HETATM   32  C33 UNL     1      22.751   7.993 -11.947  1.00  0.00     0.288 C 
HETATM   33  O7  UNL     1      22.338   8.514 -10.905  1.00  0.00    -0.260 OA
BRANCH  32  34
HETATM   34  O8  UNL     1      22.265   8.674 -13.116  1.00  0.00    -0.323 OA
HETATM   35  C34 UNL     1      21.076   9.413 -12.977  1.00  0.00     0.213 C 
ENDBRANCH  32  34
ENDBRANCH  30  32
ENDBRANCH  25  29
ENDBRANCH  23  25
ENDBRANCH  22  23
ENDBRANCH  21  22
ENDBRANCH  19  21
ENDBRANCH  18  19
ENDBRANCH   1  18
BRANCH  16  36
HETATM   36  O6  UNL     1      25.400   5.637  -5.150  1.00  0.00    -0.363 OA
ATOM     37  H6  UNL     1      25.084   5.775  -6.035  1.00  0.00     0.213 HD
ENDBRANCH  16  36
BRANCH  11  38
HETATM   38  O3  UNL     1      27.191  11.752  -2.246  1.00  0.00    -0.311 OA
BRANCH  38  39
HETATM   39  C17 UNL     1      27.958  12.827  -1.864  1.00  0.00     0.259 C 
HETATM   40  O4  UNL     1      28.534  13.460  -2.752  1.00  0.00    -0.265 OA
BRANCH  39  41
HETATM   41  C18 UNL     1      28.096  13.219  -0.444  1.00  0.00     0.111 C 
BRANCH  41  42
HETATM   42  C19 UNL     1      29.166  12.453   0.258  1.00  0.00     0.005 C 
HETATM   43  C20 UNL     1      29.530  13.166   1.543  1.00  0.00     0.005 C 
ENDBRANCH  41  42
ENDBRANCH  39  41
ENDBRANCH  38  39
ENDBRANCH  11  38
TORSDOF 15
ENDMDL
MODEL 5
REMARK VINA RESULT: -8.641983767      2.432      8.565
REMARK  15 active torsions:
REMARK  status: ('A' for Active; 'I' for Inactive)
REMARK    1  A    between atoms: C2_2  and  C3_3 
REMARK    2  A    between atoms: C2_2  and  C26_33 
REMARK    3  A    between atoms: C3_3  and  C4_4 
REMARK    4  A    between atoms: C4_4  and  C5_5 
REMARK    5  A    between atoms: C5_5  and  O2_7 
REMARK    6  A    between atoms: O2_7  and  C6_8 
REMARK    7  A    between atoms: C16_18  and  O3_19 
REMARK    8  A    between atoms: O3_19  and  C17_20 
REMARK    9  A    between atoms: C17_20  and  C18_22 
REMARK   10  A    between atoms: C18_22  and  C19_23 
REMARK   11  A    between atoms: C24_29  and  O6_31 
REMARK   12  A    between atoms: C26_33  and  C27_34 
REMARK   13  A    between atoms: C26_33  and  C30_37 
REMARK   14  A    between atoms: C31_38  and  C33_40 
REMARK   15  A    between atoms: C33_40  and  O8_42 
ROOT
HETATM    1  C6  UNL     1      27.347   8.933  -3.347  1.00  0.00     0.222 C 
HETATM    2  C7  UNL     1      26.424   9.221  -4.451  1.00  0.00    -0.054 C 
HETATM    3  C8  UNL     1      25.357   9.915  -4.089  1.00  0.00     0.017 C 
HETATM    4  C9  UNL     1      26.388   8.922  -5.897  1.00  0.00     0.044 C 
HETATM    5  C10 UNL     1      26.247   7.463  -6.224  1.00  0.00     0.029 C 
HETATM    6  C11 UNL     1      26.675   6.684  -5.031  1.00  0.00     0.134 C 
HETATM    7  C12 UNL     1      26.361   5.221  -5.078  1.00  0.00     0.060 C 
HETATM    8  C13 UNL     1      27.003   4.490  -6.173  1.00  0.00    -0.019 C 
HETATM    9  C14 UNL     1      27.122   4.697  -7.482  1.00  0.00    -0.058 C 
HETATM   10  C15 UNL     1      27.869   3.699  -8.274  1.00  0.00     0.046 C 
HETATM   11  C16 UNL     1      26.532   5.887  -8.150  1.00  0.00     0.168 C 
HETATM   12  C21 UNL     1      26.968   7.197  -7.497  1.00  0.00    -0.011 C 
HETATM   13  C22 UNL     1      28.471   7.286  -7.413  1.00  0.00     0.018 C 
HETATM   14  C23 UNL     1      26.530   8.282  -8.472  1.00  0.00     0.018 C 
HETATM   15  O5  UNL     1      27.963   6.997  -4.701  1.00  0.00    -0.347 OA
HETATM   16  C24 UNL     1      28.177   7.686  -3.551  1.00  0.00     0.189 C 
HETATM   17  C25 UNL     1      27.977   6.706  -2.383  1.00  0.00     0.082 C 
ENDROOT
BRANCH   1  18
HETATM   18  O2  UNL     1      26.758   8.849  -2.087  1.00  0.00    -0.306 OA
BRANCH  18  19
HETATM   19  C5  UNL     1      27.037   9.708  -1.054  1.00  0.00     0.259 C 
HETATM   20  O1  UNL     1      26.176   9.785  -0.158  1.00  0.00    -0.265 OA
BRANCH  19  21
HETATM   21  C4  UNL     1      28.330  10.513  -1.022  1.00  0.00     0.115 C 
BRANCH  21  22
HETATM   22  C3  UNL     1      28.376  11.410  -2.194  1.00  0.00     0.044 C 
BRANCH  22  23
HETATM   23  C2  UNL     1      28.074  12.819  -2.084  1.00  0.00    -0.077 C 
HETATM   24  C1  UNL     1      27.827  13.307  -0.845  1.00  0.00     0.015 C 
BRANCH  23  25
HETATM   25  C26 UNL     1      27.911  13.794  -3.212  1.00  0.00     0.059 C 
BRANCH  25  26
HETATM   26  C27 UNL     1      29.109  14.613  -3.391  1.00  0.00    -0.018 C 
HETATM   27  C28 UNL     1      29.099  15.955  -3.169  1.00  0.00    -0.034 C 
HETATM   28  C29 UNL     1      27.852  16.626  -2.733  1.00  0.00     0.036 C 
ENDBRANCH  25  26
BRANCH  25  29
HETATM   29  C30 UNL     1      27.297  13.272  -4.410  1.00  0.00    -0.001 C 
HETATM   30  C31 UNL     1      26.372  13.582  -5.230  1.00  0.00     0.010 C 
HETATM   31  C32 UNL     1      26.215  12.521  -6.382  1.00  0.00     0.054 C 
BRANCH  30  32
HETATM   32  C33 UNL     1      25.402  14.624  -5.356  1.00  0.00     0.288 C 
HETATM   33  O7  UNL     1      24.218  14.528  -5.699  1.00  0.00    -0.260 OA
BRANCH  32  34
HETATM   34  O8  UNL     1      25.767  15.984  -5.068  1.00  0.00    -0.323 OA
HETATM   35  C34 UNL     1      24.718  16.905  -4.891  1.00  0.00     0.213 C 
ENDBRANCH  32  34
ENDBRANCH  30  32
ENDBRANCH  25  29
ENDBRANCH  23  25
ENDBRANCH  22  23
ENDBRANCH  21  22
ENDBRANCH  19  21
ENDBRANCH  18  19
ENDBRANCH   1  18
BRANCH  16  36
HETATM   36  O6  UNL     1      29.568   7.965  -3.517  1.00  0.00    -0.363 OA
ATOM     37  H6  UNL     1      29.757   8.769  -3.048  1.00  0.00     0.213 HD
ENDBRANCH  16  36
BRANCH  11  38
HETATM   38  O3  UNL     1      26.641   5.889  -9.531  1.00  0.00    -0.311 OA
BRANCH  38  39
HETATM   39  C17 UNL     1      25.691   5.535 -10.459  1.00  0.00     0.259 C 
HETATM   40  O4  UNL     1      25.077   4.481 -10.273  1.00  0.00    -0.265 OA
BRANCH  39  41
HETATM   41  C18 UNL     1      25.406   6.377 -11.642  1.00  0.00     0.111 C 
BRANCH  41  42
HETATM   42  C19 UNL     1      23.955   6.695 -11.779  1.00  0.00     0.005 C 
HETATM   43  C20 UNL     1      23.518   7.552 -10.609  1.00  0.00     0.005 C 
ENDBRANCH  41  42
ENDBRANCH  39  41
ENDBRANCH  38  39
ENDBRANCH  11  38
TORSDOF 15
ENDMDL
