MODEL 1
REMARK VINA RESULT: -8.783086890      0.000      0.000
REMARK  15 active torsions:
REMARK  status: ('A' for Active; 'I' for Inactive)
REMARK    1  A    between atoms: C2_2  and  O2_4 
REMARK    2  A    between atoms: O2_4  and  C3_5 
REMARK    3  A    between atoms: C3_5  and  C4_6 
REMARK    4  A    between atoms: C4_6  and  C5_7 
REMARK    5  A    between atoms: C5_7  and  C6_8 
REMARK    6  A    between atoms: C6_8  and  C7_9 
REMARK    7  A    between atoms: C6_8  and  O4_18 
REMARK    8  A    between atoms: C7_9  and  C8_10 
REMARK    9  A    between atoms: C8_10  and  C10_12 
REMARK   10  A    between atoms: C10_12  and  C11_13 
REMARK   11  A    between atoms: C11_13  and  C12_15 
REMARK   12  A    between atoms: O4_18  and  C15_19 
REMARK   13  A    between atoms: C19_24  and  O6_25 
REMARK   14  A    between atoms: C24_31  and  O7_32 
REMARK   15  A    between atoms: O7_32  and  C25_33 
ROOT
HETATM    1  C4  UNL     1      27.799  10.720  -2.967  1.00  0.00    -0.006 C 
HETATM    2  C17 UNL     1      28.964   9.812  -2.708  1.00  0.00     0.016 C 
HETATM    3  C18 UNL     1      28.539   8.384  -2.956  1.00  0.00     0.040 C 
HETATM    4  C19 UNL     1      27.257   8.469  -3.703  1.00  0.00     0.073 C 
HETATM    5  C20 UNL     1      27.349   7.620  -4.939  1.00  0.00    -0.008 C 
HETATM    6  C21 UNL     1      27.094   6.189  -4.418  1.00  0.00     0.019 C 
HETATM    7  C22 UNL     1      28.675   7.573  -5.602  1.00  0.00     0.015 C 
HETATM    8  C23 UNL     1      28.663   7.592  -7.095  1.00  0.00     0.034 C 
HETATM    9  C24 UNL     1      27.596   6.831  -7.774  1.00  0.00     0.140 C 
HETATM   10  C27 UNL     1      26.264   7.163  -7.189  1.00  0.00    -0.016 C 
HETATM   11  C28 UNL     1      25.446   5.865  -7.023  1.00  0.00     0.018 C 
HETATM   12  C29 UNL     1      25.414   7.964  -8.199  1.00  0.00     0.018 C 
HETATM   13  C30 UNL     1      26.244   7.949  -5.915  1.00  0.00     0.007 C 
HETATM   14  C31 UNL     1      26.058   9.405  -6.155  1.00  0.00     0.007 C 
HETATM   15  C32 UNL     1      26.939  10.306  -5.316  1.00  0.00     0.013 C 
HETATM   16  C33 UNL     1      26.893   9.894  -3.871  1.00  0.00    -0.003 C 
HETATM   17  C34 UNL     1      25.448  10.119  -3.457  1.00  0.00     0.019 C 
ENDROOT
BRANCH   1  18
HETATM   18  C3  UNL     1      27.161  10.939  -1.589  1.00  0.00     0.189 C 
BRANCH  18  19
HETATM   19  O2  UNL     1      28.033  10.985  -0.530  1.00  0.00    -0.321 OA
BRANCH  19  20
HETATM   20  C2  UNL     1      27.627  11.608   0.640  1.00  0.00     0.254 C 
HETATM   21  C1  UNL     1      28.042  13.009   0.929  1.00  0.00     0.126 C 
HETATM   22  O1  UNL     1      26.908  10.978   1.448  1.00  0.00    -0.266 OA
ENDBRANCH  19  20
ENDBRANCH  18  19
ENDBRANCH   1  18
BRANCH   1  23
HETATM   23  C5  UNL     1      28.210  11.983  -3.582  1.00  0.00     0.045 C 
BRANCH  23  24
HETATM   24  C6  UNL     1      27.480  13.262  -3.414  1.00  0.00     0.133 C 
BRANCH  24  25
HETATM   25  C7  UNL     1      28.020  14.315  -2.566  1.00  0.00     0.037 C 
BRANCH  25  26
HETATM   26  C8  UNL     1      28.627  15.537  -3.200  1.00  0.00    -0.009 C 
HETATM   27  C9  UNL     1      27.983  16.845  -2.899  1.00  0.00     0.010 C 
BRANCH  26  28
HETATM   28  C10 UNL     1      30.135  15.578  -3.009  1.00  0.00     0.083 C 
BRANCH  28  29
HETATM   29  C11 UNL     1      30.732  16.829  -3.542  1.00  0.00     0.130 C 
HETATM   30  O3  UNL     1      31.228  17.645  -2.789  1.00  0.00    -0.298 OA
BRANCH  29  31
HETATM   31  C12 UNL     1      30.733  17.101  -5.021  1.00  0.00     0.047 C 
HETATM   32  C13 UNL     1      30.232  18.522  -5.214  1.00  0.00     0.017 C 
HETATM   33  C14 UNL     1      32.097  16.910  -5.606  1.00  0.00     0.017 C 
ENDBRANCH  29  31
ENDBRANCH  28  29
ENDBRANCH  26  28
ENDBRANCH  25  26
ENDBRANCH  24  25
BRANCH  24  34
HETATM   34  O4  UNL     1      27.271  13.761  -4.738  1.00  0.00    -0.316 OA
BRANCH  34  35
HETATM   35  C15 UNL     1      26.031  14.152  -5.164  1.00  0.00     0.255 C 
HETATM   36  C16 UNL     1      25.050  13.165  -5.651  1.00  0.00     0.126 C 
HETATM   37  O5  UNL     1      25.731  15.358  -5.138  1.00  0.00    -0.266 OA
ENDBRANCH  34  35
ENDBRANCH  24  34
ENDBRANCH  23  24
ENDBRANCH   1  23
BRANCH   4  38
HETATM   38  O6  UNL     1      26.266   7.892  -2.861  1.00  0.00    -0.388 OA
ATOM     39  H6  UNL     1      25.716   7.359  -3.424  1.00  0.00     0.210 HD
ENDBRANCH   4  38
BRANCH   9  40
HETATM   40  O7  UNL     1      27.727   5.461  -7.885  1.00  0.00    -0.316 OA
BRANCH  40  41
HETATM   41  C25 UNL     1      28.099   4.797  -9.016  1.00  0.00     0.255 C 
HETATM   42  C26 UNL     1      27.127   4.330 -10.030  1.00  0.00     0.126 C 
HETATM   43  O8  UNL     1      29.307   4.617  -9.127  1.00  0.00    -0.266 OA
ENDBRANCH  40  41
ENDBRANCH   9  40
TORSDOF 15
ENDMDL
MODEL 2
REMARK VINA RESULT: -8.463091401      2.744      8.463
REMARK  15 active torsions:
REMARK  status: ('A' for Active; 'I' for Inactive)
REMARK    1  A    between atoms: C2_2  and  O2_4 
REMARK    2  A    between atoms: O2_4  and  C3_5 
REMARK    3  A    between atoms: C3_5  and  C4_6 
REMARK    4  A    between atoms: C4_6  and  C5_7 
REMARK    5  A    between atoms: C5_7  and  C6_8 
REMARK    6  A    between atoms: C6_8  and  C7_9 
REMARK    7  A    between atoms: C6_8  and  O4_18 
REMARK    8  A    between atoms: C7_9  and  C8_10 
REMARK    9  A    between atoms: C8_10  and  C10_12 
REMARK   10  A    between atoms: C10_12  and  C11_13 
REMARK   11  A    between atoms: C11_13  and  C12_15 
REMARK   12  A    between atoms: O4_18  and  C15_19 
REMARK   13  A    between atoms: C19_24  and  O6_25 
REMARK   14  A    between atoms: C24_31  and  O7_32 
REMARK   15  A    between atoms: O7_32  and  C25_33 
ROOT
HETATM    1  C4  UNL     1      26.719   8.611  -8.372  1.00  0.00    -0.006 C 
HETATM    2  C17 UNL     1      27.878   9.541  -8.576  1.00  0.00     0.016 C 
HETATM    3  C18 UNL     1      27.355  10.884  -9.033  1.00  0.00     0.040 C 
HETATM    4  C19 UNL     1      25.896  10.866  -8.751  1.00  0.00     0.073 C 
HETATM    5  C20 UNL     1      25.531  12.093  -7.965  1.00  0.00    -0.008 C 
HETATM    6  C21 UNL     1      25.435  13.198  -9.039  1.00  0.00     0.019 C 
HETATM    7  C22 UNL     1      26.542  12.570  -6.990  1.00  0.00     0.015 C 
HETATM    8  C23 UNL     1      26.012  13.068  -5.686  1.00  0.00     0.034 C 
HETATM    9  C24 UNL     1      24.756  13.842  -5.715  1.00  0.00     0.140 C 
HETATM   10  C27 UNL     1      23.720  13.127  -6.516  1.00  0.00    -0.016 C 
HETATM   11  C28 UNL     1      22.977  14.145  -7.407  1.00  0.00     0.018 C 
HETATM   12  C29 UNL     1      22.593  12.605  -5.599  1.00  0.00     0.018 C 
HETATM   13  C30 UNL     1      24.164  11.956  -7.336  1.00  0.00     0.007 C 
HETATM   14  C31 UNL     1      23.944  10.662  -6.635  1.00  0.00     0.007 C 
HETATM   15  C32 UNL     1      25.086   9.674  -6.751  1.00  0.00     0.013 C 
HETATM   16  C33 UNL     1      25.534   9.548  -8.179  1.00  0.00    -0.003 C 
HETATM   17  C34 UNL     1      24.330   8.975  -8.907  1.00  0.00     0.019 C 
ENDROOT
BRANCH   1  18
HETATM   18  C3  UNL     1      26.606   7.833  -9.690  1.00  0.00     0.189 C 
BRANCH  18  19
HETATM   19  O2  UNL     1      26.949   6.505  -9.629  1.00  0.00    -0.321 OA
BRANCH  19  20
HETATM   20  C2  UNL     1      26.249   5.601 -10.412  1.00  0.00     0.254 C 
HETATM   21  C1  UNL     1      25.052   6.042 -11.183  1.00  0.00     0.126 C 
HETATM   22  O1  UNL     1      26.634   4.412 -10.462  1.00  0.00    -0.266 OA
ENDBRANCH  19  20
ENDBRANCH  18  19
ENDBRANCH   1  18
BRANCH   1  23
HETATM   23  C5  UNL     1      26.924   7.718  -7.230  1.00  0.00     0.045 C 
BRANCH  23  24
HETATM   24  C6  UNL     1      28.253   7.408  -6.651  1.00  0.00     0.133 C 
BRANCH  24  25
HETATM   25  C7  UNL     1      28.901   8.345  -5.744  1.00  0.00     0.037 C 
BRANCH  25  26
HETATM   26  C8  UNL     1      28.224   8.712  -4.451  1.00  0.00    -0.009 C 
HETATM   27  C9  UNL     1      28.862   8.230  -3.196  1.00  0.00     0.010 C 
BRANCH  26  28
HETATM   28  C10 UNL     1      27.885  10.193  -4.396  1.00  0.00     0.083 C 
BRANCH  28  29
HETATM   29  C11 UNL     1      27.048  10.531  -3.216  1.00  0.00     0.130 C 
HETATM   30  O3  UNL     1      26.032   9.906  -2.981  1.00  0.00    -0.298 OA
BRANCH  29  31
HETATM   31  C12 UNL     1      27.449  11.650  -2.295  1.00  0.00     0.047 C 
HETATM   32  C13 UNL     1      27.921  11.015  -0.999  1.00  0.00     0.017 C 
HETATM   33  C14 UNL     1      28.511  12.504  -2.912  1.00  0.00     0.017 C 
ENDBRANCH  29  31
ENDBRANCH  28  29
ENDBRANCH  26  28
ENDBRANCH  25  26
ENDBRANCH  24  25
BRANCH  24  34
HETATM   34  O4  UNL     1      28.105   6.136  -6.014  1.00  0.00    -0.316 OA
BRANCH  34  35
HETATM   35  C15 UNL     1      27.942   4.990  -6.742  1.00  0.00     0.255 C 
HETATM   36  C16 UNL     1      26.682   4.226  -6.684  1.00  0.00     0.126 C 
HETATM   37  O5  UNL     1      28.872   4.589  -7.462  1.00  0.00    -0.266 OA
ENDBRANCH  34  35
ENDBRANCH  24  34
ENDBRANCH  23  24
ENDBRANCH   1  23
BRANCH   4  38
HETATM   38  O6  UNL     1      25.246  10.956 -10.013  1.00  0.00    -0.388 OA
ATOM     39  H6  UNL     1      24.464  10.420  -9.947  1.00  0.00     0.210 HD
ENDBRANCH   4  38
BRANCH   9  40
HETATM   40  O7  UNL     1      24.805  15.168  -6.095  1.00  0.00    -0.316 OA
BRANCH  40  41
HETATM   41  C25 UNL     1      24.761  16.231  -5.243  1.00  0.00     0.255 C 
HETATM   42  C26 UNL     1      23.502  16.926  -4.890  1.00  0.00     0.126 C 
HETATM   43  O8  UNL     1      25.849  16.566  -4.789  1.00  0.00    -0.266 OA
ENDBRANCH  40  41
ENDBRANCH   9  40
TORSDOF 15
ENDMDL
MODEL 3
REMARK VINA RESULT: -8.433497501      2.550      4.577
REMARK  15 active torsions:
REMARK  status: ('A' for Active; 'I' for Inactive)
REMARK    1  A    between atoms: C2_2  and  O2_4 
REMARK    2  A    between atoms: O2_4  and  C3_5 
REMARK    3  A    between atoms: C3_5  and  C4_6 
REMARK    4  A    between atoms: C4_6  and  C5_7 
REMARK    5  A    between atoms: C5_7  and  C6_8 
REMARK    6  A    between atoms: C6_8  and  C7_9 
REMARK    7  A    between atoms: C6_8  and  O4_18 
REMARK    8  A    between atoms: C7_9  and  C8_10 
REMARK    9  A    between atoms: C8_10  and  C10_12 
REMARK   10  A    between atoms: C10_12  and  C11_13 
REMARK   11  A    between atoms: C11_13  and  C12_15 
REMARK   12  A    between atoms: O4_18  and  C15_19 
REMARK   13  A    between atoms: C19_24  and  O6_25 
REMARK   14  A    between atoms: C24_31  and  O7_32 
REMARK   15  A    between atoms: O7_32  and  C25_33 
ROOT
HETATM    1  C4  UNL     1      27.103   9.645  -3.267  1.00  0.00    -0.006 C 
HETATM    2  C17 UNL     1      28.374   9.586  -4.063  1.00  0.00     0.016 C 
HETATM    3  C18 UNL     1      28.067   9.036  -5.437  1.00  0.00     0.040 C 
HETATM    4  C19 UNL     1      26.590   9.114  -5.582  1.00  0.00     0.073 C 
HETATM    5  C20 UNL     1      26.258   9.818  -6.867  1.00  0.00    -0.008 C 
HETATM    6  C21 UNL     1      26.430   8.720  -7.939  1.00  0.00     0.019 C 
HETATM    7  C22 UNL     1      27.173  10.914  -7.267  1.00  0.00     0.015 C 
HETATM    8  C23 UNL     1      26.529  12.123  -7.862  1.00  0.00     0.034 C 
HETATM    9  C24 UNL     1      25.381  11.905  -8.763  1.00  0.00     0.140 C 
HETATM   10  C27 UNL     1      24.391  10.982  -8.134  1.00  0.00    -0.016 C 
HETATM   11  C28 UNL     1      23.891   9.978  -9.195  1.00  0.00     0.018 C 
HETATM   12  C29 UNL     1      23.099  11.744  -7.765  1.00  0.00     0.018 C 
HETATM   13  C30 UNL     1      24.812  10.255  -6.896  1.00  0.00     0.007 C 
HETATM   14  C31 UNL     1      24.359  10.943  -5.657  1.00  0.00     0.007 C 
HETATM   15  C32 UNL     1      25.391  11.005  -4.551  1.00  0.00     0.013 C 
HETATM   16  C33 UNL     1      26.013   9.654  -4.330  1.00  0.00    -0.003 C 
HETATM   17  C34 UNL     1      24.863   8.778  -3.863  1.00  0.00     0.019 C 
ENDROOT
BRANCH   1  18
HETATM   18  C3  UNL     1      27.086   8.339  -2.462  1.00  0.00     0.189 C 
BRANCH  18  19
HETATM   19  O2  UNL     1      28.180   7.526  -2.622  1.00  0.00    -0.321 OA
BRANCH  19  20
HETATM   20  C2  UNL     1      27.980   6.162  -2.760  1.00  0.00     0.254 C 
HETATM   21  C1  UNL     1      26.947   5.644  -3.700  1.00  0.00     0.126 C 
HETATM   22  O1  UNL     1      28.678   5.372  -2.085  1.00  0.00    -0.266 OA
ENDBRANCH  19  20
ENDBRANCH  18  19
ENDBRANCH   1  18
BRANCH   1  23
HETATM   23  C5  UNL     1      27.053  10.821  -2.397  1.00  0.00     0.045 C 
BRANCH  23  24
HETATM   24  C6  UNL     1      28.177  11.773  -2.227  1.00  0.00     0.133 C 
BRANCH  24  25
HETATM   25  C7  UNL     1      27.924  13.202  -2.112  1.00  0.00     0.037 C 
BRANCH  25  26
HETATM   26  C8  UNL     1      28.158  14.094  -3.302  1.00  0.00    -0.009 C 
HETATM   27  C9  UNL     1      27.255  13.911  -4.471  1.00  0.00     0.010 C 
BRANCH  26  28
HETATM   28  C10 UNL     1      28.286  15.552  -2.893  1.00  0.00     0.083 C 
BRANCH  28  29
HETATM   29  C11 UNL     1      29.608  16.122  -3.261  1.00  0.00     0.130 C 
HETATM   30  O3  UNL     1      30.489  16.221  -2.429  1.00  0.00    -0.298 OA
BRANCH  29  31
HETATM   31  C12 UNL     1      29.873  16.581  -4.668  1.00  0.00     0.047 C 
HETATM   32  C13 UNL     1      29.154  17.907  -4.848  1.00  0.00     0.017 C 
HETATM   33  C14 UNL     1      31.340  16.705  -4.929  1.00  0.00     0.017 C 
ENDBRANCH  29  31
ENDBRANCH  28  29
ENDBRANCH  26  28
ENDBRANCH  25  26
ENDBRANCH  24  25
BRANCH  24  34
HETATM   34  O4  UNL     1      28.899  11.312  -1.081  1.00  0.00    -0.316 OA
BRANCH  34  35
HETATM   35  C15 UNL     1      28.684  11.850   0.158  1.00  0.00     0.255 C 
HETATM   36  C16 UNL     1      29.664  12.769   0.766  1.00  0.00     0.126 C 
HETATM   37  O5  UNL     1      27.648  11.558   0.778  1.00  0.00    -0.266 OA
ENDBRANCH  34  35
ENDBRANCH  24  34
ENDBRANCH  23  24
ENDBRANCH   1  23
BRANCH   4  38
HETATM   38  O6  UNL     1      26.131   7.773  -5.698  1.00  0.00    -0.388 OA
ATOM     39  H6  UNL     1      25.227   7.775  -5.404  1.00  0.00     0.210 HD
ENDBRANCH   4  38
BRANCH   9  40
HETATM   40  O7  UNL     1      25.624  11.511 -10.063  1.00  0.00    -0.316 OA
BRANCH  40  41
HETATM   41  C25 UNL     1      26.111  12.316 -11.049  1.00  0.00     0.255 C 
HETATM   42  C26 UNL     1      25.947  13.787 -11.040  1.00  0.00     0.126 C 
HETATM   43  O8  UNL     1      26.698  11.724 -11.948  1.00  0.00    -0.266 OA
ENDBRANCH  40  41
ENDBRANCH   9  40
TORSDOF 15
ENDMDL
MODEL 4
REMARK VINA RESULT: -8.348487193      1.333      2.137
REMARK  15 active torsions:
REMARK  status: ('A' for Active; 'I' for Inactive)
REMARK    1  A    between atoms: C2_2  and  O2_4 
REMARK    2  A    between atoms: O2_4  and  C3_5 
REMARK    3  A    between atoms: C3_5  and  C4_6 
REMARK    4  A    between atoms: C4_6  and  C5_7 
REMARK    5  A    between atoms: C5_7  and  C6_8 
REMARK    6  A    between atoms: C6_8  and  C7_9 
REMARK    7  A    between atoms: C6_8  and  O4_18 
REMARK    8  A    between atoms: C7_9  and  C8_10 
REMARK    9  A    between atoms: C8_10  and  C10_12 
REMARK   10  A    between atoms: C10_12  and  C11_13 
REMARK   11  A    between atoms: C11_13  and  C12_15 
REMARK   12  A    between atoms: O4_18  and  C15_19 
REMARK   13  A    between atoms: C19_24  and  O6_25 
REMARK   14  A    between atoms: C24_31  and  O7_32 
REMARK   15  A    between atoms: O7_32  and  C25_33 
ROOT
HETATM    1  C4  UNL     1      27.317  10.426  -2.461  1.00  0.00    -0.006 C 
HETATM    2  C17 UNL     1      28.595   9.669  -2.251  1.00  0.00     0.016 C 
HETATM    3  C18 UNL     1      28.365   8.215  -2.594  1.00  0.00     0.040 C 
HETATM    4  C19 UNL     1      27.083   8.175  -3.344  1.00  0.00     0.073 C 
HETATM    5  C20 UNL     1      27.288   7.428  -4.632  1.00  0.00    -0.008 C 
HETATM    6  C21 UNL     1      27.229   5.945  -4.206  1.00  0.00     0.019 C 
HETATM    7  C22 UNL     1      28.608   7.603  -5.285  1.00  0.00     0.015 C 
HETATM    8  C23 UNL     1      28.593   7.716  -6.774  1.00  0.00     0.034 C 
HETATM    9  C24 UNL     1      27.638   6.864  -7.509  1.00  0.00     0.140 C 
HETATM   10  C27 UNL     1      26.274   6.975  -6.915  1.00  0.00    -0.016 C 
HETATM   11  C28 UNL     1      25.638   5.571  -6.839  1.00  0.00     0.018 C 
HETATM   12  C29 UNL     1      25.322   7.718  -7.878  1.00  0.00     0.018 C 
HETATM   13  C30 UNL     1      26.148   7.667  -5.593  1.00  0.00     0.007 C 
HETATM   14  C31 UNL     1      25.767   9.098  -5.741  1.00  0.00     0.007 C 
HETATM   15  C32 UNL     1      26.520  10.053  -4.838  1.00  0.00     0.013 C 
HETATM   16  C33 UNL     1      26.531   9.546  -3.423  1.00  0.00    -0.003 C 
HETATM   17  C34 UNL     1      25.069   9.547  -3.008  1.00  0.00     0.019 C 
ENDROOT
BRANCH   1  18
HETATM   18  C3  UNL     1      26.656  10.468  -1.077  1.00  0.00     0.189 C 
BRANCH  18  19
HETATM   19  O2  UNL     1      27.423  10.003  -0.037  1.00  0.00    -0.321 OA
BRANCH  19  20
HETATM   20  C2  UNL     1      26.889  10.020   1.242  1.00  0.00     0.254 C 
HETATM   21  C1  UNL     1      26.322  11.278   1.803  1.00  0.00     0.126 C 
HETATM   22  O1  UNL     1      26.892   8.967   1.918  1.00  0.00    -0.266 OA
ENDBRANCH  19  20
ENDBRANCH  18  19
ENDBRANCH   1  18
BRANCH   1  23
HETATM   23  C5  UNL     1      27.554  11.770  -2.991  1.00  0.00     0.045 C 
BRANCH  23  24
HETATM   24  C6  UNL     1      28.454  12.762  -2.356  1.00  0.00     0.133 C 
BRANCH  24  25
HETATM   25  C7  UNL     1      29.073  13.814  -3.151  1.00  0.00     0.037 C 
BRANCH  25  26
HETATM   26  C8  UNL     1      28.202  14.766  -3.925  1.00  0.00    -0.009 C 
HETATM   27  C9  UNL     1      26.935  14.220  -4.483  1.00  0.00     0.010 C 
BRANCH  26  28
HETATM   28  C10 UNL     1      27.988  16.069  -3.172  1.00  0.00     0.083 C 
BRANCH  28  29
HETATM   29  C11 UNL     1      29.104  17.026  -3.383  1.00  0.00     0.130 C 
HETATM   30  O3  UNL     1      29.578  17.637  -2.445  1.00  0.00    -0.298 OA
BRANCH  29  31
HETATM   31  C12 UNL     1      29.663  17.250  -4.761  1.00  0.00     0.047 C 
HETATM   32  C13 UNL     1      29.290  18.665  -5.170  1.00  0.00     0.017 C 
HETATM   33  C14 UNL     1      31.143  17.038  -4.785  1.00  0.00     0.017 C 
ENDBRANCH  29  31
ENDBRANCH  28  29
ENDBRANCH  26  28
ENDBRANCH  25  26
ENDBRANCH  24  25
BRANCH  24  34
HETATM   34  O4  UNL     1      27.695  13.340  -1.289  1.00  0.00    -0.316 OA
BRANCH  34  35
HETATM   35  C15 UNL     1      28.239  13.522  -0.047  1.00  0.00     0.255 C 
HETATM   36  C16 UNL     1      29.462  12.806   0.359  1.00  0.00     0.126 C 
HETATM   37  O5  UNL     1      27.690  14.304   0.748  1.00  0.00    -0.266 OA
ENDBRANCH  34  35
ENDBRANCH  24  34
ENDBRANCH  23  24
ENDBRANCH   1  23
BRANCH   4  38
HETATM   38  O6  UNL     1      26.180   7.416  -2.549  1.00  0.00    -0.388 OA
ATOM     39  H6  UNL     1      25.335   7.843  -2.627  1.00  0.00     0.210 HD
ENDBRANCH   4  38
BRANCH   9  40
HETATM   40  O7  UNL     1      27.952   5.535  -7.706  1.00  0.00    -0.316 OA
BRANCH  40  41
HETATM   41  C25 UNL     1      28.332   4.986  -8.895  1.00  0.00     0.255 C 
HETATM   42  C26 UNL     1      27.362   4.518  -9.910  1.00  0.00     0.126 C 
HETATM   43  O8  UNL     1      29.545   4.911  -9.057  1.00  0.00    -0.266 OA
ENDBRANCH  40  41
ENDBRANCH   9  40
TORSDOF 15
ENDMDL
MODEL 5
REMARK VINA RESULT: -8.317052522      2.608      8.594
REMARK  15 active torsions:
REMARK  status: ('A' for Active; 'I' for Inactive)
REMARK    1  A    between atoms: C2_2  and  O2_4 
REMARK    2  A    between atoms: O2_4  and  C3_5 
REMARK    3  A    between atoms: C3_5  and  C4_6 
REMARK    4  A    between atoms: C4_6  and  C5_7 
REMARK    5  A    between atoms: C5_7  and  C6_8 
REMARK    6  A    between atoms: C6_8  and  C7_9 
REMARK    7  A    between atoms: C6_8  and  O4_18 
REMARK    8  A    between atoms: C7_9  and  C8_10 
REMARK    9  A    between atoms: C8_10  and  C10_12 
REMARK   10  A    between atoms: C10_12  and  C11_13 
REMARK   11  A    between atoms: C11_13  and  C12_15 
REMARK   12  A    between atoms: O4_18  and  C15_19 
REMARK   13  A    between atoms: C19_24  and  O6_25 
REMARK   14  A    between atoms: C24_31  and  O7_32 
REMARK   15  A    between atoms: O7_32  and  C25_33 
ROOT
HETATM    1  C4  UNL     1      26.238   8.581  -8.526  1.00  0.00    -0.006 C 
HETATM    2  C17 UNL     1      27.541   9.311  -8.380  1.00  0.00     0.016 C 
HETATM    3  C18 UNL     1      27.348  10.748  -8.807  1.00  0.00     0.040 C 
HETATM    4  C19 UNL     1      25.878  10.961  -8.854  1.00  0.00     0.073 C 
HETATM    5  C20 UNL     1      25.531  12.184  -8.052  1.00  0.00    -0.008 C 
HETATM    6  C21 UNL     1      25.857  13.351  -9.009  1.00  0.00     0.019 C 
HETATM    7  C22 UNL     1      26.349  12.422  -6.839  1.00  0.00     0.015 C 
HETATM    8  C23 UNL     1      25.613  12.923  -5.639  1.00  0.00     0.034 C 
HETATM    9  C24 UNL     1      24.530  13.901  -5.868  1.00  0.00     0.140 C 
HETATM   10  C27 UNL     1      23.612  13.421  -6.942  1.00  0.00    -0.016 C 
HETATM   11  C28 UNL     1      23.259  14.603  -7.871  1.00  0.00     0.018 C 
HETATM   12  C29 UNL     1      22.237  13.044  -6.350  1.00  0.00     0.018 C 
HETATM   13  C30 UNL     1      24.051  12.243  -7.754  1.00  0.00     0.007 C 
HETATM   14  C31 UNL     1      23.481  10.966  -7.248  1.00  0.00     0.007 C 
HETATM   15  C32 UNL     1      24.455   9.807  -7.206  1.00  0.00     0.013 C 
HETATM   16  C33 UNL     1      25.198   9.693  -8.507  1.00  0.00    -0.003 C 
HETATM   17  C34 UNL     1      24.122   9.377  -9.533  1.00  0.00     0.019 C 
ENDROOT
BRANCH   1  18
HETATM   18  C3  UNL     1      26.318   7.914  -9.905  1.00  0.00     0.189 C 
BRANCH  18  19
HETATM   19  O2  UNL     1      26.438   6.547  -9.900  1.00  0.00    -0.321 OA
BRANCH  19  20
HETATM   20  C2  UNL     1      25.515   5.795 -10.609  1.00  0.00     0.254 C 
HETATM   21  C1  UNL     1      24.767   6.400 -11.747  1.00  0.00     0.126 C 
HETATM   22  O1  UNL     1      25.317   4.604 -10.280  1.00  0.00    -0.266 OA
ENDBRANCH  19  20
ENDBRANCH  18  19
ENDBRANCH   1  18
BRANCH   1  23
HETATM   23  C5  UNL     1      26.035   7.600  -7.459  1.00  0.00     0.045 C 
BRANCH  23  24
HETATM   24  C6  UNL     1      27.094   7.176  -6.512  1.00  0.00     0.133 C 
BRANCH  24  25
HETATM   25  C7  UNL     1      26.973   7.467  -5.090  1.00  0.00     0.037 C 
BRANCH  25  26
HETATM   26  C8  UNL     1      27.886   8.486  -4.463  1.00  0.00    -0.009 C 
HETATM   27  C9  UNL     1      29.274   8.566  -4.993  1.00  0.00     0.010 C 
BRANCH  26  28
HETATM   28  C10 UNL     1      27.223   9.850  -4.369  1.00  0.00     0.083 C 
BRANCH  28  29
HETATM   29  C11 UNL     1      27.101  10.317  -2.964  1.00  0.00     0.130 C 
HETATM   30  O3  UNL     1      26.134  10.010  -2.294  1.00  0.00    -0.298 OA
BRANCH  29  31
HETATM   31  C12 UNL     1      28.175  11.174  -2.352  1.00  0.00     0.047 C 
HETATM   32  C13 UNL     1      28.309  12.412  -3.222  1.00  0.00     0.017 C 
HETATM   33  C14 UNL     1      27.845  11.525  -0.935  1.00  0.00     0.017 C 
ENDBRANCH  29  31
ENDBRANCH  28  29
ENDBRANCH  26  28
ENDBRANCH  25  26
ENDBRANCH  24  25
BRANCH  24  34
HETATM   34  O4  UNL     1      27.243   5.767  -6.710  1.00  0.00    -0.316 OA
BRANCH  34  35
HETATM   35  C15 UNL     1      28.423   5.231  -7.148  1.00  0.00     0.255 C 
HETATM   36  C16 UNL     1      29.283   5.962  -8.096  1.00  0.00     0.126 C 
HETATM   37  O5  UNL     1      28.772   4.111  -6.737  1.00  0.00    -0.266 OA
ENDBRANCH  34  35
ENDBRANCH  24  34
ENDBRANCH  23  24
ENDBRANCH   1  23
BRANCH   4  38
HETATM   38  O6  UNL     1      25.560  11.236 -10.213  1.00  0.00    -0.388 OA
ATOM     39  H6  UNL     1      25.318  10.405 -10.603  1.00  0.00     0.210 HD
ENDBRANCH   4  38
BRANCH   9  40
HETATM   40  O7  UNL     1      24.867  15.219  -6.098  1.00  0.00    -0.316 OA
BRANCH  40  41
HETATM   41  C25 UNL     1      24.977  16.180  -5.137  1.00  0.00     0.255 C 
HETATM   42  C26 UNL     1      26.273  16.574  -4.539  1.00  0.00     0.126 C 
HETATM   43  O8  UNL     1      23.914  16.694  -4.806  1.00  0.00    -0.266 OA
ENDBRANCH  40  41
ENDBRANCH   9  40
TORSDOF 15
ENDMDL
