MODEL 1
REMARK VINA RESULT: -9.012103685      0.000      0.000
REMARK  20 active torsions:
REMARK  status: ('A' for Active; 'I' for Inactive)
REMARK    1  A    between atoms: C2_2  and  C3_3 
REMARK    2  A    between atoms: C2_2  and  C29_37 
REMARK    3  A    between atoms: C3_3  and  C4_4 
REMARK    4  A    between atoms: C5_5  and  C6_6 
REMARK    5  A    between atoms: C6_6  and  C8_8 
REMARK    6  A    between atoms: C8_8  and  C9_9 
REMARK    7  A    between atoms: C9_9  and  C10_10 
REMARK    8  A    between atoms: C10_10  and  N1_12 
REMARK    9  A    between atoms: N1_12  and  C12_13 
REMARK   10  A    between atoms: C12_13  and  O1_14 
REMARK   11  A    between atoms: C12_13  and  O2_16 
REMARK   12  A    between atoms: O2_16  and  C13_17 
REMARK   13  A    between atoms: C19_23  and  O3_24 
REMARK   14  A    between atoms: O3_24  and  C20_25 
REMARK   15  A    between atoms: C24_30  and  O5_31 
REMARK   16  A    between atoms: O5_31  and  C25_32 
REMARK   17  A    between atoms: C30_38  and  C31_39 
REMARK   18  A    between atoms: C31_39  and  C32_40 
REMARK   19  A    between atoms: C32_40  and  O7_41 
REMARK   20  A    between atoms: C32_40  and  O8_43 
ROOT
HETATM    1  C12 UNL     1      26.234   7.685  -2.761  1.00  0.00     0.336 C 
ENDROOT
BRANCH   1   2
HETATM    2  N1  UNL     1      26.999   8.634  -2.088  1.00  0.00    -0.395 NA
BRANCH   2   3
HETATM    3  C10 UNL     1      27.750   9.568  -1.421  1.00  0.00     0.186 C 
HETATM    4  C11 UNL     1      27.085   9.879  -0.016  1.00  0.00     0.052 C 
BRANCH   3   5
HETATM    5  C9  UNL     1      27.619  10.836  -2.219  1.00  0.00     0.012 C 
BRANCH   5   6
HETATM    6  C8  UNL     1      27.888  11.257  -3.363  1.00  0.00     0.006 C 
BRANCH   6   7
HETATM    7  C6  UNL     1      27.633  12.678  -3.702  1.00  0.00    -0.062 C 
HETATM    8  C7  UNL     1      26.808  13.074  -4.864  1.00  0.00     0.048 C 
BRANCH   7   9
HETATM    9  C5  UNL     1      27.980  13.661  -2.821  1.00  0.00     0.007 C 
HETATM   10  C4  UNL     1      27.871  15.046  -3.228  1.00  0.00     0.001 C 
BRANCH  10  11
HETATM   11  C3  UNL     1      27.974  16.258  -3.173  1.00  0.00     0.010 C 
BRANCH  11  12
HETATM   12  C2  UNL     1      29.087  17.294  -4.069  1.00  0.00    -0.046 C 
HETATM   13  C1  UNL     1      28.047  17.871  -4.567  1.00  0.00     0.023 C 
BRANCH  12  14
HETATM   14  C29 UNL     1      30.201  16.675  -3.533  1.00  0.00     0.007 C 
HETATM   15  C30 UNL     1      31.329  16.631  -4.229  1.00  0.00    -0.021 C 
BRANCH  15  16
HETATM   16  C31 UNL     1      31.494  17.208  -5.622  1.00  0.00     0.087 C 
BRANCH  16  17
HETATM   17  C32 UNL     1      32.365  18.383  -5.373  1.00  0.00     0.259 C 
BRANCH  17  18
HETATM   18  O7  UNL     1      32.875  18.891  -6.604  1.00  0.00    -0.371 OA
ATOM     19  H7  UNL     1      32.898  18.204  -7.261  1.00  0.00     0.212 HD
ENDBRANCH  17  18
BRANCH  17  20
HETATM   20  O8  UNL     1      32.779  19.095  -4.420  1.00  0.00    -0.366 OA
HETATM   21  C33 UNL     1      33.177  20.059  -3.693  1.00  0.00     0.204 C 
ENDBRANCH  17  20
ENDBRANCH  16  17
ENDBRANCH  15  16
ENDBRANCH  12  14
ENDBRANCH  11  12
ENDBRANCH  10  11
ENDBRANCH   7   9
ENDBRANCH   6   7
ENDBRANCH   5   6
ENDBRANCH   3   5
ENDBRANCH   2   3
ENDBRANCH   1   2
BRANCH   1  22
HETATM   22  O1  UNL     1      25.836   6.544  -2.242  1.00  0.00    -0.316 OA
ATOM     23  H1  UNL     1      25.101   6.451  -1.646  1.00  0.00     0.222 HD
ENDBRANCH   1  22
BRANCH   1  24
HETATM   24  O2  UNL     1      25.859   7.883  -4.015  1.00  0.00    -0.299 OA
BRANCH  24  25
HETATM   25  C13 UNL     1      26.204   8.497  -5.155  1.00  0.00     0.151 C 
HETATM   26  C14 UNL     1      25.142   9.367  -5.771  1.00  0.00     0.012 C 
HETATM   27  C15 UNL     1      24.601  10.244  -4.611  1.00  0.00     0.012 C 
HETATM   28  C16 UNL     1      25.613  10.241  -6.864  1.00  0.00     0.014 C 
HETATM   29  C17 UNL     1      26.967   9.882  -7.398  1.00  0.00     0.018 C 
HETATM   30  C18 UNL     1      27.436  10.761  -8.462  1.00  0.00     0.013 C 
HETATM   31  C19 UNL     1      27.012   8.398  -7.493  1.00  0.00     0.086 C 
HETATM   32  C22 UNL     1      28.128   7.797  -8.186  1.00  0.00     0.042 C 
HETATM   33  C27 UNL     1      27.216   7.882  -6.076  1.00  0.00     0.042 C 
HETATM   34  C23 UNL     1      28.206   6.440  -7.584  1.00  0.00     0.036 C 
HETATM   35  C24 UNL     1      27.220   6.453  -6.344  1.00  0.00     0.145 C 
HETATM   36  C28 UNL     1      28.594   8.157  -5.503  1.00  0.00     0.024 C 
BRANCH  31  37
HETATM   37  O3  UNL     1      25.731   7.850  -7.780  1.00  0.00    -0.309 OA
BRANCH  37  38
HETATM   38  C20 UNL     1      25.269   7.461  -8.981  1.00  0.00     0.255 C 
HETATM   39  C21 UNL     1      25.049   8.438 -10.107  1.00  0.00     0.126 C 
HETATM   40  O4  UNL     1      25.030   6.292  -9.178  1.00  0.00    -0.266 OA
ENDBRANCH  37  38
ENDBRANCH  31  37
BRANCH  35  41
HETATM   41  O5  UNL     1      27.946   5.682  -5.343  1.00  0.00    -0.315 OA
BRANCH  41  42
HETATM   42  C25 UNL     1      27.265   4.594  -4.804  1.00  0.00     0.255 C 
HETATM   43  C26 UNL     1      25.872   4.213  -5.071  1.00  0.00     0.126 C 
HETATM   44  O6  UNL     1      27.919   3.867  -4.017  1.00  0.00    -0.266 OA
ENDBRANCH  41  42
ENDBRANCH  35  41
ENDBRANCH  24  25
ENDBRANCH   1  24
TORSDOF 20
ENDMDL
MODEL 2
REMARK VINA RESULT: -8.825154231      0.944      1.350
REMARK  20 active torsions:
REMARK  status: ('A' for Active; 'I' for Inactive)
REMARK    1  A    between atoms: C2_2  and  C3_3 
REMARK    2  A    between atoms: C2_2  and  C29_37 
REMARK    3  A    between atoms: C3_3  and  C4_4 
REMARK    4  A    between atoms: C5_5  and  C6_6 
REMARK    5  A    between atoms: C6_6  and  C8_8 
REMARK    6  A    between atoms: C8_8  and  C9_9 
REMARK    7  A    between atoms: C9_9  and  C10_10 
REMARK    8  A    between atoms: C10_10  and  N1_12 
REMARK    9  A    between atoms: N1_12  and  C12_13 
REMARK   10  A    between atoms: C12_13  and  O1_14 
REMARK   11  A    between atoms: C12_13  and  O2_16 
REMARK   12  A    between atoms: O2_16  and  C13_17 
REMARK   13  A    between atoms: C19_23  and  O3_24 
REMARK   14  A    between atoms: O3_24  and  C20_25 
REMARK   15  A    between atoms: C24_30  and  O5_31 
REMARK   16  A    between atoms: O5_31  and  C25_32 
REMARK   17  A    between atoms: C30_38  and  C31_39 
REMARK   18  A    between atoms: C31_39  and  C32_40 
REMARK   19  A    between atoms: C32_40  and  O7_41 
REMARK   20  A    between atoms: C32_40  and  O8_43 
ROOT
HETATM    1  C12 UNL     1      26.222   8.054  -2.817  1.00  0.00     0.336 C 
ENDROOT
BRANCH   1   2
HETATM    2  N1  UNL     1      27.039   8.939  -2.117  1.00  0.00    -0.395 NA
BRANCH   2   3
HETATM    3  C10 UNL     1      27.840   9.813  -1.428  1.00  0.00     0.186 C 
HETATM    4  C11 UNL     1      27.308   9.961   0.058  1.00  0.00     0.052 C 
BRANCH   3   5
HETATM    5  C9  UNL     1      27.622  11.154  -2.071  1.00  0.00     0.012 C 
BRANCH   5   6
HETATM    6  C8  UNL     1      27.762  12.363  -1.792  1.00  0.00     0.006 C 
BRANCH   6   7
HETATM    7  C6  UNL     1      27.847  13.363  -2.883  1.00  0.00    -0.062 C 
HETATM    8  C7  UNL     1      27.345  13.085  -4.247  1.00  0.00     0.048 C 
BRANCH   7   9
HETATM    9  C5  UNL     1      28.200  14.652  -2.602  1.00  0.00     0.007 C 
HETATM   10  C4  UNL     1      29.505  15.133  -3.005  1.00  0.00     0.001 C 
BRANCH  10  11
HETATM   11  C3  UNL     1      30.455  15.886  -3.110  1.00  0.00     0.010 C 
BRANCH  11  12
HETATM   12  C2  UNL     1      30.559  17.376  -4.050  1.00  0.00    -0.046 C 
HETATM   13  C1  UNL     1      29.943  17.957  -3.078  1.00  0.00     0.023 C 
BRANCH  12  14
HETATM   14  C29 UNL     1      31.221  16.752  -5.091  1.00  0.00     0.007 C 
HETATM   15  C30 UNL     1      32.168  17.403  -5.754  1.00  0.00    -0.021 C 
BRANCH  15  16
HETATM   16  C31 UNL     1      32.581  18.834  -5.464  1.00  0.00     0.087 C 
BRANCH  16  17
HETATM   17  C32 UNL     1      31.866  19.587  -6.524  1.00  0.00     0.259 C 
BRANCH  17  18
HETATM   18  O7  UNL     1      32.760  19.916  -7.586  1.00  0.00    -0.371 OA
ATOM     19  H7  UNL     1      32.296  19.935  -8.414  1.00  0.00     0.212 HD
ENDBRANCH  17  18
BRANCH  17  20
HETATM   20  O8  UNL     1      30.711  20.007  -6.800  1.00  0.00    -0.366 OA
HETATM   21  C33 UNL     1      29.455  20.190  -6.856  1.00  0.00     0.204 C 
ENDBRANCH  17  20
ENDBRANCH  16  17
ENDBRANCH  15  16
ENDBRANCH  12  14
ENDBRANCH  11  12
ENDBRANCH  10  11
ENDBRANCH   7   9
ENDBRANCH   6   7
ENDBRANCH   5   6
ENDBRANCH   3   5
ENDBRANCH   2   3
ENDBRANCH   1   2
BRANCH   1  22
HETATM   22  O1  UNL     1      25.810   6.894  -2.353  1.00  0.00    -0.316 OA
ATOM     23  H1  UNL     1      25.304   6.264  -2.852  1.00  0.00     0.222 HD
ENDBRANCH   1  22
BRANCH   1  24
HETATM   24  O2  UNL     1      25.807   8.340  -4.041  1.00  0.00    -0.299 OA
BRANCH  24  25
HETATM   25  C13 UNL     1      26.214   8.790  -5.236  1.00  0.00     0.151 C 
HETATM   26  C14 UNL     1      25.229   9.657  -5.973  1.00  0.00     0.012 C 
HETATM   27  C15 UNL     1      24.738  10.700  -4.935  1.00  0.00     0.012 C 
HETATM   28  C16 UNL     1      25.780  10.361  -7.148  1.00  0.00     0.014 C 
HETATM   29  C17 UNL     1      27.112   9.845  -7.605  1.00  0.00     0.018 C 
HETATM   30  C18 UNL     1      27.661  10.557  -8.751  1.00  0.00     0.013 C 
HETATM   31  C19 UNL     1      27.047   8.360  -7.527  1.00  0.00     0.086 C 
HETATM   32  C22 UNL     1      28.125   7.603  -8.119  1.00  0.00     0.042 C 
HETATM   33  C27 UNL     1      27.191   7.999  -6.055  1.00  0.00     0.042 C 
HETATM   34  C23 UNL     1      28.092   6.324  -7.364  1.00  0.00     0.036 C 
HETATM   35  C24 UNL     1      27.092   6.553  -6.157  1.00  0.00     0.145 C 
HETATM   36  C28 UNL     1      28.577   8.239  -5.486  1.00  0.00     0.024 C 
BRANCH  31  37
HETATM   37  O3  UNL     1      25.733   7.877  -7.779  1.00  0.00    -0.309 OA
BRANCH  37  38
HETATM   38  C20 UNL     1      25.259   7.395  -8.941  1.00  0.00     0.255 C 
HETATM   39  C21 UNL     1      25.134   8.256 -10.171  1.00  0.00     0.126 C 
HETATM   40  O4  UNL     1      24.930   6.234  -9.015  1.00  0.00    -0.266 OA
ENDBRANCH  37  38
ENDBRANCH  31  37
BRANCH  35  41
HETATM   41  O5  UNL     1      27.743   5.854  -5.056  1.00  0.00    -0.315 OA
BRANCH  41  42
HETATM   42  C25 UNL     1      27.202   4.616  -4.719  1.00  0.00     0.255 C 
HETATM   43  C26 UNL     1      25.913   4.073  -5.167  1.00  0.00     0.126 C 
HETATM   44  O6  UNL     1      27.897   3.896  -3.961  1.00  0.00    -0.266 OA
ENDBRANCH  41  42
ENDBRANCH  35  41
ENDBRANCH  24  25
ENDBRANCH   1  24
TORSDOF 20
ENDMDL
MODEL 3
REMARK VINA RESULT: -8.723940546      0.916      1.232
REMARK  20 active torsions:
REMARK  status: ('A' for Active; 'I' for Inactive)
REMARK    1  A    between atoms: C2_2  and  C3_3 
REMARK    2  A    between atoms: C2_2  and  C29_37 
REMARK    3  A    between atoms: C3_3  and  C4_4 
REMARK    4  A    between atoms: C5_5  and  C6_6 
REMARK    5  A    between atoms: C6_6  and  C8_8 
REMARK    6  A    between atoms: C8_8  and  C9_9 
REMARK    7  A    between atoms: C9_9  and  C10_10 
REMARK    8  A    between atoms: C10_10  and  N1_12 
REMARK    9  A    between atoms: N1_12  and  C12_13 
REMARK   10  A    between atoms: C12_13  and  O1_14 
REMARK   11  A    between atoms: C12_13  and  O2_16 
REMARK   12  A    between atoms: O2_16  and  C13_17 
REMARK   13  A    between atoms: C19_23  and  O3_24 
REMARK   14  A    between atoms: O3_24  and  C20_25 
REMARK   15  A    between atoms: C24_30  and  O5_31 
REMARK   16  A    between atoms: O5_31  and  C25_32 
REMARK   17  A    between atoms: C30_38  and  C31_39 
REMARK   18  A    between atoms: C31_39  and  C32_40 
REMARK   19  A    between atoms: C32_40  and  O7_41 
REMARK   20  A    between atoms: C32_40  and  O8_43 
ROOT
HETATM    1  C12 UNL     1      26.192   7.796  -2.759  1.00  0.00     0.336 C 
ENDROOT
BRANCH   1   2
HETATM    2  N1  UNL     1      26.923   8.656  -1.943  1.00  0.00    -0.395 NA
BRANCH   2   3
HETATM    3  C10 UNL     1      27.641   9.500  -1.135  1.00  0.00     0.186 C 
HETATM    4  C11 UNL     1      26.825   9.787   0.193  1.00  0.00     0.052 C 
BRANCH   3   5
HETATM    5  C9  UNL     1      27.695  10.812  -1.868  1.00  0.00     0.012 C 
BRANCH   5   6
HETATM    6  C8  UNL     1      28.416  11.831  -1.918  1.00  0.00     0.006 C 
BRANCH   6   7
HETATM    7  C6  UNL     1      28.552  12.693  -0.719  1.00  0.00    -0.062 C 
HETATM    8  C7  UNL     1      29.467  12.356   0.393  1.00  0.00     0.048 C 
BRANCH   7   9
HETATM    9  C5  UNL     1      27.989  13.937  -0.706  1.00  0.00     0.007 C 
HETATM   10  C4  UNL     1      27.968  14.717  -1.926  1.00  0.00     0.001 C 
BRANCH  10  11
HETATM   11  C3  UNL     1      27.790  15.669  -2.661  1.00  0.00     0.010 C 
BRANCH  11  12
HETATM   12  C2  UNL     1      28.687  16.095  -4.121  1.00  0.00    -0.046 C 
HETATM   13  C1  UNL     1      27.549  16.361  -4.666  1.00  0.00     0.023 C 
BRANCH  12  14
HETATM   14  C29 UNL     1      29.907  15.812  -3.535  1.00  0.00     0.007 C 
HETATM   15  C30 UNL     1      31.029  16.191  -4.132  1.00  0.00    -0.021 C 
BRANCH  15  16
HETATM   16  C31 UNL     1      31.082  16.918  -5.462  1.00  0.00     0.087 C 
BRANCH  16  17
HETATM   17  C32 UNL     1      32.111  17.957  -5.209  1.00  0.00     0.259 C 
BRANCH  17  18
HETATM   18  O7  UNL     1      32.933  18.130  -6.361  1.00  0.00    -0.371 OA
ATOM     19  H7  UNL     1      33.848  18.188  -6.109  1.00  0.00     0.212 HD
ENDBRANCH  17  18
BRANCH  17  20
HETATM   20  O8  UNL     1      32.475  18.758  -4.307  1.00  0.00    -0.366 OA
HETATM   21  C33 UNL     1      32.592  19.756  -3.529  1.00  0.00     0.204 C 
ENDBRANCH  17  20
ENDBRANCH  16  17
ENDBRANCH  15  16
ENDBRANCH  12  14
ENDBRANCH  11  12
ENDBRANCH  10  11
ENDBRANCH   7   9
ENDBRANCH   6   7
ENDBRANCH   5   6
ENDBRANCH   3   5
ENDBRANCH   2   3
ENDBRANCH   1   2
BRANCH   1  22
HETATM   22  O1  UNL     1      25.889   6.554  -2.451  1.00  0.00    -0.316 OA
ATOM     23  H1  UNL     1      25.721   5.868  -3.087  1.00  0.00     0.222 HD
ENDBRANCH   1  22
BRANCH   1  24
HETATM   24  O2  UNL     1      25.753   8.197  -3.942  1.00  0.00    -0.299 OA
BRANCH  24  25
HETATM   25  C13 UNL     1      26.149   8.674  -5.130  1.00  0.00     0.151 C 
HETATM   26  C14 UNL     1      25.154   9.551  -5.842  1.00  0.00     0.012 C 
HETATM   27  C15 UNL     1      24.665  10.569  -4.778  1.00  0.00     0.012 C 
HETATM   28  C16 UNL     1      25.694  10.283  -7.006  1.00  0.00     0.014 C 
HETATM   29  C17 UNL     1      27.025   9.784  -7.483  1.00  0.00     0.018 C 
HETATM   30  C18 UNL     1      27.562  10.523  -8.617  1.00  0.00     0.013 C 
HETATM   31  C19 UNL     1      26.969   8.298  -7.435  1.00  0.00     0.086 C 
HETATM   32  C22 UNL     1      28.047   7.559  -8.051  1.00  0.00     0.042 C 
HETATM   33  C27 UNL     1      27.125   7.907  -5.972  1.00  0.00     0.042 C 
HETATM   34  C23 UNL     1      28.026   6.264  -7.322  1.00  0.00     0.036 C 
HETATM   35  C24 UNL     1      27.033   6.462  -6.104  1.00  0.00     0.145 C 
HETATM   36  C28 UNL     1      28.513   8.142  -5.408  1.00  0.00     0.024 C 
BRANCH  31  37
HETATM   37  O3  UNL     1      25.655   7.812  -7.689  1.00  0.00    -0.309 OA
BRANCH  37  38
HETATM   38  C20 UNL     1      25.189   7.311  -8.845  1.00  0.00     0.255 C 
HETATM   39  C21 UNL     1      25.165   8.122 -10.115  1.00  0.00     0.126 C 
HETATM   40  O4  UNL     1      24.783   6.173  -8.881  1.00  0.00    -0.266 OA
ENDBRANCH  37  38
ENDBRANCH  31  37
BRANCH  35  41
HETATM   41  O5  UNL     1      27.696   5.744  -5.023  1.00  0.00    -0.315 OA
BRANCH  41  42
HETATM   42  C25 UNL     1      27.182   4.484  -4.728  1.00  0.00     0.255 C 
HETATM   43  C26 UNL     1      25.972   3.876  -5.297  1.00  0.00     0.126 C 
HETATM   44  O6  UNL     1      27.830   3.803  -3.895  1.00  0.00    -0.266 OA
ENDBRANCH  41  42
ENDBRANCH  35  41
ENDBRANCH  24  25
ENDBRANCH   1  24
TORSDOF 20
ENDMDL
MODEL 4
REMARK VINA RESULT: -8.661343542      3.056      3.787
REMARK  20 active torsions:
REMARK  status: ('A' for Active; 'I' for Inactive)
REMARK    1  A    between atoms: C2_2  and  C3_3 
REMARK    2  A    between atoms: C2_2  and  C29_37 
REMARK    3  A    between atoms: C3_3  and  C4_4 
REMARK    4  A    between atoms: C5_5  and  C6_6 
REMARK    5  A    between atoms: C6_6  and  C8_8 
REMARK    6  A    between atoms: C8_8  and  C9_9 
REMARK    7  A    between atoms: C9_9  and  C10_10 
REMARK    8  A    between atoms: C10_10  and  N1_12 
REMARK    9  A    between atoms: N1_12  and  C12_13 
REMARK   10  A    between atoms: C12_13  and  O1_14 
REMARK   11  A    between atoms: C12_13  and  O2_16 
REMARK   12  A    between atoms: O2_16  and  C13_17 
REMARK   13  A    between atoms: C19_23  and  O3_24 
REMARK   14  A    between atoms: O3_24  and  C20_25 
REMARK   15  A    between atoms: C24_30  and  O5_31 
REMARK   16  A    between atoms: O5_31  and  C25_32 
REMARK   17  A    between atoms: C30_38  and  C31_39 
REMARK   18  A    between atoms: C31_39  and  C32_40 
REMARK   19  A    between atoms: C32_40  and  O7_41 
REMARK   20  A    between atoms: C32_40  and  O8_43 
ROOT
HETATM    1  C12 UNL     1      26.125   7.624  -2.695  1.00  0.00     0.336 C 
ENDROOT
BRANCH   1   2
HETATM    2  N1  UNL     1      27.048   8.390  -1.987  1.00  0.00    -0.395 NA
BRANCH   2   3
HETATM    3  C10 UNL     1      27.956   9.143  -1.287  1.00  0.00     0.186 C 
HETATM    4  C11 UNL     1      27.245   9.800  -0.032  1.00  0.00     0.052 C 
BRANCH   3   5
HETATM    5  C9  UNL     1      28.315  10.289  -2.193  1.00  0.00     0.012 C 
BRANCH   5   6
HETATM    6  C8  UNL     1      27.741  11.123  -2.924  1.00  0.00     0.006 C 
BRANCH   6   7
HETATM    7  C6  UNL     1      27.858  12.570  -2.618  1.00  0.00    -0.062 C 
HETATM    8  C7  UNL     1      28.257  13.061  -1.281  1.00  0.00     0.048 C 
BRANCH   7   9
HETATM    9  C5  UNL     1      27.805  13.487  -3.627  1.00  0.00     0.007 C 
HETATM   10  C4  UNL     1      26.738  13.406  -4.603  1.00  0.00     0.001 C 
BRANCH  10  11
HETATM   11  C3  UNL     1      26.088  13.663  -5.599  1.00  0.00     0.010 C 
BRANCH  11  12
HETATM   12  C2  UNL     1      24.707  14.755  -5.741  1.00  0.00    -0.046 C 
HETATM   13  C1  UNL     1      24.074  13.778  -6.294  1.00  0.00     0.023 C 
BRANCH  12  14
HETATM   14  C29 UNL     1      25.388  15.801  -5.146  1.00  0.00     0.007 C 
HETATM   15  C30 UNL     1      24.744  16.921  -4.846  1.00  0.00    -0.021 C 
BRANCH  15  16
HETATM   16  C31 UNL     1      23.273  17.160  -5.133  1.00  0.00     0.087 C 
BRANCH  16  17
HETATM   17  C32 UNL     1      23.210  18.640  -5.227  1.00  0.00     0.259 C 
BRANCH  17  18
HETATM   18  O7  UNL     1      21.864  19.088  -5.078  1.00  0.00    -0.371 OA
ATOM     19  H7  UNL     1      21.766  19.572  -4.266  1.00  0.00     0.212 HD
ENDBRANCH  17  18
BRANCH  17  20
HETATM   20  O8  UNL     1      23.971  19.633  -5.372  1.00  0.00    -0.366 OA
HETATM   21  C33 UNL     1      24.800  20.578  -5.187  1.00  0.00     0.204 C 
ENDBRANCH  17  20
ENDBRANCH  16  17
ENDBRANCH  15  16
ENDBRANCH  12  14
ENDBRANCH  11  12
ENDBRANCH  10  11
ENDBRANCH   7   9
ENDBRANCH   6   7
ENDBRANCH   5   6
ENDBRANCH   3   5
ENDBRANCH   2   3
ENDBRANCH   1   2
BRANCH   1  22
HETATM   22  O1  UNL     1      25.603   6.498  -2.260  1.00  0.00    -0.316 OA
ATOM     23  H1  UNL     1      26.043   5.656  -2.284  1.00  0.00     0.222 HD
ENDBRANCH   1  22
BRANCH   1  24
HETATM   24  O2  UNL     1      25.714   7.999  -3.895  1.00  0.00    -0.299 OA
BRANCH  24  25
HETATM   25  C13 UNL     1      26.101   8.615  -5.020  1.00  0.00     0.151 C 
HETATM   26  C14 UNL     1      25.064   9.491  -5.672  1.00  0.00     0.012 C 
HETATM   27  C15 UNL     1      24.485  10.365  -4.529  1.00  0.00     0.012 C 
HETATM   28  C16 UNL     1      25.577  10.367  -6.744  1.00  0.00     0.014 C 
HETATM   29  C17 UNL     1      26.949  10.006  -7.230  1.00  0.00     0.018 C 
HETATM   30  C18 UNL     1      27.459  10.886  -8.273  1.00  0.00     0.013 C 
HETATM   31  C19 UNL     1      26.993   8.522  -7.328  1.00  0.00     0.086 C 
HETATM   32  C22 UNL     1      28.131   7.919  -7.982  1.00  0.00     0.042 C 
HETATM   33  C27 UNL     1      27.144   8.000  -5.906  1.00  0.00     0.042 C 
HETATM   34  C23 UNL     1      28.183   6.560  -7.383  1.00  0.00     0.036 C 
HETATM   35  C24 UNL     1      27.153   6.572  -6.179  1.00  0.00     0.145 C 
HETATM   36  C28 UNL     1      28.501   8.269  -5.283  1.00  0.00     0.024 C 
BRANCH  31  37
HETATM   37  O3  UNL     1      25.721   7.978  -7.663  1.00  0.00    -0.309 OA
BRANCH  37  38
HETATM   38  C20 UNL     1      25.296   7.610  -8.884  1.00  0.00     0.255 C 
HETATM   39  C21 UNL     1      25.046   8.615  -9.979  1.00  0.00     0.126 C 
HETATM   40  O4  UNL     1      25.117   6.439  -9.125  1.00  0.00    -0.266 OA
ENDBRANCH  37  38
ENDBRANCH  31  37
BRANCH  35  41
HETATM   41  O5  UNL     1      27.840   5.796  -5.155  1.00  0.00    -0.315 OA
BRANCH  41  42
HETATM   42  C25 UNL     1      27.215   4.614  -4.768  1.00  0.00     0.255 C 
HETATM   43  C26 UNL     1      25.894   4.139  -5.202  1.00  0.00     0.126 C 
HETATM   44  O6  UNL     1      27.856   3.883  -3.973  1.00  0.00    -0.266 OA
ENDBRANCH  41  42
ENDBRANCH  35  41
ENDBRANCH  24  25
ENDBRANCH   1  24
TORSDOF 20
ENDMDL
MODEL 5
REMARK VINA RESULT: -8.635742633      1.244      1.936
REMARK  20 active torsions:
REMARK  status: ('A' for Active; 'I' for Inactive)
REMARK    1  A    between atoms: C2_2  and  C3_3 
REMARK    2  A    between atoms: C2_2  and  C29_37 
REMARK    3  A    between atoms: C3_3  and  C4_4 
REMARK    4  A    between atoms: C5_5  and  C6_6 
REMARK    5  A    between atoms: C6_6  and  C8_8 
REMARK    6  A    between atoms: C8_8  and  C9_9 
REMARK    7  A    between atoms: C9_9  and  C10_10 
REMARK    8  A    between atoms: C10_10  and  N1_12 
REMARK    9  A    between atoms: N1_12  and  C12_13 
REMARK   10  A    between atoms: C12_13  and  O1_14 
REMARK   11  A    between atoms: C12_13  and  O2_16 
REMARK   12  A    between atoms: O2_16  and  C13_17 
REMARK   13  A    between atoms: C19_23  and  O3_24 
REMARK   14  A    between atoms: O3_24  and  C20_25 
REMARK   15  A    between atoms: C24_30  and  O5_31 
REMARK   16  A    between atoms: O5_31  and  C25_32 
REMARK   17  A    between atoms: C30_38  and  C31_39 
REMARK   18  A    between atoms: C31_39  and  C32_40 
REMARK   19  A    between atoms: C32_40  and  O7_41 
REMARK   20  A    between atoms: C32_40  and  O8_43 
ROOT
HETATM    1  C12 UNL     1      25.830   8.086  -3.619  1.00  0.00     0.336 C 
ENDROOT
BRANCH   1   2
HETATM    2  N1  UNL     1      26.292   9.268  -3.046  1.00  0.00    -0.395 NA
BRANCH   2   3
HETATM    3  C10 UNL     1      26.747  10.430  -2.477  1.00  0.00     0.186 C 
HETATM    4  C11 UNL     1      27.357  11.367  -3.600  1.00  0.00     0.052 C 
BRANCH   3   5
HETATM    5  C9  UNL     1      27.909  10.028  -1.611  1.00  0.00     0.012 C 
BRANCH   5   6
HETATM    6  C8  UNL     1      28.655  10.534  -0.746  1.00  0.00     0.006 C 
BRANCH   6   7
HETATM    7  C6  UNL     1      28.236  11.775  -0.051  1.00  0.00    -0.062 C 
HETATM    8  C7  UNL     1      27.388  11.751   1.160  1.00  0.00     0.048 C 
BRANCH   7   9
HETATM    9  C5  UNL     1      28.802  12.970  -0.391  1.00  0.00     0.007 C 
HETATM   10  C4  UNL     1      28.108  13.846  -1.311  1.00  0.00     0.001 C 
BRANCH  10  11
HETATM   11  C3  UNL     1      27.908  14.802  -2.037  1.00  0.00     0.010 C 
BRANCH  11  12
HETATM   12  C2  UNL     1      28.632  15.138  -3.612  1.00  0.00    -0.046 C 
HETATM   13  C1  UNL     1      27.452  15.001  -4.112  1.00  0.00     0.023 C 
BRANCH  12  14
HETATM   14  C29 UNL     1      29.897  15.287  -3.074  1.00  0.00     0.007 C 
HETATM   15  C30 UNL     1      30.788  16.055  -3.687  1.00  0.00    -0.021 C 
BRANCH  15  16
HETATM   16  C31 UNL     1      30.526  16.792  -4.986  1.00  0.00     0.087 C 
BRANCH  16  17
HETATM   17  C32 UNL     1      31.701  17.694  -5.076  1.00  0.00     0.259 C 
BRANCH  17  18
HETATM   18  O7  UNL     1      32.349  17.540  -6.338  1.00  0.00    -0.371 OA
ATOM     19  H7  UNL     1      33.076  18.147  -6.412  1.00  0.00     0.212 HD
ENDBRANCH  17  18
BRANCH  17  20
HETATM   20  O8  UNL     1      32.297  18.576  -4.402  1.00  0.00    -0.366 OA
HETATM   21  C33 UNL     1      32.764  19.672  -3.958  1.00  0.00     0.204 C 
ENDBRANCH  17  20
ENDBRANCH  16  17
ENDBRANCH  15  16
ENDBRANCH  12  14
ENDBRANCH  11  12
ENDBRANCH  10  11
ENDBRANCH   7   9
ENDBRANCH   6   7
ENDBRANCH   5   6
ENDBRANCH   3   5
ENDBRANCH   2   3
ENDBRANCH   1   2
BRANCH   1  22
HETATM   22  O1  UNL     1      25.375   7.056  -2.940  1.00  0.00    -0.316 OA
ATOM     23  H1  UNL     1      25.082   6.241  -3.331  1.00  0.00     0.222 HD
ENDBRANCH   1  22
BRANCH   1  24
HETATM   24  O2  UNL     1      25.831   7.926  -4.933  1.00  0.00    -0.299 OA
BRANCH  24  25
HETATM   25  C13 UNL     1      26.416   8.341  -6.066  1.00  0.00     0.151 C 
HETATM   26  C14 UNL     1      25.525   9.093  -7.018  1.00  0.00     0.012 C 
HETATM   27  C15 UNL     1      24.793  10.151  -6.152  1.00  0.00     0.012 C 
HETATM   28  C16 UNL     1      26.232   9.773  -8.122  1.00  0.00     0.014 C 
HETATM   29  C17 UNL     1      27.654   9.333  -8.306  1.00  0.00     0.018 C 
HETATM   30  C18 UNL     1      28.353  10.021  -9.382  1.00  0.00     0.013 C 
HETATM   31  C19 UNL     1      27.670   7.854  -8.143  1.00  0.00     0.086 C 
HETATM   32  C22 UNL     1      28.882   7.147  -8.488  1.00  0.00     0.042 C 
HETATM   33  C27 UNL     1      27.571   7.583  -6.649  1.00  0.00     0.042 C 
HETATM   34  C23 UNL     1      28.795   5.911  -7.668  1.00  0.00     0.036 C 
HETATM   35  C24 UNL     1      27.583   6.129  -6.672  1.00  0.00     0.145 C 
HETATM   36  C28 UNL     1      28.815   7.953  -5.863  1.00  0.00     0.024 C 
BRANCH  31  37
HETATM   37  O3  UNL     1      26.455   7.262  -8.589  1.00  0.00    -0.309 OA
BRANCH  37  38
HETATM   38  C20 UNL     1      26.189   6.793  -9.820  1.00  0.00     0.255 C 
HETATM   39  C21 UNL     1      26.090   5.317 -10.109  1.00  0.00     0.126 C 
HETATM   40  O4  UNL     1      26.010   7.571 -10.728  1.00  0.00    -0.266 OA
ENDBRANCH  37  38
ENDBRANCH  31  37
BRANCH  35  41
HETATM   41  O5  UNL     1      28.070   5.539  -5.432  1.00  0.00    -0.315 OA
BRANCH  41  42
HETATM   42  C25 UNL     1      27.254   4.566  -4.861  1.00  0.00     0.255 C 
HETATM   43  C26 UNL     1      25.859   4.273  -5.219  1.00  0.00     0.126 C 
HETATM   44  O6  UNL     1      27.774   3.868  -3.957  1.00  0.00    -0.266 OA
ENDBRANCH  41  42
ENDBRANCH  35  41
ENDBRANCH  24  25
ENDBRANCH   1  24
TORSDOF 20
ENDMDL
