MODEL 1
REMARK VINA RESULT: -6.726658620      0.000      0.000
REMARK  12 active torsions:
REMARK  status: ('A' for Active; 'I' for Inactive)
REMARK    1  A    between atoms: N1_1  and  C1_5 
REMARK    2  A    between atoms: C1_5  and  C2_6 
REMARK    3  A    between atoms: C2_6  and  N2_7 
REMARK    4  A    between atoms: N2_7  and  C3_9 
REMARK    5  A    between atoms: C3_9  and  C4_10 
REMARK    6  A    between atoms: C4_10  and  C5_11 
REMARK    7  A    between atoms: C5_11  and  C6_12 
REMARK    8  A    between atoms: C6_12  and  C7_13 
REMARK    9  A    between atoms: C7_13  and  N3_14 
REMARK   10  A    between atoms: N3_14  and  C8_16 
REMARK   11  A    between atoms: C8_16  and  C9_17 
REMARK   12  A    between atoms: C15_29  and  O3_30 
ROOT
HETATM    1  C8  UNL     1      -5.396 -26.648  18.852  1.00  0.00     0.098 C 
ENDROOT
BRANCH   1   2
HETATM    2  N3  UNL     1      -4.901 -25.353  19.105  1.00  0.00    -0.378 N 
ATOM      3  H3  UNL     1      -4.031 -25.049  18.669  1.00  0.00     0.164 HD
BRANCH   2   4
HETATM    4  C7  UNL     1      -5.589 -24.492  19.941  1.00  0.00     0.060 C 
BRANCH   4   5
HETATM    5  C6  UNL     1      -5.387 -24.430  21.417  1.00  0.00     0.045 C 
BRANCH   5   6
HETATM    6  C5  UNL     1      -4.512 -23.404  21.973  1.00  0.00     0.010 C 
BRANCH   6   7
HETATM    7  C4  UNL     1      -3.736 -23.927  23.205  1.00  0.00     0.045 C 
BRANCH   7   8
HETATM    8  C3  UNL     1      -4.187 -25.287  23.546  1.00  0.00     0.060 C 
BRANCH   8   9
HETATM    9  N2  UNL     1      -3.310 -26.358  23.565  1.00  0.00    -0.381 N 
ATOM     10  H2  UNL     1      -2.316 -26.155  23.677  1.00  0.00     0.164 HD
BRANCH   9  11
HETATM   11  C2  UNL     1      -3.686 -27.683  23.442  1.00  0.00     0.087 C 
BRANCH  11  12
HETATM   12  C1  UNL     1      -4.587 -28.063  22.304  1.00  0.00     0.274 C 
BRANCH  12  13
HETATM   13  N1  UNL     1      -3.722 -28.751  21.316  1.00  0.00    -0.075 N 
ATOM     14  H13 UNL     1      -2.773 -28.917  21.650  1.00  0.00     0.274 HD
ATOM     15  H12 UNL     1      -3.972 -29.730  21.167  1.00  0.00     0.274 HD
ATOM     16  H11 UNL     1      -3.764 -28.186  20.468  1.00  0.00     0.274 HD
ENDBRANCH  12  13
ENDBRANCH  11  12
ENDBRANCH   9  11
ENDBRANCH   8   9
ENDBRANCH   7   8
ENDBRANCH   6   7
ENDBRANCH   5   6
ENDBRANCH   4   5
ENDBRANCH   2   4
ENDBRANCH   1   2
BRANCH   1  17
HETATM   17  C9  UNL     1      -4.561 -27.366  17.811  1.00  0.00     0.007 A 
HETATM   18  C10 UNL     1      -4.569 -28.693  17.624  1.00  0.00     0.069 A 
HETATM   19  C11 UNL     1      -5.257 -29.740  18.240  1.00  0.00     0.262 A 
HETATM   20  C13 UNL     1      -3.720 -29.056  16.601  1.00  0.00     0.051 A 
HETATM   21  O1  UNL     1      -6.040 -29.421  19.177  1.00  0.00    -0.267 OA
HETATM   22  N4  UNL     1      -5.095 -31.018  17.855  1.00  0.00    -0.275 N 
HETATM   23  C12 UNL     1      -4.260 -31.339  16.855  1.00  0.00     0.327 A 
ATOM     24  H4  UNL     1      -5.615 -31.754  18.331  1.00  0.00     0.173 HD
HETATM   25  O2  UNL     1      -4.145 -32.566  16.532  1.00  0.00    -0.247 OA
HETATM   26  N5  UNL     1      -3.587 -30.351  16.246  1.00  0.00    -0.308 N 
ATOM     27  H5  UNL     1      -2.950 -30.587  15.486  1.00  0.00     0.170 HD
HETATM   28  C14 UNL     1      -3.141 -27.956  16.097  1.00  0.00     0.040 A 
HETATM   29  C15 UNL     1      -3.636 -26.764  16.825  1.00  0.00     0.178 A 
BRANCH  29  30
HETATM   30  O3  UNL     1      -2.560 -26.189  17.529  1.00  0.00    -0.387 OA
ATOM     31  H3  UNL     1      -1.775 -26.293  17.005  1.00  0.00     0.210 HD
ENDBRANCH  29  30
ENDBRANCH   1  17
TORSDOF 12
ENDMDL
MODEL 2
REMARK VINA RESULT: -6.567402401      2.634      3.620
REMARK  12 active torsions:
REMARK  status: ('A' for Active; 'I' for Inactive)
REMARK    1  A    between atoms: N1_1  and  C1_5 
REMARK    2  A    between atoms: C1_5  and  C2_6 
REMARK    3  A    between atoms: C2_6  and  N2_7 
REMARK    4  A    between atoms: N2_7  and  C3_9 
REMARK    5  A    between atoms: C3_9  and  C4_10 
REMARK    6  A    between atoms: C4_10  and  C5_11 
REMARK    7  A    between atoms: C5_11  and  C6_12 
REMARK    8  A    between atoms: C6_12  and  C7_13 
REMARK    9  A    between atoms: C7_13  and  N3_14 
REMARK   10  A    between atoms: N3_14  and  C8_16 
REMARK   11  A    between atoms: C8_16  and  C9_17 
REMARK   12  A    between atoms: C15_29  and  O3_30 
ROOT
HETATM    1  C8  UNL     1      -5.529 -26.278  18.780  1.00  0.00     0.098 C 
ENDROOT
BRANCH   1   2
HETATM    2  N3  UNL     1      -4.816 -25.108  19.114  1.00  0.00    -0.378 N 
ATOM      3  H3  UNL     1      -4.032 -24.809  18.534  1.00  0.00     0.164 HD
BRANCH   2   4
HETATM    4  C7  UNL     1      -5.175 -24.363  20.223  1.00  0.00     0.060 C 
BRANCH   4   5
HETATM    5  C6  UNL     1      -5.899 -24.924  21.400  1.00  0.00     0.045 C 
BRANCH   5   6
HETATM    6  C5  UNL     1      -5.822 -24.229  22.681  1.00  0.00     0.010 C 
BRANCH   6   7
HETATM    7  C4  UNL     1      -4.894 -22.994  22.601  1.00  0.00     0.045 C 
BRANCH   7   8
HETATM    8  C3  UNL     1      -5.324 -21.976  23.575  1.00  0.00     0.060 C 
BRANCH   8   9
HETATM    9  N2  UNL     1      -6.655 -21.821  23.923  1.00  0.00    -0.381 N 
ATOM     10  H2  UNL     1      -7.115 -22.599  24.396  1.00  0.00     0.164 HD
BRANCH   9  11
HETATM   11  C2  UNL     1      -7.404 -20.685  23.675  1.00  0.00     0.087 C 
BRANCH  11  12
HETATM   12  C1  UNL     1      -8.665 -20.480  24.462  1.00  0.00     0.274 C 
BRANCH  12  13
HETATM   13  N1  UNL     1      -9.778 -20.773  23.528  1.00  0.00    -0.075 N 
ATOM     14  H13 UNL     1     -10.701 -20.649  23.942  1.00  0.00     0.274 HD
ATOM     15  H12 UNL     1      -9.882 -20.078  22.787  1.00  0.00     0.274 HD
ATOM     16  H11 UNL     1      -9.609 -21.716  23.181  1.00  0.00     0.274 HD
ENDBRANCH  12  13
ENDBRANCH  11  12
ENDBRANCH   9  11
ENDBRANCH   8   9
ENDBRANCH   7   8
ENDBRANCH   6   7
ENDBRANCH   5   6
ENDBRANCH   4   5
ENDBRANCH   2   4
ENDBRANCH   1   2
BRANCH   1  17
HETATM   17  C9  UNL     1      -4.706 -27.193  17.897  1.00  0.00     0.007 A 
HETATM   18  C10 UNL     1      -4.797 -28.530  17.906  1.00  0.00     0.069 A 
HETATM   19  C11 UNL     1      -5.578 -29.429  18.635  1.00  0.00     0.262 A 
HETATM   20  C13 UNL     1      -3.937 -29.094  16.989  1.00  0.00     0.051 A 
HETATM   21  O1  UNL     1      -6.372 -28.926  19.477  1.00  0.00    -0.267 OA
HETATM   22  N4  UNL     1      -5.489 -30.757  18.450  1.00  0.00    -0.275 N 
HETATM   23  C12 UNL     1      -4.641 -31.275  17.549  1.00  0.00     0.327 A 
ATOM     24  H4  UNL     1      -6.076 -31.381  19.003  1.00  0.00     0.173 HD
HETATM   25  O2  UNL     1      -4.597 -32.542  17.415  1.00  0.00    -0.247 OA
HETATM   26  N5  UNL     1      -3.879 -30.433  16.835  1.00  0.00    -0.308 N 
ATOM     27  H5  UNL     1      -3.232 -30.820  16.149  1.00  0.00     0.170 HD
HETATM   28  C14 UNL     1      -3.265 -28.120  16.357  1.00  0.00     0.040 A 
HETATM   29  C15 UNL     1      -3.704 -26.804  16.879  1.00  0.00     0.178 A 
BRANCH  29  30
HETATM   30  O3  UNL     1      -2.620 -26.198  17.541  1.00  0.00    -0.387 OA
ATOM     31  H3  UNL     1      -2.610 -25.276  17.309  1.00  0.00     0.210 HD
ENDBRANCH  29  30
ENDBRANCH   1  17
TORSDOF 12
ENDMDL
MODEL 3
REMARK VINA RESULT: -6.455555169      3.312      8.289
REMARK  12 active torsions:
REMARK  status: ('A' for Active; 'I' for Inactive)
REMARK    1  A    between atoms: N1_1  and  C1_5 
REMARK    2  A    between atoms: C1_5  and  C2_6 
REMARK    3  A    between atoms: C2_6  and  N2_7 
REMARK    4  A    between atoms: N2_7  and  C3_9 
REMARK    5  A    between atoms: C3_9  and  C4_10 
REMARK    6  A    between atoms: C4_10  and  C5_11 
REMARK    7  A    between atoms: C5_11  and  C6_12 
REMARK    8  A    between atoms: C6_12  and  C7_13 
REMARK    9  A    between atoms: C7_13  and  N3_14 
REMARK   10  A    between atoms: N3_14  and  C8_16 
REMARK   11  A    between atoms: C8_16  and  C9_17 
REMARK   12  A    between atoms: C15_29  and  O3_30 
ROOT
HETATM    1  C8  UNL     1      -4.542 -30.760  17.391  1.00  0.00     0.098 C 
ENDROOT
BRANCH   1   2
HETATM    2  N3  UNL     1      -4.116 -31.591  16.336  1.00  0.00    -0.378 N 
ATOM      3  H3  UNL     1      -3.124 -31.648  16.104  1.00  0.00     0.164 HD
BRANCH   2   4
HETATM    4  C7  UNL     1      -5.035 -32.331  15.613  1.00  0.00     0.060 C 
BRANCH   4   5
HETATM    5  C6  UNL     1      -5.029 -32.436  14.126  1.00  0.00     0.045 C 
BRANCH   5   6
HETATM    6  C5  UNL     1      -6.297 -32.558  13.415  1.00  0.00     0.010 C 
BRANCH   6   7
HETATM    7  C4  UNL     1      -6.287 -31.757  12.093  1.00  0.00     0.045 C 
BRANCH   7   8
HETATM    8  C3  UNL     1      -5.249 -32.284  11.190  1.00  0.00     0.060 C 
BRANCH   8   9
HETATM    9  N2  UNL     1      -4.376 -31.445  10.520  1.00  0.00    -0.381 N 
ATOM     10  H2  UNL     1      -4.771 -30.794   9.841  1.00  0.00     0.164 HD
BRANCH   9  11
HETATM   11  C2  UNL     1      -3.005 -31.427  10.707  1.00  0.00     0.087 C 
BRANCH  11  12
HETATM   12  C1  UNL     1      -2.472 -30.901  12.007  1.00  0.00     0.274 C 
BRANCH  12  13
HETATM   13  N1  UNL     1      -3.067 -29.554  12.173  1.00  0.00    -0.075 N 
ATOM     14  H13 UNL     1      -2.375 -28.808  12.244  1.00  0.00     0.274 HD
ATOM     15  H12 UNL     1      -3.535 -29.208  11.335  1.00  0.00     0.274 HD
ATOM     16  H11 UNL     1      -3.681 -29.618  12.985  1.00  0.00     0.274 HD
ENDBRANCH  12  13
ENDBRANCH  11  12
ENDBRANCH   9  11
ENDBRANCH   8   9
ENDBRANCH   7   8
ENDBRANCH   6   7
ENDBRANCH   5   6
ENDBRANCH   4   5
ENDBRANCH   2   4
ENDBRANCH   1   2
BRANCH   1  17
HETATM   17  C9  UNL     1      -4.022 -29.347  17.227  1.00  0.00     0.007 A 
HETATM   18  C10 UNL     1      -4.567 -28.271  17.811  1.00  0.00     0.069 A 
HETATM   19  C11 UNL     1      -5.661 -28.097  18.661  1.00  0.00     0.262 A 
HETATM   20  C13 UNL     1      -3.873 -27.124  17.488  1.00  0.00     0.051 A 
HETATM   21  O1  UNL     1      -6.304 -29.139  18.966  1.00  0.00    -0.267 OA
HETATM   22  N4  UNL     1      -6.009 -26.887  19.130  1.00  0.00    -0.275 N 
HETATM   23  C12 UNL     1      -5.313 -25.789  18.797  1.00  0.00     0.327 A 
ATOM     24  H4  UNL     1      -6.816 -26.801  19.748  1.00  0.00     0.173 HD
HETATM   25  O2  UNL     1      -5.687 -24.666  19.270  1.00  0.00    -0.247 OA
HETATM   26  N5  UNL     1      -4.257 -25.928  17.981  1.00  0.00    -0.308 N 
ATOM     27  H5  UNL     1      -3.724 -25.099  17.724  1.00  0.00     0.170 HD
HETATM   28  C14 UNL     1      -2.849 -27.441  16.682  1.00  0.00     0.040 A 
HETATM   29  C15 UNL     1      -2.845 -28.903  16.446  1.00  0.00     0.178 A 
BRANCH  29  30
HETATM   30  O3  UNL     1      -3.111 -29.139  15.083  1.00  0.00    -0.387 OA
ATOM     31  H3  UNL     1      -2.462 -29.753  14.758  1.00  0.00     0.210 HD
ENDBRANCH  29  30
ENDBRANCH   1  17
TORSDOF 12
ENDMDL
MODEL 4
REMARK VINA RESULT: -6.446434476      4.749      9.165
REMARK  12 active torsions:
REMARK  status: ('A' for Active; 'I' for Inactive)
REMARK    1  A    between atoms: N1_1  and  C1_5 
REMARK    2  A    between atoms: C1_5  and  C2_6 
REMARK    3  A    between atoms: C2_6  and  N2_7 
REMARK    4  A    between atoms: N2_7  and  C3_9 
REMARK    5  A    between atoms: C3_9  and  C4_10 
REMARK    6  A    between atoms: C4_10  and  C5_11 
REMARK    7  A    between atoms: C5_11  and  C6_12 
REMARK    8  A    between atoms: C6_12  and  C7_13 
REMARK    9  A    between atoms: C7_13  and  N3_14 
REMARK   10  A    between atoms: N3_14  and  C8_16 
REMARK   11  A    between atoms: C8_16  and  C9_17 
REMARK   12  A    between atoms: C15_29  and  O3_30 
ROOT
HETATM    1  C8  UNL     1      -3.054 -28.973  16.014  1.00  0.00     0.098 C 
ENDROOT
BRANCH   1   2
HETATM    2  N3  UNL     1      -2.784 -30.289  15.587  1.00  0.00    -0.378 N 
ATOM      3  H3  UNL     1      -2.333 -30.946  16.224  1.00  0.00     0.164 HD
BRANCH   2   4
HETATM    4  C7  UNL     1      -3.127 -30.695  14.310  1.00  0.00     0.060 C 
BRANCH   4   5
HETATM    5  C6  UNL     1      -2.133 -31.051  13.257  1.00  0.00     0.045 C 
BRANCH   5   6
HETATM    6  C5  UNL     1      -0.764 -31.371  13.649  1.00  0.00     0.010 C 
BRANCH   6   7
HETATM    7  C4  UNL     1      -0.032 -32.173  12.548  1.00  0.00     0.045 C 
BRANCH   7   8
HETATM    8  C3  UNL     1       1.397 -32.303  12.883  1.00  0.00     0.060 C 
BRANCH   8   9
HETATM    9  N2  UNL     1       2.383 -31.759  12.078  1.00  0.00    -0.381 N 
ATOM     10  H2  UNL     1       3.133 -31.238  12.533  1.00  0.00     0.164 HD
BRANCH   9  11
HETATM   11  C2  UNL     1       2.423 -31.874  10.700  1.00  0.00     0.087 C 
BRANCH  11  12
HETATM   12  C1  UNL     1       2.988 -33.132  10.109  1.00  0.00     0.274 C 
BRANCH  12  13
HETATM   13  N1  UNL     1       3.963 -32.695   9.082  1.00  0.00    -0.075 N 
ATOM     14  H13 UNL     1       3.635 -31.913   8.514  1.00  0.00     0.274 HD
ATOM     15  H12 UNL     1       4.783 -32.228   9.471  1.00  0.00     0.274 HD
ATOM     16  H11 UNL     1       4.188 -33.528   8.539  1.00  0.00     0.274 HD
ENDBRANCH  12  13
ENDBRANCH  11  12
ENDBRANCH   9  11
ENDBRANCH   8   9
ENDBRANCH   7   8
ENDBRANCH   6   7
ENDBRANCH   5   6
ENDBRANCH   4   5
ENDBRANCH   2   4
ENDBRANCH   1   2
BRANCH   1  17
HETATM   17  C9  UNL     1      -4.040 -28.956  17.163  1.00  0.00     0.007 A 
HETATM   18  C10 UNL     1      -4.426 -27.846  17.808  1.00  0.00     0.069 A 
HETATM   19  C11 UNL     1      -4.098 -26.496  17.667  1.00  0.00     0.262 A 
HETATM   20  C13 UNL     1      -5.339 -28.138  18.798  1.00  0.00     0.051 A 
HETATM   21  O1  UNL     1      -3.265 -26.215  16.762  1.00  0.00    -0.267 OA
HETATM   22  N4  UNL     1      -4.640 -25.549  18.450  1.00  0.00    -0.275 N 
HETATM   23  C12 UNL     1      -5.527 -25.866  19.406  1.00  0.00     0.327 A 
ATOM     24  H4  UNL     1      -4.374 -24.574  18.315  1.00  0.00     0.173 HD
HETATM   25  O2  UNL     1      -6.010 -24.927  20.120  1.00  0.00    -0.247 OA
HETATM   26  N5  UNL     1      -5.860 -27.156  19.563  1.00  0.00    -0.308 N 
ATOM     27  H5  UNL     1      -6.532 -27.404  20.288  1.00  0.00     0.170 HD
HETATM   28  C14 UNL     1      -5.568 -29.459  18.812  1.00  0.00     0.040 A 
HETATM   29  C15 UNL     1      -4.758 -30.108  17.754  1.00  0.00     0.178 A 
BRANCH  29  30
HETATM   30  O3  UNL     1      -3.808 -30.948  18.366  1.00  0.00    -0.387 OA
ATOM     31  H3  UNL     1      -4.247 -31.750  18.625  1.00  0.00     0.210 HD
ENDBRANCH  29  30
ENDBRANCH   1  17
TORSDOF 12
ENDMDL
MODEL 5
REMARK VINA RESULT: -6.441939690      1.042      1.507
REMARK  12 active torsions:
REMARK  status: ('A' for Active; 'I' for Inactive)
REMARK    1  A    between atoms: N1_1  and  C1_5 
REMARK    2  A    between atoms: C1_5  and  C2_6 
REMARK    3  A    between atoms: C2_6  and  N2_7 
REMARK    4  A    between atoms: N2_7  and  C3_9 
REMARK    5  A    between atoms: C3_9  and  C4_10 
REMARK    6  A    between atoms: C4_10  and  C5_11 
REMARK    7  A    between atoms: C5_11  and  C6_12 
REMARK    8  A    between atoms: C6_12  and  C7_13 
REMARK    9  A    between atoms: C7_13  and  N3_14 
REMARK   10  A    between atoms: N3_14  and  C8_16 
REMARK   11  A    between atoms: C8_16  and  C9_17 
REMARK   12  A    between atoms: C15_29  and  O3_30 
ROOT
HETATM    1  C8  UNL     1      -5.581 -26.318  18.706  1.00  0.00     0.098 C 
ENDROOT
BRANCH   1   2
HETATM    2  N3  UNL     1      -4.843 -25.244  19.243  1.00  0.00    -0.378 N 
ATOM      3  H3  UNL     1      -3.880 -25.091  18.946  1.00  0.00     0.164 HD
BRANCH   2   4
HETATM    4  C7  UNL     1      -5.420 -24.395  20.171  1.00  0.00     0.060 C 
BRANCH   4   5
HETATM    5  C6  UNL     1      -4.995 -24.316  21.599  1.00  0.00     0.045 C 
BRANCH   5   6
HETATM    6  C5  UNL     1      -5.991 -24.502  22.649  1.00  0.00     0.010 C 
BRANCH   6   7
HETATM    7  C4  UNL     1      -7.019 -25.593  22.269  1.00  0.00     0.045 C 
BRANCH   7   8
HETATM    8  C3  UNL     1      -6.589 -26.899  22.796  1.00  0.00     0.060 C 
BRANCH   8   9
HETATM    9  N2  UNL     1      -5.920 -27.817  22.003  1.00  0.00    -0.381 N 
ATOM     10  H2  UNL     1      -6.439 -28.250  21.240  1.00  0.00     0.164 HD
BRANCH   9  11
HETATM   11  C2  UNL     1      -4.598 -28.185  22.175  1.00  0.00     0.087 C 
BRANCH  11  12
HETATM   12  C1  UNL     1      -3.880 -27.706  23.402  1.00  0.00     0.274 C 
BRANCH  12  13
HETATM   13  N1  UNL     1      -2.435 -27.810  23.091  1.00  0.00    -0.075 N 
ATOM     14  H13 UNL     1      -2.048 -28.739  23.257  1.00  0.00     0.274 HD
ATOM     15  H12 UNL     1      -2.228 -27.767  22.093  1.00  0.00     0.274 HD
ATOM     16  H11 UNL     1      -1.980 -27.075  23.633  1.00  0.00     0.274 HD
ENDBRANCH  12  13
ENDBRANCH  11  12
ENDBRANCH   9  11
ENDBRANCH   8   9
ENDBRANCH   7   8
ENDBRANCH   6   7
ENDBRANCH   5   6
ENDBRANCH   4   5
ENDBRANCH   2   4
ENDBRANCH   1   2
BRANCH   1  17
HETATM   17  C9  UNL     1      -4.710 -27.210  17.844  1.00  0.00     0.007 A 
HETATM   18  C10 UNL     1      -4.779 -28.548  17.836  1.00  0.00     0.069 A 
HETATM   19  C11 UNL     1      -5.568 -29.469  18.528  1.00  0.00     0.262 A 
HETATM   20  C13 UNL     1      -3.875 -29.087  16.945  1.00  0.00     0.051 A 
HETATM   21  O1  UNL     1      -6.402 -28.988  19.345  1.00  0.00    -0.267 OA
HETATM   22  N4  UNL     1      -5.450 -30.793  18.332  1.00  0.00    -0.275 N 
HETATM   23  C12 UNL     1      -4.560 -31.286  17.457  1.00  0.00     0.327 A 
ATOM     24  H4  UNL     1      -6.046 -31.432  18.857  1.00  0.00     0.173 HD
HETATM   25  O2  UNL     1      -4.490 -32.550  17.311  1.00  0.00    -0.247 OA
HETATM   26  N5  UNL     1      -3.789 -30.423  16.779  1.00  0.00    -0.308 N 
ATOM     27  H5  UNL     1      -3.110 -30.791  16.113  1.00  0.00     0.170 HD
HETATM   28  C14 UNL     1      -3.199 -28.094  16.348  1.00  0.00     0.040 A 
HETATM   29  C15 UNL     1      -3.680 -26.793  16.867  1.00  0.00     0.178 A 
BRANCH  29  30
HETATM   30  O3  UNL     1      -2.631 -26.175  17.574  1.00  0.00    -0.387 OA
ATOM     31  H3  UNL     1      -2.583 -26.571  18.436  1.00  0.00     0.210 HD
ENDBRANCH  29  30
ENDBRANCH   1  17
TORSDOF 12
ENDMDL
