MODEL 1
REMARK VINA RESULT: -5.994771639      0.000      0.000
REMARK  11 active torsions:
REMARK  status: ('A' for Active; 'I' for Inactive)
REMARK    1  A    between atoms: C2_2  and  N1_3 
REMARK    2  A    between atoms: C4_5  and  C5_6 
REMARK    3  A    between atoms: C5_6  and  O1_7 
REMARK    4  A    between atoms: O1_7  and  C6_8 
REMARK    5  A    between atoms: C6_8  and  N2_9 
REMARK    6  A    between atoms: C6_8  and  N3_13 
REMARK    7  A    between atoms: N3_13  and  C7_15 
REMARK    8  A    between atoms: C7_15  and  C9_17 
REMARK    9  A    between atoms: C7_15  and  C10_22 
REMARK   10  A    between atoms: C9_17  and  N4_18 
REMARK   11  A    between atoms: C10_22  and  N5_23 
ROOT
HETATM    1  N3  UNL     1      -6.598 -28.217  20.418  1.00  0.00    -0.363 N 
ATOM      2  H3  UNL     1      -7.215 -27.588  19.904  1.00  0.00     0.158 HD
ENDROOT
BRANCH   1   3
HETATM    3  C6  UNL     1      -6.115 -29.349  19.771  1.00  0.00     0.422 C 
BRANCH   3   4
HETATM    4  O1  UNL     1      -5.503 -29.200  18.534  1.00  0.00    -0.344 OA
BRANCH   4   5
HETATM    5  C5  UNL     1      -4.678 -28.074  18.503  1.00  0.00     0.188 C 
BRANCH   5   6
HETATM    6  C4  UNL     1      -4.191 -27.774  17.108  1.00  0.00     0.120 C 
HETATM    7  C3  UNL     1      -3.283 -26.578  17.105  1.00  0.00     0.141 C 
HETATM    8  N1  UNL     1      -2.183 -27.507  17.070  1.00  0.00    -0.351 N 
HETATM    9  C12 UNL     1      -3.042 -28.545  16.648  1.00  0.00     0.227 C 
HETATM   10  O2  UNL     1      -2.858 -29.651  16.109  1.00  0.00    -0.273 OA
BRANCH   8  11
HETATM   11  C2  UNL     1      -0.758 -27.400  17.357  1.00  0.00     0.121 C 
HETATM   12  C1  UNL     1      -0.126 -26.311  16.519  1.00  0.00     0.026 C 
ENDBRANCH   8  11
ENDBRANCH   5   6
ENDBRANCH   4   5
ENDBRANCH   3   4
BRANCH   3  13
HETATM   13  N2  UNL     1      -7.314 -30.205  19.494  1.00  0.00    -0.035 N 
ATOM     14  H23 UNL     1      -7.104 -31.198  19.400  1.00  0.00     0.279 HD
ATOM     15  H22 UNL     1      -7.951 -30.299  20.285  1.00  0.00     0.279 HD
ATOM     16  H21 UNL     1      -7.737 -29.788  18.665  1.00  0.00     0.279 HD
ENDBRANCH   3  13
ENDBRANCH   1   3
BRANCH   1  17
HETATM   17  C7  UNL     1      -6.275 -27.901  21.749  1.00  0.00     0.065 C 
HETATM   18  C8  UNL     1      -7.299 -28.510  22.708  1.00  0.00     0.041 C 
BRANCH  17  19
HETATM   19  C9  UNL     1      -4.866 -28.174  22.134  1.00  0.00     0.261 C 
BRANCH  19  20
HETATM   20  N4  UNL     1      -4.245 -27.104  22.878  1.00  0.00    -0.077 N 
ATOM     21  H43 UNL     1      -3.297 -26.936  22.541  1.00  0.00     0.274 HD
ATOM     22  H42 UNL     1      -4.673 -26.209  22.643  1.00  0.00     0.274 HD
ATOM     23  H41 UNL     1      -4.246 -27.248  23.887  1.00  0.00     0.274 HD
ENDBRANCH  19  20
ENDBRANCH  17  19
BRANCH  17  24
HETATM   24  C10 UNL     1      -6.575 -26.375  21.870  1.00  0.00     0.154 C 
BRANCH  24  25
HETATM   25  N5  UNL     1      -6.183 -25.727  20.677  1.00  0.00    -0.364 N 
HETATM   26  C11 UNL     1      -5.444 -24.706  20.535  1.00  0.00     0.197 C 
HETATM   27  N6  UNL     1      -5.193 -24.238  19.220  1.00  0.00    -0.067 NA
HETATM   28  N7  UNL     1      -4.844 -23.987  21.605  1.00  0.00    -0.067 NA
ATOM     29  H5  UNL     1      -6.542 -26.135  19.814  1.00  0.00     0.161 HD
ENDBRANCH  24  25
ENDBRANCH  17  24
ENDBRANCH   1  17
TORSDOF 11
ENDMDL
MODEL 2
REMARK VINA RESULT: -5.977718312      2.408      6.405
REMARK  11 active torsions:
REMARK  status: ('A' for Active; 'I' for Inactive)
REMARK    1  A    between atoms: C2_2  and  N1_3 
REMARK    2  A    between atoms: C4_5  and  C5_6 
REMARK    3  A    between atoms: C5_6  and  O1_7 
REMARK    4  A    between atoms: O1_7  and  C6_8 
REMARK    5  A    between atoms: C6_8  and  N2_9 
REMARK    6  A    between atoms: C6_8  and  N3_13 
REMARK    7  A    between atoms: N3_13  and  C7_15 
REMARK    8  A    between atoms: C7_15  and  C9_17 
REMARK    9  A    between atoms: C7_15  and  C10_22 
REMARK   10  A    between atoms: C9_17  and  N4_18 
REMARK   11  A    between atoms: C10_22  and  N5_23 
ROOT
HETATM    1  N3  UNL     1      -3.702 -27.334  18.433  1.00  0.00    -0.363 N 
ATOM      2  H3  UNL     1      -3.604 -26.431  18.898  1.00  0.00     0.158 HD
ENDROOT
BRANCH   1   3
HETATM    3  C6  UNL     1      -4.519 -28.296  19.016  1.00  0.00     0.422 C 
BRANCH   3   4
HETATM    4  O1  UNL     1      -5.776 -27.918  19.468  1.00  0.00    -0.344 OA
BRANCH   4   5
HETATM    5  C5  UNL     1      -5.699 -27.223  20.677  1.00  0.00     0.188 C 
BRANCH   5   6
HETATM    6  C4  UNL     1      -6.318 -25.853  20.577  1.00  0.00     0.120 C 
HETATM    7  C3  UNL     1      -6.466 -25.234  21.937  1.00  0.00     0.141 C 
HETATM    8  N1  UNL     1      -5.268 -24.490  21.647  1.00  0.00    -0.351 N 
HETATM    9  C12 UNL     1      -5.407 -24.757  20.267  1.00  0.00     0.227 C 
HETATM   10  O2  UNL     1      -4.932 -24.245  19.238  1.00  0.00    -0.273 OA
BRANCH   8  11
HETATM   11  C2  UNL     1      -4.307 -23.759  22.464  1.00  0.00     0.121 C 
HETATM   12  C1  UNL     1      -4.932 -22.499  23.022  1.00  0.00     0.026 C 
ENDBRANCH   8  11
ENDBRANCH   5   6
ENDBRANCH   4   5
ENDBRANCH   3   4
BRANCH   3  13
HETATM   13  N2  UNL     1      -3.800 -28.750  20.250  1.00  0.00    -0.035 N 
ATOM     14  H23 UNL     1      -2.816 -28.485  20.281  1.00  0.00     0.279 HD
ATOM     15  H22 UNL     1      -4.075 -28.257  21.099  1.00  0.00     0.279 HD
ATOM     16  H21 UNL     1      -3.962 -29.757  20.283  1.00  0.00     0.279 HD
ENDBRANCH   3  13
ENDBRANCH   1   3
BRANCH   1  17
HETATM   17  C7  UNL     1      -3.005 -27.549  17.232  1.00  0.00     0.065 C 
HETATM   18  C8  UNL     1      -3.411 -26.512  16.184  1.00  0.00     0.041 C 
BRANCH  17  19
HETATM   19  C9  UNL     1      -1.533 -27.697  17.379  1.00  0.00     0.261 C 
BRANCH  19  20
HETATM   20  N4  UNL     1      -0.770 -26.713  16.650  1.00  0.00    -0.077 N 
ATOM     21  H43 UNL     1      -1.319 -25.864  16.513  1.00  0.00     0.274 HD
ATOM     22  H42 UNL     1      -0.018 -26.340  17.229  1.00  0.00     0.274 HD
ATOM     23  H41 UNL     1      -0.404 -27.050  15.761  1.00  0.00     0.274 HD
ENDBRANCH  19  20
ENDBRANCH  17  19
BRANCH  17  24
HETATM   24  C10 UNL     1      -3.618 -28.861  16.655  1.00  0.00     0.154 C 
BRANCH  24  25
HETATM   25  N5  UNL     1      -2.712 -29.432  15.733  1.00  0.00    -0.364 N 
HETATM   26  C11 UNL     1      -2.636 -30.635  15.337  1.00  0.00     0.197 C 
HETATM   27  N6  UNL     1      -1.629 -30.967  14.396  1.00  0.00    -0.067 NA
HETATM   28  N7  UNL     1      -3.490 -31.685  15.771  1.00  0.00    -0.067 NA
ATOM     29  H5  UNL     1      -2.027 -28.791  15.331  1.00  0.00     0.161 HD
ENDBRANCH  24  25
ENDBRANCH  17  24
ENDBRANCH   1  17
TORSDOF 11
ENDMDL
MODEL 3
REMARK VINA RESULT: -5.964425125      2.327      5.841
REMARK  11 active torsions:
REMARK  status: ('A' for Active; 'I' for Inactive)
REMARK    1  A    between atoms: C2_2  and  N1_3 
REMARK    2  A    between atoms: C4_5  and  C5_6 
REMARK    3  A    between atoms: C5_6  and  O1_7 
REMARK    4  A    between atoms: O1_7  and  C6_8 
REMARK    5  A    between atoms: C6_8  and  N2_9 
REMARK    6  A    between atoms: C6_8  and  N3_13 
REMARK    7  A    between atoms: N3_13  and  C7_15 
REMARK    8  A    between atoms: C7_15  and  C9_17 
REMARK    9  A    between atoms: C7_15  and  C10_22 
REMARK   10  A    between atoms: C9_17  and  N4_18 
REMARK   11  A    between atoms: C10_22  and  N5_23 
ROOT
HETATM    1  N3  UNL     1      -2.652 -28.580  18.748  1.00  0.00    -0.363 N 
ATOM      2  H3  UNL     1      -1.807 -28.008  18.748  1.00  0.00     0.158 HD
ENDROOT
BRANCH   1   3
HETATM    3  C6  UNL     1      -2.921 -29.369  19.861  1.00  0.00     0.422 C 
BRANCH   3   4
HETATM    4  O1  UNL     1      -3.772 -28.874  20.839  1.00  0.00    -0.344 OA
BRANCH   4   5
HETATM    5  C5  UNL     1      -4.996 -29.546  20.841  1.00  0.00     0.188 C 
BRANCH   5   6
HETATM    6  C4  UNL     1      -6.127 -28.647  21.269  1.00  0.00     0.120 C 
HETATM    7  C3  UNL     1      -6.305 -28.687  22.761  1.00  0.00     0.141 C 
HETATM    8  N1  UNL     1      -5.574 -27.448  22.806  1.00  0.00    -0.351 N 
HETATM    9  C12 UNL     1      -5.802 -27.235  21.429  1.00  0.00     0.227 C 
HETATM   10  O2  UNL     1      -5.741 -26.236  20.689  1.00  0.00    -0.273 OA
BRANCH   8  11
HETATM   11  C2  UNL     1      -4.883 -26.718  23.862  1.00  0.00     0.121 C 
HETATM   12  C1  UNL     1      -3.428 -27.125  23.926  1.00  0.00     0.026 C 
ENDBRANCH   8  11
ENDBRANCH   5   6
ENDBRANCH   4   5
ENDBRANCH   3   4
BRANCH   3  13
HETATM   13  N2  UNL     1      -1.608 -29.545  20.563  1.00  0.00    -0.035 N 
ATOM     14  H23 UNL     1      -1.112 -28.673  20.745  1.00  0.00     0.279 HD
ATOM     15  H22 UNL     1      -1.692 -29.833  21.538  1.00  0.00     0.279 HD
ATOM     16  H21 UNL     1      -1.093 -30.204  19.978  1.00  0.00     0.279 HD
ENDBRANCH   3  13
ENDBRANCH   1   3
BRANCH   1  17
HETATM   17  C7  UNL     1      -3.492 -28.535  17.623  1.00  0.00     0.065 C 
HETATM   18  C8  UNL     1      -3.999 -29.936  17.275  1.00  0.00     0.041 C 
BRANCH  17  19
HETATM   19  C9  UNL     1      -4.571 -27.514  17.686  1.00  0.00     0.261 C 
BRANCH  19  20
HETATM   20  N4  UNL     1      -4.108 -26.195  18.047  1.00  0.00    -0.077 N 
ATOM     21  H43 UNL     1      -4.718 -25.480  17.651  1.00  0.00     0.274 HD
ATOM     22  H42 UNL     1      -4.261 -26.021  19.040  1.00  0.00     0.274 HD
ATOM     23  H41 UNL     1      -3.136 -26.016  17.797  1.00  0.00     0.274 HD
ENDBRANCH  19  20
ENDBRANCH  17  19
BRANCH  17  24
HETATM   24  C10 UNL     1      -2.534 -28.225  16.433  1.00  0.00     0.154 C 
BRANCH  24  25
HETATM   25  N5  UNL     1      -1.276 -27.824  16.940  1.00  0.00    -0.364 N 
HETATM   26  C11 UNL     1      -0.743 -26.673  16.918  1.00  0.00     0.197 C 
HETATM   27  N6  UNL     1       0.542 -26.520  17.499  1.00  0.00    -0.067 NA
HETATM   28  N7  UNL     1      -1.340 -25.515  16.351  1.00  0.00    -0.067 NA
ATOM     29  H5  UNL     1      -0.724 -28.559  17.383  1.00  0.00     0.161 HD
ENDBRANCH  24  25
ENDBRANCH  17  24
ENDBRANCH   1  17
TORSDOF 11
ENDMDL
MODEL 4
REMARK VINA RESULT: -5.928101209      2.115      5.744
REMARK  11 active torsions:
REMARK  status: ('A' for Active; 'I' for Inactive)
REMARK    1  A    between atoms: C2_2  and  N1_3 
REMARK    2  A    between atoms: C4_5  and  C5_6 
REMARK    3  A    between atoms: C5_6  and  O1_7 
REMARK    4  A    between atoms: O1_7  and  C6_8 
REMARK    5  A    between atoms: C6_8  and  N2_9 
REMARK    6  A    between atoms: C6_8  and  N3_13 
REMARK    7  A    between atoms: N3_13  and  C7_15 
REMARK    8  A    between atoms: C7_15  and  C9_17 
REMARK    9  A    between atoms: C7_15  and  C10_22 
REMARK   10  A    between atoms: C9_17  and  N4_18 
REMARK   11  A    between atoms: C10_22  and  N5_23 
ROOT
HETATM    1  N3  UNL     1      -4.958 -28.239  17.745  1.00  0.00    -0.363 N 
ATOM      2  H3  UNL     1      -5.461 -27.975  16.898  1.00  0.00     0.158 HD
ENDROOT
BRANCH   1   3
HETATM    3  C6  UNL     1      -5.264 -27.580  18.931  1.00  0.00     0.422 C 
BRANCH   3   4
HETATM    4  O1  UNL     1      -6.329 -28.041  19.694  1.00  0.00    -0.344 OA
BRANCH   4   5
HETATM    5  C5  UNL     1      -5.948 -28.278  21.016  1.00  0.00     0.188 C 
BRANCH   5   6
HETATM    6  C4  UNL     1      -6.524 -27.252  21.958  1.00  0.00     0.120 C 
HETATM    7  C3  UNL     1      -6.122 -27.544  23.375  1.00  0.00     0.141 C 
HETATM    8  N1  UNL     1      -5.109 -26.532  23.218  1.00  0.00    -0.351 N 
HETATM    9  C12 UNL     1      -5.776 -26.007  22.089  1.00  0.00     0.227 C 
HETATM   10  O2  UNL     1      -5.721 -24.922  21.483  1.00  0.00    -0.273 OA
BRANCH   8  11
HETATM   11  C2  UNL     1      -3.891 -26.197  23.944  1.00  0.00     0.121 C 
HETATM   12  C1  UNL     1      -2.866 -27.300  23.804  1.00  0.00     0.026 C 
ENDBRANCH   8  11
ENDBRANCH   5   6
ENDBRANCH   4   5
ENDBRANCH   3   4
BRANCH   3  13
HETATM   13  N2  UNL     1      -5.662 -26.190  18.536  1.00  0.00    -0.035 N 
ATOM     14  H23 UNL     1      -6.397 -26.151  17.830  1.00  0.00     0.279 HD
ATOM     15  H22 UNL     1      -6.173 -25.681  19.258  1.00  0.00     0.279 HD
ATOM     16  H21 UNL     1      -4.788 -25.746  18.253  1.00  0.00     0.279 HD
ENDBRANCH   3  13
ENDBRANCH   1   3
BRANCH   1  17
HETATM   17  C7  UNL     1      -3.986 -29.250  17.661  1.00  0.00     0.065 C 
HETATM   18  C8  UNL     1      -2.913 -29.052  18.733  1.00  0.00     0.041 C 
BRANCH  17  19
HETATM   19  C9  UNL     1      -4.525 -30.635  17.611  1.00  0.00     0.261 C 
BRANCH  19  20
HETATM   20  N4  UNL     1      -5.858 -30.763  18.149  1.00  0.00    -0.077 N 
ATOM     21  H43 UNL     1      -6.065 -31.738  18.366  1.00  0.00     0.274 HD
ATOM     22  H42 UNL     1      -5.907 -30.364  19.086  1.00  0.00     0.274 HD
ATOM     23  H41 UNL     1      -6.584 -30.368  17.552  1.00  0.00     0.274 HD
ENDBRANCH  19  20
ENDBRANCH  17  19
BRANCH  17  24
HETATM   24  C10 UNL     1      -3.206 -28.933  16.349  1.00  0.00     0.154 C 
BRANCH  24  25
HETATM   25  N5  UNL     1      -2.080 -28.136  16.658  1.00  0.00    -0.364 N 
HETATM   26  C11 UNL     1      -2.003 -26.874  16.750  1.00  0.00     0.197 C 
HETATM   27  N6  UNL     1      -0.747 -26.301  17.076  1.00  0.00    -0.067 NA
HETATM   28  N7  UNL     1      -3.091 -25.980  16.550  1.00  0.00    -0.067 NA
ATOM     29  H5  UNL     1      -1.212 -28.645  16.829  1.00  0.00     0.161 HD
ENDBRANCH  24  25
ENDBRANCH  17  24
ENDBRANCH   1  17
TORSDOF 11
ENDMDL
MODEL 5
REMARK VINA RESULT: -5.896801980      2.730      4.104
REMARK  11 active torsions:
REMARK  status: ('A' for Active; 'I' for Inactive)
REMARK    1  A    between atoms: C2_2  and  N1_3 
REMARK    2  A    between atoms: C4_5  and  C5_6 
REMARK    3  A    between atoms: C5_6  and  O1_7 
REMARK    4  A    between atoms: O1_7  and  C6_8 
REMARK    5  A    between atoms: C6_8  and  N2_9 
REMARK    6  A    between atoms: C6_8  and  N3_13 
REMARK    7  A    between atoms: N3_13  and  C7_15 
REMARK    8  A    between atoms: C7_15  and  C9_17 
REMARK    9  A    between atoms: C7_15  and  C10_22 
REMARK   10  A    between atoms: C9_17  and  N4_18 
REMARK   11  A    between atoms: C10_22  and  N5_23 
ROOT
HETATM    1  N3  UNL     1      -3.824 -27.800  18.634  1.00  0.00    -0.363 N 
ATOM      2  H3  UNL     1      -3.061 -27.370  19.156  1.00  0.00     0.158 HD
ENDROOT
BRANCH   1   3
HETATM    3  C6  UNL     1      -3.810 -27.715  17.246  1.00  0.00     0.422 C 
BRANCH   3   4
HETATM    4  O1  UNL     1      -2.769 -28.314  16.552  1.00  0.00    -0.344 OA
BRANCH   4   5
HETATM    5  C5  UNL     1      -3.241 -29.114  15.509  1.00  0.00     0.188 C 
BRANCH   5   6
HETATM    6  C4  UNL     1      -2.762 -30.537  15.633  1.00  0.00     0.120 C 
HETATM    7  C3  UNL     1      -3.893 -31.502  15.420  1.00  0.00     0.141 C 
HETATM    8  N1  UNL     1      -3.400 -31.668  14.077  1.00  0.00    -0.351 N 
HETATM    9  C12 UNL     1      -2.151 -31.117  14.443  1.00  0.00     0.227 C 
HETATM   10  O2  UNL     1      -1.017 -31.139  13.932  1.00  0.00    -0.273 OA
BRANCH   8  11
HETATM   11  C2  UNL     1      -3.972 -32.198  12.846  1.00  0.00     0.121 C 
HETATM   12  C1  UNL     1      -4.608 -31.091  12.035  1.00  0.00     0.026 C 
ENDBRANCH   8  11
ENDBRANCH   5   6
ENDBRANCH   4   5
ENDBRANCH   3   4
BRANCH   3  13
HETATM   13  N2  UNL     1      -3.681 -26.256  16.927  1.00  0.00    -0.035 N 
ATOM     14  H23 UNL     1      -3.164 -26.061  16.070  1.00  0.00     0.279 HD
ATOM     15  H22 UNL     1      -4.553 -25.814  16.635  1.00  0.00     0.279 HD
ATOM     16  H21 UNL     1      -3.269 -25.848  17.766  1.00  0.00     0.279 HD
ENDBRANCH   3  13
ENDBRANCH   1   3
BRANCH   1  17
HETATM   17  C7  UNL     1      -4.843 -28.451  19.350  1.00  0.00     0.065 C 
HETATM   18  C8  UNL     1      -5.349 -29.668  18.574  1.00  0.00     0.041 C 
BRANCH  17  19
HETATM   19  C9  UNL     1      -4.521 -28.746  20.770  1.00  0.00     0.261 C 
BRANCH  19  20
HETATM   20  N4  UNL     1      -3.107 -28.846  21.041  1.00  0.00    -0.077 N 
ATOM     21  H43 UNL     1      -2.833 -28.182  21.765  1.00  0.00     0.274 HD
ATOM     22  H42 UNL     1      -2.895 -29.721  21.520  1.00  0.00     0.274 HD
ATOM     23  H41 UNL     1      -2.520 -28.738  20.215  1.00  0.00     0.274 HD
ENDBRANCH  19  20
ENDBRANCH  17  19
BRANCH  17  24
HETATM   24  C10 UNL     1      -6.059 -27.478  19.269  1.00  0.00     0.154 C 
BRANCH  24  25
HETATM   25  N5  UNL     1      -5.973 -26.537  20.320  1.00  0.00    -0.364 N 
HETATM   26  C11 UNL     1      -5.607 -25.324  20.270  1.00  0.00     0.197 C 
HETATM   27  N6  UNL     1      -5.606 -24.575  21.475  1.00  0.00    -0.067 NA
HETATM   28  N7  UNL     1      -5.193 -24.651  19.088  1.00  0.00    -0.067 NA
ATOM     29  H5  UNL     1      -6.242 -26.880  21.243  1.00  0.00     0.161 HD
ENDBRANCH  24  25
ENDBRANCH  17  24
ENDBRANCH   1  17
TORSDOF 11
ENDMDL
