MODEL 1
REMARK VINA RESULT: -6.143658525      0.000      0.000
REMARK  12 active torsions:
REMARK  status: ('A' for Active; 'I' for Inactive)
REMARK    1  A    between atoms: C2_2  and  O1_3 
REMARK    2  A    between atoms: C2_2  and  C3_5 
REMARK    3  A    between atoms: C3_5  and  N1_6 
REMARK    4  A    between atoms: C5_8  and  N2_9 
REMARK    5  A    between atoms: N2_9  and  C6_12 
REMARK    6  A    between atoms: C6_12  and  C7_13 
REMARK    7  A    between atoms: C7_13  and  C8_14 
REMARK    8  A    between atoms: C8_14  and  N3_15 
REMARK    9  A    between atoms: N3_15  and  C9_17 
REMARK   10  A    between atoms: C9_17  and  C10_18 
REMARK   11  A    between atoms: C10_18  and  O2_19 
REMARK   12  A    between atoms: C13_23  and  O3_24 
ROOT
HETATM    1  N1  UNL     1      -5.911 -28.664  20.918  1.00  0.00    -0.019 N 
HETATM    2  C4  UNL     1      -4.542 -29.122  20.861  1.00  0.00     0.279 C 
HETATM    3  C5  UNL     1      -4.384 -29.776  19.480  1.00  0.00     0.221 C 
HETATM    4  C11 UNL     1      -5.804 -29.689  18.955  1.00  0.00     0.081 C 
HETATM    5  C12 UNL     1      -6.163 -28.306  19.543  1.00  0.00     0.255 C 
HETATM    6  C13 UNL     1      -6.668 -30.570  19.781  1.00  0.00     0.201 C 
HETATM    7  C14 UNL     1      -6.769 -29.813  21.057  1.00  0.00     0.207 C 
HETATM    8  N4  UNL     1      -7.484 -30.156  22.041  1.00  0.00    -0.380 N 
ATOM      9  H41 UNL     1      -8.091 -30.970  22.139  1.00  0.00     0.157 HD
ATOM     10  H42 UNL     1      -7.553 -29.636  22.916  1.00  0.00     0.157 HD
ENDROOT
BRANCH   3  11
HETATM   11  N2  UNL     1      -3.467 -29.060  18.664  1.00  0.00    -0.069 N 
ATOM     12  H22 UNL     1      -3.612 -28.054  18.749  1.00  0.00     0.277 HD
ATOM     13  H21 UNL     1      -2.520 -29.123  19.038  1.00  0.00     0.277 HD
BRANCH  11  14
HETATM   14  C6  UNL     1      -3.505 -29.468  17.300  1.00  0.00     0.234 C 
BRANCH  14  15
HETATM   15  C7  UNL     1      -3.044 -28.379  16.367  1.00  0.00     0.046 C 
BRANCH  15  16
HETATM   16  C8  UNL     1      -3.138 -27.016  17.048  1.00  0.00     0.115 C 
BRANCH  16  17
HETATM   17  N3  UNL     1      -1.881 -26.577  17.556  1.00  0.00    -0.419 N 
ATOM     18  H3  UNL     1      -1.773 -26.265  18.522  1.00  0.00     0.153 HD
BRANCH  17  19
HETATM   19  C9  UNL     1      -0.783 -26.594  16.652  1.00  0.00     0.139 C 
BRANCH  19  20
HETATM   20  C10 UNL     1       0.565 -26.582  17.308  1.00  0.00     0.183 C 
BRANCH  20  21
HETATM   21  O2  UNL     1       1.426 -25.741  16.597  1.00  0.00    -0.399 OA
ATOM     22  H2  UNL     1       2.281 -26.146  16.524  1.00  0.00     0.209 HD
ENDBRANCH  20  21
ENDBRANCH  19  20
ENDBRANCH  17  19
ENDBRANCH  16  17
ENDBRANCH  15  16
ENDBRANCH  14  15
ENDBRANCH  11  14
ENDBRANCH   3  11
BRANCH   1  23
HETATM   23  C3  UNL     1      -6.203 -27.736  21.912  1.00  0.00     0.276 C 
BRANCH  23  24
HETATM   24  C2  UNL     1      -6.223 -26.289  21.614  1.00  0.00     0.140 C 
HETATM   25  C1  UNL     1      -7.206 -25.482  22.450  1.00  0.00     0.041 C 
BRANCH  24  26
HETATM   26  O1  UNL     1      -4.950 -25.799  22.044  1.00  0.00    -0.394 OA
ATOM     27  H1  UNL     1      -4.522 -26.577  22.385  1.00  0.00     0.210 HD
ENDBRANCH  24  26
ENDBRANCH  23  24
ENDBRANCH   1  23
BRANCH   6  28
HETATM   28  O3  UNL     1      -7.898 -30.742  19.165  1.00  0.00    -0.387 OA
ATOM     29  H3  UNL     1      -8.591 -30.739  19.815  1.00  0.00     0.210 HD
ENDBRANCH   6  28
TORSDOF 12
ENDMDL
MODEL 2
REMARK VINA RESULT: -6.134118834      2.625      4.135
REMARK  12 active torsions:
REMARK  status: ('A' for Active; 'I' for Inactive)
REMARK    1  A    between atoms: C2_2  and  O1_3 
REMARK    2  A    between atoms: C2_2  and  C3_5 
REMARK    3  A    between atoms: C3_5  and  N1_6 
REMARK    4  A    between atoms: C5_8  and  N2_9 
REMARK    5  A    between atoms: N2_9  and  C6_12 
REMARK    6  A    between atoms: C6_12  and  C7_13 
REMARK    7  A    between atoms: C7_13  and  C8_14 
REMARK    8  A    between atoms: C8_14  and  N3_15 
REMARK    9  A    between atoms: N3_15  and  C9_17 
REMARK   10  A    between atoms: C9_17  and  C10_18 
REMARK   11  A    between atoms: C10_18  and  O2_19 
REMARK   12  A    between atoms: C13_23  and  O3_24 
ROOT
HETATM    1  N1  UNL     1      -4.992 -26.104  23.155  1.00  0.00    -0.019 N 
HETATM    2  C4  UNL     1      -5.208 -27.258  22.314  1.00  0.00     0.279 C 
HETATM    3  C5  UNL     1      -6.367 -26.876  21.380  1.00  0.00     0.221 C 
HETATM    4  C11 UNL     1      -6.742 -25.513  21.928  1.00  0.00     0.081 C 
HETATM    5  C12 UNL     1      -5.317 -25.019  22.261  1.00  0.00     0.255 C 
HETATM    6  C13 UNL     1      -7.296 -25.690  23.294  1.00  0.00     0.201 C 
HETATM    7  C14 UNL     1      -6.083 -26.014  24.091  1.00  0.00     0.207 C 
HETATM    8  N4  UNL     1      -6.068 -26.170  25.345  1.00  0.00    -0.380 N 
ATOM      9  H41 UNL     1      -6.841 -26.107  26.008  1.00  0.00     0.157 HD
ATOM     10  H42 UNL     1      -5.237 -26.392  25.892  1.00  0.00     0.157 HD
ENDROOT
BRANCH   3  11
HETATM   11  N2  UNL     1      -5.946 -26.811  20.024  1.00  0.00    -0.069 N 
ATOM     12  H22 UNL     1      -6.499 -26.131  19.503  1.00  0.00     0.277 HD
ATOM     13  H21 UNL     1      -5.028 -26.371  19.947  1.00  0.00     0.277 HD
BRANCH  11  14
HETATM   14  C6  UNL     1      -5.959 -28.081  19.379  1.00  0.00     0.234 C 
BRANCH  14  15
HETATM   15  C7  UNL     1      -4.786 -28.259  18.451  1.00  0.00     0.046 C 
BRANCH  15  16
HETATM   16  C8  UNL     1      -4.535 -26.982  17.654  1.00  0.00     0.115 C 
BRANCH  16  17
HETATM   17  N3  UNL     1      -3.203 -26.499  17.811  1.00  0.00    -0.419 N 
ATOM     18  H3  UNL     1      -2.880 -26.100  18.692  1.00  0.00     0.153 HD
BRANCH  17  19
HETATM   19  C9  UNL     1      -2.349 -26.600  16.679  1.00  0.00     0.139 C 
BRANCH  19  20
HETATM   20  C10 UNL     1      -0.902 -26.815  17.008  1.00  0.00     0.183 C 
BRANCH  20  21
HETATM   21  O2  UNL     1      -0.127 -25.833  16.383  1.00  0.00    -0.399 OA
ATOM     22  H2  UNL     1       0.756 -26.159  16.251  1.00  0.00     0.209 HD
ENDBRANCH  20  21
ENDBRANCH  19  20
ENDBRANCH  17  19
ENDBRANCH  16  17
ENDBRANCH  15  16
ENDBRANCH  14  15
ENDBRANCH  11  14
ENDBRANCH   3  11
BRANCH   1  23
HETATM   23  C3  UNL     1      -3.782 -26.064  23.838  1.00  0.00     0.276 C 
BRANCH  23  24
HETATM   24  C2  UNL     1      -3.049 -27.307  24.154  1.00  0.00     0.140 C 
HETATM   25  C1  UNL     1      -1.536 -27.207  24.013  1.00  0.00     0.041 C 
BRANCH  24  26
HETATM   26  O1  UNL     1      -3.234 -27.506  25.558  1.00  0.00    -0.394 OA
ATOM     27  H1  UNL     1      -4.085 -27.116  25.722  1.00  0.00     0.210 HD
ENDBRANCH  24  26
ENDBRANCH  23  24
ENDBRANCH   1  23
BRANCH   6  28
HETATM   28  O3  UNL     1      -7.911 -24.520  23.712  1.00  0.00    -0.387 OA
ATOM     29  H3  UNL     1      -8.661 -24.723  24.259  1.00  0.00     0.210 HD
ENDBRANCH   6  28
TORSDOF 12
ENDMDL
MODEL 3
REMARK VINA RESULT: -5.895954874      1.482      3.556
REMARK  12 active torsions:
REMARK  status: ('A' for Active; 'I' for Inactive)
REMARK    1  A    between atoms: C2_2  and  O1_3 
REMARK    2  A    between atoms: C2_2  and  C3_5 
REMARK    3  A    between atoms: C3_5  and  N1_6 
REMARK    4  A    between atoms: C5_8  and  N2_9 
REMARK    5  A    between atoms: N2_9  and  C6_12 
REMARK    6  A    between atoms: C6_12  and  C7_13 
REMARK    7  A    between atoms: C7_13  and  C8_14 
REMARK    8  A    between atoms: C8_14  and  N3_15 
REMARK    9  A    between atoms: N3_15  and  C9_17 
REMARK   10  A    between atoms: C9_17  and  C10_18 
REMARK   11  A    between atoms: C10_18  and  O2_19 
REMARK   12  A    between atoms: C13_23  and  O3_24 
ROOT
HETATM    1  N1  UNL     1      -5.821 -29.621  20.429  1.00  0.00    -0.019 N 
HETATM    2  C4  UNL     1      -6.254 -28.631  19.470  1.00  0.00     0.279 C 
HETATM    3  C5  UNL     1      -5.860 -27.274  20.073  1.00  0.00     0.221 C 
HETATM    4  C11 UNL     1      -5.321 -27.704  21.424  1.00  0.00     0.081 C 
HETATM    5  C12 UNL     1      -4.632 -29.010  20.971  1.00  0.00     0.255 C 
HETATM    6  C13 UNL     1      -6.443 -28.251  22.227  1.00  0.00     0.201 C 
HETATM    7  C14 UNL     1      -6.697 -29.561  21.570  1.00  0.00     0.207 C 
HETATM    8  N4  UNL     1      -7.531 -30.419  21.978  1.00  0.00    -0.380 N 
ATOM      9  H41 UNL     1      -8.152 -30.376  22.787  1.00  0.00     0.157 HD
ATOM     10  H42 UNL     1      -7.705 -31.318  21.528  1.00  0.00     0.157 HD
ENDROOT
BRANCH   3  11
HETATM   11  N2  UNL     1      -4.873 -26.620  19.287  1.00  0.00    -0.069 N 
ATOM     12  H22 UNL     1      -4.978 -25.607  19.339  1.00  0.00     0.277 HD
ATOM     13  H21 UNL     1      -3.949 -26.713  19.709  1.00  0.00     0.277 HD
BRANCH  11  14
HETATM   14  C6  UNL     1      -4.862 -27.062  17.933  1.00  0.00     0.234 C 
BRANCH  14  15
HETATM   15  C7  UNL     1      -3.651 -26.572  17.184  1.00  0.00     0.046 C 
BRANCH  15  16
HETATM   16  C8  UNL     1      -3.046 -27.698  16.351  1.00  0.00     0.115 C 
BRANCH  16  17
HETATM   17  N3  UNL     1      -1.622 -27.711  16.410  1.00  0.00    -0.419 N 
ATOM     18  H3  UNL     1      -1.084 -28.549  16.187  1.00  0.00     0.153 HD
BRANCH  17  19
HETATM   19  C9  UNL     1      -0.987 -26.498  16.794  1.00  0.00     0.139 C 
BRANCH  19  20
HETATM   20  C10 UNL     1       0.436 -26.654  17.242  1.00  0.00     0.183 C 
BRANCH  20  21
HETATM   21  O2  UNL     1       1.252 -25.771  16.529  1.00  0.00    -0.399 OA
ATOM     22  H2  UNL     1       0.876 -24.899  16.551  1.00  0.00     0.209 HD
ENDBRANCH  20  21
ENDBRANCH  19  20
ENDBRANCH  17  19
ENDBRANCH  16  17
ENDBRANCH  15  16
ENDBRANCH  14  15
ENDBRANCH  11  14
ENDBRANCH   3  11
BRANCH   1  23
HETATM   23  C3  UNL     1      -5.744 -30.929  19.963  1.00  0.00     0.276 C 
BRANCH  23  24
HETATM   24  C2  UNL     1      -6.386 -31.319  18.691  1.00  0.00     0.140 C 
HETATM   25  C1  UNL     1      -5.853 -32.608  18.079  1.00  0.00     0.041 C 
BRANCH  24  26
HETATM   26  O1  UNL     1      -7.733 -31.654  19.036  1.00  0.00    -0.394 OA
ATOM     27  H1  UNL     1      -7.941 -31.033  19.725  1.00  0.00     0.210 HD
ENDBRANCH  24  26
ENDBRANCH  23  24
ENDBRANCH   1  23
BRANCH   6  28
HETATM   28  O3  UNL     1      -6.057 -28.385  23.552  1.00  0.00    -0.387 OA
ATOM     29  H3  UNL     1      -6.816 -28.557  24.097  1.00  0.00     0.210 HD
ENDBRANCH   6  28
TORSDOF 12
ENDMDL
MODEL 4
REMARK VINA RESULT: -5.809518361      2.878      5.142
REMARK  12 active torsions:
REMARK  status: ('A' for Active; 'I' for Inactive)
REMARK    1  A    between atoms: C2_2  and  O1_3 
REMARK    2  A    between atoms: C2_2  and  C3_5 
REMARK    3  A    between atoms: C3_5  and  N1_6 
REMARK    4  A    between atoms: C5_8  and  N2_9 
REMARK    5  A    between atoms: N2_9  and  C6_12 
REMARK    6  A    between atoms: C6_12  and  C7_13 
REMARK    7  A    between atoms: C7_13  and  C8_14 
REMARK    8  A    between atoms: C8_14  and  N3_15 
REMARK    9  A    between atoms: N3_15  and  C9_17 
REMARK   10  A    between atoms: C9_17  and  C10_18 
REMARK   11  A    between atoms: C10_18  and  O2_19 
REMARK   12  A    between atoms: C13_23  and  O3_24 
ROOT
HETATM    1  N1  UNL     1      -6.747 -25.589  23.492  1.00  0.00    -0.019 N 
HETATM    2  C4  UNL     1      -7.134 -25.840  22.123  1.00  0.00     0.279 C 
HETATM    3  C5  UNL     1      -6.016 -25.233  21.262  1.00  0.00     0.221 C 
HETATM    4  C11 UNL     1      -5.150 -24.586  22.326  1.00  0.00     0.081 C 
HETATM    5  C12 UNL     1      -5.309 -25.670  23.415  1.00  0.00     0.255 C 
HETATM    6  C13 UNL     1      -5.912 -23.469  22.939  1.00  0.00     0.201 C 
HETATM    7  C14 UNL     1      -6.922 -24.186  23.763  1.00  0.00     0.207 C 
HETATM    8  N4  UNL     1      -7.749 -23.622  24.535  1.00  0.00    -0.380 N 
ATOM      9  H41 UNL     1      -7.873 -22.628  24.726  1.00  0.00     0.157 HD
ATOM     10  H42 UNL     1      -8.441 -24.114  25.100  1.00  0.00     0.157 HD
ENDROOT
BRANCH   3  11
HETATM   11  N2  UNL     1      -5.314 -26.232  20.535  1.00  0.00    -0.069 N 
ATOM     12  H22 UNL     1      -5.072 -25.902  19.601  1.00  0.00     0.277 HD
ATOM     13  H21 UNL     1      -4.375 -26.365  20.911  1.00  0.00     0.277 HD
BRANCH  11  14
HETATM   14  C6  UNL     1      -6.019 -27.468  20.473  1.00  0.00     0.234 C 
BRANCH  14  15
HETATM   15  C7  UNL     1      -5.811 -28.176  19.160  1.00  0.00     0.046 C 
BRANCH  15  16
HETATM   16  C8  UNL     1      -4.515 -28.981  19.185  1.00  0.00     0.115 C 
BRANCH  16  17
HETATM   17  N3  UNL     1      -3.452 -28.318  18.505  1.00  0.00    -0.419 N 
ATOM     18  H3  UNL     1      -2.571 -28.104  18.971  1.00  0.00     0.153 HD
BRANCH  17  19
HETATM   19  C9  UNL     1      -3.681 -27.970  17.145  1.00  0.00     0.139 C 
BRANCH  19  20
HETATM   20  C10 UNL     1      -3.376 -26.542  16.808  1.00  0.00     0.183 C 
BRANCH  20  21
HETATM   21  O2  UNL     1      -3.753 -25.717  17.872  1.00  0.00    -0.399 OA
ATOM     22  H2  UNL     1      -4.535 -25.232  17.638  1.00  0.00     0.209 HD
ENDBRANCH  20  21
ENDBRANCH  19  20
ENDBRANCH  17  19
ENDBRANCH  16  17
ENDBRANCH  15  16
ENDBRANCH  14  15
ENDBRANCH  11  14
ENDBRANCH   3  11
BRANCH   1  23
HETATM   23  C3  UNL     1      -7.405 -26.341  24.460  1.00  0.00     0.276 C 
BRANCH  23  24
HETATM   24  C2  UNL     1      -8.407 -27.357  24.078  1.00  0.00     0.140 C 
HETATM   25  C1  UNL     1      -7.905 -28.794  24.129  1.00  0.00     0.041 C 
BRANCH  24  26
HETATM   26  O1  UNL     1      -9.395 -27.319  25.111  1.00  0.00    -0.394 OA
ATOM     27  H1  UNL     1      -8.881 -27.405  25.906  1.00  0.00     0.210 HD
ENDBRANCH  24  26
ENDBRANCH  23  24
ENDBRANCH   1  23
BRANCH   6  28
HETATM   28  O3  UNL     1      -5.065 -22.680  23.702  1.00  0.00    -0.387 OA
ATOM     29  H3  UNL     1      -5.271 -22.778  24.624  1.00  0.00     0.210 HD
ENDBRANCH   6  28
TORSDOF 12
ENDMDL
MODEL 5
REMARK VINA RESULT: -5.808340094      5.139      8.023
REMARK  12 active torsions:
REMARK  status: ('A' for Active; 'I' for Inactive)
REMARK    1  A    between atoms: C2_2  and  O1_3 
REMARK    2  A    between atoms: C2_2  and  C3_5 
REMARK    3  A    between atoms: C3_5  and  N1_6 
REMARK    4  A    between atoms: C5_8  and  N2_9 
REMARK    5  A    between atoms: N2_9  and  C6_12 
REMARK    6  A    between atoms: C6_12  and  C7_13 
REMARK    7  A    between atoms: C7_13  and  C8_14 
REMARK    8  A    between atoms: C8_14  and  N3_15 
REMARK    9  A    between atoms: N3_15  and  C9_17 
REMARK   10  A    between atoms: C9_17  and  C10_18 
REMARK   11  A    between atoms: C10_18  and  O2_19 
REMARK   12  A    between atoms: C13_23  and  O3_24 
ROOT
HETATM    1  N1  UNL     1      -5.775 -26.472  23.938  1.00  0.00    -0.019 N 
HETATM    2  C4  UNL     1      -5.569 -25.267  23.168  1.00  0.00     0.279 C 
HETATM    3  C5  UNL     1      -6.859 -24.449  23.329  1.00  0.00     0.221 C 
HETATM    4  C11 UNL     1      -7.713 -25.412  24.130  1.00  0.00     0.081 C 
HETATM    5  C12 UNL     1      -6.596 -25.993  25.024  1.00  0.00     0.255 C 
HETATM    6  C13 UNL     1      -8.022 -26.589  23.279  1.00  0.00     0.201 C 
HETATM    7  C14 UNL     1      -6.718 -27.303  23.236  1.00  0.00     0.207 C 
HETATM    8  N4  UNL     1      -6.530 -28.422  22.678  1.00  0.00    -0.380 N 
ATOM      9  H41 UNL     1      -7.198 -29.011  22.181  1.00  0.00     0.157 HD
ATOM     10  H42 UNL     1      -5.636 -28.912  22.649  1.00  0.00     0.157 HD
ENDROOT
BRANCH   3  11
HETATM   11  N2  UNL     1      -6.624 -23.234  24.027  1.00  0.00    -0.069 N 
ATOM     12  H22 UNL     1      -7.503 -22.784  24.281  1.00  0.00     0.277 HD
ATOM     13  H21 UNL     1      -6.255 -23.415  24.961  1.00  0.00     0.277 HD
BRANCH  11  14
HETATM   14  C6  UNL     1      -5.780 -22.338  23.310  1.00  0.00     0.234 C 
BRANCH  14  15
HETATM   15  C7  UNL     1      -5.551 -21.051  24.057  1.00  0.00     0.046 C 
BRANCH  15  16
HETATM   16  C8  UNL     1      -6.223 -19.886  23.334  1.00  0.00     0.115 C 
BRANCH  16  17
HETATM   17  N3  UNL     1      -7.638 -19.885  23.508  1.00  0.00    -0.419 N 
ATOM     18  H3  UNL     1      -8.274 -19.936  22.712  1.00  0.00     0.153 HD
BRANCH  17  19
HETATM   19  C9  UNL     1      -8.119 -19.810  24.844  1.00  0.00     0.139 C 
BRANCH  19  20
HETATM   20  C10 UNL     1      -9.101 -20.880  25.213  1.00  0.00     0.183 C 
BRANCH  20  21
HETATM   21  O2  UNL     1      -9.400 -21.653  24.087  1.00  0.00    -0.399 OA
ATOM     22  H2  UNL     1     -10.095 -21.239  23.590  1.00  0.00     0.209 HD
ENDBRANCH  20  21
ENDBRANCH  19  20
ENDBRANCH  17  19
ENDBRANCH  16  17
ENDBRANCH  15  16
ENDBRANCH  14  15
ENDBRANCH  11  14
ENDBRANCH   3  11
BRANCH   1  23
HETATM   23  C3  UNL     1      -4.634 -27.207  24.240  1.00  0.00     0.276 C 
BRANCH  23  24
HETATM   24  C2  UNL     1      -3.385 -27.016  23.473  1.00  0.00     0.140 C 
HETATM   25  C1  UNL     1      -2.110 -27.295  24.257  1.00  0.00     0.041 C 
BRANCH  24  26
HETATM   26  O1  UNL     1      -3.392 -28.046  22.481  1.00  0.00    -0.394 OA
ATOM     27  H1  UNL     1      -3.352 -28.844  22.997  1.00  0.00     0.210 HD
ENDBRANCH  24  26
ENDBRANCH  23  24
ENDBRANCH   1  23
BRANCH   6  28
HETATM   28  O3  UNL     1      -9.025 -27.347  23.863  1.00  0.00    -0.387 OA
ATOM     29  H3  UNL     1      -9.789 -27.367  23.299  1.00  0.00     0.210 HD
ENDBRANCH   6  28
TORSDOF 12
ENDMDL
