MODEL 1
REMARK VINA RESULT: -5.926476518      0.000      0.000
REMARK  10 active torsions:
REMARK  status: ('A' for Active; 'I' for Inactive)
REMARK    1  A    between atoms: C1_2  and  C2_4 
REMARK    2  A    between atoms: C2_4  and  C3_5 
REMARK    3  A    between atoms: C3_5  and  N2_6 
REMARK    4  A    between atoms: N2_6  and  C4_8 
REMARK    5  A    between atoms: C7_13  and  N4_14 
REMARK    6  A    between atoms: N4_14  and  C8_16 
REMARK    7  A    between atoms: C8_16  and  C9_17 
REMARK    8  A    between atoms: C9_17  and  C10_18 
REMARK    9  A    between atoms: C10_18  and  C11_19 
REMARK   10  A    between atoms: C11_19  and  N5_20 
ROOT
HETATM    1  C4  UNL     1      -5.025 -27.370  18.260  1.00  0.00     0.679 A 
HETATM    2  N3  UNL     1      -4.322 -26.392  17.680  1.00  0.00    -0.202 N 
ATOM      3  H3  UNL     1      -4.527 -25.425  17.932  1.00  0.00     0.183 HD
HETATM    4  C5  UNL     1      -3.340 -26.639  16.764  1.00  0.00     0.110 A 
HETATM    5  C6  UNL     1      -3.102 -27.962  16.456  1.00  0.00     0.066 A 
HETATM    6  C7  UNL     1      -3.801 -28.975  17.031  1.00  0.00     0.118 A 
HETATM    7  N8  UNL     1      -4.756 -28.641  17.929  1.00  0.00    -0.177 N 
ATOM      8  H8  UNL     1      -5.293 -29.386  18.372  1.00  0.00     0.185 HD
ENDROOT
BRANCH   6   9
HETATM    9  N4  UNL     1      -3.628 -30.200  16.791  1.00  0.00    -0.376 N 
ATOM     10  H4  UNL     1      -3.335 -30.759  17.592  1.00  0.00     0.161 HD
BRANCH   9  11
HETATM   11  C8  UNL     1      -3.778 -30.919  15.579  1.00  0.00     0.121 C 
BRANCH  11  12
HETATM   12  C9  UNL     1      -4.131 -32.384  15.803  1.00  0.00     0.021 C 
BRANCH  12  13
HETATM   13  C10 UNL     1      -5.637 -32.549  15.840  1.00  0.00     0.021 C 
BRANCH  13  14
HETATM   14  C11 UNL     1      -6.105 -32.944  17.228  1.00  0.00     0.122 C 
BRANCH  14  15
HETATM   15  N5  UNL     1      -6.866 -31.874  17.841  1.00  0.00    -0.367 N 
HETATM   16  C12 UNL     1      -6.350 -31.229  18.822  1.00  0.00     0.196 C 
HETATM   17  N6  UNL     1      -5.050 -31.552  19.310  1.00  0.00    -0.067 NA
HETATM   18  N7  UNL     1      -7.125 -30.190  19.394  1.00  0.00    -0.067 NA
ATOM     19  H5  UNL     1      -7.796 -31.637  17.498  1.00  0.00     0.161 HD
ENDBRANCH  14  15
ENDBRANCH  13  14
ENDBRANCH  12  13
ENDBRANCH  11  12
ENDBRANCH   9  11
ENDBRANCH   6   9
BRANCH   1  20
HETATM   20  N2  UNL     1      -5.936 -27.049  19.116  1.00  0.00    -0.226 N 
ATOM     21  H2  UNL     1      -6.902 -26.996  18.794  1.00  0.00     0.177 HD
BRANCH  20  22
HETATM   22  C3  UNL     1      -5.665 -26.760  20.500  1.00  0.00     0.147 C 
BRANCH  22  23
HETATM   23  C2  UNL     1      -6.208 -25.419  20.940  1.00  0.00     0.119 C 
BRANCH  23  24
HETATM   24  C1  UNL     1      -5.231 -24.368  20.582  1.00  0.00     0.232 C 
HETATM   25  N1  UNL     1      -4.632 -23.639  21.647  1.00  0.00    -0.062 NA
HETATM   26  O1  UNL     1      -4.943 -24.132  19.380  1.00  0.00    -0.277 OA
ENDBRANCH  23  24
ENDBRANCH  22  23
ENDBRANCH  20  22
ENDBRANCH   1  20
TORSDOF 10
ENDMDL
MODEL 2
REMARK VINA RESULT: -5.921045030      2.612      6.600
REMARK  10 active torsions:
REMARK  status: ('A' for Active; 'I' for Inactive)
REMARK    1  A    between atoms: C1_2  and  C2_4 
REMARK    2  A    between atoms: C2_4  and  C3_5 
REMARK    3  A    between atoms: C3_5  and  N2_6 
REMARK    4  A    between atoms: N2_6  and  C4_8 
REMARK    5  A    between atoms: C7_13  and  N4_14 
REMARK    6  A    between atoms: N4_14  and  C8_16 
REMARK    7  A    between atoms: C8_16  and  C9_17 
REMARK    8  A    between atoms: C9_17  and  C10_18 
REMARK    9  A    between atoms: C10_18  and  C11_19 
REMARK   10  A    between atoms: C11_19  and  N5_20 
ROOT
HETATM    1  C4  UNL     1      -5.096 -28.140  19.525  1.00  0.00     0.679 A 
HETATM    2  N3  UNL     1      -6.145 -28.945  19.331  1.00  0.00    -0.202 N 
ATOM      3  H3  UNL     1      -6.540 -29.017  18.393  1.00  0.00     0.183 HD
HETATM    4  C5  UNL     1      -6.707 -29.674  20.339  1.00  0.00     0.110 A 
HETATM    5  C6  UNL     1      -6.138 -29.541  21.588  1.00  0.00     0.066 A 
HETATM    6  C7  UNL     1      -5.071 -28.731  21.814  1.00  0.00     0.118 A 
HETATM    7  N8  UNL     1      -4.576 -28.045  20.757  1.00  0.00    -0.177 N 
ATOM      8  H8  UNL     1      -3.775 -27.431  20.905  1.00  0.00     0.185 HD
ENDROOT
BRANCH   6   9
HETATM    9  N4  UNL     1      -4.509 -28.569  22.930  1.00  0.00    -0.376 N 
ATOM     10  H4  UNL     1      -4.705 -29.293  23.620  1.00  0.00     0.161 HD
BRANCH   9  11
HETATM   11  C8  UNL     1      -3.646 -27.536  23.372  1.00  0.00     0.121 C 
BRANCH  11  12
HETATM   12  C9  UNL     1      -4.399 -26.358  23.978  1.00  0.00     0.021 C 
BRANCH  12  13
HETATM   13  C10 UNL     1      -3.778 -25.057  23.512  1.00  0.00     0.021 C 
BRANCH  13  14
HETATM   14  C11 UNL     1      -4.825 -24.143  22.906  1.00  0.00     0.122 C 
BRANCH  14  15
HETATM   15  N5  UNL     1      -4.601 -23.970  21.485  1.00  0.00    -0.367 N 
HETATM   16  C12 UNL     1      -5.372 -24.571  20.657  1.00  0.00     0.196 C 
HETATM   17  N6  UNL     1      -6.438 -25.400  21.114  1.00  0.00    -0.067 NA
HETATM   18  N7  UNL     1      -5.121 -24.375  19.276  1.00  0.00    -0.067 NA
ATOM     19  H5  UNL     1      -3.841 -23.378  21.149  1.00  0.00     0.161 HD
ENDBRANCH  14  15
ENDBRANCH  13  14
ENDBRANCH  12  13
ENDBRANCH  11  12
ENDBRANCH   9  11
ENDBRANCH   6   9
BRANCH   1  20
HETATM   20  N2  UNL     1      -4.626 -27.487  18.516  1.00  0.00    -0.226 N 
ATOM     21  H2  UNL     1      -4.560 -26.472  18.589  1.00  0.00     0.177 HD
BRANCH  20  22
HETATM   22  C3  UNL     1      -4.188 -28.110  17.295  1.00  0.00     0.147 C 
BRANCH  22  23
HETATM   23  C2  UNL     1      -2.684 -28.114  17.141  1.00  0.00     0.119 C 
BRANCH  23  24
HETATM   24  C1  UNL     1      -2.228 -26.732  16.872  1.00  0.00     0.232 C 
HETATM   25  N1  UNL     1      -0.828 -26.517  16.743  1.00  0.00    -0.062 NA
HETATM   26  O1  UNL     1      -3.052 -25.787  16.763  1.00  0.00    -0.277 OA
ENDBRANCH  23  24
ENDBRANCH  22  23
ENDBRANCH  20  22
ENDBRANCH   1  20
TORSDOF 10
ENDMDL
MODEL 3
REMARK VINA RESULT: -5.900759061      2.295      5.039
REMARK  10 active torsions:
REMARK  status: ('A' for Active; 'I' for Inactive)
REMARK    1  A    between atoms: C1_2  and  C2_4 
REMARK    2  A    between atoms: C2_4  and  C3_5 
REMARK    3  A    between atoms: C3_5  and  N2_6 
REMARK    4  A    between atoms: N2_6  and  C4_8 
REMARK    5  A    between atoms: C7_13  and  N4_14 
REMARK    6  A    between atoms: N4_14  and  C8_16 
REMARK    7  A    between atoms: C8_16  and  C9_17 
REMARK    8  A    between atoms: C9_17  and  C10_18 
REMARK    9  A    between atoms: C10_18  and  C11_19 
REMARK   10  A    between atoms: C11_19  and  N5_20 
ROOT
HETATM    1  C4  UNL     1      -5.390 -26.765  19.037  1.00  0.00     0.679 A 
HETATM    2  N3  UNL     1      -5.117 -25.458  18.975  1.00  0.00    -0.202 N 
ATOM      3  H3  UNL     1      -4.699 -25.084  18.123  1.00  0.00     0.183 HD
HETATM    4  C5  UNL     1      -5.376 -24.604  20.009  1.00  0.00     0.110 A 
HETATM    5  C6  UNL     1      -5.941 -25.157  21.139  1.00  0.00     0.066 A 
HETATM    6  C7  UNL     1      -6.229 -26.481  21.229  1.00  0.00     0.118 A 
HETATM    7  N8  UNL     1      -5.939 -27.256  20.158  1.00  0.00    -0.177 N 
ATOM      8  H8  UNL     1      -6.147 -28.253  20.204  1.00  0.00     0.185 HD
ENDROOT
BRANCH   6   9
HETATM    9  N4  UNL     1      -6.744 -27.043  22.233  1.00  0.00    -0.376 N 
ATOM     10  H4  UNL     1      -7.460 -26.498  22.712  1.00  0.00     0.161 HD
BRANCH   9  11
HETATM   11  C8  UNL     1      -6.481 -28.316  22.797  1.00  0.00     0.121 C 
BRANCH  11  12
HETATM   12  C9  UNL     1      -7.751 -29.081  23.145  1.00  0.00     0.021 C 
BRANCH  12  13
HETATM   13  C10 UNL     1      -7.546 -30.560  22.890  1.00  0.00     0.021 C 
BRANCH  13  14
HETATM   14  C11 UNL     1      -6.526 -30.785  21.790  1.00  0.00     0.122 C 
BRANCH  14  15
HETATM   15  N5  UNL     1      -7.048 -31.679  20.776  1.00  0.00    -0.367 N 
HETATM   16  C12 UNL     1      -7.244 -31.228  19.592  1.00  0.00     0.196 C 
HETATM   17  N6  UNL     1      -6.957 -29.869  19.266  1.00  0.00    -0.067 NA
HETATM   18  N7  UNL     1      -7.753 -32.133  18.629  1.00  0.00    -0.067 NA
ATOM     19  H5  UNL     1      -7.255 -32.652  21.000  1.00  0.00     0.161 HD
ENDBRANCH  14  15
ENDBRANCH  13  14
ENDBRANCH  12  13
ENDBRANCH  11  12
ENDBRANCH   9  11
ENDBRANCH   6   9
BRANCH   1  20
HETATM   20  N2  UNL     1      -5.113 -27.501  18.014  1.00  0.00    -0.226 N 
ATOM     21  H2  UNL     1      -5.751 -27.478  17.219  1.00  0.00     0.177 HD
BRANCH  20  22
HETATM   22  C3  UNL     1      -3.955 -28.350  17.932  1.00  0.00     0.147 C 
BRANCH  22  23
HETATM   23  C2  UNL     1      -3.160 -28.143  16.663  1.00  0.00     0.119 C 
BRANCH  23  24
HETATM   24  C1  UNL     1      -2.464 -26.839  16.744  1.00  0.00     0.232 C 
HETATM   25  N1  UNL     1      -1.051 -26.859  16.911  1.00  0.00    -0.062 NA
HETATM   26  O1  UNL     1      -3.102 -25.757  16.667  1.00  0.00    -0.277 OA
ENDBRANCH  23  24
ENDBRANCH  22  23
ENDBRANCH  20  22
ENDBRANCH   1  20
TORSDOF 10
ENDMDL
MODEL 4
REMARK VINA RESULT: -5.825581543      2.489      5.399
REMARK  10 active torsions:
REMARK  status: ('A' for Active; 'I' for Inactive)
REMARK    1  A    between atoms: C1_2  and  C2_4 
REMARK    2  A    between atoms: C2_4  and  C3_5 
REMARK    3  A    between atoms: C3_5  and  N2_6 
REMARK    4  A    between atoms: N2_6  and  C4_8 
REMARK    5  A    between atoms: C7_13  and  N4_14 
REMARK    6  A    between atoms: N4_14  and  C8_16 
REMARK    7  A    between atoms: C8_16  and  C9_17 
REMARK    8  A    between atoms: C9_17  and  C10_18 
REMARK    9  A    between atoms: C10_18  and  C11_19 
REMARK   10  A    between atoms: C11_19  and  N5_20 
ROOT
HETATM    1  C4  UNL     1      -5.602 -26.942  19.275  1.00  0.00     0.679 A 
HETATM    2  N3  UNL     1      -5.423 -25.638  19.043  1.00  0.00    -0.202 N 
ATOM      3  H3  UNL     1      -5.137 -25.341  18.110  1.00  0.00     0.183 HD
HETATM    4  C5  UNL     1      -5.608 -24.689  20.006  1.00  0.00     0.110 A 
HETATM    5  C6  UNL     1      -5.994 -25.141  21.251  1.00  0.00     0.066 A 
HETATM    6  C7  UNL     1      -6.184 -26.460  21.514  1.00  0.00     0.118 A 
HETATM    7  N8  UNL     1      -5.978 -27.333  20.501  1.00  0.00    -0.177 N 
ATOM      8  H8  UNL     1      -6.115 -28.328  20.677  1.00  0.00     0.185 HD
ENDROOT
BRANCH   6   9
HETATM    9  N4  UNL     1      -6.535 -26.931  22.629  1.00  0.00    -0.376 N 
ATOM     10  H4  UNL     1      -5.776 -27.305  23.198  1.00  0.00     0.161 HD
BRANCH   9  11
HETATM   11  C8  UNL     1      -7.823 -27.022  23.213  1.00  0.00     0.121 C 
BRANCH  11  12
HETATM   12  C9  UNL     1      -8.204 -28.450  23.580  1.00  0.00     0.021 C 
BRANCH  12  13
HETATM   13  C10 UNL     1      -6.953 -29.271  23.815  1.00  0.00     0.021 C 
BRANCH  13  14
HETATM   14  C11 UNL     1      -7.012 -30.581  23.051  1.00  0.00     0.122 C 
BRANCH  14  15
HETATM   15  N5  UNL     1      -7.514 -30.374  21.708  1.00  0.00    -0.367 N 
HETATM   16  C12 UNL     1      -6.685 -30.362  20.730  1.00  0.00     0.196 C 
HETATM   17  N6  UNL     1      -5.288 -30.549  20.949  1.00  0.00    -0.067 NA
HETATM   18  N7  UNL     1      -7.215 -30.158  19.432  1.00  0.00    -0.067 NA
ATOM     19  H5  UNL     1      -8.511 -30.240  21.543  1.00  0.00     0.161 HD
ENDBRANCH  14  15
ENDBRANCH  13  14
ENDBRANCH  12  13
ENDBRANCH  11  12
ENDBRANCH   9  11
ENDBRANCH   6   9
BRANCH   1  20
HETATM   20  N2  UNL     1      -5.405 -27.772  18.307  1.00  0.00    -0.226 N 
ATOM     21  H2  UNL     1      -6.164 -27.924  17.641  1.00  0.00     0.177 HD
BRANCH  20  22
HETATM   22  C3  UNL     1      -4.177 -28.497  18.113  1.00  0.00     0.147 C 
BRANCH  22  23
HETATM   23  C2  UNL     1      -3.541 -28.229  16.768  1.00  0.00     0.119 C 
BRANCH  23  24
HETATM   24  C1  UNL     1      -2.774 -26.966  16.845  1.00  0.00     0.232 C 
HETATM   25  N1  UNL     1      -1.356 -27.062  16.904  1.00  0.00    -0.062 NA
HETATM   26  O1  UNL     1      -3.359 -25.852  16.859  1.00  0.00    -0.277 OA
ENDBRANCH  23  24
ENDBRANCH  22  23
ENDBRANCH  20  22
ENDBRANCH   1  20
TORSDOF 10
ENDMDL
MODEL 5
REMARK VINA RESULT: -5.737848915      2.694      3.696
REMARK  10 active torsions:
REMARK  status: ('A' for Active; 'I' for Inactive)
REMARK    1  A    between atoms: C1_2  and  C2_4 
REMARK    2  A    between atoms: C2_4  and  C3_5 
REMARK    3  A    between atoms: C3_5  and  N2_6 
REMARK    4  A    between atoms: N2_6  and  C4_8 
REMARK    5  A    between atoms: C7_13  and  N4_14 
REMARK    6  A    between atoms: N4_14  and  C8_16 
REMARK    7  A    between atoms: C8_16  and  C9_17 
REMARK    8  A    between atoms: C9_17  and  C10_18 
REMARK    9  A    between atoms: C10_18  and  C11_19 
REMARK   10  A    between atoms: C11_19  and  N5_20 
ROOT
HETATM    1  C4  UNL     1      -4.967 -27.233  18.216  1.00  0.00     0.679 A 
HETATM    2  N3  UNL     1      -4.148 -26.277  17.766  1.00  0.00    -0.202 N 
ATOM      3  H3  UNL     1      -4.276 -25.323  18.103  1.00  0.00     0.183 HD
HETATM    4  C5  UNL     1      -3.146 -26.530  16.873  1.00  0.00     0.110 A 
HETATM    5  C6  UNL     1      -3.014 -27.835  16.447  1.00  0.00     0.066 A 
HETATM    6  C7  UNL     1      -3.832 -28.825  16.888  1.00  0.00     0.118 A 
HETATM    7  N8  UNL     1      -4.799 -28.487  17.773  1.00  0.00    -0.177 N 
ATOM      8  H8  UNL     1      -5.424 -29.215  18.117  1.00  0.00     0.185 HD
ENDROOT
BRANCH   6   9
HETATM    9  N4  UNL     1      -3.760 -30.033  16.536  1.00  0.00    -0.376 N 
ATOM     10  H4  UNL     1      -4.384 -30.666  17.036  1.00  0.00     0.161 HD
BRANCH   9  11
HETATM   11  C8  UNL     1      -2.946 -30.647  15.552  1.00  0.00     0.121 C 
BRANCH  11  12
HETATM   12  C9  UNL     1      -3.754 -31.251  14.412  1.00  0.00     0.021 C 
BRANCH  12  13
HETATM   13  C10 UNL     1      -3.382 -30.580  13.106  1.00  0.00     0.021 C 
BRANCH  13  14
HETATM   14  C11 UNL     1      -4.254 -31.080  11.971  1.00  0.00     0.122 C 
BRANCH  14  15
HETATM   15  N5  UNL     1      -5.303 -31.948  12.467  1.00  0.00    -0.367 N 
HETATM   16  C12 UNL     1      -6.078 -32.529  11.627  1.00  0.00     0.196 C 
HETATM   17  N6  UNL     1      -5.921 -32.331  10.224  1.00  0.00    -0.067 NA
HETATM   18  N7  UNL     1      -7.090 -33.370  12.153  1.00  0.00    -0.067 NA
ATOM     19  H5  UNL     1      -5.422 -32.095  13.470  1.00  0.00     0.161 HD
ENDBRANCH  14  15
ENDBRANCH  13  14
ENDBRANCH  12  13
ENDBRANCH  11  12
ENDBRANCH   9  11
ENDBRANCH   6   9
BRANCH   1  20
HETATM   20  N2  UNL     1      -5.888 -26.907  19.059  1.00  0.00    -0.226 N 
ATOM     21  H2  UNL     1      -6.841 -26.797  18.712  1.00  0.00     0.177 HD
BRANCH  20  22
HETATM   22  C3  UNL     1      -5.647 -26.691  20.461  1.00  0.00     0.147 C 
BRANCH  22  23
HETATM   23  C2  UNL     1      -6.175 -25.361  20.952  1.00  0.00     0.119 C 
BRANCH  23  24
HETATM   24  C1  UNL     1      -5.188 -24.307  20.627  1.00  0.00     0.232 C 
HETATM   25  N1  UNL     1      -4.593 -23.609  21.715  1.00  0.00    -0.062 NA
HETATM   26  O1  UNL     1      -4.891 -24.042  19.434  1.00  0.00    -0.277 OA
ENDBRANCH  23  24
ENDBRANCH  22  23
ENDBRANCH  20  22
ENDBRANCH   1  20
TORSDOF 10
ENDMDL
