MODEL 1
REMARK VINA RESULT: -6.047425017      0.000      0.000
REMARK  12 active torsions:
REMARK  status: ('A' for Active; 'I' for Inactive)
REMARK    1  A    between atoms: N1_2  and  C3_4 
REMARK    2  A    between atoms: N1_2  and  C4_7 
REMARK    3  A    between atoms: C3_4  and  O1_5 
REMARK    4  A    between atoms: C4_7  and  C5_8 
REMARK    5  A    between atoms: C5_8  and  N2_9 
REMARK    6  A    between atoms: N2_9  and  C7_12 
REMARK    7  A    between atoms: C7_12  and  N3_13 
REMARK    8  A    between atoms: N3_13  and  C8_15 
REMARK    9  A    between atoms: C8_15  and  C9_16 
REMARK   10  A    between atoms: C9_16  and  N4_17 
REMARK   11  A    between atoms: N4_17  and  C10_19 
REMARK   12  A    between atoms: C13_24  and  N6_25 
ROOT
HETATM    1  C8  UNL     1      -5.985 -25.968  21.108  1.00  0.00     0.077 C 
ENDROOT
BRANCH   1   2
HETATM    2  N3  UNL     1      -5.017 -25.927  22.132  1.00  0.00    -0.372 N 
ATOM      3  H3  UNL     1      -4.039 -26.136  21.936  1.00  0.00     0.160 HD
BRANCH   2   4
HETATM    4  C7  UNL     1      -5.440 -25.587  23.443  1.00  0.00     0.434 C 
BRANCH   4   5
HETATM    5  N2  UNL     1      -5.009 -24.251  23.824  1.00  0.00     0.027 N 
HETATM    6  C6  UNL     1      -3.750 -23.913  23.171  1.00  0.00     0.358 C 
HETATM    7  O2  UNL     1      -4.883 -24.261  25.183  1.00  0.00    -0.063 OA
BRANCH   5   8
HETATM    8  C5  UNL     1      -5.980 -23.228  23.502  1.00  0.00     0.341 C 
BRANCH   8   9
HETATM    9  C4  UNL     1      -5.236 -21.914  23.452  1.00  0.00     0.275 C 
BRANCH   9  10
HETATM   10  N1  UNL     1      -5.828 -20.845  24.175  1.00  0.00    -0.052 N 
HETATM   11  C1  UNL     1      -6.846 -21.374  25.100  1.00  0.00     0.274 C 
HETATM   12  C2  UNL     1      -6.447 -19.810  23.409  1.00  0.00     0.274 C 
BRANCH  10  13
HETATM   13  C3  UNL     1      -4.789 -20.296  25.065  1.00  0.00     0.400 C 
BRANCH  13  14
HETATM   14  O1  UNL     1      -3.924 -21.307  25.487  1.00  0.00    -0.374 OA
ATOM     15  H1  UNL     1      -3.105 -20.937  25.793  1.00  0.00     0.211 HD
ENDBRANCH  13  14
ENDBRANCH  10  13
ENDBRANCH   9  10
ENDBRANCH   8   9
ENDBRANCH   5   8
ENDBRANCH   4   5
ENDBRANCH   2   4
ENDBRANCH   1   2
BRANCH   1  16
HETATM   16  C9  UNL     1      -5.627 -25.078  19.936  1.00  0.00     0.182 C 
BRANCH  16  17
HETATM   17  N4  UNL     1      -5.887 -25.854  18.734  1.00  0.00    -0.221 N 
ATOM     18  H4  UNL     1      -6.786 -25.737  18.267  1.00  0.00     0.178 HD
BRANCH  17  19
HETATM   19  C10 UNL     1      -5.051 -26.669  18.238  1.00  0.00     0.679 A 
HETATM   20  N5  UNL     1      -5.291 -27.984  18.249  1.00  0.00    -0.202 N 
HETATM   21  C11 UNL     1      -4.427 -28.882  17.727  1.00  0.00     0.110 A 
ATOM     22  H5  UNL     1      -6.158 -28.322  18.666  1.00  0.00     0.183 HD
HETATM   23  C12 UNL     1      -3.257 -28.417  17.164  1.00  0.00     0.066 A 
HETATM   24  C13 UNL     1      -2.993 -27.062  17.143  1.00  0.00     0.116 A 
HETATM   25  N7  UNL     1      -3.915 -26.224  17.689  1.00  0.00    -0.177 N 
ATOM     26  H7  UNL     1      -3.734 -25.220  17.679  1.00  0.00     0.185 HD
BRANCH  24  27
HETATM   27  N6  UNL     1      -1.899 -26.627  16.614  1.00  0.00    -0.385 N 
ATOM     28  H62 UNL     1      -1.068 -27.212  16.527  1.00  0.00     0.157 HD
ATOM     29  H61 UNL     1      -1.847 -25.669  16.269  1.00  0.00     0.157 HD
ENDBRANCH  24  27
ENDBRANCH  17  19
ENDBRANCH  16  17
ENDBRANCH   1  16
TORSDOF 12
ENDMDL
MODEL 2
REMARK VINA RESULT: -5.975080385      3.041      4.941
REMARK  12 active torsions:
REMARK  status: ('A' for Active; 'I' for Inactive)
REMARK    1  A    between atoms: N1_2  and  C3_4 
REMARK    2  A    between atoms: N1_2  and  C4_7 
REMARK    3  A    between atoms: C3_4  and  O1_5 
REMARK    4  A    between atoms: C4_7  and  C5_8 
REMARK    5  A    between atoms: C5_8  and  N2_9 
REMARK    6  A    between atoms: N2_9  and  C7_12 
REMARK    7  A    between atoms: C7_12  and  N3_13 
REMARK    8  A    between atoms: N3_13  and  C8_15 
REMARK    9  A    between atoms: C8_15  and  C9_16 
REMARK   10  A    between atoms: C9_16  and  N4_17 
REMARK   11  A    between atoms: N4_17  and  C10_19 
REMARK   12  A    between atoms: C13_24  and  N6_25 
ROOT
HETATM    1  C8  UNL     1      -4.895 -24.309  22.266  1.00  0.00     0.077 C 
ENDROOT
BRANCH   1   2
HETATM    2  N3  UNL     1      -4.028 -25.169  22.971  1.00  0.00    -0.372 N 
ATOM      3  H3  UNL     1      -3.017 -25.099  22.859  1.00  0.00     0.160 HD
BRANCH   2   4
HETATM    4  C7  UNL     1      -4.600 -26.132  23.841  1.00  0.00     0.434 C 
BRANCH   4   5
HETATM    5  N2  UNL     1      -3.942 -27.425  23.727  1.00  0.00     0.027 N 
HETATM    6  C6  UNL     1      -2.502 -27.284  23.907  1.00  0.00     0.358 C 
HETATM    7  O2  UNL     1      -4.247 -27.904  22.485  1.00  0.00    -0.063 OA
BRANCH   5   8
HETATM    8  C5  UNL     1      -4.430 -28.396  24.681  1.00  0.00     0.341 C 
BRANCH   8   9
HETATM    9  C4  UNL     1      -5.849 -28.006  25.022  1.00  0.00     0.275 C 
BRANCH   9  10
HETATM   10  N1  UNL     1      -6.846 -28.959  24.687  1.00  0.00    -0.052 N 
HETATM   11  C1  UNL     1      -7.770 -29.133  25.822  1.00  0.00     0.274 C 
HETATM   12  C2  UNL     1      -6.395 -30.259  24.302  1.00  0.00     0.274 C 
BRANCH  10  13
HETATM   13  C3  UNL     1      -7.685 -28.356  23.635  1.00  0.00     0.400 C 
BRANCH  13  14
HETATM   14  O1  UNL     1      -7.066 -28.475  22.390  1.00  0.00    -0.374 OA
ATOM     15  H1  UNL     1      -7.459 -29.180  21.889  1.00  0.00     0.211 HD
ENDBRANCH  13  14
ENDBRANCH  10  13
ENDBRANCH   9  10
ENDBRANCH   8   9
ENDBRANCH   5   8
ENDBRANCH   4   5
ENDBRANCH   2   4
ENDBRANCH   1   2
BRANCH   1  16
HETATM   16  C9  UNL     1      -6.115 -25.028  21.730  1.00  0.00     0.182 C 
BRANCH  16  17
HETATM   17  N4  UNL     1      -6.029 -24.962  20.279  1.00  0.00    -0.221 N 
ATOM     18  H4  UNL     1      -6.294 -24.093  19.817  1.00  0.00     0.178 HD
BRANCH  17  19
HETATM   19  C10 UNL     1      -5.642 -25.933  19.561  1.00  0.00     0.679 A 
HETATM   20  N5  UNL     1      -6.018 -27.184  19.845  1.00  0.00    -0.202 N 
HETATM   21  C11 UNL     1      -5.629 -28.243  19.101  1.00  0.00     0.110 A 
ATOM     22  H5  UNL     1      -6.620 -27.346  20.652  1.00  0.00     0.183 HD
HETATM   23  C12 UNL     1      -4.815 -28.017  18.011  1.00  0.00     0.066 A 
HETATM   24  C13 UNL     1      -4.417 -26.731  17.703  1.00  0.00     0.116 A 
HETATM   25  N7  UNL     1      -4.853 -25.720  18.502  1.00  0.00    -0.177 N 
ATOM     26  H7  UNL     1      -4.568 -24.765  18.285  1.00  0.00     0.185 HD
BRANCH  24  27
HETATM   27  N6  UNL     1      -3.657 -26.519  16.681  1.00  0.00    -0.385 N 
ATOM     28  H62 UNL     1      -3.754 -27.047  15.814  1.00  0.00     0.157 HD
ATOM     29  H61 UNL     1      -2.930 -25.805  16.728  1.00  0.00     0.157 HD
ENDBRANCH  24  27
ENDBRANCH  17  19
ENDBRANCH  16  17
ENDBRANCH   1  16
TORSDOF 12
ENDMDL
MODEL 3
REMARK VINA RESULT: -5.818231968      1.994      2.814
REMARK  12 active torsions:
REMARK  status: ('A' for Active; 'I' for Inactive)
REMARK    1  A    between atoms: N1_2  and  C3_4 
REMARK    2  A    between atoms: N1_2  and  C4_7 
REMARK    3  A    between atoms: C3_4  and  O1_5 
REMARK    4  A    between atoms: C4_7  and  C5_8 
REMARK    5  A    between atoms: C5_8  and  N2_9 
REMARK    6  A    between atoms: N2_9  and  C7_12 
REMARK    7  A    between atoms: C7_12  and  N3_13 
REMARK    8  A    between atoms: N3_13  and  C8_15 
REMARK    9  A    between atoms: C8_15  and  C9_16 
REMARK   10  A    between atoms: C9_16  and  N4_17 
REMARK   11  A    between atoms: N4_17  and  C10_19 
REMARK   12  A    between atoms: C13_24  and  N6_25 
ROOT
HETATM    1  C8  UNL     1      -5.114 -28.184  21.576  1.00  0.00     0.077 C 
ENDROOT
BRANCH   1   2
HETATM    2  N3  UNL     1      -5.097 -26.881  22.114  1.00  0.00    -0.372 N 
ATOM      3  H3  UNL     1      -4.597 -26.128  21.643  1.00  0.00     0.160 HD
BRANCH   2   4
HETATM    4  C7  UNL     1      -5.793 -26.645  23.327  1.00  0.00     0.434 C 
BRANCH   4   5
HETATM    5  N2  UNL     1      -6.952 -25.789  23.130  1.00  0.00     0.027 N 
HETATM    6  C6  UNL     1      -8.185 -26.549  23.298  1.00  0.00     0.358 C 
HETATM    7  O2  UNL     1      -6.845 -25.280  21.868  1.00  0.00    -0.063 OA
BRANCH   5   8
HETATM    8  C5  UNL     1      -6.984 -24.660  24.034  1.00  0.00     0.341 C 
BRANCH   8   9
HETATM    9  C4  UNL     1      -5.556 -24.385  24.447  1.00  0.00     0.275 C 
BRANCH   9  10
HETATM   10  N1  UNL     1      -5.005 -23.164  23.974  1.00  0.00    -0.052 N 
HETATM   11  C1  UNL     1      -4.403 -22.423  25.097  1.00  0.00     0.274 C 
HETATM   12  C2  UNL     1      -5.893 -22.271  23.301  1.00  0.00     0.274 C 
BRANCH  10  13
HETATM   13  C3  UNL     1      -3.854 -23.512  23.120  1.00  0.00     0.400 C 
BRANCH  13  14
HETATM   14  O1  UNL     1      -4.288 -23.916  21.857  1.00  0.00    -0.374 OA
ATOM     15  H1  UNL     1      -4.368 -24.862  21.820  1.00  0.00     0.211 HD
ENDBRANCH  13  14
ENDBRANCH  10  13
ENDBRANCH   9  10
ENDBRANCH   8   9
ENDBRANCH   5   8
ENDBRANCH   4   5
ENDBRANCH   2   4
ENDBRANCH   1   2
BRANCH   1  16
HETATM   16  C9  UNL     1      -6.168 -28.355  20.503  1.00  0.00     0.182 C 
BRANCH  16  17
HETATM   17  N4  UNL     1      -5.919 -27.322  19.510  1.00  0.00    -0.221 N 
ATOM     18  H4  UNL     1      -6.435 -26.446  19.583  1.00  0.00     0.178 HD
BRANCH  17  19
HETATM   19  C10 UNL     1      -5.091 -27.456  18.559  1.00  0.00     0.679 A 
HETATM   20  N5  UNL     1      -4.452 -26.396  18.055  1.00  0.00    -0.202 N 
HETATM   21  C11 UNL     1      -3.561 -26.500  17.045  1.00  0.00     0.110 A 
ATOM     22  H5  UNL     1      -4.644 -25.474  18.448  1.00  0.00     0.183 HD
HETATM   23  C12 UNL     1      -3.306 -27.750  16.520  1.00  0.00     0.066 A 
HETATM   24  C13 UNL     1      -3.957 -28.856  17.029  1.00  0.00     0.116 A 
HETATM   25  N7  UNL     1      -4.839 -28.666  18.046  1.00  0.00    -0.177 N 
ATOM     26  H7  UNL     1      -5.326 -29.475  18.432  1.00  0.00     0.185 HD
BRANCH  24  27
HETATM   27  N6  UNL     1      -3.717 -30.026  16.538  1.00  0.00    -0.385 N 
ATOM     28  H62 UNL     1      -3.019 -30.176  15.809  1.00  0.00     0.157 HD
ATOM     29  H61 UNL     1      -4.234 -30.836  16.879  1.00  0.00     0.157 HD
ENDBRANCH  24  27
ENDBRANCH  17  19
ENDBRANCH  16  17
ENDBRANCH   1  16
TORSDOF 12
ENDMDL
MODEL 4
REMARK VINA RESULT: -5.809333321      2.095      4.200
REMARK  12 active torsions:
REMARK  status: ('A' for Active; 'I' for Inactive)
REMARK    1  A    between atoms: N1_2  and  C3_4 
REMARK    2  A    between atoms: N1_2  and  C4_7 
REMARK    3  A    between atoms: C3_4  and  O1_5 
REMARK    4  A    between atoms: C4_7  and  C5_8 
REMARK    5  A    between atoms: C5_8  and  N2_9 
REMARK    6  A    between atoms: N2_9  and  C7_12 
REMARK    7  A    between atoms: C7_12  and  N3_13 
REMARK    8  A    between atoms: N3_13  and  C8_15 
REMARK    9  A    between atoms: C8_15  and  C9_16 
REMARK   10  A    between atoms: C9_16  and  N4_17 
REMARK   11  A    between atoms: N4_17  and  C10_19 
REMARK   12  A    between atoms: C13_24  and  N6_25 
ROOT
HETATM    1  C8  UNL     1      -4.898 -23.943  21.325  1.00  0.00     0.077 C 
ENDROOT
BRANCH   1   2
HETATM    2  N3  UNL     1      -5.016 -23.649  22.699  1.00  0.00    -0.372 N 
ATOM      3  H3  UNL     1      -4.203 -23.370  23.245  1.00  0.00     0.160 HD
BRANCH   2   4
HETATM    4  C7  UNL     1      -6.297 -23.753  23.300  1.00  0.00     0.434 C 
BRANCH   4   5
HETATM    5  N2  UNL     1      -6.230 -24.365  24.617  1.00  0.00     0.027 N 
HETATM    6  C6  UNL     1      -7.189 -23.740  25.521  1.00  0.00     0.358 C 
HETATM    7  O2  UNL     1      -4.947 -24.200  25.054  1.00  0.00    -0.063 OA
BRANCH   5   8
HETATM    8  C5  UNL     1      -6.484 -25.789  24.595  1.00  0.00     0.341 C 
BRANCH   8   9
HETATM    9  C4  UNL     1      -5.266 -26.463  25.185  1.00  0.00     0.275 C 
BRANCH   9  10
HETATM   10  N1  UNL     1      -4.753 -27.560  24.444  1.00  0.00    -0.052 N 
HETATM   11  C1  UNL     1      -5.366 -27.586  23.104  1.00  0.00     0.274 C 
HETATM   12  C2  UNL     1      -4.919 -28.860  25.013  1.00  0.00     0.274 C 
BRANCH  10  13
HETATM   13  C3  UNL     1      -3.331 -27.276  24.179  1.00  0.00     0.400 C 
BRANCH  13  14
HETATM   14  O1  UNL     1      -3.196 -26.076  23.480  1.00  0.00    -0.374 OA
ATOM     15  H1  UNL     1      -2.326 -25.715  23.605  1.00  0.00     0.211 HD
ENDBRANCH  13  14
ENDBRANCH  10  13
ENDBRANCH   9  10
ENDBRANCH   8   9
ENDBRANCH   5   8
ENDBRANCH   4   5
ENDBRANCH   2   4
ENDBRANCH   1   2
BRANCH   1  16
HETATM   16  C9  UNL     1      -5.995 -24.863  20.832  1.00  0.00     0.182 C 
BRANCH  16  17
HETATM   17  N4  UNL     1      -5.775 -25.040  19.405  1.00  0.00    -0.221 N 
ATOM     18  H4  UNL     1      -5.918 -24.240  18.790  1.00  0.00     0.178 HD
BRANCH  17  19
HETATM   19  C10 UNL     1      -5.414 -26.141  18.888  1.00  0.00     0.679 A 
HETATM   20  N5  UNL     1      -4.406 -26.185  18.011  1.00  0.00    -0.202 N 
HETATM   21  C11 UNL     1      -3.991 -27.338  17.442  1.00  0.00     0.110 A 
ATOM     22  H5  UNL     1      -3.933 -25.316  17.762  1.00  0.00     0.183 HD
HETATM   23  C12 UNL     1      -4.635 -28.509  17.784  1.00  0.00     0.066 A 
HETATM   24  C13 UNL     1      -5.678 -28.481  18.689  1.00  0.00     0.116 A 
HETATM   25  N7  UNL     1      -6.034 -27.280  19.217  1.00  0.00    -0.177 N 
ATOM     26  H7  UNL     1      -6.802 -27.245  19.887  1.00  0.00     0.185 HD
BRANCH  24  27
HETATM   27  N6  UNL     1      -6.280 -29.578  19.011  1.00  0.00    -0.385 N 
ATOM     28  H62 UNL     1      -5.818 -30.314  19.545  1.00  0.00     0.157 HD
ATOM     29  H61 UNL     1      -7.248 -29.728  18.729  1.00  0.00     0.157 HD
ENDBRANCH  24  27
ENDBRANCH  17  19
ENDBRANCH  16  17
ENDBRANCH   1  16
TORSDOF 12
ENDMDL
MODEL 5
REMARK VINA RESULT: -5.749769776      2.119      4.259
REMARK  12 active torsions:
REMARK  status: ('A' for Active; 'I' for Inactive)
REMARK    1  A    between atoms: N1_2  and  C3_4 
REMARK    2  A    between atoms: N1_2  and  C4_7 
REMARK    3  A    between atoms: C3_4  and  O1_5 
REMARK    4  A    between atoms: C4_7  and  C5_8 
REMARK    5  A    between atoms: C5_8  and  N2_9 
REMARK    6  A    between atoms: N2_9  and  C7_12 
REMARK    7  A    between atoms: C7_12  and  N3_13 
REMARK    8  A    between atoms: N3_13  and  C8_15 
REMARK    9  A    between atoms: C8_15  and  C9_16 
REMARK   10  A    between atoms: C9_16  and  N4_17 
REMARK   11  A    between atoms: N4_17  and  C10_19 
REMARK   12  A    between atoms: C13_24  and  N6_25 
ROOT
HETATM    1  C8  UNL     1      -5.111 -24.291  19.930  1.00  0.00     0.077 C 
ENDROOT
BRANCH   1   2
HETATM    2  N3  UNL     1      -4.652 -23.943  21.217  1.00  0.00    -0.372 N 
ATOM      3  H3  UNL     1      -3.799 -23.398  21.338  1.00  0.00     0.160 HD
BRANCH   2   4
HETATM    4  C7  UNL     1      -5.408 -24.371  22.338  1.00  0.00     0.434 C 
BRANCH   4   5
HETATM    5  N2  UNL     1      -4.697 -24.153  23.588  1.00  0.00     0.027 N 
HETATM    6  C6  UNL     1      -5.243 -23.000  24.294  1.00  0.00     0.358 C 
HETATM    7  O2  UNL     1      -3.386 -23.963  23.257  1.00  0.00    -0.063 OA
BRANCH   5   8
HETATM    8  C5  UNL     1      -4.743 -25.296  24.473  1.00  0.00     0.341 C 
BRANCH   8   9
HETATM    9  C4  UNL     1      -5.244 -26.466  23.659  1.00  0.00     0.275 C 
BRANCH   9  10
HETATM   10  N1  UNL     1      -4.399 -27.607  23.639  1.00  0.00    -0.052 N 
HETATM   11  C1  UNL     1      -4.884 -28.601  24.613  1.00  0.00     0.274 C 
HETATM   12  C2  UNL     1      -3.013 -27.390  23.906  1.00  0.00     0.274 C 
BRANCH  10  13
HETATM   13  C3  UNL     1      -4.592 -28.265  22.334  1.00  0.00     0.400 C 
BRANCH  13  14
HETATM   14  O1  UNL     1      -3.359 -28.533  21.736  1.00  0.00    -0.374 OA
ATOM     15  H1  UNL     1      -3.018 -29.366  22.038  1.00  0.00     0.211 HD
ENDBRANCH  13  14
ENDBRANCH  10  13
ENDBRANCH   9  10
ENDBRANCH   8   9
ENDBRANCH   5   8
ENDBRANCH   4   5
ENDBRANCH   2   4
ENDBRANCH   1   2
BRANCH   1  16
HETATM   16  C9  UNL     1      -5.832 -25.622  19.912  1.00  0.00     0.182 C 
BRANCH  16  17
HETATM   17  N4  UNL     1      -5.744 -26.120  18.548  1.00  0.00    -0.221 N 
ATOM     18  H4  UNL     1      -6.510 -25.914  17.907  1.00  0.00     0.178 HD
BRANCH  17  19
HETATM   19  C10 UNL     1      -4.763 -26.798  18.116  1.00  0.00     0.679 A 
HETATM   20  N5  UNL     1      -4.113 -26.430  17.008  1.00  0.00    -0.202 N 
HETATM   21  C11 UNL     1      -3.062 -27.124  16.520  1.00  0.00     0.110 A 
ATOM     22  H5  UNL     1      -4.422 -25.593  16.512  1.00  0.00     0.183 HD
HETATM   23  C12 UNL     1      -2.650 -28.253  17.195  1.00  0.00     0.066 A 
HETATM   24  C13 UNL     1      -3.309 -28.648  18.342  1.00  0.00     0.116 A 
HETATM   25  N7  UNL     1      -4.358 -27.894  18.768  1.00  0.00    -0.177 N 
ATOM     26  H7  UNL     1      -4.853 -28.174  19.614  1.00  0.00     0.185 HD
BRANCH  24  27
HETATM   27  N6  UNL     1      -2.922 -29.705  18.976  1.00  0.00    -0.385 N 
ATOM     28  H62 UNL     1      -2.540 -30.518  18.493  1.00  0.00     0.157 HD
ATOM     29  H61 UNL     1      -2.995 -29.743  19.992  1.00  0.00     0.157 HD
ENDBRANCH  24  27
ENDBRANCH  17  19
ENDBRANCH  16  17
ENDBRANCH   1  16
TORSDOF 12
ENDMDL
