MODEL 1
REMARK VINA RESULT: -5.227945224      0.000      0.000
REMARK  14 active torsions:
REMARK  status: ('A' for Active; 'I' for Inactive)
REMARK    1  A    between atoms: C3_3  and  N1_4 
REMARK    2  A    between atoms: C3_3  and  N2_7 
REMARK    3  A    between atoms: N2_7  and  C4_9 
REMARK    4  A    between atoms: C4_9  and  C5_10 
REMARK    5  A    between atoms: C5_10  and  O1_11 
REMARK    6  A    between atoms: O1_11  and  C6_12 
REMARK    7  A    between atoms: C6_12  and  C7_13 
REMARK    8  A    between atoms: C7_13  and  N3_14 
REMARK    9  A    between atoms: N3_14  and  C8_17 
REMARK   10  A    between atoms: C8_17  and  C9_18 
REMARK   11  A    between atoms: C9_18  and  C10_19 
REMARK   12  A    between atoms: C10_19  and  N4_20 
REMARK   13  A    between atoms: N4_20  and  C11_22 
REMARK   14  A    between atoms: C12_27  and  N7_28 
ROOT
HETATM    1  C1  UNL     1      -8.197 -28.673  23.806  1.00  0.00     0.021 C 
HETATM    2  C2  UNL     1      -7.504 -29.434  23.181  1.00  0.00    -0.042 C 
HETATM    3  C3  UNL     1      -6.668 -30.345  22.404  1.00  0.00     0.150 C 
ENDROOT
BRANCH   3   4
HETATM    4  N1  UNL     1      -5.502 -30.613  22.879  1.00  0.00    -0.379 N 
ATOM      5  H12 UNL     1      -4.908 -29.909  23.319  1.00  0.00     0.158 HD
ATOM      6  H11 UNL     1      -5.181 -31.578  22.797  1.00  0.00     0.158 HD
ENDBRANCH   3   4
BRANCH   3   7
HETATM    7  N2  UNL     1      -7.148 -30.894  21.189  1.00  0.00    -0.367 N 
ATOM      8  H2  UNL     1      -7.524 -31.841  21.168  1.00  0.00     0.161 HD
BRANCH   7   9
HETATM    9  C4  UNL     1      -7.100 -30.107  19.984  1.00  0.00     0.148 C 
BRANCH   9  10
HETATM   10  C5  UNL     1      -6.186 -30.782  19.000  1.00  0.00     0.187 C 
BRANCH  10  11
HETATM   11  O1  UNL     1      -5.354 -29.905  18.311  1.00  0.00    -0.388 OA
BRANCH  11  12
HETATM   12  C6  UNL     1      -4.064 -30.316  18.216  1.00  0.00     0.195 C 
BRANCH  12  13
HETATM   13  C7  UNL     1      -3.197 -29.696  19.267  1.00  0.00     0.258 C 
BRANCH  13  14
HETATM   14  N3  UNL     1      -2.319 -28.652  18.877  1.00  0.00    -0.073 N 
ATOM     15  H32 UNL     1      -2.507 -27.810  19.421  1.00  0.00     0.277 HD
ATOM     16  H31 UNL     1      -1.369 -28.853  19.188  1.00  0.00     0.277 HD
BRANCH  14  17
HETATM   17  C8  UNL     1      -2.333 -28.359  17.499  1.00  0.00     0.234 C 
BRANCH  17  18
HETATM   18  C9  UNL     1      -2.392 -26.859  17.215  1.00  0.00     0.048 C 
BRANCH  18  19
HETATM   19  C10 UNL     1      -3.758 -26.414  16.833  1.00  0.00     0.140 C 
BRANCH  19  20
HETATM   20  N4  UNL     1      -4.800 -26.928  17.672  1.00  0.00    -0.224 N 
ATOM     21  H4  UNL     1      -5.225 -27.809  17.380  1.00  0.00     0.177 HD
BRANCH  20  22
HETATM   22  C11 UNL     1      -5.253 -26.408  18.741  1.00  0.00     0.707 A 
HETATM   23  N5  UNL     1      -5.771 -25.184  18.895  1.00  0.00    -0.117 N 
HETATM   24  N6  UNL     1      -6.113 -25.060  20.171  1.00  0.00    -0.117 N 
ATOM     25  H5  UNL     1      -5.882 -24.478  18.167  1.00  0.00     0.206 HD
HETATM   26  C12 UNL     1      -5.827 -26.183  20.846  1.00  0.00     0.707 A 
ATOM     27  H6  UNL     1      -6.535 -24.227  20.581  1.00  0.00     0.206 HD
HETATM   28  N8  UNL     1      -5.292 -27.009  19.940  1.00  0.00    -0.020 N 
ATOM     29  H8  UNL     1      -4.963 -27.955  20.133  1.00  0.00     0.203 HD
BRANCH  26  30
HETATM   30  N7  UNL     1      -6.047 -26.369  22.122  1.00  0.00    -0.229 N 
HETATM   31  C13 UNL     1      -4.988 -26.699  23.018  1.00  0.00     0.165 C 
ATOM     32  H7  UNL     1      -6.997 -26.277  22.483  1.00  0.00     0.177 HD
ENDBRANCH  26  30
ENDBRANCH  20  22
ENDBRANCH  19  20
ENDBRANCH  18  19
ENDBRANCH  17  18
ENDBRANCH  14  17
ENDBRANCH  13  14
ENDBRANCH  12  13
ENDBRANCH  11  12
ENDBRANCH  10  11
ENDBRANCH   9  10
ENDBRANCH   7   9
ENDBRANCH   3   7
TORSDOF 14
ENDMDL
MODEL 2
REMARK VINA RESULT: -5.212164891      1.624      5.850
REMARK  14 active torsions:
REMARK  status: ('A' for Active; 'I' for Inactive)
REMARK    1  A    between atoms: C3_3  and  N1_4 
REMARK    2  A    between atoms: C3_3  and  N2_7 
REMARK    3  A    between atoms: N2_7  and  C4_9 
REMARK    4  A    between atoms: C4_9  and  C5_10 
REMARK    5  A    between atoms: C5_10  and  O1_11 
REMARK    6  A    between atoms: O1_11  and  C6_12 
REMARK    7  A    between atoms: C6_12  and  C7_13 
REMARK    8  A    between atoms: C7_13  and  N3_14 
REMARK    9  A    between atoms: N3_14  and  C8_17 
REMARK   10  A    between atoms: C8_17  and  C9_18 
REMARK   11  A    between atoms: C9_18  and  C10_19 
REMARK   12  A    between atoms: C10_19  and  N4_20 
REMARK   13  A    between atoms: N4_20  and  C11_22 
REMARK   14  A    between atoms: C12_27  and  N7_28 
ROOT
HETATM    1  C1  UNL     1      -0.005 -26.564  17.004  1.00  0.00     0.021 C 
HETATM    2  C2  UNL     1      -1.186 -26.771  16.893  1.00  0.00    -0.042 C 
HETATM    3  C3  UNL     1      -2.622 -27.000  16.761  1.00  0.00     0.150 C 
ENDROOT
BRANCH   3   4
HETATM    4  N1  UNL     1      -3.006 -27.731  15.773  1.00  0.00    -0.379 N 
ATOM      5  H12 UNL     1      -2.592 -27.667  14.843  1.00  0.00     0.158 HD
ATOM      6  H11 UNL     1      -3.760 -28.393  15.956  1.00  0.00     0.158 HD
ENDBRANCH   3   4
BRANCH   3   7
HETATM    7  N2  UNL     1      -3.525 -26.432  17.694  1.00  0.00    -0.367 N 
ATOM      8  H2  UNL     1      -3.316 -25.533  18.126  1.00  0.00     0.161 HD
BRANCH   7   9
HETATM    9  C4  UNL     1      -4.738 -27.132  18.027  1.00  0.00     0.148 C 
BRANCH   9  10
HETATM   10  C5  UNL     1      -4.399 -28.288  18.927  1.00  0.00     0.187 C 
BRANCH  10  11
HETATM   11  O1  UNL     1      -5.352 -28.533  19.911  1.00  0.00    -0.388 OA
BRANCH  11  12
HETATM   12  C6  UNL     1      -6.373 -29.333  19.513  1.00  0.00     0.195 C 
BRANCH  12  13
HETATM   13  C7  UNL     1      -6.537 -30.523  20.406  1.00  0.00     0.258 C 
BRANCH  13  14
HETATM   14  N3  UNL     1      -5.564 -30.738  21.416  1.00  0.00    -0.073 N 
ATOM     15  H32 UNL     1      -4.882 -31.432  21.110  1.00  0.00     0.277 HD
ATOM     16  H31 UNL     1      -4.958 -29.923  21.504  1.00  0.00     0.277 HD
BRANCH  14  17
HETATM   17  C8  UNL     1      -6.094 -31.092  22.674  1.00  0.00     0.234 C 
BRANCH  17  18
HETATM   18  C9  UNL     1      -7.522 -30.589  22.875  1.00  0.00     0.048 C 
BRANCH  18  19
HETATM   19  C10 UNL     1      -7.578 -29.405  23.772  1.00  0.00     0.140 C 
BRANCH  19  20
HETATM   20  N4  UNL     1      -7.704 -28.153  23.086  1.00  0.00    -0.224 N 
ATOM     21  H4  UNL     1      -8.654 -27.818  22.922  1.00  0.00     0.177 HD
BRANCH  20  22
HETATM   22  C11 UNL     1      -6.761 -27.412  22.658  1.00  0.00     0.707 A 
HETATM   23  N5  UNL     1      -5.452 -27.535  22.909  1.00  0.00    -0.117 N 
HETATM   24  N6  UNL     1      -4.836 -26.550  22.266  1.00  0.00    -0.117 N 
ATOM     25  H5  UNL     1      -5.011 -28.250  23.485  1.00  0.00     0.206 HD
HETATM   26  C12 UNL     1      -5.723 -25.793  21.604  1.00  0.00     0.707 A 
ATOM     27  H6  UNL     1      -3.829 -26.392  22.275  1.00  0.00     0.206 HD
HETATM   28  N8  UNL     1      -6.914 -26.344  21.861  1.00  0.00    -0.020 N 
ATOM     29  H8  UNL     1      -7.807 -26.003  21.504  1.00  0.00     0.203 HD
BRANCH  26  30
HETATM   30  N7  UNL     1      -5.424 -24.747  20.878  1.00  0.00    -0.229 N 
HETATM   31  C13 UNL     1      -4.765 -23.615  21.442  1.00  0.00     0.165 C 
ATOM     32  H7  UNL     1      -5.667 -24.741  19.887  1.00  0.00     0.177 HD
ENDBRANCH  26  30
ENDBRANCH  20  22
ENDBRANCH  19  20
ENDBRANCH  18  19
ENDBRANCH  17  18
ENDBRANCH  14  17
ENDBRANCH  13  14
ENDBRANCH  12  13
ENDBRANCH  11  12
ENDBRANCH  10  11
ENDBRANCH   9  10
ENDBRANCH   7   9
ENDBRANCH   3   7
TORSDOF 14
ENDMDL
MODEL 3
REMARK VINA RESULT: -5.206195443      2.487      5.706
REMARK  14 active torsions:
REMARK  status: ('A' for Active; 'I' for Inactive)
REMARK    1  A    between atoms: C3_3  and  N1_4 
REMARK    2  A    between atoms: C3_3  and  N2_7 
REMARK    3  A    between atoms: N2_7  and  C4_9 
REMARK    4  A    between atoms: C4_9  and  C5_10 
REMARK    5  A    between atoms: C5_10  and  O1_11 
REMARK    6  A    between atoms: O1_11  and  C6_12 
REMARK    7  A    between atoms: C6_12  and  C7_13 
REMARK    8  A    between atoms: C7_13  and  N3_14 
REMARK    9  A    between atoms: N3_14  and  C8_17 
REMARK   10  A    between atoms: C8_17  and  C9_18 
REMARK   11  A    between atoms: C9_18  and  C10_19 
REMARK   12  A    between atoms: C10_19  and  N4_20 
REMARK   13  A    between atoms: N4_20  and  C11_22 
REMARK   14  A    between atoms: C12_27  and  N7_28 
ROOT
HETATM    1  C1  UNL     1      -4.496 -23.184  21.741  1.00  0.00     0.021 C 
HETATM    2  C2  UNL     1      -4.536 -24.066  22.561  1.00  0.00    -0.042 C 
HETATM    3  C3  UNL     1      -4.606 -25.139  23.549  1.00  0.00     0.150 C 
ENDROOT
BRANCH   3   4
HETATM    4  N1  UNL     1      -3.674 -26.027  23.511  1.00  0.00    -0.379 N 
ATOM      5  H12 UNL     1      -3.044 -26.202  24.295  1.00  0.00     0.158 HD
ATOM      6  H11 UNL     1      -3.583 -26.562  22.648  1.00  0.00     0.158 HD
ENDBRANCH   3   4
BRANCH   3   7
HETATM    7  N2  UNL     1      -5.662 -25.172  24.494  1.00  0.00    -0.367 N 
ATOM      8  H2  UNL     1      -5.511 -25.579  25.417  1.00  0.00     0.161 HD
BRANCH   7   9
HETATM    9  C4  UNL     1      -6.948 -24.627  24.143  1.00  0.00     0.148 C 
BRANCH   9  10
HETATM   10  C5  UNL     1      -7.805 -25.731  23.587  1.00  0.00     0.187 C 
BRANCH  10  11
HETATM   11  O1  UNL     1      -7.571 -26.973  24.168  1.00  0.00    -0.388 OA
BRANCH  11  12
HETATM   12  C6  UNL     1      -8.477 -27.926  23.835  1.00  0.00     0.195 C 
BRANCH  12  13
HETATM   13  C7  UNL     1      -7.825 -29.234  23.510  1.00  0.00     0.258 C 
BRANCH  13  14
HETATM   14  N3  UNL     1      -7.159 -29.356  22.264  1.00  0.00    -0.073 N 
ATOM     15  H32 UNL     1      -7.501 -30.173  21.757  1.00  0.00     0.277 HD
ATOM     16  H31 UNL     1      -7.457 -28.617  21.628  1.00  0.00     0.277 HD
BRANCH  14  17
HETATM   17  C8  UNL     1      -5.752 -29.388  22.353  1.00  0.00     0.234 C 
BRANCH  17  18
HETATM   18  C9  UNL     1      -5.076 -28.482  21.326  1.00  0.00     0.048 C 
BRANCH  18  19
HETATM   19  C10 UNL     1      -5.992 -27.426  20.820  1.00  0.00     0.140 C 
BRANCH  19  20
HETATM   20  N4  UNL     1      -6.118 -27.391  19.393  1.00  0.00    -0.224 N 
ATOM     21  H4  UNL     1      -7.052 -27.551  19.015  1.00  0.00     0.177 HD
BRANCH  20  22
HETATM   22  C11 UNL     1      -5.193 -27.181  18.544  1.00  0.00     0.707 A 
HETATM   23  N5  UNL     1      -4.526 -26.040  18.333  1.00  0.00    -0.117 N 
HETATM   24  N6  UNL     1      -3.657 -26.270  17.357  1.00  0.00    -0.117 N 
ATOM     25  H5  UNL     1      -4.660 -25.160  18.829  1.00  0.00     0.206 HD
HETATM   26  C12 UNL     1      -3.749 -27.539  16.933  1.00  0.00     0.707 A 
ATOM     27  H6  UNL     1      -3.008 -25.578  16.981  1.00  0.00     0.206 HD
HETATM   28  N8  UNL     1      -4.710 -28.089  17.683  1.00  0.00    -0.020 N 
ATOM     29  H8  UNL     1      -5.029 -29.055  17.610  1.00  0.00     0.203 HD
BRANCH  26  30
HETATM   30  N7  UNL     1      -3.024 -28.068  15.981  1.00  0.00    -0.229 N 
HETATM   31  C13 UNL     1      -3.003 -29.476  15.760  1.00  0.00     0.165 C 
ATOM     32  H7  UNL     1      -2.461 -27.461  15.386  1.00  0.00     0.177 HD
ENDBRANCH  26  30
ENDBRANCH  20  22
ENDBRANCH  19  20
ENDBRANCH  18  19
ENDBRANCH  17  18
ENDBRANCH  14  17
ENDBRANCH  13  14
ENDBRANCH  12  13
ENDBRANCH  11  12
ENDBRANCH  10  11
ENDBRANCH   9  10
ENDBRANCH   7   9
ENDBRANCH   3   7
TORSDOF 14
ENDMDL
MODEL 4
REMARK VINA RESULT: -5.169229859      1.544      5.669
REMARK  14 active torsions:
REMARK  status: ('A' for Active; 'I' for Inactive)
REMARK    1  A    between atoms: C3_3  and  N1_4 
REMARK    2  A    between atoms: C3_3  and  N2_7 
REMARK    3  A    between atoms: N2_7  and  C4_9 
REMARK    4  A    between atoms: C4_9  and  C5_10 
REMARK    5  A    between atoms: C5_10  and  O1_11 
REMARK    6  A    between atoms: O1_11  and  C6_12 
REMARK    7  A    between atoms: C6_12  and  C7_13 
REMARK    8  A    between atoms: C7_13  and  N3_14 
REMARK    9  A    between atoms: N3_14  and  C8_17 
REMARK   10  A    between atoms: C8_17  and  C9_18 
REMARK   11  A    between atoms: C9_18  and  C10_19 
REMARK   12  A    between atoms: C10_19  and  N4_20 
REMARK   13  A    between atoms: N4_20  and  C11_22 
REMARK   14  A    between atoms: C12_27  and  N7_28 
ROOT
HETATM    1  C1  UNL     1      -0.044 -26.533  16.884  1.00  0.00     0.021 C 
HETATM    2  C2  UNL     1      -1.051 -27.178  17.033  1.00  0.00    -0.042 C 
HETATM    3  C3  UNL     1      -2.276 -27.948  17.231  1.00  0.00     0.150 C 
ENDROOT
BRANCH   3   4
HETATM    4  N1  UNL     1      -3.029 -28.117  16.201  1.00  0.00    -0.379 N 
ATOM      5  H12 UNL     1      -2.751 -27.839  15.259  1.00  0.00     0.158 HD
ATOM      6  H11 UNL     1      -3.940 -28.547  16.362  1.00  0.00     0.158 HD
ENDBRANCH   3   4
BRANCH   3   7
HETATM    7  N2  UNL     1      -2.591 -28.473  18.509  1.00  0.00    -0.367 N 
ATOM      8  H2  UNL     1      -2.350 -27.951  19.351  1.00  0.00     0.161 HD
BRANCH   7   9
HETATM    9  C4  UNL     1      -3.253 -29.747  18.611  1.00  0.00     0.148 C 
BRANCH   9  10
HETATM   10  C5  UNL     1      -4.527 -29.570  19.391  1.00  0.00     0.187 C 
BRANCH  10  11
HETATM   11  O1  UNL     1      -4.799 -28.248  19.731  1.00  0.00    -0.388 OA
BRANCH  11  12
HETATM   12  C6  UNL     1      -5.778 -27.670  18.990  1.00  0.00     0.195 C 
BRANCH  12  13
HETATM   13  C7  UNL     1      -5.419 -26.278  18.572  1.00  0.00     0.258 C 
BRANCH  13  14
HETATM   14  N3  UNL     1      -6.057 -25.198  19.233  1.00  0.00    -0.073 N 
ATOM     15  H32 UNL     1      -6.293 -24.463  18.566  1.00  0.00     0.277 HD
ATOM     16  H31 UNL     1      -6.994 -25.468  19.533  1.00  0.00     0.277 HD
BRANCH  14  17
HETATM   17  C8  UNL     1      -5.331 -24.662  20.317  1.00  0.00     0.234 C 
BRANCH  17  18
HETATM   18  C9  UNL     1      -6.151 -24.602  21.604  1.00  0.00     0.048 C 
BRANCH  18  19
HETATM   19  C10 UNL     1      -5.484 -25.313  22.727  1.00  0.00     0.140 C 
BRANCH  19  20
HETATM   20  N4  UNL     1      -4.844 -26.538  22.350  1.00  0.00    -0.224 N 
ATOM     21  H4  UNL     1      -3.955 -26.453  21.856  1.00  0.00     0.177 HD
BRANCH  20  22
HETATM   22  C11 UNL     1      -5.261 -27.722  22.563  1.00  0.00     0.707 A 
HETATM   23  N5  UNL     1      -4.548 -28.773  22.983  1.00  0.00    -0.117 N 
HETATM   24  N6  UNL     1      -5.379 -29.804  23.065  1.00  0.00    -0.117 N 
ATOM     25  H5  UNL     1      -3.551 -28.781  23.199  1.00  0.00     0.206 HD
HETATM   26  C12 UNL     1      -6.619 -29.438  22.707  1.00  0.00     0.707 A 
ATOM     27  H6  UNL     1      -5.114 -30.743  23.360  1.00  0.00     0.206 HD
HETATM   28  N8  UNL     1      -6.525 -28.140  22.397  1.00  0.00    -0.020 N 
ATOM     29  H8  UNL     1      -7.299 -27.556  22.082  1.00  0.00     0.203 HD
BRANCH  26  30
HETATM   30  N7  UNL     1      -7.659 -30.231  22.685  1.00  0.00    -0.229 N 
HETATM   31  C13 UNL     1      -7.538 -31.623  22.971  1.00  0.00     0.165 C 
ATOM     32  H7  UNL     1      -8.576 -29.846  22.458  1.00  0.00     0.177 HD
ENDBRANCH  26  30
ENDBRANCH  20  22
ENDBRANCH  19  20
ENDBRANCH  18  19
ENDBRANCH  17  18
ENDBRANCH  14  17
ENDBRANCH  13  14
ENDBRANCH  12  13
ENDBRANCH  11  12
ENDBRANCH  10  11
ENDBRANCH   9  10
ENDBRANCH   7   9
ENDBRANCH   3   7
TORSDOF 14
ENDMDL
MODEL 5
REMARK VINA RESULT: -5.165501596      8.465     11.372
REMARK  14 active torsions:
REMARK  status: ('A' for Active; 'I' for Inactive)
REMARK    1  A    between atoms: C3_3  and  N1_4 
REMARK    2  A    between atoms: C3_3  and  N2_7 
REMARK    3  A    between atoms: N2_7  and  C4_9 
REMARK    4  A    between atoms: C4_9  and  C5_10 
REMARK    5  A    between atoms: C5_10  and  O1_11 
REMARK    6  A    between atoms: O1_11  and  C6_12 
REMARK    7  A    between atoms: C6_12  and  C7_13 
REMARK    8  A    between atoms: C7_13  and  N3_14 
REMARK    9  A    between atoms: N3_14  and  C8_17 
REMARK   10  A    between atoms: C8_17  and  C9_18 
REMARK   11  A    between atoms: C9_18  and  C10_19 
REMARK   12  A    between atoms: C10_19  and  N4_20 
REMARK   13  A    between atoms: N4_20  and  C11_22 
REMARK   14  A    between atoms: C12_27  and  N7_28 
ROOT
HETATM    1  C1  UNL     1       3.419 -32.641   9.395  1.00  0.00     0.021 C 
HETATM    2  C2  UNL     1       2.620 -32.614  10.295  1.00  0.00    -0.042 C 
HETATM    3  C3  UNL     1       1.647 -32.604  11.384  1.00  0.00     0.150 C 
ENDROOT
BRANCH   3   4
HETATM    4  N1  UNL     1       2.011 -32.042  12.484  1.00  0.00    -0.379 N 
ATOM      5  H12 UNL     1       2.762 -31.354  12.532  1.00  0.00     0.158 HD
ATOM      6  H11 UNL     1       1.511 -32.319  13.329  1.00  0.00     0.158 HD
ENDBRANCH   3   4
BRANCH   3   7
HETATM    7  N2  UNL     1       0.369 -33.190  11.206  1.00  0.00    -0.367 N 
ATOM      8  H2  UNL     1       0.280 -34.199  11.086  1.00  0.00     0.161 HD
BRANCH   7   9
HETATM    9  C4  UNL     1      -0.803 -32.353  11.195  1.00  0.00     0.148 C 
BRANCH   9  10
HETATM   10  C5  UNL     1      -1.942 -33.123  10.587  1.00  0.00     0.187 C 
BRANCH  10  11
HETATM   11  O1  UNL     1      -2.747 -32.364   9.743  1.00  0.00    -0.388 OA
BRANCH  11  12
HETATM   12  C6  UNL     1      -3.608 -33.092   8.988  1.00  0.00     0.195 C 
BRANCH  12  13
HETATM   13  C7  UNL     1      -4.441 -32.227   8.094  1.00  0.00     0.258 C 
BRANCH  13  14
HETATM   14  N3  UNL     1      -5.839 -32.469   8.046  1.00  0.00    -0.073 N 
ATOM     15  H32 UNL     1      -6.346 -31.703   8.488  1.00  0.00     0.277 HD
ATOM     16  H31 UNL     1      -6.181 -32.377   7.089  1.00  0.00     0.277 HD
BRANCH  14  17
HETATM   17  C8  UNL     1      -6.239 -33.705   8.594  1.00  0.00     0.234 C 
BRANCH  17  18
HETATM   18  C9  UNL     1      -7.326 -33.554   9.655  1.00  0.00     0.048 C 
BRANCH  18  19
HETATM   19  C10 UNL     1      -6.787 -33.691  11.034  1.00  0.00     0.140 C 
BRANCH  19  20
HETATM   20  N4  UNL     1      -6.695 -32.456  11.755  1.00  0.00    -0.224 N 
ATOM     21  H4  UNL     1      -7.576 -32.045  12.065  1.00  0.00     0.177 HD
BRANCH  20  22
HETATM   22  C11 UNL     1      -5.637 -31.814  12.051  1.00  0.00     0.707 A 
HETATM   23  N5  UNL     1      -5.051 -30.841  11.343  1.00  0.00    -0.117 N 
HETATM   24  N6  UNL     1      -3.974 -30.459  12.019  1.00  0.00    -0.117 N 
ATOM     25  H5  UNL     1      -5.372 -30.463  10.452  1.00  0.00     0.206 HD
HETATM   26  C12 UNL     1      -3.853 -31.168  13.151  1.00  0.00     0.707 A 
ATOM     27  H6  UNL     1      -3.329 -29.728  11.719  1.00  0.00     0.206 HD
HETATM   28  N8  UNL     1      -4.895 -32.006  13.152  1.00  0.00    -0.020 N 
ATOM     29  H8  UNL     1      -5.097 -32.689  13.882  1.00  0.00     0.203 HD
BRANCH  26  30
HETATM   30  N7  UNL     1      -2.893 -31.024  14.028  1.00  0.00    -0.229 N 
HETATM   31  C13 UNL     1      -3.174 -30.688  15.385  1.00  0.00     0.165 C 
ATOM     32  H7  UNL     1      -1.925 -31.153  13.736  1.00  0.00     0.177 HD
ENDBRANCH  26  30
ENDBRANCH  20  22
ENDBRANCH  19  20
ENDBRANCH  18  19
ENDBRANCH  17  18
ENDBRANCH  14  17
ENDBRANCH  13  14
ENDBRANCH  12  13
ENDBRANCH  11  12
ENDBRANCH  10  11
ENDBRANCH   9  10
ENDBRANCH   7   9
ENDBRANCH   3   7
TORSDOF 14
ENDMDL
