MODEL 1
REMARK VINA RESULT: -8.289845435      0.000      0.000
REMARK  8 active torsions:
REMARK  status: ('A' for Active; 'I' for Inactive)
REMARK    1  A    between atoms: C1_2  and  C2_4 
REMARK    2  A    between atoms: C2_4  and  C3_5 
REMARK    3  A    between atoms: C3_5  and  C4_6 
REMARK    4  A    between atoms: C7_10  and  C8_11 
REMARK    5  A    between atoms: C8_11  and  C9_13 
REMARK    6  A    between atoms: C12_17  and  C13_18 
REMARK    7  A    between atoms: C13_18  and  O4_19 
REMARK    8  A    between atoms: C13_18  and  C14_21 
ROOT
HETATM    1  C9  UNL     1       0.474 -39.069  -8.935  1.00  0.00     0.038 A 
HETATM    2  C10 UNL     1       1.272 -39.865  -9.713  1.00  0.00     0.042 A 
HETATM    3  C11 UNL     1       1.218 -39.746 -11.116  1.00  0.00     0.048 A 
HETATM    4 CL1  UNL     1       2.257 -40.787 -12.039  1.00  0.00    -0.083 Cl
HETATM    5  C12 UNL     1       0.391 -38.861 -11.732  1.00  0.00     0.021 A 
HETATM    6  C15 UNL     1      -0.407 -38.069 -10.894  1.00  0.00     0.040 A 
HETATM    7  C16 UNL     1      -0.382 -38.153  -9.545  1.00  0.00     0.049 A 
HETATM    8 CL5  UNL     1      -1.377 -37.176  -8.469  1.00  0.00    -0.083 Cl
ENDROOT
BRANCH   1   9
HETATM    9  C8  UNL     1       0.564 -39.162  -7.496  1.00  0.00     0.195 C 
HETATM   10  O3  UNL     1       1.484 -38.432  -6.978  1.00  0.00    -0.287 OA
BRANCH   9  11
HETATM   11  C7  UNL     1      -0.294 -40.000  -6.645  1.00  0.00     0.028 A 
HETATM   12  C4  UNL     1       0.109 -40.320  -5.346  1.00  0.00    -0.003 A 
HETATM   13  S1  UNL     1      -1.179 -41.245  -4.760  1.00  0.00    -0.105 SA
HETATM   14  C5  UNL     1      -2.196 -41.228  -6.118  1.00  0.00     0.051 A 
HETATM   15  C6  UNL     1      -1.485 -40.481  -7.020  1.00  0.00     0.024 A 
BRANCH  12  16
HETATM   16  C3  UNL     1       1.400 -39.902  -4.695  1.00  0.00     0.057 C 
BRANCH  16  17
HETATM   17  C2  UNL     1       1.115 -39.494  -3.274  1.00  0.00     0.118 C 
BRANCH  17  18
HETATM   18  C1  UNL     1       1.445 -40.498  -2.259  1.00  0.00     0.172 C 
HETATM   19  O1  UNL     1       2.556 -40.368  -1.630  1.00  0.00    -0.648 OA
HETATM   20  O2  UNL     1       0.645 -41.557  -1.936  1.00  0.00    -0.648 OA
ENDBRANCH  17  18
ENDBRANCH  16  17
ENDBRANCH  12  16
ENDBRANCH   9  11
ENDBRANCH   1   9
BRANCH   5  21
HETATM   21  C13 UNL     1       0.322 -38.670 -13.154  1.00  0.00     0.109 C 
BRANCH  21  22
HETATM   22  O4  UNL     1       1.065 -37.735 -13.668  1.00  0.00    -0.360 OA
ATOM     23  H4  UNL     1       0.786 -36.836 -13.538  1.00  0.00     0.217 HD
ENDBRANCH  21  22
BRANCH  21  24
HETATM   24  C14 UNL     1      -0.488 -39.401 -14.134  1.00  0.00     0.237 C 
HETATM   25 CL2  UNL     1      -1.582 -40.549 -13.339  1.00  0.00    -0.076 Cl
HETATM   26 CL3  UNL     1      -1.485 -38.303 -15.133  1.00  0.00    -0.076 Cl
HETATM   27 CL4  UNL     1       0.647 -40.328 -15.188  1.00  0.00    -0.076 Cl
ENDBRANCH  21  24
ENDBRANCH   5  21
TORSDOF 8
ENDMDL
MODEL 2
REMARK VINA RESULT: -7.545718812      5.391     10.278
REMARK  8 active torsions:
REMARK  status: ('A' for Active; 'I' for Inactive)
REMARK    1  A    between atoms: C1_2  and  C2_4 
REMARK    2  A    between atoms: C2_4  and  C3_5 
REMARK    3  A    between atoms: C3_5  and  C4_6 
REMARK    4  A    between atoms: C7_10  and  C8_11 
REMARK    5  A    between atoms: C8_11  and  C9_13 
REMARK    6  A    between atoms: C12_17  and  C13_18 
REMARK    7  A    between atoms: C13_18  and  O4_19 
REMARK    8  A    between atoms: C13_18  and  C14_21 
ROOT
HETATM    1  C9  UNL     1       1.113 -40.072  -2.699  1.00  0.00     0.038 A 
HETATM    2  C10 UNL     1       0.998 -38.819  -2.159  1.00  0.00     0.042 A 
HETATM    3  C11 UNL     1       0.887 -38.670  -0.762  1.00  0.00     0.048 A 
HETATM    4 CL1  UNL     1       0.746 -37.052  -0.147  1.00  0.00    -0.083 Cl
HETATM    5  C12 UNL     1       0.888 -39.738   0.078  1.00  0.00     0.021 A 
HETATM    6  C15 UNL     1       1.005 -41.000  -0.522  1.00  0.00     0.040 A 
HETATM    7  C16 UNL     1       1.116 -41.183  -1.856  1.00  0.00     0.049 A 
HETATM    8 CL5  UNL     1       1.259 -42.756  -2.636  1.00  0.00    -0.083 Cl
ENDROOT
BRANCH   1   9
HETATM    9  C8  UNL     1       1.271 -40.219  -4.128  1.00  0.00     0.195 C 
HETATM   10  O3  UNL     1       2.493 -40.286  -4.517  1.00  0.00    -0.287 OA
BRANCH   9  11
HETATM   11  C7  UNL     1       0.170 -40.293  -5.099  1.00  0.00     0.028 A 
HETATM   12  C4  UNL     1       0.340 -39.779  -6.388  1.00  0.00    -0.003 A 
HETATM   13  S1  UNL     1      -1.140 -40.112  -7.133  1.00  0.00    -0.105 SA
HETATM   14  C5  UNL     1      -1.950 -40.877  -5.853  1.00  0.00     0.051 A 
HETATM   15  C6  UNL     1      -1.019 -40.852  -4.848  1.00  0.00     0.024 A 
BRANCH  12  16
HETATM   16  C3  UNL     1       1.578 -39.103  -6.912  1.00  0.00     0.057 C 
BRANCH  16  17
HETATM   17  C2  UNL     1       1.185 -38.165  -8.022  1.00  0.00     0.118 C 
BRANCH  17  18
HETATM   18  C1  UNL     1       1.159 -38.759  -9.360  1.00  0.00     0.172 C 
HETATM   19  O1  UNL     1       0.611 -38.083 -10.303  1.00  0.00    -0.648 OA
HETATM   20  O2  UNL     1       1.685 -39.981  -9.670  1.00  0.00    -0.648 OA
ENDBRANCH  17  18
ENDBRANCH  16  17
ENDBRANCH  12  16
ENDBRANCH   9  11
ENDBRANCH   1   9
BRANCH   5  21
HETATM   21  C13 UNL     1       0.816 -39.643   1.510  1.00  0.00     0.109 C 
BRANCH  21  22
HETATM   22  O4  UNL     1      -0.367 -39.555   2.043  1.00  0.00    -0.360 OA
ATOM     23  H4  UNL     1      -0.413 -39.436   2.984  1.00  0.00     0.217 HD
ENDBRANCH  21  22
BRANCH  21  24
HETATM   24  C14 UNL     1       1.915 -39.633   2.480  1.00  0.00     0.237 C 
HETATM   25 CL2  UNL     1       1.359 -40.119   4.092  1.00  0.00    -0.076 Cl
HETATM   26 CL3  UNL     1       3.240 -40.736   2.006  1.00  0.00    -0.076 Cl
HETATM   27 CL4  UNL     1       2.534 -37.939   2.574  1.00  0.00    -0.076 Cl
ENDBRANCH  21  24
ENDBRANCH   5  21
TORSDOF 8
ENDMDL
MODEL 3
REMARK VINA RESULT: -7.197332289      1.034      1.937
REMARK  8 active torsions:
REMARK  status: ('A' for Active; 'I' for Inactive)
REMARK    1  A    between atoms: C1_2  and  C2_4 
REMARK    2  A    between atoms: C2_4  and  C3_5 
REMARK    3  A    between atoms: C3_5  and  C4_6 
REMARK    4  A    between atoms: C7_10  and  C8_11 
REMARK    5  A    between atoms: C8_11  and  C9_13 
REMARK    6  A    between atoms: C12_17  and  C13_18 
REMARK    7  A    between atoms: C13_18  and  O4_19 
REMARK    8  A    between atoms: C13_18  and  C14_21 
ROOT
HETATM    1  C9  UNL     1       0.693 -38.712  -9.069  1.00  0.00     0.038 A 
HETATM    2  C10 UNL     1      -0.134 -37.724  -9.533  1.00  0.00     0.042 A 
HETATM    3  C11 UNL     1      -0.293 -37.545 -10.921  1.00  0.00     0.048 A 
HETATM    4 CL1  UNL     1      -1.358 -36.273 -11.439  1.00  0.00    -0.083 Cl
HETATM    5  C12 UNL     1       0.353 -38.324 -11.827  1.00  0.00     0.021 A 
HETATM    6  C15 UNL     1       1.190 -39.320 -11.303  1.00  0.00     0.040 A 
HETATM    7  C16 UNL     1       1.367 -39.524  -9.980  1.00  0.00     0.049 A 
HETATM    8 CL5  UNL     1       2.415 -40.763  -9.295  1.00  0.00    -0.083 Cl
ENDROOT
BRANCH   1   9
HETATM    9  C8  UNL     1       0.820 -38.921  -7.644  1.00  0.00     0.195 C 
HETATM   10  O3  UNL     1       1.818 -38.314  -7.112  1.00  0.00    -0.287 OA
BRANCH   9  11
HETATM   11  C7  UNL     1      -0.083 -39.741  -6.824  1.00  0.00     0.028 A 
HETATM   12  C4  UNL     1       0.298 -40.122  -5.534  1.00  0.00    -0.003 A 
HETATM   13  S1  UNL     1      -1.037 -41.001  -4.982  1.00  0.00    -0.105 SA
HETATM   14  C5  UNL     1      -2.046 -40.889  -6.342  1.00  0.00     0.051 A 
HETATM   15  C6  UNL     1      -1.295 -40.150  -7.218  1.00  0.00     0.024 A 
BRANCH  12  16
HETATM   16  C3  UNL     1       1.605 -39.791  -4.867  1.00  0.00     0.057 C 
BRANCH  16  17
HETATM   17  C2  UNL     1       1.798 -40.715  -3.694  1.00  0.00     0.118 C 
BRANCH  17  18
HETATM   18  C1  UNL     1       1.702 -40.081  -2.378  1.00  0.00     0.172 C 
HETATM   19  O1  UNL     1       2.261 -40.674  -1.386  1.00  0.00    -0.648 OA
HETATM   20  O2  UNL     1       1.061 -38.898  -2.138  1.00  0.00    -0.648 OA
ENDBRANCH  17  18
ENDBRANCH  16  17
ENDBRANCH  12  16
ENDBRANCH   9  11
ENDBRANCH   1   9
BRANCH   5  21
HETATM   21  C13 UNL     1       0.199 -38.212 -13.251  1.00  0.00     0.109 C 
BRANCH  21  22
HETATM   22  O4  UNL     1       0.853 -37.259 -13.848  1.00  0.00    -0.360 OA
ATOM     23  H4  UNL     1       0.837 -37.248 -14.798  1.00  0.00     0.217 HD
ENDBRANCH  21  22
BRANCH  21  24
HETATM   24  C14 UNL     1      -0.611 -39.040 -14.149  1.00  0.00     0.237 C 
HETATM   25 CL2  UNL     1      -1.599 -40.200 -13.242  1.00  0.00    -0.076 Cl
HETATM   26 CL3  UNL     1      -1.713 -38.058 -15.157  1.00  0.00    -0.076 Cl
HETATM   27 CL4  UNL     1       0.528 -39.961 -15.206  1.00  0.00    -0.076 Cl
ENDBRANCH  21  24
ENDBRANCH   5  21
TORSDOF 8
ENDMDL
MODEL 4
REMARK VINA RESULT: -7.143002265      3.540      8.552
REMARK  8 active torsions:
REMARK  status: ('A' for Active; 'I' for Inactive)
REMARK    1  A    between atoms: C1_2  and  C2_4 
REMARK    2  A    between atoms: C2_4  and  C3_5 
REMARK    3  A    between atoms: C3_5  and  C4_6 
REMARK    4  A    between atoms: C7_10  and  C8_11 
REMARK    5  A    between atoms: C8_11  and  C9_13 
REMARK    6  A    between atoms: C12_17  and  C13_18 
REMARK    7  A    between atoms: C13_18  and  O4_19 
REMARK    8  A    between atoms: C13_18  and  C14_21 
ROOT
HETATM    1  C9  UNL     1      -0.153 -39.845  -9.643  1.00  0.00     0.038 A 
HETATM    2  C10 UNL     1      -1.094 -40.512  -8.905  1.00  0.00     0.042 A 
HETATM    3  C11 UNL     1      -1.027 -40.479  -7.498  1.00  0.00     0.048 A 
HETATM    4 CL1  UNL     1      -2.254 -41.346  -6.626  1.00  0.00    -0.083 Cl
HETATM    5  C12 UNL     1      -0.050 -39.803  -6.839  1.00  0.00     0.021 A 
HETATM    6  C15 UNL     1       0.892 -39.138  -7.637  1.00  0.00     0.040 A 
HETATM    7  C16 UNL     1       0.860 -39.145  -8.988  1.00  0.00     0.049 A 
HETATM    8 CL5  UNL     1       2.031 -38.324 -10.015  1.00  0.00    -0.083 Cl
ENDROOT
BRANCH   1   9
HETATM    9  C8  UNL     1      -0.250 -39.844 -11.084  1.00  0.00     0.195 C 
HETATM   10  O3  UNL     1      -0.818 -38.801 -11.572  1.00  0.00    -0.287 OA
BRANCH   9  11
HETATM   11  C7  UNL     1       0.241 -40.912 -11.968  1.00  0.00     0.028 A 
HETATM   12  C4  UNL     1      -0.232 -41.005 -13.280  1.00  0.00    -0.003 A 
HETATM   13  S1  UNL     1       0.619 -42.327 -13.902  1.00  0.00    -0.105 SA
HETATM   14  C5  UNL     1       1.544 -42.749 -12.543  1.00  0.00     0.051 A 
HETATM   15  C6  UNL     1       1.154 -41.822 -11.612  1.00  0.00     0.024 A 
BRANCH  12  16
HETATM   16  C3  UNL     1      -1.257 -40.105 -13.914  1.00  0.00     0.057 C 
BRANCH  16  17
HETATM   17  C2  UNL     1      -0.573 -39.239 -14.938  1.00  0.00     0.118 C 
BRANCH  17  18
HETATM   18  C1  UNL     1      -1.385 -38.143 -15.471  1.00  0.00     0.172 C 
HETATM   19  O1  UNL     1      -2.649 -38.336 -15.582  1.00  0.00    -0.648 OA
HETATM   20  O2  UNL     1      -0.887 -36.929 -15.850  1.00  0.00    -0.648 OA
ENDBRANCH  17  18
ENDBRANCH  16  17
ENDBRANCH  12  16
ENDBRANCH   9  11
ENDBRANCH   1   9
BRANCH   5  21
HETATM   21  C13 UNL     1       0.046 -39.704  -5.409  1.00  0.00     0.109 C 
BRANCH  21  22
HETATM   22  O4  UNL     1      -0.867 -39.010  -4.796  1.00  0.00    -0.360 OA
ATOM     23  H4  UNL     1      -0.827 -38.978  -3.848  1.00  0.00     0.217 HD
ENDBRANCH  21  22
BRANCH  21  24
HETATM   24  C14 UNL     1       1.053 -40.291  -4.520  1.00  0.00     0.237 C 
HETATM   25 CL2  UNL     1       1.245 -39.333  -3.040  1.00  0.00    -0.076 Cl
HETATM   26 CL3  UNL     1       0.632 -41.960  -4.036  1.00  0.00    -0.076 Cl
HETATM   27 CL4  UNL     1       2.624 -40.290  -5.410  1.00  0.00    -0.076 Cl
ENDBRANCH  21  24
ENDBRANCH   5  21
TORSDOF 8
ENDMDL
MODEL 5
REMARK VINA RESULT: -6.980914924      3.431      8.371
REMARK  8 active torsions:
REMARK  status: ('A' for Active; 'I' for Inactive)
REMARK    1  A    between atoms: C1_2  and  C2_4 
REMARK    2  A    between atoms: C2_4  and  C3_5 
REMARK    3  A    between atoms: C3_5  and  C4_6 
REMARK    4  A    between atoms: C7_10  and  C8_11 
REMARK    5  A    between atoms: C8_11  and  C9_13 
REMARK    6  A    between atoms: C12_17  and  C13_18 
REMARK    7  A    between atoms: C13_18  and  O4_19 
REMARK    8  A    between atoms: C13_18  and  C14_21 
ROOT
HETATM    1  C9  UNL     1      -0.178 -39.845  -9.663  1.00  0.00     0.038 A 
HETATM    2  C10 UNL     1      -1.114 -40.511  -8.917  1.00  0.00     0.042 A 
HETATM    3  C11 UNL     1      -1.030 -40.486  -7.511  1.00  0.00     0.048 A 
HETATM    4 CL1  UNL     1      -2.252 -41.352  -6.630  1.00  0.00    -0.083 Cl
HETATM    5  C12 UNL     1      -0.041 -39.821  -6.860  1.00  0.00     0.021 A 
HETATM    6  C15 UNL     1       0.895 -39.157  -7.666  1.00  0.00     0.040 A 
HETATM    7  C16 UNL     1       0.848 -39.156  -9.016  1.00  0.00     0.049 A 
HETATM    8 CL5  UNL     1       2.012 -38.336 -10.053  1.00  0.00    -0.083 Cl
ENDROOT
BRANCH   1   9
HETATM    9  C8  UNL     1      -0.292 -39.836 -11.103  1.00  0.00     0.195 C 
HETATM   10  O3  UNL     1      -0.903 -38.810 -11.575  1.00  0.00    -0.287 OA
BRANCH   9  11
HETATM   11  C7  UNL     1       0.227 -40.878 -12.002  1.00  0.00     0.028 A 
HETATM   12  C4  UNL     1      -0.191 -40.922 -13.335  1.00  0.00    -0.003 A 
HETATM   13  S1  UNL     1       0.673 -42.230 -13.966  1.00  0.00    -0.105 SA
HETATM   14  C5  UNL     1       1.537 -42.707 -12.585  1.00  0.00     0.051 A 
HETATM   15  C6  UNL     1       1.116 -41.809 -11.640  1.00  0.00     0.024 A 
BRANCH  12  16
HETATM   16  C3  UNL     1      -1.181 -39.990 -13.980  1.00  0.00     0.057 C 
BRANCH  16  17
HETATM   17  C2  UNL     1      -0.501 -39.271 -15.115  1.00  0.00     0.118 C 
BRANCH  17  18
HETATM   18  C1  UNL     1      -0.125 -37.883 -14.838  1.00  0.00     0.172 C 
HETATM   19  O1  UNL     1      -0.779 -36.956 -15.440  1.00  0.00    -0.648 OA
HETATM   20  O2  UNL     1       0.869 -37.511 -13.979  1.00  0.00    -0.648 OA
ENDBRANCH  17  18
ENDBRANCH  16  17
ENDBRANCH  12  16
ENDBRANCH   9  11
ENDBRANCH   1   9
BRANCH   5  21
HETATM   21  C13 UNL     1       0.072 -39.731  -5.431  1.00  0.00     0.109 C 
BRANCH  21  22
HETATM   22  O4  UNL     1      -0.846 -39.059  -4.801  1.00  0.00    -0.360 OA
ATOM     23  H4  UNL     1      -0.555 -38.403  -4.178  1.00  0.00     0.217 HD
ENDBRANCH  21  22
BRANCH  21  24
HETATM   24  C14 UNL     1       1.102 -40.305  -4.560  1.00  0.00     0.237 C 
HETATM   25 CL2  UNL     1       0.706 -41.971  -4.102  1.00  0.00    -0.076 Cl
HETATM   26 CL3  UNL     1       2.710 -40.324  -5.343  1.00  0.00    -0.076 Cl
HETATM   27 CL4  UNL     1       1.163 -39.298  -3.062  1.00  0.00    -0.076 Cl
ENDBRANCH  21  24
ENDBRANCH   5  21
TORSDOF 8
ENDMDL
