MODEL 1
REMARK VINA RESULT: -3.286095671      0.000      0.000
REMARK  6 active torsions:
REMARK  status: ('A' for Active; 'I' for Inactive)
REMARK    1  A    between atoms: C2_2  and  C3_3 
REMARK    2  A    between atoms: C3_3  and  N1_4 
REMARK    3  A    between atoms: C7_12  and  S1_13 
REMARK    4  A    between atoms: S1_13  and  C8_14 
REMARK    5  A    between atoms: N4_22  and  C15_23 
REMARK    6  A    between atoms: C15_23  and  C16_24 
ROOT
HETATM    1  N1  UNL     1       0.871 -39.314  -8.181  1.00  0.00    -0.334 N 
HETATM    2  C4  UNL     1      -0.509 -39.418  -8.094  1.00  0.00     0.100 A 
HETATM    3  N2  UNL     1      -1.135 -39.405  -6.949  1.00  0.00    -0.387 N 
ATOM      4  H21 UNL     1      -2.151 -39.482  -6.885  1.00  0.00     0.157 HD
ATOM      5  H22 UNL     1      -0.555 -39.285  -6.118  1.00  0.00     0.157 HD
HETATM    6  C5  UNL     1      -1.354 -39.593  -9.303  1.00  0.00     0.201 A 
HETATM    7  C6  UNL     1      -2.047 -38.267  -9.402  1.00  0.00     0.077 C 
HETATM    8  N3  UNL     1      -2.573 -37.217  -9.462  1.00  0.00    -0.196 NA
HETATM    9  C7  UNL     1      -0.644 -39.792 -10.567  1.00  0.00     0.032 A 
HETATM   10  C10 UNL     1       0.708 -39.730 -10.688  1.00  0.00     0.078 A 
HETATM   11  C11 UNL     1       1.462 -39.480  -9.472  1.00  0.00     0.064 A 
HETATM   12  C12 UNL     1       2.751 -39.469  -9.770  1.00  0.00     0.052 A 
HETATM   13  C13 UNL     1       2.921 -39.689 -11.207  1.00  0.00     0.131 A 
HETATM   14  C14 UNL     1       3.886 -38.787 -11.877  1.00  0.00     0.061 C 
HETATM   15 CL1  UNL     1       3.645 -41.355 -11.346  1.00  0.00    -0.091 Cl
HETATM   16  N4  UNL     1       1.601 -39.781 -11.801  1.00  0.00    -0.327 N 
ENDROOT
BRANCH   9  17
HETATM   17  S1  UNL     1      -1.530 -40.297 -12.015  1.00  0.00    -0.130 SA
BRANCH  17  18
HETATM   18  C8  UNL     1      -1.464 -41.986 -12.495  1.00  0.00     0.075 C 
HETATM   19  C9  UNL     1      -0.156 -42.554 -12.935  1.00  0.00     0.016 C 
ENDBRANCH  17  18
ENDBRANCH   9  17
BRANCH   1  20
HETATM   20  C3  UNL     1       1.677 -39.003  -7.013  1.00  0.00     0.130 C 
BRANCH  20  21
HETATM   21  C2  UNL     1       2.124 -40.248  -6.267  1.00  0.00     0.016 C 
HETATM   22  C1  UNL     1       1.596 -40.123  -4.854  1.00  0.00     0.006 C 
ENDBRANCH  20  21
ENDBRANCH   1  20
BRANCH  16  23
HETATM   23  C15 UNL     1       1.310 -39.879 -13.165  1.00  0.00     0.111 C 
BRANCH  23  24
HETATM   24  C16 UNL     1       0.447 -38.942 -13.856  1.00  0.00     0.060 A 
HETATM   25  C17 UNL     1      -0.004 -39.386 -15.118  1.00  0.00     0.131 A 
HETATM   26  F1  UNL     1       0.378 -40.634 -15.558  1.00  0.00    -0.205 F 
HETATM   27  C18 UNL     1      -0.807 -38.636 -15.933  1.00  0.00     0.046 A 
HETATM   28  C19 UNL     1      -1.203 -37.388 -15.522  1.00  0.00     0.048 A 
HETATM   29  C20 UNL     1      -0.795 -36.901 -14.302  1.00  0.00     0.155 A 
HETATM   30  F2  UNL     1      -1.157 -35.679 -13.850  1.00  0.00    -0.203 F 
HETATM   31  C21 UNL     1       0.019 -37.696 -13.506  1.00  0.00     0.169 A 
HETATM   32  F3  UNL     1       0.406 -37.197 -12.328  1.00  0.00    -0.202 F 
ENDBRANCH  23  24
ENDBRANCH  16  23
TORSDOF 6
ENDMDL
MODEL 2
REMARK VINA RESULT: -3.096363532      0.725      1.662
REMARK  6 active torsions:
REMARK  status: ('A' for Active; 'I' for Inactive)
REMARK    1  A    between atoms: C2_2  and  C3_3 
REMARK    2  A    between atoms: C3_3  and  N1_4 
REMARK    3  A    between atoms: C7_12  and  S1_13 
REMARK    4  A    between atoms: S1_13  and  C8_14 
REMARK    5  A    between atoms: N4_22  and  C15_23 
REMARK    6  A    between atoms: C15_23  and  C16_24 
ROOT
HETATM    1  N1  UNL     1       0.860 -39.185  -8.246  1.00  0.00    -0.334 N 
HETATM    2  C4  UNL     1      -0.517 -39.337  -8.161  1.00  0.00     0.100 A 
HETATM    3  N2  UNL     1      -1.145 -39.341  -7.017  1.00  0.00    -0.387 N 
ATOM      4  H21 UNL     1      -2.157 -39.453  -6.954  1.00  0.00     0.157 HD
ATOM      5  H22 UNL     1      -0.571 -39.197  -6.186  1.00  0.00     0.157 HD
HETATM    6  C5  UNL     1      -1.352 -39.546  -9.371  1.00  0.00     0.201 A 
HETATM    7  C6  UNL     1      -2.091 -38.246  -9.477  1.00  0.00     0.077 C 
HETATM    8  N3  UNL     1      -2.652 -37.214  -9.542  1.00  0.00    -0.196 NA
HETATM    9  C7  UNL     1      -0.633 -39.726 -10.632  1.00  0.00     0.032 A 
HETATM   10  C10 UNL     1       0.715 -39.617 -10.751  1.00  0.00     0.078 A 
HETATM   11  C11 UNL     1       1.458 -39.336  -9.536  1.00  0.00     0.064 A 
HETATM   12  C12 UNL     1       2.747 -39.282  -9.831  1.00  0.00     0.052 A 
HETATM   13  C13 UNL     1       2.926 -39.502 -11.267  1.00  0.00     0.131 A 
HETATM   14  C14 UNL     1       3.861 -38.570 -11.939  1.00  0.00     0.061 C 
HETATM   15 CL1  UNL     1       3.708 -41.142 -11.397  1.00  0.00    -0.091 Cl
HETATM   16  N4  UNL     1       1.612 -39.642 -11.863  1.00  0.00    -0.327 N 
ENDROOT
BRANCH   9  17
HETATM   17  S1  UNL     1      -1.499 -40.267 -12.080  1.00  0.00    -0.130 SA
BRANCH  17  18
HETATM   18  C8  UNL     1      -1.431 -41.969 -12.513  1.00  0.00     0.075 C 
HETATM   19  C9  UNL     1      -0.121 -42.551 -12.927  1.00  0.00     0.016 C 
ENDBRANCH  17  18
ENDBRANCH   9  17
BRANCH   1  20
HETATM   20  C3  UNL     1       1.652 -38.842  -7.078  1.00  0.00     0.130 C 
BRANCH  20  21
HETATM   21  C2  UNL     1       2.181 -40.067  -6.354  1.00  0.00     0.016 C 
HETATM   22  C1  UNL     1       1.611 -40.026  -4.953  1.00  0.00     0.006 C 
ENDBRANCH  20  21
ENDBRANCH   1  20
BRANCH  16  23
HETATM   23  C15 UNL     1       1.327 -39.756 -13.227  1.00  0.00     0.111 C 
BRANCH  23  24
HETATM   24  C16 UNL     1       0.360 -38.915 -13.902  1.00  0.00     0.060 A 
HETATM   25  C17 UNL     1       0.326 -37.579 -13.442  1.00  0.00     0.131 A 
HETATM   26  F1  UNL     1       1.198 -37.199 -12.447  1.00  0.00    -0.205 F 
HETATM   27  C18 UNL     1      -0.535 -36.638 -13.936  1.00  0.00     0.046 A 
HETATM   28  C19 UNL     1      -1.416 -36.989 -14.929  1.00  0.00     0.048 A 
HETATM   29  C20 UNL     1      -1.429 -38.274 -15.417  1.00  0.00     0.155 A 
HETATM   30  F2  UNL     1      -2.277 -38.671 -16.394  1.00  0.00    -0.203 F 
HETATM   31  C21 UNL     1      -0.539 -39.198 -14.887  1.00  0.00     0.169 A 
HETATM   32  F3  UNL     1      -0.577 -40.442 -15.376  1.00  0.00    -0.202 F 
ENDBRANCH  23  24
ENDBRANCH  16  23
TORSDOF 6
ENDMDL
MODEL 3
REMARK VINA RESULT: -2.924917716      3.157      6.780
REMARK  6 active torsions:
REMARK  status: ('A' for Active; 'I' for Inactive)
REMARK    1  A    between atoms: C2_2  and  C3_3 
REMARK    2  A    between atoms: C3_3  and  N1_4 
REMARK    3  A    between atoms: C7_12  and  S1_13 
REMARK    4  A    between atoms: S1_13  and  C8_14 
REMARK    5  A    between atoms: N4_22  and  C15_23 
REMARK    6  A    between atoms: C15_23  and  C16_24 
ROOT
HETATM    1  N1  UNL     1      -1.343 -38.223 -13.897  1.00  0.00    -0.334 N 
HETATM    2  C4  UNL     1      -1.396 -39.484 -14.473  1.00  0.00     0.100 A 
HETATM    3  N2  UNL     1      -1.966 -39.695 -15.629  1.00  0.00    -0.387 N 
ATOM      4  H21 UNL     1      -2.005 -40.622 -16.053  1.00  0.00     0.157 HD
ATOM      5  H22 UNL     1      -2.347 -38.874 -16.101  1.00  0.00     0.157 HD
HETATM    6  C5  UNL     1      -0.842 -40.678 -13.786  1.00  0.00     0.201 A 
HETATM    7  C6  UNL     1       0.366 -40.992 -14.616  1.00  0.00     0.077 C 
HETATM    8  N3  UNL     1       1.312 -41.213 -15.279  1.00  0.00    -0.196 NA
HETATM    9  C7  UNL     1      -0.371 -40.476 -12.415  1.00  0.00     0.032 A 
HETATM   10  C10 UNL     1      -0.332 -39.264 -11.804  1.00  0.00     0.078 A 
HETATM   11  C11 UNL     1      -0.821 -38.131 -12.569  1.00  0.00     0.064 A 
HETATM   12  C12 UNL     1      -0.728 -37.044 -11.820  1.00  0.00     0.052 A 
HETATM   13  C13 UNL     1      -0.148 -37.396 -10.522  1.00  0.00     0.131 A 
HETATM   14  C14 UNL     1       0.914 -36.485 -10.035  1.00  0.00     0.061 C 
HETATM   15 CL1  UNL     1      -1.516 -37.217  -9.332  1.00  0.00    -0.091 Cl
HETATM   16  N4  UNL     1       0.172 -38.809 -10.548  1.00  0.00    -0.327 N 
ENDROOT
BRANCH   9  17
HETATM   17  S1  UNL     1       0.038 -41.870 -11.401  1.00  0.00    -0.130 SA
BRANCH  17  18
HETATM   18  C8  UNL     1       1.470 -42.808 -11.799  1.00  0.00     0.075 C 
HETATM   19  C9  UNL     1       2.766 -42.092 -11.981  1.00  0.00     0.016 C 
ENDBRANCH  17  18
ENDBRANCH   9  17
BRANCH   1  20
HETATM   20  C3  UNL     1      -1.758 -37.042 -14.632  1.00  0.00     0.130 C 
BRANCH  20  21
HETATM   21  C2  UNL     1      -0.858 -36.750 -15.820  1.00  0.00     0.016 C 
HETATM   22  C1  UNL     1       0.496 -37.346 -15.498  1.00  0.00     0.006 C 
ENDBRANCH  20  21
ENDBRANCH   1  20
BRANCH  16  23
HETATM   23  C15 UNL     1       0.842 -39.526  -9.551  1.00  0.00     0.111 C 
BRANCH  23  24
HETATM   24  C16 UNL     1       0.321 -39.683  -8.209  1.00  0.00     0.060 A 
HETATM   25  C17 UNL     1       1.090 -39.050  -7.207  1.00  0.00     0.131 A 
HETATM   26  F1  UNL     1       2.213 -38.345  -7.579  1.00  0.00    -0.205 F 
HETATM   27  C18 UNL     1       0.777 -39.103  -5.877  1.00  0.00     0.046 A 
HETATM   28  C19 UNL     1      -0.336 -39.799  -5.476  1.00  0.00     0.048 A 
HETATM   29  C20 UNL     1      -1.124 -40.435  -6.405  1.00  0.00     0.155 A 
HETATM   30  F2  UNL     1      -2.231 -41.134  -6.063  1.00  0.00    -0.203 F 
HETATM   31  C21 UNL     1      -0.770 -40.357  -7.745  1.00  0.00     0.169 A 
HETATM   32  F3  UNL     1      -1.550 -40.989  -8.628  1.00  0.00    -0.202 F 
ENDBRANCH  23  24
ENDBRANCH  16  23
TORSDOF 6
ENDMDL
MODEL 4
REMARK VINA RESULT: -2.855006434      3.471      6.952
REMARK  6 active torsions:
REMARK  status: ('A' for Active; 'I' for Inactive)
REMARK    1  A    between atoms: C2_2  and  C3_3 
REMARK    2  A    between atoms: C3_3  and  N1_4 
REMARK    3  A    between atoms: C7_12  and  S1_13 
REMARK    4  A    between atoms: S1_13  and  C8_14 
REMARK    5  A    between atoms: N4_22  and  C15_23 
REMARK    6  A    between atoms: C15_23  and  C16_24 
ROOT
HETATM    1  N1  UNL     1       1.975 -39.706 -11.459  1.00  0.00    -0.334 N 
HETATM    2  C4  UNL     1       0.881 -39.364 -12.241  1.00  0.00     0.100 A 
HETATM    3  N2  UNL     1       0.949 -39.308 -13.543  1.00  0.00    -0.387 N 
ATOM      4  H21 UNL     1       0.144 -39.058 -14.118  1.00  0.00     0.157 HD
ATOM      5  H22 UNL     1       1.846 -39.558 -13.960  1.00  0.00     0.157 HD
HETATM    6  C5  UNL     1      -0.425 -39.001 -11.634  1.00  0.00     0.201 A 
HETATM    7  C6  UNL     1      -1.281 -40.180 -11.988  1.00  0.00     0.077 C 
HETATM    8  N3  UNL     1      -1.929 -41.119 -12.272  1.00  0.00    -0.196 NA
HETATM    9  C7  UNL     1      -0.452 -38.883 -10.176  1.00  0.00     0.032 A 
HETATM   10  C10 UNL     1       0.607 -39.177  -9.378  1.00  0.00     0.078 A 
HETATM   11  C11 UNL     1       1.827 -39.599 -10.041  1.00  0.00     0.064 A 
HETATM   12  C12 UNL     1       2.751 -39.825  -9.121  1.00  0.00     0.052 A 
HETATM   13  C13 UNL     1       2.184 -39.586  -7.793  1.00  0.00     0.131 A 
HETATM   14  C14 UNL     1       2.494 -40.618  -6.777  1.00  0.00     0.061 C 
HETATM   15 CL1  UNL     1       2.999 -38.069  -7.199  1.00  0.00    -0.091 Cl
HETATM   16  N4  UNL     1       0.786 -39.243  -7.963  1.00  0.00    -0.327 N 
ENDROOT
BRANCH   9  17
HETATM   17  S1  UNL     1      -1.862 -38.179  -9.367  1.00  0.00    -0.130 SA
BRANCH  17  18
HETATM   18  C8  UNL     1      -1.906 -36.440  -9.116  1.00  0.00     0.075 C 
HETATM   19  C9  UNL     1      -1.034 -35.573  -9.962  1.00  0.00     0.016 C 
ENDBRANCH  17  18
ENDBRANCH   9  17
BRANCH   1  20
HETATM   20  C3  UNL     1       3.204 -40.195 -12.059  1.00  0.00     0.130 C 
BRANCH  20  21
HETATM   21  C2  UNL     1       3.461 -41.659 -11.747  1.00  0.00     0.016 C 
HETATM   22  C1  UNL     1       2.390 -42.452 -12.465  1.00  0.00     0.006 C 
ENDBRANCH  20  21
ENDBRANCH   1  20
BRANCH  16  23
HETATM   23  C15 UNL     1      -0.150 -39.046  -6.943  1.00  0.00     0.111 C 
BRANCH  23  24
HETATM   24  C16 UNL     1      -0.296 -39.952  -5.822  1.00  0.00     0.060 A 
HETATM   25  C17 UNL     1      -1.254 -40.972  -6.017  1.00  0.00     0.131 A 
HETATM   26  F1  UNL     1      -1.925 -41.031  -7.218  1.00  0.00    -0.205 F 
HETATM   27  C18 UNL     1      -1.554 -41.910  -5.068  1.00  0.00     0.046 A 
HETATM   28  C19 UNL     1      -0.902 -41.875  -3.860  1.00  0.00     0.048 A 
HETATM   29  C20 UNL     1       0.041 -40.907  -3.612  1.00  0.00     0.155 A 
HETATM   30  F2  UNL     1       0.712 -40.829  -2.440  1.00  0.00    -0.203 F 
HETATM   31  C21 UNL     1       0.315 -39.974  -4.603  1.00  0.00     0.169 A 
HETATM   32  F3  UNL     1       1.232 -39.039  -4.335  1.00  0.00    -0.202 F 
ENDBRANCH  23  24
ENDBRANCH  16  23
TORSDOF 6
ENDMDL
MODEL 5
REMARK VINA RESULT: -2.759652658      2.957      6.155
REMARK  6 active torsions:
REMARK  status: ('A' for Active; 'I' for Inactive)
REMARK    1  A    between atoms: C2_2  and  C3_3 
REMARK    2  A    between atoms: C3_3  and  N1_4 
REMARK    3  A    between atoms: C7_12  and  S1_13 
REMARK    4  A    between atoms: S1_13  and  C8_14 
REMARK    5  A    between atoms: N4_22  and  C15_23 
REMARK    6  A    between atoms: C15_23  and  C16_24 
ROOT
HETATM    1  N1  UNL     1       0.885 -42.419 -13.708  1.00  0.00    -0.334 N 
HETATM    2  C4  UNL     1       1.539 -42.815 -12.550  1.00  0.00     0.100 A 
HETATM    3  N2  UNL     1       1.846 -44.063 -12.320  1.00  0.00    -0.387 N 
ATOM      4  H21 UNL     1       2.327 -44.355 -11.469  1.00  0.00     0.157 HD
ATOM      5  H22 UNL     1       1.603 -44.731 -13.052  1.00  0.00     0.157 HD
HETATM    6  C5  UNL     1       1.892 -41.843 -11.485  1.00  0.00     0.201 A 
HETATM    7  C6  UNL     1       3.385 -41.768 -11.603  1.00  0.00     0.077 C 
HETATM    8  N3  UNL     1       4.554 -41.722 -11.720  1.00  0.00    -0.196 NA
HETATM    9  C7  UNL     1       1.387 -40.481 -11.657  1.00  0.00     0.032 A 
HETATM   10  C10 UNL     1       0.715 -40.062 -12.760  1.00  0.00     0.078 A 
HETATM   11  C11 UNL     1       0.473 -41.052 -13.794  1.00  0.00     0.064 A 
HETATM   12  C12 UNL     1      -0.202 -40.481 -14.778  1.00  0.00     0.052 A 
HETATM   13  C13 UNL     1      -0.426 -39.070 -14.458  1.00  0.00     0.131 A 
HETATM   14  C14 UNL     1      -0.165 -38.120 -15.564  1.00  0.00     0.061 C 
HETATM   15 CL1  UNL     1      -2.213 -38.940 -14.128  1.00  0.00    -0.091 Cl
HETATM   16  N4  UNL     1       0.231 -38.791 -13.196  1.00  0.00    -0.327 N 
ENDROOT
BRANCH   9  17
HETATM   17  S1  UNL     1       1.494 -39.317 -10.325  1.00  0.00    -0.130 SA
BRANCH  17  18
HETATM   18  C8  UNL     1       1.107 -39.862  -8.700  1.00  0.00     0.075 C 
HETATM   19  C9  UNL     1       1.073 -38.857  -7.598  1.00  0.00     0.016 C 
ENDBRANCH  17  18
ENDBRANCH   9  17
BRANCH   1  20
HETATM   20  C3  UNL     1       0.669 -43.347 -14.805  1.00  0.00     0.130 C 
BRANCH  20  21
HETATM   21  C2  UNL     1       1.844 -43.395 -15.765  1.00  0.00     0.016 C 
HETATM   22  C1  UNL     1       1.289 -43.129 -17.148  1.00  0.00     0.006 C 
ENDBRANCH  20  21
ENDBRANCH   1  20
BRANCH  16  23
HETATM   23  C15 UNL     1       0.355 -37.540 -12.584  1.00  0.00     0.111 C 
BRANCH  23  24
HETATM   24  C16 UNL     1      -0.381 -37.169 -11.393  1.00  0.00     0.060 A 
HETATM   25  C17 UNL     1      -0.200 -35.827 -10.989  1.00  0.00     0.131 A 
HETATM   26  F1  UNL     1       0.609 -35.010 -11.746  1.00  0.00    -0.205 F 
HETATM   27  C18 UNL     1      -0.791 -35.294  -9.876  1.00  0.00     0.046 A 
HETATM   28  C19 UNL     1      -1.602 -36.085  -9.102  1.00  0.00     0.048 A 
HETATM   29  C20 UNL     1      -1.816 -37.399  -9.445  1.00  0.00     0.155 A 
HETATM   30  F2  UNL     1      -2.606 -38.221  -8.716  1.00  0.00    -0.203 F 
HETATM   31  C21 UNL     1      -1.197 -37.901 -10.582  1.00  0.00     0.169 A 
HETATM   32  F3  UNL     1      -1.417 -39.183 -10.890  1.00  0.00    -0.202 F 
ENDBRANCH  23  24
ENDBRANCH  16  23
TORSDOF 6
ENDMDL
