MODEL 1
REMARK VINA RESULT: -10.185313573      0.000      0.000
REMARK  6 active torsions:
REMARK  status: ('A' for Active; 'I' for Inactive)
REMARK    1  A    between atoms: C7_10  and  C8_11 
REMARK    2  A    between atoms: N1_14  and  C11_15 
REMARK    3  A    between atoms: C11_15  and  C12_16 
REMARK    4  A    between atoms: C12_16  and  C13_17 
REMARK    5  A    between atoms: C13_17  and  O1_18 
REMARK    6  A    between atoms: O1_18  and  C14_19 
ROOT
HETATM    1  C8  UNL     1       0.518 -39.154  -9.230  1.00  0.00    -0.064 C 
HETATM    2  C9  UNL     1      -0.737 -39.795  -8.596  1.00  0.00     0.065 C 
HETATM    3  C10 UNL     1      -0.833 -39.308  -7.109  1.00  0.00     0.276 C 
HETATM    4  N1  UNL     1       0.286 -39.886  -6.464  1.00  0.00     0.089 N 
HETATM    5  C18 UNL     1       1.434 -39.177  -6.905  1.00  0.00     0.276 C 
HETATM    6  C19 UNL     1       1.280 -38.420  -8.224  1.00  0.00     0.065 C 
ENDROOT
BRANCH   4   7
HETATM    7  C11 UNL     1       0.235 -39.815  -5.027  1.00  0.00     0.274 C 
BRANCH   7   8
HETATM    8  C12 UNL     1       1.475 -40.210  -4.300  1.00  0.00     0.057 C 
BRANCH   8   9
HETATM    9  C13 UNL     1       1.328 -40.214  -2.817  1.00  0.00     0.179 C 
BRANCH   9  10
HETATM   10  O1  UNL     1       1.156 -38.988  -2.211  1.00  0.00    -0.336 OA
BRANCH  10  11
HETATM   11  C14 UNL     1       1.198 -38.569  -0.923  1.00  0.00     0.149 A 
HETATM   12  C15 UNL     1       0.894 -39.358   0.150  1.00  0.00     0.130 A 
HETATM   13  C16 UNL     1       0.960 -38.872   1.430  1.00  0.00     0.251 A 
HETATM   14  O2  UNL     1       0.688 -39.581   2.437  1.00  0.00    -0.268 OA
HETATM   15  N2  UNL     1       1.328 -37.602   1.630  1.00  0.00    -0.299 N 
HETATM   16  C17 UNL     1       1.622 -36.840   0.558  1.00  0.00     0.183 A 
ATOM     17  H2  UNL     1       1.384 -37.218   2.574  1.00  0.00     0.171 HD
HETATM   18 CL4  UNL     1       2.092 -35.181   0.869  1.00  0.00    -0.045 Cl
HETATM   19  N3  UNL     1       1.571 -37.273  -0.703  1.00  0.00    -0.313 N 
ATOM     20  H3  UNL     1       1.804 -36.654  -1.480  1.00  0.00     0.170 HD
ENDBRANCH  10  11
ENDBRANCH   9  10
ENDBRANCH   8   9
ENDBRANCH   7   8
ENDBRANCH   4   7
BRANCH   1  21
HETATM   21  C7  UNL     1       0.191 -38.653 -10.533  1.00  0.00    -0.004 A 
HETATM   22  C2  UNL     1      -0.358 -37.387 -10.761  1.00  0.00    -0.048 A 
HETATM   23  C1  UNL     1      -0.657 -36.461  -9.681  1.00  0.00     0.049 C 
HETATM   24  C3  UNL     1      -0.589 -37.018 -12.086  1.00  0.00     0.033 A 
HETATM   25  C4  UNL     1      -0.315 -37.810 -13.169  1.00  0.00     0.058 A 
HETATM   26 CL1  UNL     1      -0.668 -37.212 -14.787  1.00  0.00    -0.082 Cl
HETATM   27  C5  UNL     1       0.226 -39.050 -12.955  1.00  0.00     0.078 A 
HETATM   28 CL2  UNL     1       0.579 -40.075 -14.326  1.00  0.00    -0.081 Cl
HETATM   29  C6  UNL     1       0.470 -39.446 -11.662  1.00  0.00     0.068 A 
HETATM   30 CL3  UNL     1       1.325 -40.988 -11.564  1.00  0.00    -0.082 Cl
ENDBRANCH   1  21
TORSDOF 6
ENDMDL
MODEL 2
REMARK VINA RESULT: -10.108649715      0.569      1.052
REMARK  6 active torsions:
REMARK  status: ('A' for Active; 'I' for Inactive)
REMARK    1  A    between atoms: C7_10  and  C8_11 
REMARK    2  A    between atoms: N1_14  and  C11_15 
REMARK    3  A    between atoms: C11_15  and  C12_16 
REMARK    4  A    between atoms: C12_16  and  C13_17 
REMARK    5  A    between atoms: C13_17  and  O1_18 
REMARK    6  A    between atoms: O1_18  and  C14_19 
ROOT
HETATM    1  C8  UNL     1      -0.225 -38.539  -8.956  1.00  0.00    -0.064 C 
HETATM    2  C9  UNL     1       1.188 -38.256  -8.398  1.00  0.00     0.065 C 
HETATM    3  C10 UNL     1       1.589 -39.449  -7.464  1.00  0.00     0.276 C 
HETATM    4  N1  UNL     1       0.698 -39.369  -6.369  1.00  0.00     0.089 N 
HETATM    5  C18 UNL     1      -0.572 -39.805  -6.830  1.00  0.00     0.276 C 
HETATM    6  C19 UNL     1      -0.786 -39.739  -8.342  1.00  0.00     0.065 C 
ENDROOT
BRANCH   4   7
HETATM    7  C11 UNL     1       1.076 -40.187  -5.246  1.00  0.00     0.274 C 
BRANCH   7   8
HETATM    8  C12 UNL     1       0.351 -39.933  -3.968  1.00  0.00     0.057 C 
BRANCH   8   9
HETATM    9  C13 UNL     1       1.248 -39.774  -2.788  1.00  0.00     0.179 C 
BRANCH   9  10
HETATM   10  O1  UNL     1       1.117 -38.607  -2.067  1.00  0.00    -0.336 OA
BRANCH  10  11
HETATM   11  C14 UNL     1       1.194 -38.312  -0.746  1.00  0.00     0.149 A 
HETATM   12  C15 UNL     1       0.877 -39.186   0.255  1.00  0.00     0.130 A 
HETATM   13  C16 UNL     1       0.981 -38.824   1.573  1.00  0.00     0.251 A 
HETATM   14  O2  UNL     1       0.696 -39.614   2.515  1.00  0.00    -0.268 OA
HETATM   15  N2  UNL     1       1.399 -37.593   1.883  1.00  0.00    -0.299 N 
HETATM   16  C17 UNL     1       1.706 -36.746   0.880  1.00  0.00     0.183 A 
ATOM     17  H2  UNL     1       1.484 -37.301   2.857  1.00  0.00     0.171 HD
HETATM   18 CL4  UNL     1       2.244 -35.141   1.336  1.00  0.00    -0.045 Cl
HETATM   19  N3  UNL     1       1.620 -37.057  -0.413  1.00  0.00    -0.313 N 
ATOM     20  H3  UNL     1       1.864 -36.377  -1.134  1.00  0.00     0.170 HD
ENDBRANCH  10  11
ENDBRANCH   9  10
ENDBRANCH   8   9
ENDBRANCH   7   8
ENDBRANCH   4   7
BRANCH   1  21
HETATM   21  C7  UNL     1      -0.248 -38.253 -10.361  1.00  0.00    -0.004 A 
HETATM   22  C2  UNL     1      -0.569 -36.999 -10.892  1.00  0.00    -0.048 A 
HETATM   23  C1  UNL     1      -0.921 -35.866 -10.053  1.00  0.00     0.049 C 
HETATM   24  C3  UNL     1      -0.512 -36.857 -12.279  1.00  0.00     0.033 A 
HETATM   25  C4  UNL     1      -0.165 -37.858 -13.146  1.00  0.00     0.058 A 
HETATM   26 CL1  UNL     1      -0.145 -37.533 -14.875  1.00  0.00    -0.082 Cl
HETATM   27  C5  UNL     1       0.153 -39.088 -12.634  1.00  0.00     0.078 A 
HETATM   28 CL2  UNL     1       0.595 -40.378 -13.728  1.00  0.00    -0.081 Cl
HETATM   29  C6  UNL     1       0.111 -39.265 -11.272  1.00  0.00     0.068 A 
HETATM   30 CL3  UNL     1       0.714 -40.844 -10.763  1.00  0.00    -0.082 Cl
ENDBRANCH   1  21
TORSDOF 6
ENDMDL
MODEL 3
REMARK VINA RESULT: -10.059975210      1.740      2.319
REMARK  6 active torsions:
REMARK  status: ('A' for Active; 'I' for Inactive)
REMARK    1  A    between atoms: C7_10  and  C8_11 
REMARK    2  A    between atoms: N1_14  and  C11_15 
REMARK    3  A    between atoms: C11_15  and  C12_16 
REMARK    4  A    between atoms: C12_16  and  C13_17 
REMARK    5  A    between atoms: C13_17  and  O1_18 
REMARK    6  A    between atoms: O1_18  and  C14_19 
ROOT
HETATM    1  C8  UNL     1       0.823 -39.385  -8.508  1.00  0.00    -0.064 C 
HETATM    2  C9  UNL     1      -0.482 -40.036  -7.997  1.00  0.00     0.065 C 
HETATM    3  C10 UNL     1      -0.729 -39.545  -6.530  1.00  0.00     0.276 C 
HETATM    4  N1  UNL     1       0.327 -40.108  -5.775  1.00  0.00     0.089 N 
HETATM    5  C18 UNL     1       1.506 -39.390  -6.104  1.00  0.00     0.276 C 
HETATM    6  C19 UNL     1       1.475 -38.639  -7.435  1.00  0.00     0.065 C 
ENDROOT
BRANCH   4   7
HETATM    7  C11 UNL     1       0.134 -40.033  -4.351  1.00  0.00     0.274 C 
BRANCH   7   8
HETATM    8  C12 UNL     1       1.340 -39.711  -3.535  1.00  0.00     0.057 C 
BRANCH   8   9
HETATM    9  C13 UNL     1       1.033 -39.365  -2.118  1.00  0.00     0.179 C 
BRANCH   9  10
HETATM   10  O1  UNL     1       1.631 -38.228  -1.618  1.00  0.00    -0.336 OA
BRANCH  10  11
HETATM   11  C14 UNL     1       1.451 -37.498  -0.491  1.00  0.00     0.149 A 
HETATM   12  C15 UNL     1       0.322 -37.539   0.278  1.00  0.00     0.130 A 
HETATM   13  C16 UNL     1       0.207 -36.775   1.411  1.00  0.00     0.251 A 
HETATM   14  O2  UNL     1      -0.824 -36.798   2.138  1.00  0.00    -0.268 OA
HETATM   15  N2  UNL     1       1.217 -35.975   1.768  1.00  0.00    -0.299 N 
HETATM   16  C17 UNL     1       2.321 -35.949   0.995  1.00  0.00     0.183 A 
ATOM     17  H2  UNL     1       1.154 -35.398   2.606  1.00  0.00     0.171 HD
HETATM   18 CL4  UNL     1       3.616 -34.881   1.499  1.00  0.00    -0.045 Cl
HETATM   19  N3  UNL     1       2.475 -36.675  -0.113  1.00  0.00    -0.313 N 
ATOM     20  H3  UNL     1       3.333 -36.617  -0.664  1.00  0.00     0.170 HD
ENDBRANCH  10  11
ENDBRANCH   9  10
ENDBRANCH   8   9
ENDBRANCH   7   8
ENDBRANCH   4   7
BRANCH   1  21
HETATM   21  C7  UNL     1       0.620 -38.892  -9.840  1.00  0.00    -0.004 A 
HETATM   22  C2  UNL     1       1.133 -39.514 -10.982  1.00  0.00    -0.048 A 
HETATM   23  C1  UNL     1       1.934 -40.725 -10.917  1.00  0.00     0.049 C 
HETATM   24  C3  UNL     1       0.822 -38.943 -12.217  1.00  0.00     0.033 A 
HETATM   25  C4  UNL     1       0.052 -37.822 -12.379  1.00  0.00     0.058 A 
HETATM   26 CL1  UNL     1      -0.250 -37.211 -14.002  1.00  0.00    -0.082 Cl
HETATM   27  C5  UNL     1      -0.456 -37.209 -11.265  1.00  0.00     0.078 A 
HETATM   28 CL2  UNL     1      -1.438 -35.775 -11.455  1.00  0.00    -0.081 Cl
HETATM   29  C6  UNL     1      -0.173 -37.745 -10.032  1.00  0.00     0.068 A 
HETATM   30 CL3  UNL     1      -1.041 -36.946  -8.718  1.00  0.00    -0.082 Cl
ENDBRANCH   1  21
TORSDOF 6
ENDMDL
MODEL 4
REMARK VINA RESULT: -10.031993792      1.382      1.622
REMARK  6 active torsions:
REMARK  status: ('A' for Active; 'I' for Inactive)
REMARK    1  A    between atoms: C7_10  and  C8_11 
REMARK    2  A    between atoms: N1_14  and  C11_15 
REMARK    3  A    between atoms: C11_15  and  C12_16 
REMARK    4  A    between atoms: C12_16  and  C13_17 
REMARK    5  A    between atoms: C13_17  and  O1_18 
REMARK    6  A    between atoms: O1_18  and  C14_19 
ROOT
HETATM    1  C8  UNL     1       0.526 -39.188  -9.208  1.00  0.00    -0.064 C 
HETATM    2  C9  UNL     1      -0.741 -39.759  -8.533  1.00  0.00     0.065 C 
HETATM    3  C10 UNL     1      -0.769 -39.259  -7.048  1.00  0.00     0.276 C 
HETATM    4  N1  UNL     1       0.337 -39.890  -6.431  1.00  0.00     0.089 N 
HETATM    5  C18 UNL     1       1.507 -39.245  -6.910  1.00  0.00     0.276 C 
HETATM    6  C19 UNL     1       1.355 -38.489  -8.229  1.00  0.00     0.065 C 
ENDROOT
BRANCH   4   7
HETATM    7  C11 UNL     1       0.332 -39.809  -4.994  1.00  0.00     0.274 C 
BRANCH   7   8
HETATM    8  C12 UNL     1       0.680 -41.058  -4.258  1.00  0.00     0.057 C 
BRANCH   8   9
HETATM    9  C13 UNL     1       1.436 -40.822  -2.995  1.00  0.00     0.179 C 
BRANCH   9  10
HETATM   10  O1  UNL     1       0.708 -40.364  -1.918  1.00  0.00    -0.336 OA
BRANCH  10  11
HETATM   11  C14 UNL     1       0.943 -39.435  -0.960  1.00  0.00     0.149 A 
HETATM   12  C15 UNL     1       1.285 -38.137  -1.217  1.00  0.00     0.130 A 
HETATM   13  C16 UNL     1       1.507 -37.246  -0.199  1.00  0.00     0.251 A 
HETATM   14  O2  UNL     1       1.820 -36.043  -0.411  1.00  0.00    -0.268 OA
HETATM   15  N2  UNL     1       1.388 -37.657   1.068  1.00  0.00    -0.299 N 
HETATM   16  C17 UNL     1       1.051 -38.941   1.300  1.00  0.00     0.183 A 
ATOM     17  H2  UNL     1       1.548 -37.012   1.842  1.00  0.00     0.171 HD
HETATM   18 CL4  UNL     1       0.913 -39.434   2.976  1.00  0.00    -0.045 Cl
HETATM   19  N3  UNL     1       0.827 -39.840   0.340  1.00  0.00    -0.313 N 
ATOM     20  H3  UNL     1       0.575 -40.802   0.570  1.00  0.00     0.170 HD
ENDBRANCH  10  11
ENDBRANCH   9  10
ENDBRANCH   8   9
ENDBRANCH   7   8
ENDBRANCH   4   7
BRANCH   1  21
HETATM   21  C7  UNL     1       0.187 -38.678 -10.505  1.00  0.00    -0.004 A 
HETATM   22  C2  UNL     1      -0.357 -37.408 -10.720  1.00  0.00    -0.048 A 
HETATM   23  C1  UNL     1      -0.639 -36.487  -9.632  1.00  0.00     0.049 C 
HETATM   24  C3  UNL     1      -0.601 -37.031 -12.041  1.00  0.00     0.033 A 
HETATM   25  C4  UNL     1      -0.342 -37.819 -13.131  1.00  0.00     0.058 A 
HETATM   26 CL1  UNL     1      -0.710 -37.210 -14.741  1.00  0.00    -0.082 Cl
HETATM   27  C5  UNL     1       0.194 -39.063 -12.929  1.00  0.00     0.078 A 
HETATM   28 CL2  UNL     1       0.527 -40.081 -14.309  1.00  0.00    -0.081 Cl
HETATM   29  C6  UNL     1       0.450 -39.467 -11.640  1.00  0.00     0.068 A 
HETATM   30 CL3  UNL     1       1.298 -41.014 -11.560  1.00  0.00    -0.082 Cl
ENDBRANCH   1  21
TORSDOF 6
ENDMDL
MODEL 5
REMARK VINA RESULT: -10.003726421      2.049      2.656
REMARK  6 active torsions:
REMARK  status: ('A' for Active; 'I' for Inactive)
REMARK    1  A    between atoms: C7_10  and  C8_11 
REMARK    2  A    between atoms: N1_14  and  C11_15 
REMARK    3  A    between atoms: C11_15  and  C12_16 
REMARK    4  A    between atoms: C12_16  and  C13_17 
REMARK    5  A    between atoms: C13_17  and  O1_18 
REMARK    6  A    between atoms: O1_18  and  C14_19 
ROOT
HETATM    1  C8  UNL     1       0.787 -39.432  -8.601  1.00  0.00    -0.064 C 
HETATM    2  C9  UNL     1      -0.526 -40.070  -8.092  1.00  0.00     0.065 C 
HETATM    3  C10 UNL     1      -0.762 -39.588  -6.619  1.00  0.00     0.276 C 
HETATM    4  N1  UNL     1       0.288 -40.173  -5.873  1.00  0.00     0.089 N 
HETATM    5  C18 UNL     1       1.476 -39.468  -6.199  1.00  0.00     0.276 C 
HETATM    6  C19 UNL     1       1.453 -38.705  -7.523  1.00  0.00     0.065 C 
ENDROOT
BRANCH   4   7
HETATM    7  C11 UNL     1       0.100 -40.107  -4.447  1.00  0.00     0.274 C 
BRANCH   7   8
HETATM    8  C12 UNL     1       1.320 -39.849  -3.629  1.00  0.00     0.057 C 
BRANCH   8   9
HETATM    9  C13 UNL     1       1.036 -39.591  -2.189  1.00  0.00     0.179 C 
BRANCH   9  10
HETATM   10  O1  UNL     1       1.669 -38.507  -1.620  1.00  0.00    -0.336 OA
BRANCH  10  11
HETATM   11  C14 UNL     1       1.359 -37.679  -0.594  1.00  0.00     0.149 A 
HETATM   12  C15 UNL     1       2.063 -36.552  -0.276  1.00  0.00     0.130 A 
HETATM   13  C16 UNL     1       1.692 -35.755   0.775  1.00  0.00     0.251 A 
HETATM   14  O2  UNL     1       2.325 -34.708   1.086  1.00  0.00    -0.268 OA
HETATM   15  N2  UNL     1       0.622 -36.088   1.504  1.00  0.00    -0.299 N 
HETATM   16  C17 UNL     1      -0.059 -37.204   1.175  1.00  0.00     0.183 A 
ATOM     17  H2  UNL     1       0.327 -35.510   2.291  1.00  0.00     0.171 HD
HETATM   18 CL4  UNL     1      -1.451 -37.603   2.162  1.00  0.00    -0.045 Cl
HETATM   19  N3  UNL     1       0.267 -38.007   0.161  1.00  0.00    -0.313 N 
ATOM     20  H3  UNL     1      -0.282 -38.842  -0.045  1.00  0.00     0.170 HD
ENDBRANCH  10  11
ENDBRANCH   9  10
ENDBRANCH   8   9
ENDBRANCH   7   8
ENDBRANCH   4   7
BRANCH   1  21
HETATM   21  C7  UNL     1       0.587 -38.925  -9.927  1.00  0.00    -0.004 A 
HETATM   22  C2  UNL     1       1.086 -39.545 -11.077  1.00  0.00    -0.048 A 
HETATM   23  C1  UNL     1       1.868 -40.769 -11.025  1.00  0.00     0.049 C 
HETATM   24  C3  UNL     1       0.780 -38.959 -12.305  1.00  0.00     0.033 A 
HETATM   25  C4  UNL     1       0.028 -37.824 -12.455  1.00  0.00     0.058 A 
HETATM   26 CL1  UNL     1      -0.270 -37.194 -14.072  1.00  0.00    -0.082 Cl
HETATM   27  C5  UNL     1      -0.466 -37.212 -11.334  1.00  0.00     0.078 A 
HETATM   28 CL2  UNL     1      -1.425 -35.761 -11.508  1.00  0.00    -0.081 Cl
HETATM   29  C6  UNL     1      -0.187 -37.763 -10.107  1.00  0.00     0.068 A 
HETATM   30 CL3  UNL     1      -1.038 -36.962  -8.783  1.00  0.00    -0.082 Cl
ENDBRANCH   1  21
TORSDOF 6
ENDMDL
