MODEL 1
REMARK VINA RESULT: -8.429066515      0.000      0.000
REMARK  6 active torsions:
REMARK  status: ('A' for Active; 'I' for Inactive)
REMARK    1  A    between atoms: C2_2  and  O1_3 
REMARK    2  A    between atoms: O1_3  and  N1_4 
REMARK    3  A    between atoms: C3_6  and  C4_7 
REMARK    4  A    between atoms: C3_6  and  C17_26 
REMARK    5  A    between atoms: C8_12  and  C9_13 
REMARK       I    between atoms: C9_13  and  N2_15 
REMARK    6  A    between atoms: N2_15  and  C10_17 
ROOT
HETATM    1  C10 UNL     1       0.208 -39.995  -4.897  1.00  0.00     0.125 C 
HETATM    2  C11 UNL     1       1.583 -40.026  -5.462  1.00  0.00     0.091 C 
HETATM    3  N3  UNL     1       2.652 -40.071  -5.900  1.00  0.00    -0.195 NA
HETATM    4  C12 UNL     1      -0.458 -41.319  -5.098  1.00  0.00     0.049 C 
HETATM    5  C13 UNL     1      -1.599 -41.147  -6.068  1.00  0.00     0.041 C 
HETATM    6  C14 UNL     1      -1.232 -39.911  -6.829  1.00  0.00     0.173 C 
HETATM    7  F1  UNL     1      -0.369 -40.149  -7.853  1.00  0.00    -0.249 F 
HETATM    8  C15 UNL     1      -0.609 -39.049  -5.751  1.00  0.00     0.084 C 
ENDROOT
BRANCH   1   9
HETATM    9  N2  UNL     1       0.312 -39.598  -3.531  1.00  0.00    -0.335 N 
HETATM   10  C9  UNL     1       0.902 -40.382  -2.507  1.00  0.00     0.254 C 
HETATM   11  O2  UNL     1       1.367 -41.505  -2.825  1.00  0.00    -0.268 OA
ATOM     12  H2  UNL     1      -0.065 -38.686  -3.272  1.00  0.00     0.164 HD
BRANCH  10  13
HETATM   13  C8  UNL     1       1.003 -39.972  -1.126  1.00  0.00     0.054 A 
HETATM   14  C7  UNL     1       1.735 -40.746  -0.240  1.00  0.00     0.049 A 
HETATM   15  C6  UNL     1       1.863 -40.403   1.082  1.00  0.00     0.026 A 
HETATM   16 CL1  UNL     1       2.551 -42.224  -0.764  1.00  0.00    -0.083 Cl
HETATM   17  C5  UNL     1       1.256 -39.254   1.590  1.00  0.00     0.015 A 
HETATM   18  C4  UNL     1       0.527 -38.472   0.737  1.00  0.00    -0.010 A 
HETATM   19  C16 UNL     1       0.418 -38.849  -0.594  1.00  0.00     0.032 A 
BRANCH  18  20
HETATM   20  C3  UNL     1      -0.097 -37.262   1.236  1.00  0.00     0.046 C 
HETATM   21  N1  UNL     1      -1.222 -37.199   1.737  1.00  0.00    -0.270 N 
ATOM     22  H1  UNL     1      -1.407 -36.231   1.998  1.00  0.00     0.194 HD
BRANCH  21  23
HETATM   23  O1  UNL     1      -2.262 -37.919   2.056  1.00  0.00    -0.281 OA
BRANCH  23  24
HETATM   24  C2  UNL     1      -2.399 -38.887   3.058  1.00  0.00     0.196 C 
HETATM   25  C1  UNL     1      -3.689 -38.670   3.813  1.00  0.00     0.036 C 
ENDBRANCH  23  24
ENDBRANCH  21  23
BRANCH  20  26
HETATM   26  C17 UNL     1       0.694 -35.974   1.094  1.00  0.00     0.039 C 
HETATM   27  C18 UNL     1       1.859 -36.198   0.126  1.00  0.00     0.017 C 
HETATM   28  C19 UNL     1       2.700 -34.967   0.101  1.00  0.00     0.080 C 
HETATM   29  C20 UNL     1       3.400 -34.816   1.436  1.00  0.00     0.243 C 
HETATM   30  F2  UNL     1       4.753 -34.992   1.303  1.00  0.00    -0.206 F 
HETATM   31  F3  UNL     1       3.177 -33.516   1.854  1.00  0.00    -0.206 F 
HETATM   32  C21 UNL     1       2.799 -35.765   2.460  1.00  0.00     0.080 C 
HETATM   33  C22 UNL     1       1.313 -35.596   2.440  1.00  0.00     0.017 C 
ENDBRANCH  20  26
ENDBRANCH  18  20
ENDBRANCH  10  13
ENDBRANCH   1   9
TORSDOF 6
ENDMDL
MODEL 2
REMARK VINA RESULT: -8.161177712      6.280     12.563
REMARK  6 active torsions:
REMARK  status: ('A' for Active; 'I' for Inactive)
REMARK    1  A    between atoms: C2_2  and  O1_3 
REMARK    2  A    between atoms: O1_3  and  N1_4 
REMARK    3  A    between atoms: C3_6  and  C4_7 
REMARK    4  A    between atoms: C3_6  and  C17_26 
REMARK    5  A    between atoms: C8_12  and  C9_13 
REMARK       I    between atoms: C9_13  and  N2_15 
REMARK    6  A    between atoms: N2_15  and  C10_17 
ROOT
HETATM    1  C10 UNL     1      -0.238 -39.970  -6.326  1.00  0.00     0.125 C 
HETATM    2  C11 UNL     1      -1.324 -40.923  -5.979  1.00  0.00     0.091 C 
HETATM    3  N3  UNL     1      -2.157 -41.681  -5.712  1.00  0.00    -0.195 NA
HETATM    4  C12 UNL     1       1.094 -40.631  -6.165  1.00  0.00     0.049 C 
HETATM    5  C13 UNL     1       1.828 -39.975  -5.024  1.00  0.00     0.041 C 
HETATM    6  C14 UNL     1       0.733 -39.369  -4.202  1.00  0.00     0.173 C 
HETATM    7  F1  UNL     1       0.151 -40.253  -3.348  1.00  0.00    -0.249 F 
HETATM    8  C15 UNL     1      -0.231 -38.889  -5.266  1.00  0.00     0.084 C 
ENDROOT
BRANCH   1   9
HETATM    9  N2  UNL     1      -0.492 -39.488  -7.644  1.00  0.00    -0.335 N 
HETATM   10  C9  UNL     1       0.386 -38.650  -8.379  1.00  0.00     0.254 C 
HETATM   11  O2  UNL     1       1.463 -38.309  -7.830  1.00  0.00    -0.268 OA
ATOM     12  H2  UNL     1      -1.367 -39.766  -8.090  1.00  0.00     0.164 HD
BRANCH  10  13
HETATM   13  C8  UNL     1       0.119 -38.166  -9.713  1.00  0.00     0.054 A 
HETATM   14  C7  UNL     1      -0.522 -36.949  -9.878  1.00  0.00     0.049 A 
HETATM   15  C6  UNL     1      -0.800 -36.443 -11.122  1.00  0.00     0.026 A 
HETATM   16 CL1  UNL     1      -1.020 -35.974  -8.489  1.00  0.00    -0.083 Cl
HETATM   17  C5  UNL     1      -0.446 -37.138 -12.278  1.00  0.00     0.015 A 
HETATM   18  C4  UNL     1       0.188 -38.342 -12.144  1.00  0.00    -0.010 A 
HETATM   19  C16 UNL     1       0.453 -38.825 -10.871  1.00  0.00     0.032 A 
BRANCH  18  20
HETATM   20  C3  UNL     1       0.585 -39.076 -13.331  1.00  0.00     0.046 C 
HETATM   21  N1  UNL     1       0.596 -38.618 -14.476  1.00  0.00    -0.270 N 
ATOM     22  H1  UNL     1       0.915 -39.347 -15.113  1.00  0.00     0.194 HD
BRANCH  21  23
HETATM   23  O1  UNL     1       0.347 -37.542 -15.170  1.00  0.00    -0.281 OA
BRANCH  23  24
HETATM   24  C2  UNL     1      -0.775 -37.224 -15.945  1.00  0.00     0.196 C 
HETATM   25  C1  UNL     1      -1.909 -38.169 -15.625  1.00  0.00     0.036 C 
ENDBRANCH  23  24
ENDBRANCH  21  23
BRANCH  20  26
HETATM   26  C17 UNL     1       0.986 -40.527 -13.138  1.00  0.00     0.039 C 
HETATM   27  C18 UNL     1       0.813 -41.282 -14.459  1.00  0.00     0.017 C 
HETATM   28  C19 UNL     1       1.084 -42.729 -14.218  1.00  0.00     0.080 C 
HETATM   29  C20 UNL     1      -0.023 -43.304 -13.358  1.00  0.00     0.243 C 
HETATM   30  F2  UNL     1      -0.778 -44.202 -14.065  1.00  0.00    -0.206 F 
HETATM   31  F3  UNL     1       0.596 -43.987 -12.326  1.00  0.00    -0.206 F 
HETATM   32  C21 UNL     1      -0.867 -42.189 -12.765  1.00  0.00     0.080 C 
HETATM   33  C22 UNL     1       0.049 -41.193 -12.129  1.00  0.00     0.017 C 
ENDBRANCH  20  26
ENDBRANCH  18  20
ENDBRANCH  10  13
ENDBRANCH   1   9
TORSDOF 6
ENDMDL
MODEL 3
REMARK VINA RESULT: -7.967649940      1.452      1.918
REMARK  6 active torsions:
REMARK  status: ('A' for Active; 'I' for Inactive)
REMARK    1  A    between atoms: C2_2  and  O1_3 
REMARK    2  A    between atoms: O1_3  and  N1_4 
REMARK    3  A    between atoms: C3_6  and  C4_7 
REMARK    4  A    between atoms: C3_6  and  C17_26 
REMARK    5  A    between atoms: C8_12  and  C9_13 
REMARK       I    between atoms: C9_13  and  N2_15 
REMARK    6  A    between atoms: N2_15  and  C10_17 
ROOT
HETATM    1  C10 UNL     1      -0.426 -39.825  -5.960  1.00  0.00     0.125 C 
HETATM    2  C11 UNL     1      -1.414 -40.873  -6.330  1.00  0.00     0.091 C 
HETATM    3  N3  UNL     1      -2.196 -41.674  -6.623  1.00  0.00    -0.195 NA
HETATM    4  C12 UNL     1      -0.809 -38.519  -6.580  1.00  0.00     0.049 C 
HETATM    5  C13 UNL     1       0.224 -38.149  -7.612  1.00  0.00     0.041 C 
HETATM    6  C14 UNL     1       0.846 -39.462  -7.976  1.00  0.00     0.173 C 
HETATM    7  F1  UNL     1       0.133 -40.153  -8.906  1.00  0.00    -0.249 F 
HETATM    8  C15 UNL     1       0.879 -40.176  -6.641  1.00  0.00     0.084 C 
ENDROOT
BRANCH   1   9
HETATM    9  N2  UNL     1      -0.346 -39.792  -4.536  1.00  0.00    -0.335 N 
HETATM   10  C9  UNL     1       0.865 -39.766  -3.798  1.00  0.00     0.254 C 
HETATM   11  O2  UNL     1       1.942 -39.770  -4.443  1.00  0.00    -0.268 OA
ATOM     12  H2  UNL     1      -1.221 -39.787  -4.012  1.00  0.00     0.164 HD
BRANCH  10  13
HETATM   13  C8  UNL     1       0.936 -39.733  -2.356  1.00  0.00     0.054 A 
HETATM   14  C7  UNL     1       1.320 -40.873  -1.670  1.00  0.00     0.049 A 
HETATM   15  C6  UNL     1       1.404 -40.897  -0.301  1.00  0.00     0.026 A 
HETATM   16 CL1  UNL     1       1.726 -42.369  -2.522  1.00  0.00    -0.083 Cl
HETATM   17  C5  UNL     1       1.105 -39.767   0.459  1.00  0.00     0.015 A 
HETATM   18  C4  UNL     1       0.723 -38.627  -0.193  1.00  0.00    -0.010 A 
HETATM   19  C16 UNL     1       0.648 -38.638  -1.578  1.00  0.00     0.032 A 
BRANCH  18  20
HETATM   20  C3  UNL     1       0.425 -37.432   0.573  1.00  0.00     0.046 C 
HETATM   21  N1  UNL     1      -0.580 -37.268   1.268  1.00  0.00    -0.270 N 
ATOM     22  H1  UNL     1      -0.533 -36.341   1.691  1.00  0.00     0.194 HD
BRANCH  21  23
HETATM   23  O1  UNL     1      -1.681 -37.846   1.659  1.00  0.00    -0.281 OA
BRANCH  23  24
HETATM   24  C2  UNL     1      -1.856 -38.926   2.533  1.00  0.00     0.196 C 
HETATM   25  C1  UNL     1      -3.184 -38.810   3.241  1.00  0.00     0.036 C 
ENDBRANCH  23  24
ENDBRANCH  21  23
BRANCH  20  26
HETATM   26  C17 UNL     1       1.422 -36.291   0.477  1.00  0.00     0.039 C 
HETATM   27  C18 UNL     1       2.774 -36.750   1.029  1.00  0.00     0.017 C 
HETATM   28  C19 UNL     1       3.701 -35.581   1.049  1.00  0.00     0.080 C 
HETATM   29  C20 UNL     1       3.231 -34.594   2.098  1.00  0.00     0.243 C 
HETATM   30  F2  UNL     1       4.119 -34.524   3.139  1.00  0.00    -0.206 F 
HETATM   31  F3  UNL     1       3.196 -33.354   1.484  1.00  0.00    -0.206 F 
HETATM   32  C21 UNL     1       1.828 -34.944   2.565  1.00  0.00     0.080 C 
HETATM   33  C22 UNL     1       0.964 -35.128   1.359  1.00  0.00     0.017 C 
ENDBRANCH  20  26
ENDBRANCH  18  20
ENDBRANCH  10  13
ENDBRANCH   1   9
TORSDOF 6
ENDMDL
MODEL 4
REMARK VINA RESULT: -7.884422652      5.973     12.220
REMARK  6 active torsions:
REMARK  status: ('A' for Active; 'I' for Inactive)
REMARK    1  A    between atoms: C2_2  and  O1_3 
REMARK    2  A    between atoms: O1_3  and  N1_4 
REMARK    3  A    between atoms: C3_6  and  C4_7 
REMARK    4  A    between atoms: C3_6  and  C17_26 
REMARK    5  A    between atoms: C8_12  and  C9_13 
REMARK       I    between atoms: C9_13  and  N2_15 
REMARK    6  A    between atoms: N2_15  and  C10_17 
ROOT
HETATM    1  C10 UNL     1      -0.023 -40.264  -5.327  1.00  0.00     0.125 C 
HETATM    2  C11 UNL     1      -0.980 -41.312  -4.884  1.00  0.00     0.091 C 
HETATM    3  N3  UNL     1      -1.709 -42.143  -4.544  1.00  0.00    -0.195 NA
HETATM    4  C12 UNL     1       1.378 -40.782  -5.248  1.00  0.00     0.049 C 
HETATM    5  C13 UNL     1       2.117 -40.026  -4.175  1.00  0.00     0.041 C 
HETATM    6  C14 UNL     1       1.025 -39.511  -3.290  1.00  0.00     0.173 C 
HETATM    7  F1  UNL     1       0.596 -40.426  -2.379  1.00  0.00    -0.249 F 
HETATM    8  C15 UNL     1      -0.055 -39.160  -4.292  1.00  0.00     0.084 C 
ENDROOT
BRANCH   1   9
HETATM    9  N2  UNL     1      -0.416 -39.846  -6.633  1.00  0.00    -0.335 N 
HETATM   10  C9  UNL     1       0.334 -38.966  -7.456  1.00  0.00     0.254 C 
HETATM   11  O2  UNL     1       1.419 -38.525  -7.003  1.00  0.00    -0.268 OA
ATOM     12  H2  UNL     1      -1.297 -40.204  -7.001  1.00  0.00     0.164 HD
BRANCH  10  13
HETATM   13  C8  UNL     1      -0.072 -38.548  -8.777  1.00  0.00     0.054 A 
HETATM   14  C7  UNL     1      -0.910 -37.453  -8.914  1.00  0.00     0.049 A 
HETATM   15  C6  UNL     1      -1.326 -37.012 -10.145  1.00  0.00     0.026 A 
HETATM   16 CL1  UNL     1      -1.491 -36.555  -7.506  1.00  0.00    -0.083 Cl
HETATM   17  C5  UNL     1      -0.920 -37.654 -11.314  1.00  0.00     0.015 A 
HETATM   18  C4  UNL     1      -0.093 -38.739 -11.208  1.00  0.00    -0.010 A 
HETATM   19  C16 UNL     1       0.308 -39.157  -9.947  1.00  0.00     0.032 A 
BRANCH  18  20
HETATM   20  C3  UNL     1       0.360 -39.412 -12.410  1.00  0.00     0.046 C 
HETATM   21  N1  UNL     1       0.561 -38.863 -13.496  1.00  0.00    -0.270 N 
ATOM     22  H1  UNL     1       0.871 -39.569 -14.163  1.00  0.00     0.194 HD
BRANCH  21  23
HETATM   23  O1  UNL     1       0.523 -37.709 -14.103  1.00  0.00    -0.281 OA
BRANCH  23  24
HETATM   24  C2  UNL     1      -0.445 -37.195 -14.974  1.00  0.00     0.196 C 
HETATM   25  C1  UNL     1      -1.258 -38.322 -15.566  1.00  0.00     0.036 C 
ENDBRANCH  23  24
ENDBRANCH  21  23
BRANCH  20  26
HETATM   26  C17 UNL     1       0.567 -40.912 -12.319  1.00  0.00     0.039 C 
HETATM   27  C18 UNL     1       2.030 -41.243 -12.623  1.00  0.00     0.017 C 
HETATM   28  C19 UNL     1       2.185 -42.726 -12.660  1.00  0.00     0.080 C 
HETATM   29  C20 UNL     1       1.461 -43.271 -13.874  1.00  0.00     0.243 C 
HETATM   30  F2  UNL     1       2.348 -43.780 -14.787  1.00  0.00    -0.206 F 
HETATM   31  F3  UNL     1       0.667 -44.312 -13.425  1.00  0.00    -0.206 F 
HETATM   32  C21 UNL     1       0.566 -42.204 -14.480  1.00  0.00     0.080 C 
HETATM   33  C22 UNL     1      -0.270 -41.616 -13.389  1.00  0.00     0.017 C 
ENDBRANCH  20  26
ENDBRANCH  18  20
ENDBRANCH  10  13
ENDBRANCH   1   9
TORSDOF 6
ENDMDL
MODEL 5
REMARK VINA RESULT: -7.505527093      2.047      2.629
REMARK  6 active torsions:
REMARK  status: ('A' for Active; 'I' for Inactive)
REMARK    1  A    between atoms: C2_2  and  O1_3 
REMARK    2  A    between atoms: O1_3  and  N1_4 
REMARK    3  A    between atoms: C3_6  and  C4_7 
REMARK    4  A    between atoms: C3_6  and  C17_26 
REMARK    5  A    between atoms: C8_12  and  C9_13 
REMARK       I    between atoms: C9_13  and  N2_15 
REMARK    6  A    between atoms: N2_15  and  C10_17 
ROOT
HETATM    1  C10 UNL     1       0.215 -39.154  -6.875  1.00  0.00     0.125 C 
HETATM    2  C11 UNL     1       1.485 -38.421  -7.119  1.00  0.00     0.091 C 
HETATM    3  N3  UNL     1       2.482 -37.868  -7.318  1.00  0.00    -0.195 NA
HETATM    4  C12 UNL     1       0.135 -40.352  -7.767  1.00  0.00     0.049 C 
HETATM    5  C13 UNL     1      -0.982 -40.147  -8.757  1.00  0.00     0.041 C 
HETATM    6  C14 UNL     1      -1.143 -38.659  -8.805  1.00  0.00     0.173 C 
HETATM    7  F1  UNL     1      -0.260 -38.050  -9.641  1.00  0.00    -0.249 F 
HETATM    8  C15 UNL     1      -0.915 -38.270  -7.359  1.00  0.00     0.084 C 
ENDROOT
BRANCH   1   9
HETATM    9  N2  UNL     1       0.155 -39.460  -5.483  1.00  0.00    -0.335 N 
HETATM   10  C9  UNL     1       1.246 -39.944  -4.717  1.00  0.00     0.254 C 
HETATM   11  O2  UNL     1       2.343 -40.115  -5.305  1.00  0.00    -0.268 OA
ATOM     12  H2  UNL     1      -0.735 -39.320  -5.005  1.00  0.00     0.164 HD
BRANCH  10  13
HETATM   13  C8  UNL     1       1.176 -40.252  -3.308  1.00  0.00     0.054 A 
HETATM   14  C7  UNL     1       1.148 -41.576  -2.903  1.00  0.00     0.049 A 
HETATM   15  C6  UNL     1       1.081 -41.925  -1.578  1.00  0.00     0.026 A 
HETATM   16 CL1  UNL     1       1.199 -42.899  -4.076  1.00  0.00    -0.083 Cl
HETATM   17  C5  UNL     1       1.038 -40.953  -0.579  1.00  0.00     0.015 A 
HETATM   18  C4  UNL     1       1.063 -39.637  -0.951  1.00  0.00    -0.010 A 
HETATM   19  C16 UNL     1       1.131 -39.320  -2.300  1.00  0.00     0.032 A 
BRANCH  18  20
HETATM   20  C3  UNL     1       1.040 -38.607   0.070  1.00  0.00     0.046 C 
HETATM   21  N1  UNL     1       0.515 -38.721   1.180  1.00  0.00    -0.270 N 
ATOM     22  H1  UNL     1       0.646 -37.848   1.691  1.00  0.00     0.194 HD
BRANCH  21  23
HETATM   23  O1  UNL     1      -0.148 -39.549   1.938  1.00  0.00    -0.281 OA
BRANCH  23  24
HETATM   24  C2  UNL     1       0.194 -40.076   3.189  1.00  0.00     0.196 C 
HETATM   25  C1  UNL     1       1.655 -39.822   3.476  1.00  0.00     0.036 C 
ENDBRANCH  23  24
ENDBRANCH  21  23
BRANCH  20  26
HETATM   26  C17 UNL     1       1.688 -37.280  -0.280  1.00  0.00     0.039 C 
HETATM   27  C18 UNL     1       2.692 -36.900   0.812  1.00  0.00     0.017 C 
HETATM   28  C19 UNL     1       3.220 -35.536   0.520  1.00  0.00     0.080 C 
HETATM   29  C20 UNL     1       2.112 -34.522   0.718  1.00  0.00     0.243 C 
HETATM   30  F2  UNL     1       2.372 -33.714   1.794  1.00  0.00    -0.206 F 
HETATM   31  F3  UNL     1       2.095 -33.730  -0.416  1.00  0.00    -0.206 F 
HETATM   32  C21 UNL     1       0.768 -35.222   0.841  1.00  0.00     0.080 C 
HETATM   33  C22 UNL     1       0.630 -36.176  -0.302  1.00  0.00     0.017 C 
ENDBRANCH  20  26
ENDBRANCH  18  20
ENDBRANCH  10  13
ENDBRANCH   1   9
TORSDOF 6
ENDMDL
