MODEL 1
REMARK VINA RESULT: -8.429237428      0.000      0.000
REMARK  16 active torsions:
REMARK  status: ('A' for Active; 'I' for Inactive)
REMARK    1  A    between atoms: C2_2  and  C3_3 
REMARK    2  A    between atoms: C3_3  and  O1_4 
REMARK    3  A    between atoms: C3_3  and  C13_33 
REMARK    4  A    between atoms: O1_4  and  C4_5 
REMARK    5  A    between atoms: C4_5  and  O2_6 
REMARK    6  A    between atoms: C4_5  and  C5_8 
REMARK    7  A    between atoms: C7_10  and  N1_11 
REMARK    8  A    between atoms: N1_11  and  C8_13 
REMARK    9  A    between atoms: C8_13  and  O3_14 
REMARK   10  A    between atoms: C8_13  and  C9_16 
REMARK   11  A    between atoms: C9_16  and  O4_17 
REMARK   12  A    between atoms: C10_19  and  O5_20 
REMARK   13  A    between atoms: N2_22  and  N3_23 
REMARK   14  A    between atoms: C12_28  and  N4_29 
REMARK   15  A    between atoms: C14_36  and  O7_37 
REMARK   16  A    between atoms: C14_36  and  C16_39 
ROOT
HETATM    1  C5  UNL     1     -14.226 -67.051 -50.551  1.00  0.00     0.082 C 
HETATM    2  C6  UNL     1     -14.654 -67.084 -49.137  1.00  0.00     0.041 C 
HETATM    3  C7  UNL     1     -13.587 -66.832 -48.138  1.00  0.00     0.130 C 
HETATM    4  C10 UNL     1     -12.270 -67.423 -48.551  1.00  0.00     0.266 C 
HETATM    5  N2  UNL     1     -11.582 -66.611 -49.525  1.00  0.00    -0.234 N 
HETATM    6  C11 UNL     1     -12.140 -65.743 -50.493  1.00  0.00     0.271 C 
HETATM    7  O6  UNL     1     -11.331 -64.943 -51.028  1.00  0.00    -0.269 OA
HETATM    8  C12 UNL     1     -13.577 -65.713 -50.908  1.00  0.00     0.285 C 
ENDROOT
BRANCH   1   9
HETATM    9  C4  UNL     1     -15.328 -67.287 -51.508  1.00  0.00     0.264 C 
BRANCH   9  10
HETATM   10  O1  UNL     1     -16.537 -66.873 -50.954  1.00  0.00    -0.351 OA
BRANCH  10  11
HETATM   11  C3  UNL     1     -17.452 -66.453 -51.955  1.00  0.00     0.175 C 
BRANCH  11  12
HETATM   12  C2  UNL     1     -17.670 -64.974 -51.668  1.00  0.00     0.032 C 
HETATM   13  C1  UNL     1     -16.924 -64.176 -52.700  1.00  0.00     0.007 C 
ENDBRANCH  11  12
BRANCH  11  14
HETATM   14  C13 UNL     1     -18.673 -67.288 -51.691  1.00  0.00     0.280 C 
HETATM   15  N5  UNL     1     -19.030 -68.116 -52.738  1.00  0.00    -0.335 N 
HETATM   16  C14 UNL     1     -20.186 -68.971 -52.638  1.00  0.00     0.308 C 
ATOM     17  H5  UNL     1     -18.469 -68.123 -53.590  1.00  0.00     0.161 HD
HETATM   18  N6  UNL     1     -20.771 -69.115 -51.332  1.00  0.00    -0.305 N 
HETATM   19  C17 UNL     1     -21.233 -68.038 -50.500  1.00  0.00     0.212 C 
ATOM     20  H6  UNL     1     -20.866 -70.062 -50.964  1.00  0.00     0.167 HD
HETATM   21  N7  UNL     1     -22.321 -68.328 -49.637  1.00  0.00    -0.062 NA
HETATM   22  N8  UNL     1     -20.754 -66.810 -50.444  1.00  0.00    -0.236 N 
HETATM   23  O10 UNL     1     -19.693 -66.402 -51.221  1.00  0.00    -0.249 OA
ATOM     24  H8  UNL     1     -21.184 -66.142 -49.804  1.00  0.00     0.197 HD
BRANCH  16  25
HETATM   25  O7  UNL     1     -21.154 -68.557 -53.535  1.00  0.00    -0.340 OA
HETATM   26  C15 UNL     1     -22.271 -69.299 -53.684  1.00  0.00     0.207 C 
ENDBRANCH  16  25
BRANCH  16  27
HETATM   27  C16 UNL     1     -19.743 -70.356 -53.056  1.00  0.00     0.255 C 
HETATM   28  O8  UNL     1     -19.091 -70.462 -54.127  1.00  0.00    -0.643 OA
HETATM   29  O9  UNL     1     -20.046 -71.466 -52.276  1.00  0.00    -0.643 OA
ENDBRANCH  16  27
ENDBRANCH  11  14
ENDBRANCH  10  11
ENDBRANCH   9  10
BRANCH   9  30
HETATM   30  O2  UNL     1     -15.455 -68.735 -51.690  1.00  0.00    -0.371 OA
ATOM     31  H2  UNL     1     -15.403 -68.880 -52.628  1.00  0.00     0.212 HD
ENDBRANCH   9  30
ENDBRANCH   1   9
BRANCH   8  32
HETATM   32  N4  UNL     1     -14.306 -64.613 -50.350  1.00  0.00    -0.066 N 
ATOM     33  H43 UNL     1     -14.770 -64.875 -49.479  1.00  0.00     0.275 HD
ATOM     34  H42 UNL     1     -13.680 -63.896 -49.986  1.00  0.00     0.275 HD
ATOM     35  H41 UNL     1     -14.967 -64.226 -51.023  1.00  0.00     0.275 HD
ENDBRANCH   8  32
BRANCH   3  36
HETATM   36  N1  UNL     1     -13.986 -67.277 -46.833  1.00  0.00    -0.387 N 
ATOM     37  H1  UNL     1     -13.877 -68.249 -46.544  1.00  0.00     0.156 HD
BRANCH  36  38
HETATM   38  C8  UNL     1     -14.537 -66.303 -45.965  1.00  0.00     0.237 C 
BRANCH  38  39
HETATM   39  O3  UNL     1     -13.923 -66.520 -44.701  1.00  0.00    -0.375 OA
ATOM     40  H3  UNL     1     -14.372 -65.944 -44.093  1.00  0.00     0.212 HD
ENDBRANCH  38  39
BRANCH  38  41
HETATM   41  C9  UNL     1     -16.005 -66.339 -45.716  1.00  0.00     0.217 C 
BRANCH  41  42
HETATM   42  O4  UNL     1     -16.630 -67.535 -45.956  1.00  0.00    -0.397 OA
ATOM     43  H4  UNL     1     -17.526 -67.484 -46.267  1.00  0.00     0.209 HD
ENDBRANCH  41  42
ENDBRANCH  38  41
ENDBRANCH  36  38
ENDBRANCH   3  36
BRANCH   4  44
HETATM   44  O5  UNL     1     -12.372 -68.753 -48.938  1.00  0.00    -0.373 OA
ATOM     45  H5  UNL     1     -11.538 -69.129 -49.196  1.00  0.00     0.212 HD
ENDBRANCH   4  44
BRANCH   5  46
HETATM   46  N3  UNL     1     -10.167 -66.702 -49.492  1.00  0.00    -0.338 N 
ATOM     47  H32 UNL     1      -9.767 -67.373 -48.836  1.00  0.00     0.177 HD
ATOM     48  H31 UNL     1      -9.679 -66.083 -50.138  1.00  0.00     0.177 HD
ENDBRANCH   5  46
TORSDOF 16
ENDMDL
MODEL 2
REMARK VINA RESULT: -8.337038687      1.232      2.420
REMARK  16 active torsions:
REMARK  status: ('A' for Active; 'I' for Inactive)
REMARK    1  A    between atoms: C2_2  and  C3_3 
REMARK    2  A    between atoms: C3_3  and  O1_4 
REMARK    3  A    between atoms: C3_3  and  C13_33 
REMARK    4  A    between atoms: O1_4  and  C4_5 
REMARK    5  A    between atoms: C4_5  and  O2_6 
REMARK    6  A    between atoms: C4_5  and  C5_8 
REMARK    7  A    between atoms: C7_10  and  N1_11 
REMARK    8  A    between atoms: N1_11  and  C8_13 
REMARK    9  A    between atoms: C8_13  and  O3_14 
REMARK   10  A    between atoms: C8_13  and  C9_16 
REMARK   11  A    between atoms: C9_16  and  O4_17 
REMARK   12  A    between atoms: C10_19  and  O5_20 
REMARK   13  A    between atoms: N2_22  and  N3_23 
REMARK   14  A    between atoms: C12_28  and  N4_29 
REMARK   15  A    between atoms: C14_36  and  O7_37 
REMARK   16  A    between atoms: C14_36  and  C16_39 
ROOT
HETATM    1  C5  UNL     1     -14.309 -67.024 -50.564  1.00  0.00     0.082 C 
HETATM    2  C6  UNL     1     -14.775 -67.017 -49.161  1.00  0.00     0.041 C 
HETATM    3  C7  UNL     1     -13.728 -66.769 -48.140  1.00  0.00     0.130 C 
HETATM    4  C10 UNL     1     -12.416 -67.402 -48.506  1.00  0.00     0.266 C 
HETATM    5  N2  UNL     1     -11.683 -66.627 -49.477  1.00  0.00    -0.234 N 
HETATM    6  C11 UNL     1     -12.193 -65.767 -50.477  1.00  0.00     0.271 C 
HETATM    7  O6  UNL     1     -11.351 -64.998 -51.007  1.00  0.00    -0.269 OA
HETATM    8  C12 UNL     1     -13.618 -65.710 -50.931  1.00  0.00     0.285 C 
ENDROOT
BRANCH   1   9
HETATM    9  C4  UNL     1     -15.392 -67.253 -51.545  1.00  0.00     0.264 C 
BRANCH   9  10
HETATM   10  O1  UNL     1     -16.611 -66.842 -51.013  1.00  0.00    -0.351 OA
BRANCH  10  11
HETATM   11  C3  UNL     1     -17.446 -66.267 -52.007  1.00  0.00     0.175 C 
BRANCH  11  12
HETATM   12  C2  UNL     1     -17.644 -64.830 -51.545  1.00  0.00     0.032 C 
HETATM   13  C1  UNL     1     -17.034 -63.914 -52.570  1.00  0.00     0.007 C 
ENDBRANCH  11  12
BRANCH  11  14
HETATM   14  C13 UNL     1     -18.703 -67.086 -51.932  1.00  0.00     0.280 C 
HETATM   15  N5  UNL     1     -19.285 -67.116 -50.680  1.00  0.00    -0.335 N 
HETATM   16  C14 UNL     1     -20.492 -67.870 -50.448  1.00  0.00     0.308 C 
ATOM     17  H5  UNL     1     -18.857 -66.600 -49.912  1.00  0.00     0.161 HD
HETATM   18  N6  UNL     1     -21.187 -68.350 -51.613  1.00  0.00    -0.305 N 
HETATM   19  C17 UNL     1     -20.619 -69.173 -52.644  1.00  0.00     0.212 C 
ATOM     20  H6  UNL     1     -22.166 -68.082 -51.716  1.00  0.00     0.167 HD
HETATM   21  N7  UNL     1     -21.505 -70.068 -53.298  1.00  0.00    -0.062 NA
HETATM   22  N8  UNL     1     -19.366 -69.186 -53.058  1.00  0.00    -0.236 N 
HETATM   23  O10 UNL     1     -18.407 -68.359 -52.515  1.00  0.00    -0.249 OA
ATOM     24  H8  UNL     1     -19.099 -69.829 -53.803  1.00  0.00     0.197 HD
BRANCH  16  25
HETATM   25  O7  UNL     1     -20.227 -68.929 -49.599  1.00  0.00    -0.340 OA
HETATM   26  C15 UNL     1     -21.256 -69.659 -49.120  1.00  0.00     0.207 C 
ENDBRANCH  16  25
BRANCH  16  27
HETATM   27  C16 UNL     1     -21.454 -66.946 -49.734  1.00  0.00     0.255 C 
HETATM   28  O8  UNL     1     -20.991 -66.211 -48.824  1.00  0.00    -0.643 OA
HETATM   29  O9  UNL     1     -22.800 -66.913 -50.083  1.00  0.00    -0.643 OA
ENDBRANCH  16  27
ENDBRANCH  11  14
ENDBRANCH  10  11
ENDBRANCH   9  10
BRANCH   9  30
HETATM   30  O2  UNL     1     -15.515 -68.700 -51.740  1.00  0.00    -0.371 OA
ATOM     31  H2  UNL     1     -16.448 -68.873 -51.785  1.00  0.00     0.212 HD
ENDBRANCH   9  30
ENDBRANCH   1   9
BRANCH   8  32
HETATM   32  N4  UNL     1     -14.334 -64.581 -50.415  1.00  0.00    -0.066 N 
ATOM     33  H43 UNL     1     -15.265 -64.509 -50.828  1.00  0.00     0.275 HD
ATOM     34  H42 UNL     1     -14.603 -64.722 -49.442  1.00  0.00     0.275 HD
ATOM     35  H41 UNL     1     -13.804 -63.718 -50.536  1.00  0.00     0.275 HD
ENDBRANCH   8  32
BRANCH   3  36
HETATM   36  N1  UNL     1     -14.172 -67.177 -46.837  1.00  0.00    -0.387 N 
ATOM     37  H1  UNL     1     -14.041 -68.132 -46.503  1.00  0.00     0.156 HD
BRANCH  36  38
HETATM   38  C8  UNL     1     -14.801 -66.192 -46.038  1.00  0.00     0.237 C 
BRANCH  38  39
HETATM   39  O3  UNL     1     -14.171 -66.266 -44.765  1.00  0.00    -0.375 OA
ATOM     40  H3  UNL     1     -14.576 -67.000 -44.318  1.00  0.00     0.212 HD
ENDBRANCH  38  39
BRANCH  38  41
HETATM   41  C9  UNL     1     -16.261 -66.329 -45.777  1.00  0.00     0.217 C 
BRANCH  41  42
HETATM   42  O4  UNL     1     -16.774 -67.597 -45.870  1.00  0.00    -0.397 OA
ATOM     43  H4  UNL     1     -17.710 -67.659 -46.019  1.00  0.00     0.209 HD
ENDBRANCH  41  42
ENDBRANCH  38  41
ENDBRANCH  36  38
ENDBRANCH   3  36
BRANCH   4  44
HETATM   44  O5  UNL     1     -12.541 -68.736 -48.867  1.00  0.00    -0.373 OA
ATOM     45  H5  UNL     1     -12.071 -68.950 -49.665  1.00  0.00     0.212 HD
ENDBRANCH   4  44
BRANCH   5  46
HETATM   46  N3  UNL     1     -10.272 -66.752 -49.404  1.00  0.00    -0.338 N 
ATOM     47  H32 UNL     1      -9.785 -66.094 -48.795  1.00  0.00     0.177 HD
ATOM     48  H31 UNL     1      -9.874 -67.500 -49.972  1.00  0.00     0.177 HD
ENDBRANCH   5  46
TORSDOF 16
ENDMDL
MODEL 3
REMARK VINA RESULT: -7.832149575      3.590      7.497
REMARK  16 active torsions:
REMARK  status: ('A' for Active; 'I' for Inactive)
REMARK    1  A    between atoms: C2_2  and  C3_3 
REMARK    2  A    between atoms: C3_3  and  O1_4 
REMARK    3  A    between atoms: C3_3  and  C13_33 
REMARK    4  A    between atoms: O1_4  and  C4_5 
REMARK    5  A    between atoms: C4_5  and  O2_6 
REMARK    6  A    between atoms: C4_5  and  C5_8 
REMARK    7  A    between atoms: C7_10  and  N1_11 
REMARK    8  A    between atoms: N1_11  and  C8_13 
REMARK    9  A    between atoms: C8_13  and  O3_14 
REMARK   10  A    between atoms: C8_13  and  C9_16 
REMARK   11  A    between atoms: C9_16  and  O4_17 
REMARK   12  A    between atoms: C10_19  and  O5_20 
REMARK   13  A    between atoms: N2_22  and  N3_23 
REMARK   14  A    between atoms: C12_28  and  N4_29 
REMARK   15  A    between atoms: C14_36  and  O7_37 
REMARK   16  A    between atoms: C14_36  and  C16_39 
ROOT
HETATM    1  C5  UNL     1     -19.913 -69.072 -51.671  1.00  0.00     0.082 C 
HETATM    2  C6  UNL     1     -19.932 -70.118 -50.628  1.00  0.00     0.041 C 
HETATM    3  C7  UNL     1     -21.176 -70.199 -49.824  1.00  0.00     0.130 C 
HETATM    4  C10 UNL     1     -21.772 -68.846 -49.561  1.00  0.00     0.266 C 
HETATM    5  N2  UNL     1     -22.509 -68.338 -50.692  1.00  0.00    -0.234 N 
HETATM    6  C11 UNL     1     -22.299 -68.604 -52.066  1.00  0.00     0.271 C 
HETATM    7  O6  UNL     1     -23.240 -68.269 -52.829  1.00  0.00    -0.269 OA
HETATM    8  C12 UNL     1     -21.076 -69.237 -52.651  1.00  0.00     0.285 C 
ENDROOT
BRANCH   1   9
HETATM    9  C4  UNL     1     -18.661 -69.045 -52.459  1.00  0.00     0.264 C 
BRANCH   9  10
HETATM   10  O1  UNL     1     -17.762 -68.145 -51.893  1.00  0.00    -0.351 OA
BRANCH  10  11
HETATM   11  C3  UNL     1     -18.180 -66.802 -52.082  1.00  0.00     0.175 C 
BRANCH  11  12
HETATM   12  C2  UNL     1     -16.965 -66.112 -52.686  1.00  0.00     0.032 C 
HETATM   13  C1  UNL     1     -15.886 -67.141 -52.885  1.00  0.00     0.007 C 
ENDBRANCH  11  12
BRANCH  11  14
HETATM   14  C13 UNL     1     -18.492 -66.328 -50.691  1.00  0.00     0.280 C 
HETATM   15  N5  UNL     1     -19.170 -65.125 -50.641  1.00  0.00    -0.335 N 
HETATM   16  C14 UNL     1     -19.531 -64.537 -49.375  1.00  0.00     0.308 C 
ATOM     17  H5  UNL     1     -19.417 -64.649 -51.508  1.00  0.00     0.161 HD
HETATM   18  N6  UNL     1     -19.396 -65.374 -48.213  1.00  0.00    -0.305 N 
HETATM   19  C17 UNL     1     -18.192 -66.041 -47.800  1.00  0.00     0.212 C 
ATOM     20  H6  UNL     1     -20.225 -65.504 -47.633  1.00  0.00     0.167 HD
HETATM   21  N7  UNL     1     -18.024 -66.234 -46.404  1.00  0.00    -0.062 NA
HETATM   22  N8  UNL     1     -17.228 -66.502 -48.573  1.00  0.00    -0.236 N 
HETATM   23  O10 UNL     1     -17.273 -66.390 -49.945  1.00  0.00    -0.249 OA
ATOM     24  H8  UNL     1     -16.423 -66.956 -48.141  1.00  0.00     0.197 HD
BRANCH  16  25
HETATM   25  O7  UNL     1     -18.823 -63.364 -49.185  1.00  0.00    -0.340 OA
HETATM   26  C15 UNL     1     -17.867 -63.024 -50.075  1.00  0.00     0.207 C 
ENDBRANCH  16  25
BRANCH  16  27
HETATM   27  C16 UNL     1     -20.996 -64.173 -49.465  1.00  0.00     0.255 C 
HETATM   28  O8  UNL     1     -21.831 -65.114 -49.495  1.00  0.00    -0.643 OA
HETATM   29  O9  UNL     1     -21.398 -62.842 -49.508  1.00  0.00    -0.643 OA
ENDBRANCH  16  27
ENDBRANCH  11  14
ENDBRANCH  10  11
ENDBRANCH   9  10
BRANCH   9  30
HETATM   30  O2  UNL     1     -18.981 -68.501 -53.781  1.00  0.00    -0.371 OA
ATOM     31  H2  UNL     1     -18.731 -69.177 -54.402  1.00  0.00     0.212 HD
ENDBRANCH   9  30
ENDBRANCH   1   9
BRANCH   8  32
HETATM   32  N4  UNL     1     -21.264 -70.611 -53.011  1.00  0.00    -0.066 N 
ATOM     33  H43 UNL     1     -21.270 -71.215 -52.189  1.00  0.00     0.275 HD
ATOM     34  H42 UNL     1     -22.213 -70.784 -53.341  1.00  0.00     0.275 HD
ATOM     35  H41 UNL     1     -20.570 -70.915 -53.693  1.00  0.00     0.275 HD
ENDBRANCH   8  32
BRANCH   3  36
HETATM   36  N1  UNL     1     -20.959 -70.932 -48.610  1.00  0.00    -0.387 N 
ATOM     37  H1  UNL     1     -20.974 -70.473 -47.699  1.00  0.00     0.156 HD
BRANCH  36  38
HETATM   38  C8  UNL     1     -20.723 -72.323 -48.735  1.00  0.00     0.237 C 
BRANCH  38  39
HETATM   39  O3  UNL     1     -21.786 -72.825 -49.536  1.00  0.00    -0.375 OA
ATOM     40  H3  UNL     1     -21.445 -73.605 -49.958  1.00  0.00     0.212 HD
ENDBRANCH  38  39
BRANCH  38  41
HETATM   41  C9  UNL     1     -20.724 -73.148 -47.495  1.00  0.00     0.217 C 
BRANCH  41  42
HETATM   42  O4  UNL     1     -19.739 -74.096 -47.400  1.00  0.00    -0.397 OA
ATOM     43  H4  UNL     1     -18.992 -73.982 -47.976  1.00  0.00     0.209 HD
ENDBRANCH  41  42
ENDBRANCH  38  41
ENDBRANCH  36  38
ENDBRANCH   3  36
BRANCH   4  44
HETATM   44  O5  UNL     1     -20.847 -67.934 -49.069  1.00  0.00    -0.373 OA
ATOM     45  H5  UNL     1     -20.196 -68.335 -48.505  1.00  0.00     0.212 HD
ENDBRANCH   4  44
BRANCH   5  46
HETATM   46  N3  UNL     1     -23.579 -67.465 -50.370  1.00  0.00    -0.338 N 
ATOM     47  H32 UNL     1     -24.464 -67.630 -50.850  1.00  0.00     0.177 HD
ATOM     48  H31 UNL     1     -23.360 -66.750 -49.677  1.00  0.00     0.177 HD
ENDBRANCH   5  46
TORSDOF 16
ENDMDL
MODEL 4
REMARK VINA RESULT: -7.823943021      3.224      7.397
REMARK  16 active torsions:
REMARK  status: ('A' for Active; 'I' for Inactive)
REMARK    1  A    between atoms: C2_2  and  C3_3 
REMARK    2  A    between atoms: C3_3  and  O1_4 
REMARK    3  A    between atoms: C3_3  and  C13_33 
REMARK    4  A    between atoms: O1_4  and  C4_5 
REMARK    5  A    between atoms: C4_5  and  O2_6 
REMARK    6  A    between atoms: C4_5  and  C5_8 
REMARK    7  A    between atoms: C7_10  and  N1_11 
REMARK    8  A    between atoms: N1_11  and  C8_13 
REMARK    9  A    between atoms: C8_13  and  O3_14 
REMARK   10  A    between atoms: C8_13  and  C9_16 
REMARK   11  A    between atoms: C9_16  and  O4_17 
REMARK   12  A    between atoms: C10_19  and  O5_20 
REMARK   13  A    between atoms: N2_22  and  N3_23 
REMARK   14  A    between atoms: C12_28  and  N4_29 
REMARK   15  A    between atoms: C14_36  and  O7_37 
REMARK   16  A    between atoms: C14_36  and  C16_39 
ROOT
HETATM    1  C5  UNL     1     -19.881 -69.072 -51.729  1.00  0.00     0.082 C 
HETATM    2  C6  UNL     1     -19.901 -70.094 -50.661  1.00  0.00     0.041 C 
HETATM    3  C7  UNL     1     -21.144 -70.153 -49.854  1.00  0.00     0.130 C 
HETATM    4  C10 UNL     1     -21.735 -68.792 -49.620  1.00  0.00     0.266 C 
HETATM    5  N2  UNL     1     -22.473 -68.308 -50.761  1.00  0.00    -0.234 N 
HETATM    6  C11 UNL     1     -22.266 -68.606 -52.128  1.00  0.00     0.271 C 
HETATM    7  O6  UNL     1     -23.209 -68.286 -52.897  1.00  0.00    -0.269 OA
HETATM    8  C12 UNL     1     -21.047 -69.257 -52.702  1.00  0.00     0.285 C 
ENDROOT
BRANCH   1   9
HETATM    9  C4  UNL     1     -18.632 -69.068 -52.519  1.00  0.00     0.264 C 
BRANCH   9  10
HETATM   10  O1  UNL     1     -17.733 -68.148 -51.984  1.00  0.00    -0.351 OA
BRANCH  10  11
HETATM   11  C3  UNL     1     -18.045 -66.822 -52.383  1.00  0.00     0.175 C 
BRANCH  11  12
HETATM   12  C2  UNL     1     -16.792 -66.341 -53.101  1.00  0.00     0.032 C 
HETATM   13  C1  UNL     1     -16.648 -64.864 -52.864  1.00  0.00     0.007 C 
ENDBRANCH  11  12
BRANCH  11  14
HETATM   14  C13 UNL     1     -18.287 -66.109 -51.082  1.00  0.00     0.280 C 
HETATM   15  N5  UNL     1     -17.656 -66.683 -49.996  1.00  0.00    -0.335 N 
HETATM   16  C14 UNL     1     -17.802 -66.118 -48.677  1.00  0.00     0.308 C 
ATOM     17  H5  UNL     1     -17.081 -67.515 -50.128  1.00  0.00     0.161 HD
HETATM   18  N6  UNL     1     -18.395 -64.810 -48.598  1.00  0.00    -0.305 N 
HETATM   19  C17 UNL     1     -19.679 -64.443 -49.128  1.00  0.00     0.212 C 
ATOM     20  H6  UNL     1     -17.860 -64.082 -48.126  1.00  0.00     0.167 HD
HETATM   21  N7  UNL     1     -20.380 -63.422 -48.435  1.00  0.00    -0.062 NA
HETATM   22  N8  UNL     1     -20.278 -64.943 -50.192  1.00  0.00    -0.236 N 
HETATM   23  O10 UNL     1     -19.701 -65.931 -50.960  1.00  0.00    -0.249 OA
ATOM     24  H8  UNL     1     -21.197 -64.587 -50.455  1.00  0.00     0.197 HD
BRANCH  16  25
HETATM   25  O7  UNL     1     -18.502 -66.994 -47.867  1.00  0.00    -0.340 OA
HETATM   26  C15 UNL     1     -18.653 -66.699 -46.560  1.00  0.00     0.207 C 
ENDBRANCH  16  25
BRANCH  16  27
HETATM   27  C16 UNL     1     -16.408 -65.984 -48.103  1.00  0.00     0.255 C 
HETATM   28  O8  UNL     1     -16.059 -64.854 -47.675  1.00  0.00    -0.643 OA
HETATM   29  O9  UNL     1     -15.552 -67.079 -48.051  1.00  0.00    -0.643 OA
ENDBRANCH  16  27
ENDBRANCH  11  14
ENDBRANCH  10  11
ENDBRANCH   9  10
BRANCH   9  30
HETATM   30  O2  UNL     1     -18.956 -68.567 -53.858  1.00  0.00    -0.371 OA
ATOM     31  H2  UNL     1     -19.877 -68.336 -53.827  1.00  0.00     0.212 HD
ENDBRANCH   9  30
ENDBRANCH   1   9
BRANCH   8  32
HETATM   32  N4  UNL     1     -21.241 -70.637 -53.030  1.00  0.00    -0.066 N 
ATOM     33  H43 UNL     1     -20.358 -71.150 -53.024  1.00  0.00     0.275 HD
ATOM     34  H42 UNL     1     -21.718 -71.136 -52.280  1.00  0.00     0.275 HD
ATOM     35  H41 UNL     1     -21.729 -70.744 -53.919  1.00  0.00     0.275 HD
ENDBRANCH   8  32
BRANCH   3  36
HETATM   36  N1  UNL     1     -20.926 -70.859 -48.623  1.00  0.00    -0.387 N 
ATOM     37  H1  UNL     1     -20.927 -70.377 -47.724  1.00  0.00     0.156 HD
BRANCH  36  38
HETATM   38  C8  UNL     1     -20.710 -72.255 -48.716  1.00  0.00     0.237 C 
BRANCH  38  39
HETATM   39  O3  UNL     1     -21.764 -72.757 -49.529  1.00  0.00    -0.375 OA
ATOM     40  H3  UNL     1     -21.343 -73.262 -50.215  1.00  0.00     0.212 HD
ENDBRANCH  38  39
BRANCH  38  41
HETATM   41  C9  UNL     1     -20.751 -73.055 -47.460  1.00  0.00     0.217 C 
BRANCH  41  42
HETATM   42  O4  UNL     1     -19.787 -74.021 -47.328  1.00  0.00    -0.397 OA
ATOM     43  H4  UNL     1     -19.522 -74.459 -48.128  1.00  0.00     0.209 HD
ENDBRANCH  41  42
ENDBRANCH  38  41
ENDBRANCH  36  38
ENDBRANCH   3  36
BRANCH   4  44
HETATM   44  O5  UNL     1     -20.806 -67.872 -49.151  1.00  0.00    -0.373 OA
ATOM     45  H5  UNL     1     -21.079 -66.971 -49.279  1.00  0.00     0.212 HD
ENDBRANCH   4  44
BRANCH   5  46
HETATM   46  N3  UNL     1     -23.539 -67.425 -50.456  1.00  0.00    -0.338 N 
ATOM     47  H32 UNL     1     -23.880 -67.433 -49.494  1.00  0.00     0.177 HD
ATOM     48  H31 UNL     1     -23.865 -66.855 -51.236  1.00  0.00     0.177 HD
ENDBRANCH   5  46
TORSDOF 16
ENDMDL
MODEL 5
REMARK VINA RESULT: -7.775622322      1.967      2.976
REMARK  16 active torsions:
REMARK  status: ('A' for Active; 'I' for Inactive)
REMARK    1  A    between atoms: C2_2  and  C3_3 
REMARK    2  A    between atoms: C3_3  and  O1_4 
REMARK    3  A    between atoms: C3_3  and  C13_33 
REMARK    4  A    between atoms: O1_4  and  C4_5 
REMARK    5  A    between atoms: C4_5  and  O2_6 
REMARK    6  A    between atoms: C4_5  and  C5_8 
REMARK    7  A    between atoms: C7_10  and  N1_11 
REMARK    8  A    between atoms: N1_11  and  C8_13 
REMARK    9  A    between atoms: C8_13  and  O3_14 
REMARK   10  A    between atoms: C8_13  and  C9_16 
REMARK   11  A    between atoms: C9_16  and  O4_17 
REMARK   12  A    between atoms: C10_19  and  O5_20 
REMARK   13  A    between atoms: N2_22  and  N3_23 
REMARK   14  A    between atoms: C12_28  and  N4_29 
REMARK   15  A    between atoms: C14_36  and  O7_37 
REMARK   16  A    between atoms: C14_36  and  C16_39 
ROOT
HETATM    1  C5  UNL     1     -15.002 -66.282 -49.309  1.00  0.00     0.082 C 
HETATM    2  C6  UNL     1     -15.859 -66.539 -48.133  1.00  0.00     0.041 C 
HETATM    3  C7  UNL     1     -15.192 -66.415 -46.814  1.00  0.00     0.130 C 
HETATM    4  C10 UNL     1     -13.773 -66.905 -46.847  1.00  0.00     0.266 C 
HETATM    5  N2  UNL     1     -12.868 -65.938 -47.420  1.00  0.00    -0.234 N 
HETATM    6  C11 UNL     1     -13.146 -64.948 -48.392  1.00  0.00     0.271 C 
HETATM    7  O6  UNL     1     -12.268 -64.056 -48.517  1.00  0.00    -0.269 OA
HETATM    8  C12 UNL     1     -14.371 -64.890 -49.249  1.00  0.00     0.285 C 
ENDROOT
BRANCH   1   9
HETATM    9  C4  UNL     1     -15.717 -66.397 -50.599  1.00  0.00     0.264 C 
BRANCH   9  10
HETATM   10  O1  UNL     1     -17.074 -66.141 -50.415  1.00  0.00    -0.351 OA
BRANCH  10  11
HETATM   11  C3  UNL     1     -17.732 -65.913 -51.652  1.00  0.00     0.175 C 
BRANCH  11  12
HETATM   12  C2  UNL     1     -18.201 -64.467 -51.567  1.00  0.00     0.032 C 
HETATM   13  C1  UNL     1     -17.256 -63.614 -52.365  1.00  0.00     0.007 C 
ENDBRANCH  11  12
BRANCH  11  14
HETATM   14  C13 UNL     1     -18.865 -66.900 -51.637  1.00  0.00     0.280 C 
HETATM   15  N5  UNL     1     -19.612 -66.886 -50.475  1.00  0.00    -0.335 N 
HETATM   16  C14 UNL     1     -20.728 -67.785 -50.308  1.00  0.00     0.308 C 
ATOM     17  H5  UNL     1     -19.373 -66.235 -49.729  1.00  0.00     0.161 HD
HETATM   18  N6  UNL     1     -21.176 -68.482 -51.484  1.00  0.00    -0.305 N 
HETATM   19  C17 UNL     1     -20.360 -69.314 -52.324  1.00  0.00     0.212 C 
ATOM     20  H6  UNL     1     -22.157 -68.377 -51.743  1.00  0.00     0.167 HD
HETATM   21  N7  UNL     1     -21.014 -70.395 -52.969  1.00  0.00    -0.062 NA
HETATM   22  N8  UNL     1     -19.070 -69.181 -52.569  1.00  0.00    -0.236 N 
HETATM   23  O10 UNL     1     -18.320 -68.168 -52.015  1.00  0.00    -0.249 OA
ATOM     24  H8  UNL     1     -18.614 -69.851 -53.188  1.00  0.00     0.197 HD
BRANCH  16  25
HETATM   25  O7  UNL     1     -20.447 -68.698 -49.307  1.00  0.00    -0.340 OA
HETATM   26  C15 UNL     1     -21.412 -69.554 -48.912  1.00  0.00     0.207 C 
ENDBRANCH  16  25
BRANCH  16  27
HETATM   27  C16 UNL     1     -21.898 -66.946 -49.843  1.00  0.00     0.255 C 
HETATM   28  O8  UNL     1     -21.669 -66.043 -48.997  1.00  0.00    -0.643 OA
HETATM   29  O9  UNL     1     -23.176 -67.170 -50.341  1.00  0.00    -0.643 OA
ENDBRANCH  16  27
ENDBRANCH  11  14
ENDBRANCH  10  11
ENDBRANCH   9  10
BRANCH   9  30
HETATM   30  O2  UNL     1     -15.635 -67.796 -51.028  1.00  0.00    -0.371 OA
ATOM     31  H2  UNL     1     -14.780 -68.100 -50.745  1.00  0.00     0.212 HD
ENDBRANCH   9  30
ENDBRANCH   1   9
BRANCH   8  32
HETATM   32  N4  UNL     1     -15.319 -63.906 -48.819  1.00  0.00    -0.066 N 
ATOM     33  H43 UNL     1     -15.947 -63.635 -49.577  1.00  0.00     0.275 HD
ATOM     34  H42 UNL     1     -16.006 -64.303 -48.179  1.00  0.00     0.275 HD
ATOM     35  H41 UNL     1     -14.854 -63.094 -48.412  1.00  0.00     0.275 HD
ENDBRANCH   8  32
BRANCH   3  36
HETATM   36  N1  UNL     1     -15.956 -67.062 -45.786  1.00  0.00    -0.387 N 
ATOM     37  H1  UNL     1     -15.708 -67.989 -45.440  1.00  0.00     0.156 HD
BRANCH  36  38
HETATM   38  C8  UNL     1     -17.072 -66.354 -45.276  1.00  0.00     0.237 C 
BRANCH  38  39
HETATM   39  O3  UNL     1     -16.667 -65.859 -44.005  1.00  0.00    -0.375 OA
ATOM     40  H3  UNL     1     -17.197 -66.323 -43.367  1.00  0.00     0.212 HD
ENDBRANCH  38  39
BRANCH  38  41
HETATM   41  C9  UNL     1     -18.332 -67.111 -45.036  1.00  0.00     0.217 C 
BRANCH  41  42
HETATM   42  O4  UNL     1     -19.418 -66.368 -44.652  1.00  0.00    -0.397 OA
ATOM     43  H4  UNL     1     -20.241 -66.836 -44.583  1.00  0.00     0.209 HD
ENDBRANCH  41  42
ENDBRANCH  38  41
ENDBRANCH  36  38
ENDBRANCH   3  36
BRANCH   4  44
HETATM   44  O5  UNL     1     -13.648 -68.163 -47.421  1.00  0.00    -0.373 OA
ATOM     45  H5  UNL     1     -14.177 -68.822 -46.987  1.00  0.00     0.212 HD
ENDBRANCH   4  44
BRANCH   5  46
HETATM   46  N3  UNL     1     -11.537 -65.999 -46.936  1.00  0.00    -0.338 N 
ATOM     47  H32 UNL     1     -11.385 -66.536 -46.082  1.00  0.00     0.177 HD
ATOM     48  H31 UNL     1     -10.850 -65.496 -47.497  1.00  0.00     0.177 HD
ENDBRANCH   5  46
TORSDOF 16
ENDMDL
