MODEL 1
REMARK VINA RESULT: -8.029002237      0.000      0.000
REMARK  19 active torsions:
REMARK  status: ('A' for Active; 'I' for Inactive)
REMARK    1  A    between atoms: C2_2  and  O1_3 
REMARK    2  A    between atoms: C2_2  and  C3_5 
REMARK    3  A    between atoms: C2_2  and  C13_28 
REMARK    4  A    between atoms: C3_5  and  O2_6 
REMARK    5  A    between atoms: C3_5  and  C4_8 
REMARK    6  A    between atoms: C4_8  and  C5_10 
REMARK    7  A    between atoms: C6_12  and  N1_13 
REMARK    8  A    between atoms: C11_22  and  O7_23 
REMARK    9  A    between atoms: C12_25  and  O8_26 
REMARK   10  A    between atoms: C13_28  and  O9_29 
REMARK   11  A    between atoms: C13_28  and  C14_31 
REMARK   12  A    between atoms: C14_31  and  N3_32 
REMARK   13  A    between atoms: C14_31  and  C17_45 
REMARK       I    between atoms: N3_32  and  C15_34 
REMARK   14  A    between atoms: C15_34  and  C16_36 
REMARK   15  A    between atoms: C16_36  and  N4_37 
REMARK   16  A    between atoms: C16_36  and  O11_41 
REMARK   17  A    between atoms: O11_41  and  N5_42 
REMARK   18  A    between atoms: C17_45  and  N6_46 
REMARK   19  A    between atoms: C17_45  and  O12_50 
ROOT
HETATM    1  C1  UNL     1     -20.882 -66.321 -49.332  1.00  0.00     0.052 C 
HETATM    2  C2  UNL     1     -19.498 -65.999 -49.740  1.00  0.00     0.118 C 
ENDROOT
BRANCH   2   3
HETATM    3  O1  UNL     1     -18.640 -66.910 -49.135  1.00  0.00    -0.384 OA
ATOM      4  H1  UNL     1     -18.207 -67.410 -49.817  1.00  0.00     0.210 HD
ENDBRANCH   2   3
BRANCH   2   5
HETATM    5  C3  UNL     1     -19.221 -66.128 -51.224  1.00  0.00     0.227 C 
BRANCH   5   6
HETATM    6  O2  UNL     1     -18.250 -65.175 -51.664  1.00  0.00    -0.385 OA
ATOM      7  H2  UNL     1     -18.107 -65.229 -52.601  1.00  0.00     0.210 HD
ENDBRANCH   5   6
BRANCH   5   8
HETATM    8  C4  UNL     1     -18.739 -67.450 -51.677  1.00  0.00     0.189 C 
HETATM    9  O3  UNL     1     -17.586 -67.645 -51.981  1.00  0.00    -0.292 OA
BRANCH   8  10
HETATM   10  C5  UNL     1     -19.657 -68.612 -51.772  1.00  0.00     0.227 C 
HETATM   11  O4  UNL     1     -19.862 -69.254 -50.541  1.00  0.00    -0.348 OA
HETATM   12  C6  UNL     1     -20.667 -70.328 -50.923  1.00  0.00     0.264 C 
HETATM   13  C11 UNL     1     -20.192 -70.815 -52.269  1.00  0.00     0.199 C 
HETATM   14  C12 UNL     1     -19.092 -69.775 -52.570  1.00  0.00     0.187 C 
BRANCH  12  15
HETATM   15  N1  UNL     1     -20.648 -71.432 -49.995  1.00  0.00    -0.280 N 
HETATM   16  C7  UNL     1     -20.253 -72.646 -50.445  1.00  0.00     0.104 A 
HETATM   17  C8  UNL     1     -20.210 -73.758 -49.624  1.00  0.00     0.092 A 
HETATM   18  C9  UNL     1     -20.575 -73.629 -48.313  1.00  0.00     0.250 A 
HETATM   19  O5  UNL     1     -20.550 -74.610 -47.541  1.00  0.00    -0.268 OA
HETATM   20  N2  UNL     1     -20.968 -72.414 -47.869  1.00  0.00    -0.275 N 
HETATM   21  C10 UNL     1     -21.000 -71.338 -48.706  1.00  0.00     0.331 A 
ATOM     22  H2  UNL     1     -21.244 -72.302 -46.894  1.00  0.00     0.173 HD
HETATM   23  O6  UNL     1     -21.373 -70.201 -48.272  1.00  0.00    -0.246 OA
ENDBRANCH  12  15
BRANCH  13  24
HETATM   24  O7  UNL     1     -21.157 -70.722 -53.244  1.00  0.00    -0.388 OA
ATOM     25  H7  UNL     1     -21.537 -69.854 -53.307  1.00  0.00     0.210 HD
ENDBRANCH  13  24
BRANCH  14  26
HETATM   26  O8  UNL     1     -17.879 -70.231 -52.093  1.00  0.00    -0.390 OA
ATOM     27  H8  UNL     1     -17.919 -70.546 -51.197  1.00  0.00     0.210 HD
ENDBRANCH  14  26
ENDBRANCH   8  10
ENDBRANCH   5   8
ENDBRANCH   2   5
BRANCH   2  28
HETATM   28  C13 UNL     1     -19.019 -64.649 -49.273  1.00  0.00     0.205 C 
BRANCH  28  29
HETATM   29  O9  UNL     1     -17.622 -64.753 -48.981  1.00  0.00    -0.387 OA
ATOM     30  H9  UNL     1     -17.419 -65.671 -48.843  1.00  0.00     0.210 HD
ENDBRANCH  28  29
BRANCH  28  31
HETATM   31  C14 UNL     1     -19.602 -64.041 -48.074  1.00  0.00     0.077 C 
BRANCH  31  32
HETATM   32  N3  UNL     1     -20.306 -62.793 -48.230  1.00  0.00    -0.324 N 
HETATM   33  C15 UNL     1     -21.700 -62.671 -48.018  1.00  0.00     0.281 C 
HETATM   34  O10 UNL     1     -22.388 -63.657 -47.680  1.00  0.00    -0.268 OA
ATOM     35  H3  UNL     1     -19.778 -61.963 -48.503  1.00  0.00     0.168 HD
BRANCH  33  36
HETATM   36  C16 UNL     1     -22.382 -61.370 -48.193  1.00  0.00     0.438 C 
BRANCH  36  37
HETATM   37  N4  UNL     1     -23.353 -61.396 -49.270  1.00  0.00    -0.042 N 
ATOM     38  H43 UNL     1     -22.893 -61.366 -50.180  1.00  0.00     0.278 HD
ATOM     39  H42 UNL     1     -23.797 -62.311 -49.342  1.00  0.00     0.278 HD
ATOM     40  H41 UNL     1     -24.048 -60.655 -49.183  1.00  0.00     0.278 HD
ENDBRANCH  36  37
BRANCH  36  41
HETATM   41  O11 UNL     1     -21.419 -60.369 -48.451  1.00  0.00    -0.244 OA
BRANCH  41  42
HETATM   42  N5  UNL     1     -21.478 -59.463 -47.456  1.00  0.00    -0.308 N 
ATOM     43  H52 UNL     1     -22.337 -59.100 -47.043  1.00  0.00     0.184 HD
ATOM     44  H51 UNL     1     -20.523 -59.213 -47.197  1.00  0.00     0.184 HD
ENDBRANCH  41  42
ENDBRANCH  36  41
ENDBRANCH  33  36
ENDBRANCH  31  32
BRANCH  31  45
HETATM   45  C17 UNL     1     -18.891 -64.148 -46.763  1.00  0.00     0.365 C 
BRANCH  45  46
HETATM   46  N6  UNL     1     -19.932 -63.991 -45.706  1.00  0.00    -0.048 N 
ATOM     47  H63 UNL     1     -19.698 -64.469 -44.835  1.00  0.00     0.277 HD
ATOM     48  H62 UNL     1     -19.980 -63.047 -45.323  1.00  0.00     0.277 HD
ATOM     49  H61 UNL     1     -20.810 -64.307 -46.118  1.00  0.00     0.277 HD
ENDBRANCH  45  46
BRANCH  45  50
HETATM   50  O12 UNL     1     -18.487 -65.501 -46.530  1.00  0.00    -0.365 OA
ATOM     51  H12 UNL     1     -18.111 -65.870 -47.320  1.00  0.00     0.212 HD
ENDBRANCH  45  50
ENDBRANCH  31  45
ENDBRANCH  28  31
ENDBRANCH   2  28
TORSDOF 19
ENDMDL
MODEL 2
REMARK VINA RESULT: -7.955166331      3.426      8.376
REMARK  19 active torsions:
REMARK  status: ('A' for Active; 'I' for Inactive)
REMARK    1  A    between atoms: C2_2  and  O1_3 
REMARK    2  A    between atoms: C2_2  and  C3_5 
REMARK    3  A    between atoms: C2_2  and  C13_28 
REMARK    4  A    between atoms: C3_5  and  O2_6 
REMARK    5  A    between atoms: C3_5  and  C4_8 
REMARK    6  A    between atoms: C4_8  and  C5_10 
REMARK    7  A    between atoms: C6_12  and  N1_13 
REMARK    8  A    between atoms: C11_22  and  O7_23 
REMARK    9  A    between atoms: C12_25  and  O8_26 
REMARK   10  A    between atoms: C13_28  and  O9_29 
REMARK   11  A    between atoms: C13_28  and  C14_31 
REMARK   12  A    between atoms: C14_31  and  N3_32 
REMARK   13  A    between atoms: C14_31  and  C17_45 
REMARK       I    between atoms: N3_32  and  C15_34 
REMARK   14  A    between atoms: C15_34  and  C16_36 
REMARK   15  A    between atoms: C16_36  and  N4_37 
REMARK   16  A    between atoms: C16_36  and  O11_41 
REMARK   17  A    between atoms: O11_41  and  N5_42 
REMARK   18  A    between atoms: C17_45  and  N6_46 
REMARK   19  A    between atoms: C17_45  and  O12_50 
ROOT
HETATM    1  C1  UNL     1     -20.795 -69.325 -54.213  1.00  0.00     0.052 C 
HETATM    2  C2  UNL     1     -20.513 -69.945 -52.901  1.00  0.00     0.118 C 
ENDROOT
BRANCH   2   3
HETATM    3  O1  UNL     1     -20.896 -71.280 -52.955  1.00  0.00    -0.384 OA
ATOM      4  H1  UNL     1     -21.837 -71.316 -53.082  1.00  0.00     0.210 HD
ENDBRANCH   2   3
BRANCH   2   5
HETATM    5  C3  UNL     1     -19.049 -69.977 -52.509  1.00  0.00     0.227 C 
BRANCH   5   6
HETATM    6  O2  UNL     1     -18.421 -71.196 -52.916  1.00  0.00    -0.385 OA
ATOM      7  H2  UNL     1     -17.505 -71.063 -53.128  1.00  0.00     0.210 HD
ENDBRANCH   5   6
BRANCH   5   8
HETATM    8  C4  UNL     1     -18.214 -68.881 -53.045  1.00  0.00     0.189 C 
HETATM    9  O3  UNL     1     -17.883 -68.834 -54.206  1.00  0.00    -0.292 OA
BRANCH   8  10
HETATM   10  C5  UNL     1     -17.747 -67.774 -52.175  1.00  0.00     0.227 C 
HETATM   11  O4  UNL     1     -18.019 -66.504 -52.706  1.00  0.00    -0.348 OA
HETATM   12  C6  UNL     1     -17.415 -65.676 -51.759  1.00  0.00     0.264 C 
HETATM   13  C11 UNL     1     -16.145 -66.343 -51.295  1.00  0.00     0.199 C 
HETATM   14  C12 UNL     1     -16.235 -67.679 -52.062  1.00  0.00     0.187 C 
BRANCH  12  15
HETATM   15  N1  UNL     1     -17.094 -64.359 -52.254  1.00  0.00    -0.280 N 
HETATM   16  C7  UNL     1     -16.012 -64.217 -53.054  1.00  0.00     0.104 A 
HETATM   17  C8  UNL     1     -15.630 -62.991 -53.568  1.00  0.00     0.092 A 
HETATM   18  C9  UNL     1     -16.371 -61.885 -53.261  1.00  0.00     0.250 A 
HETATM   19  O5  UNL     1     -16.059 -60.760 -53.705  1.00  0.00    -0.268 OA
HETATM   20  N2  UNL     1     -17.452 -62.032 -52.462  1.00  0.00    -0.275 N 
HETATM   21  C10 UNL     1     -17.799 -63.256 -51.972  1.00  0.00     0.331 A 
ATOM     22  H2  UNL     1     -18.015 -61.216 -52.223  1.00  0.00     0.173 HD
HETATM   23  O6  UNL     1     -18.820 -63.378 -51.220  1.00  0.00    -0.246 OA
ENDBRANCH  12  15
BRANCH  13  24
HETATM   24  O7  UNL     1     -16.146 -66.616 -49.946  1.00  0.00    -0.388 OA
ATOM     25  H7  UNL     1     -16.383 -65.864 -49.417  1.00  0.00     0.210 HD
ENDBRANCH  13  24
BRANCH  14  26
HETATM   26  O8  UNL     1     -15.600 -67.556 -53.283  1.00  0.00    -0.390 OA
ATOM     27  H8  UNL     1     -15.202 -68.365 -53.584  1.00  0.00     0.210 HD
ENDBRANCH  14  26
ENDBRANCH   8  10
ENDBRANCH   5   8
ENDBRANCH   2   5
BRANCH   2  28
HETATM   28  C13 UNL     1     -21.307 -69.362 -51.762  1.00  0.00     0.205 C 
BRANCH  28  29
HETATM   29  O9  UNL     1     -21.306 -67.939 -51.906  1.00  0.00    -0.387 OA
ATOM     30  H9  UNL     1     -20.581 -67.593 -51.399  1.00  0.00     0.210 HD
ENDBRANCH  28  29
BRANCH  28  31
HETATM   31  C14 UNL     1     -20.881 -69.593 -50.379  1.00  0.00     0.077 C 
BRANCH  31  32
HETATM   32  N3  UNL     1     -21.300 -70.817 -49.743  1.00  0.00    -0.324 N 
HETATM   33  C15 UNL     1     -20.479 -71.968 -49.686  1.00  0.00     0.281 C 
HETATM   34  O10 UNL     1     -19.336 -71.970 -50.190  1.00  0.00    -0.268 OA
ATOM     35  H3  UNL     1     -22.227 -70.854 -49.317  1.00  0.00     0.168 HD
BRANCH  33  36
HETATM   36  C16 UNL     1     -20.953 -73.204 -49.025  1.00  0.00     0.438 C 
BRANCH  36  37
HETATM   37  N4  UNL     1     -22.318 -73.534 -49.386  1.00  0.00    -0.042 N 
ATOM     38  H43 UNL     1     -22.624 -72.996 -50.197  1.00  0.00     0.278 HD
ATOM     39  H42 UNL     1     -22.377 -74.473 -49.781  1.00  0.00     0.278 HD
ATOM     40  H41 UNL     1     -22.964 -73.422 -48.605  1.00  0.00     0.278 HD
ENDBRANCH  36  37
BRANCH  36  41
HETATM   41  O11 UNL     1     -20.861 -73.049 -47.624  1.00  0.00    -0.244 OA
BRANCH  41  42
HETATM   42  N5  UNL     1     -19.816 -73.779 -47.188  1.00  0.00    -0.308 N 
ATOM     43  H52 UNL     1     -19.145 -74.259 -47.787  1.00  0.00     0.184 HD
ATOM     44  H51 UNL     1     -19.821 -73.762 -46.168  1.00  0.00     0.184 HD
ENDBRANCH  41  42
ENDBRANCH  36  41
ENDBRANCH  33  36
ENDBRANCH  31  32
BRANCH  31  45
HETATM   45  C17 UNL     1     -20.787 -68.445 -49.426  1.00  0.00     0.365 C 
BRANCH  45  46
HETATM   46  N6  UNL     1     -22.188 -68.087 -49.058  1.00  0.00    -0.048 N 
ATOM     47  H63 UNL     1     -22.727 -68.878 -48.704  1.00  0.00     0.277 HD
ATOM     48  H62 UNL     1     -22.251 -67.506 -48.223  1.00  0.00     0.277 HD
ATOM     49  H61 UNL     1     -22.601 -67.654 -49.885  1.00  0.00     0.277 HD
ENDBRANCH  45  46
BRANCH  45  50
HETATM   50  O12 UNL     1     -20.294 -68.895 -48.159  1.00  0.00    -0.365 OA
ATOM     51  H12 UNL     1     -19.612 -68.312 -47.848  1.00  0.00     0.212 HD
ENDBRANCH  45  50
ENDBRANCH  31  45
ENDBRANCH  28  31
ENDBRANCH   2  28
TORSDOF 19
ENDMDL
MODEL 3
REMARK VINA RESULT: -7.793737235      3.630      4.754
REMARK  19 active torsions:
REMARK  status: ('A' for Active; 'I' for Inactive)
REMARK    1  A    between atoms: C2_2  and  O1_3 
REMARK    2  A    between atoms: C2_2  and  C3_5 
REMARK    3  A    between atoms: C2_2  and  C13_28 
REMARK    4  A    between atoms: C3_5  and  O2_6 
REMARK    5  A    between atoms: C3_5  and  C4_8 
REMARK    6  A    between atoms: C4_8  and  C5_10 
REMARK    7  A    between atoms: C6_12  and  N1_13 
REMARK    8  A    between atoms: C11_22  and  O7_23 
REMARK    9  A    between atoms: C12_25  and  O8_26 
REMARK   10  A    between atoms: C13_28  and  O9_29 
REMARK   11  A    between atoms: C13_28  and  C14_31 
REMARK   12  A    between atoms: C14_31  and  N3_32 
REMARK   13  A    between atoms: C14_31  and  C17_45 
REMARK       I    between atoms: N3_32  and  C15_34 
REMARK   14  A    between atoms: C15_34  and  C16_36 
REMARK   15  A    between atoms: C16_36  and  N4_37 
REMARK   16  A    between atoms: C16_36  and  O11_41 
REMARK   17  A    between atoms: O11_41  and  N5_42 
REMARK   18  A    between atoms: C17_45  and  N6_46 
REMARK   19  A    between atoms: C17_45  and  O12_50 
ROOT
HETATM    1  C1  UNL     1     -17.749 -65.454 -52.100  1.00  0.00     0.052 C 
HETATM    2  C2  UNL     1     -16.833 -66.511 -51.619  1.00  0.00     0.118 C 
ENDROOT
BRANCH   2   3
HETATM    3  O1  UNL     1     -17.362 -67.052 -50.453  1.00  0.00    -0.384 OA
ATOM      4  H1  UNL     1     -16.910 -67.867 -50.270  1.00  0.00     0.210 HD
ENDBRANCH   2   3
BRANCH   2   5
HETATM    5  C3  UNL     1     -16.669 -67.691 -52.556  1.00  0.00     0.227 C 
BRANCH   5   6
HETATM    6  O2  UNL     1     -16.245 -68.864 -51.856  1.00  0.00    -0.385 OA
ATOM      7  H2  UNL     1     -15.943 -69.538 -52.454  1.00  0.00     0.210 HD
ENDBRANCH   5   6
BRANCH   5   8
HETATM    8  C4  UNL     1     -17.872 -68.077 -53.323  1.00  0.00     0.189 C 
HETATM    9  O3  UNL     1     -17.861 -68.180 -54.527  1.00  0.00    -0.292 OA
BRANCH   8  10
HETATM   10  C5  UNL     1     -19.158 -68.368 -52.643  1.00  0.00     0.227 C 
HETATM   11  O4  UNL     1     -19.006 -69.149 -51.487  1.00  0.00    -0.348 OA
HETATM   12  C6  UNL     1     -20.336 -69.341 -51.109  1.00  0.00     0.264 C 
HETATM   13  C11 UNL     1     -21.159 -69.509 -52.360  1.00  0.00     0.199 C 
HETATM   14  C12 UNL     1     -20.080 -69.277 -53.439  1.00  0.00     0.187 C 
BRANCH  12  15
HETATM   15  N1  UNL     1     -20.542 -70.487 -50.258  1.00  0.00    -0.280 N 
HETATM   16  C7  UNL     1     -20.178 -71.706 -50.719  1.00  0.00     0.104 A 
HETATM   17  C8  UNL     1     -20.345 -72.857 -49.971  1.00  0.00     0.092 A 
HETATM   18  C9  UNL     1     -20.892 -72.763 -48.723  1.00  0.00     0.250 A 
HETATM   19  O5  UNL     1     -21.059 -73.779 -48.016  1.00  0.00    -0.268 OA
HETATM   20  N2  UNL     1     -21.253 -71.542 -48.266  1.00  0.00    -0.275 N 
HETATM   21  C10 UNL     1     -21.075 -70.427 -49.030  1.00  0.00     0.331 A 
ATOM     22  H2  UNL     1     -21.663 -71.455 -47.337  1.00  0.00     0.173 HD
HETATM   23  O6  UNL     1     -21.421 -69.285 -48.586  1.00  0.00    -0.246 OA
ENDBRANCH  12  15
BRANCH  13  24
HETATM   24  O7  UNL     1     -22.128 -68.542 -52.499  1.00  0.00    -0.388 OA
ATOM     25  H7  UNL     1     -22.914 -68.864 -52.923  1.00  0.00     0.210 HD
ENDBRANCH  13  24
BRANCH  14  26
HETATM   26  O8  UNL     1     -19.501 -70.482 -53.783  1.00  0.00    -0.390 OA
ATOM     27  H8  UNL     1     -20.134 -71.167 -53.965  1.00  0.00     0.210 HD
ENDBRANCH  14  26
ENDBRANCH   8  10
ENDBRANCH   5   8
ENDBRANCH   2   5
BRANCH   2  28
HETATM   28  C13 UNL     1     -15.468 -66.010 -51.227  1.00  0.00     0.205 C 
BRANCH  28  29
HETATM   29  O9  UNL     1     -14.551 -66.368 -52.265  1.00  0.00    -0.387 OA
ATOM     30  H9  UNL     1     -13.760 -65.856 -52.147  1.00  0.00     0.210 HD
ENDBRANCH  28  29
BRANCH  28  31
HETATM   31  C14 UNL     1     -14.838 -66.491 -49.995  1.00  0.00     0.077 C 
BRANCH  31  32
HETATM   32  N3  UNL     1     -14.991 -65.691 -48.806  1.00  0.00    -0.324 N 
HETATM   33  C15 UNL     1     -15.646 -66.165 -47.645  1.00  0.00     0.281 C 
HETATM   34  O10 UNL     1     -16.124 -67.318 -47.602  1.00  0.00    -0.268 OA
ATOM     35  H3  UNL     1     -14.611 -64.744 -48.802  1.00  0.00     0.168 HD
BRANCH  33  36
HETATM   36  C16 UNL     1     -15.782 -65.307 -46.448  1.00  0.00     0.438 C 
BRANCH  36  37
HETATM   37  N4  UNL     1     -16.110 -63.936 -46.787  1.00  0.00    -0.042 N 
ATOM     38  H43 UNL     1     -15.508 -63.587 -47.533  1.00  0.00     0.278 HD
ATOM     39  H42 UNL     1     -17.010 -63.881 -47.264  1.00  0.00     0.278 HD
ATOM     40  H41 UNL     1     -16.086 -63.319 -45.975  1.00  0.00     0.278 HD
ENDBRANCH  36  37
BRANCH  36  41
HETATM   41  O11 UNL     1     -14.576 -65.334 -45.714  1.00  0.00    -0.244 OA
BRANCH  41  42
HETATM   42  N5  UNL     1     -14.252 -66.621 -45.484  1.00  0.00    -0.308 N 
ATOM     43  H52 UNL     1     -14.217 -67.354 -46.193  1.00  0.00     0.184 HD
ATOM     44  H51 UNL     1     -14.053 -66.726 -44.489  1.00  0.00     0.184 HD
ENDBRANCH  41  42
ENDBRANCH  36  41
ENDBRANCH  33  36
ENDBRANCH  31  32
BRANCH  31  45
HETATM   45  C17 UNL     1     -13.520 -67.194 -50.057  1.00  0.00     0.365 C 
BRANCH  45  46
HETATM   46  N6  UNL     1     -12.473 -66.134 -49.989  1.00  0.00    -0.048 N 
ATOM     47  H63 UNL     1     -11.567 -66.438 -50.343  1.00  0.00     0.277 HD
ATOM     48  H62 UNL     1     -12.622 -65.376 -50.654  1.00  0.00     0.277 HD
ATOM     49  H61 UNL     1     -12.444 -65.821 -49.018  1.00  0.00     0.277 HD
ENDBRANCH  45  46
BRANCH  45  50
HETATM   50  O12 UNL     1     -13.271 -67.884 -48.828  1.00  0.00    -0.365 OA
ATOM     51  H12 UNL     1     -12.378 -68.206 -48.809  1.00  0.00     0.212 HD
ENDBRANCH  45  50
ENDBRANCH  31  45
ENDBRANCH  28  31
ENDBRANCH   2  28
TORSDOF 19
ENDMDL
MODEL 4
REMARK VINA RESULT: -7.777098347      2.574      3.681
REMARK  19 active torsions:
REMARK  status: ('A' for Active; 'I' for Inactive)
REMARK    1  A    between atoms: C2_2  and  O1_3 
REMARK    2  A    between atoms: C2_2  and  C3_5 
REMARK    3  A    between atoms: C2_2  and  C13_28 
REMARK    4  A    between atoms: C3_5  and  O2_6 
REMARK    5  A    between atoms: C3_5  and  C4_8 
REMARK    6  A    between atoms: C4_8  and  C5_10 
REMARK    7  A    between atoms: C6_12  and  N1_13 
REMARK    8  A    between atoms: C11_22  and  O7_23 
REMARK    9  A    between atoms: C12_25  and  O8_26 
REMARK   10  A    between atoms: C13_28  and  O9_29 
REMARK   11  A    between atoms: C13_28  and  C14_31 
REMARK   12  A    between atoms: C14_31  and  N3_32 
REMARK   13  A    between atoms: C14_31  and  C17_45 
REMARK       I    between atoms: N3_32  and  C15_34 
REMARK   14  A    between atoms: C15_34  and  C16_36 
REMARK   15  A    between atoms: C16_36  and  N4_37 
REMARK   16  A    between atoms: C16_36  and  O11_41 
REMARK   17  A    between atoms: O11_41  and  N5_42 
REMARK   18  A    between atoms: C17_45  and  N6_46 
REMARK   19  A    between atoms: C17_45  and  O12_50 
ROOT
HETATM    1  C1  UNL     1     -17.335 -65.666 -52.334  1.00  0.00     0.052 C 
HETATM    2  C2  UNL     1     -16.827 -66.869 -51.640  1.00  0.00     0.118 C 
ENDROOT
BRANCH   2   3
HETATM    3  O1  UNL     1     -17.784 -67.281 -50.720  1.00  0.00    -0.384 OA
ATOM      4  H1  UNL     1     -17.802 -66.654 -50.006  1.00  0.00     0.210 HD
ENDBRANCH   2   3
BRANCH   2   5
HETATM    5  C3  UNL     1     -16.599 -68.073 -52.530  1.00  0.00     0.227 C 
BRANCH   5   6
HETATM    6  O2  UNL     1     -16.462 -69.275 -51.766  1.00  0.00    -0.385 OA
ATOM      7  H2  UNL     1     -16.087 -69.977 -52.284  1.00  0.00     0.210 HD
ENDBRANCH   5   6
BRANCH   5   8
HETATM    8  C4  UNL     1     -17.648 -68.339 -53.537  1.00  0.00     0.189 C 
HETATM    9  O3  UNL     1     -17.481 -68.117 -54.713  1.00  0.00    -0.292 OA
BRANCH   8  10
HETATM   10  C5  UNL     1     -18.963 -68.905 -53.147  1.00  0.00     0.227 C 
HETATM   11  O4  UNL     1     -19.084 -69.115 -51.765  1.00  0.00    -0.348 OA
HETATM   12  C6  UNL     1     -20.342 -69.716 -51.689  1.00  0.00     0.264 C 
HETATM   13  C11 UNL     1     -20.502 -70.622 -52.883  1.00  0.00     0.199 C 
HETATM   14  C12 UNL     1     -19.189 -70.325 -53.637  1.00  0.00     0.187 C 
BRANCH  12  15
HETATM   15  N1  UNL     1     -20.549 -70.488 -50.487  1.00  0.00    -0.280 N 
HETATM   16  C7  UNL     1     -20.268 -71.811 -50.515  1.00  0.00     0.104 A 
HETATM   17  C8  UNL     1     -20.443 -72.625 -49.411  1.00  0.00     0.092 A 
HETATM   18  C9  UNL     1     -20.911 -72.076 -48.250  1.00  0.00     0.250 A 
HETATM   19  O5  UNL     1     -21.082 -72.778 -47.231  1.00  0.00    -0.268 OA
HETATM   20  N2  UNL     1     -21.189 -70.753 -48.227  1.00  0.00    -0.275 N 
HETATM   21  C10 UNL     1     -21.006 -69.980 -49.335  1.00  0.00     0.331 A 
ATOM     22  H2  UNL     1     -21.540 -70.328 -47.370  1.00  0.00     0.173 HD
HETATM   23  O6  UNL     1     -21.273 -68.735 -49.298  1.00  0.00    -0.246 OA
ENDBRANCH  12  15
BRANCH  13  24
HETATM   24  O7  UNL     1     -21.557 -70.264 -53.689  1.00  0.00    -0.388 OA
ATOM     25  H7  UNL     1     -21.332 -70.256 -54.612  1.00  0.00     0.210 HD
ENDBRANCH  13  24
BRANCH  14  26
HETATM   26  O8  UNL     1     -18.209 -71.209 -53.229  1.00  0.00    -0.390 OA
ATOM     27  H8  UNL     1     -17.987 -71.129 -52.309  1.00  0.00     0.210 HD
ENDBRANCH  14  26
ENDBRANCH   8  10
ENDBRANCH   5   8
ENDBRANCH   2   5
BRANCH   2  28
HETATM   28  C13 UNL     1     -15.585 -66.627 -50.822  1.00  0.00     0.205 C 
BRANCH  28  29
HETATM   29  O9  UNL     1     -14.702 -67.734 -51.024  1.00  0.00    -0.387 OA
ATOM     30  H9  UNL     1     -13.850 -67.496 -50.678  1.00  0.00     0.210 HD
ENDBRANCH  28  29
BRANCH  28  31
HETATM   31  C14 UNL     1     -15.683 -66.494 -49.366  1.00  0.00     0.077 C 
BRANCH  31  32
HETATM   32  N3  UNL     1     -16.618 -65.531 -48.842  1.00  0.00    -0.324 N 
HETATM   33  C15 UNL     1     -17.686 -65.891 -47.986  1.00  0.00     0.281 C 
HETATM   34  O10 UNL     1     -17.863 -67.079 -47.642  1.00  0.00    -0.268 OA
ATOM     35  H3  UNL     1     -16.505 -64.549 -49.097  1.00  0.00     0.168 HD
BRANCH  33  36
HETATM   36  C16 UNL     1     -18.624 -64.869 -47.473  1.00  0.00     0.438 C 
BRANCH  36  37
HETATM   37  N4  UNL     1     -19.233 -65.260 -46.217  1.00  0.00    -0.042 N 
ATOM     38  H43 UNL     1     -20.003 -65.912 -46.368  1.00  0.00     0.278 HD
ATOM     39  H42 UNL     1     -18.611 -65.863 -45.679  1.00  0.00     0.278 HD
ATOM     40  H41 UNL     1     -19.535 -64.456 -45.665  1.00  0.00     0.278 HD
ENDBRANCH  36  37
BRANCH  36  41
HETATM   41  O11 UNL     1     -19.634 -64.637 -48.433  1.00  0.00    -0.244 OA
BRANCH  41  42
HETATM   42  N5  UNL     1     -20.024 -65.828 -48.929  1.00  0.00    -0.308 N 
ATOM     43  H52 UNL     1     -20.925 -66.272 -48.749  1.00  0.00     0.184 HD
ATOM     44  H51 UNL     1     -19.267 -66.195 -49.506  1.00  0.00     0.184 HD
ENDBRANCH  41  42
ENDBRANCH  36  41
ENDBRANCH  33  36
ENDBRANCH  31  32
BRANCH  31  45
HETATM   45  C17 UNL     1     -14.458 -66.634 -48.521  1.00  0.00     0.365 C 
BRANCH  45  46
HETATM   46  N6  UNL     1     -14.246 -65.312 -47.863  1.00  0.00    -0.048 N 
ATOM     47  H63 UNL     1     -14.399 -65.334 -46.854  1.00  0.00     0.277 HD
ATOM     48  H62 UNL     1     -13.268 -65.026 -47.836  1.00  0.00     0.277 HD
ATOM     49  H61 UNL     1     -14.849 -64.649 -48.350  1.00  0.00     0.277 HD
ENDBRANCH  45  46
BRANCH  45  50
HETATM   50  O12 UNL     1     -14.737 -67.450 -47.379  1.00  0.00    -0.365 OA
ATOM     51  H12 UNL     1     -14.978 -68.327 -47.654  1.00  0.00     0.212 HD
ENDBRANCH  45  50
ENDBRANCH  31  45
ENDBRANCH  28  31
ENDBRANCH   2  28
TORSDOF 19
ENDMDL
MODEL 5
REMARK VINA RESULT: -7.768482493      4.121      5.161
REMARK  19 active torsions:
REMARK  status: ('A' for Active; 'I' for Inactive)
REMARK    1  A    between atoms: C2_2  and  O1_3 
REMARK    2  A    between atoms: C2_2  and  C3_5 
REMARK    3  A    between atoms: C2_2  and  C13_28 
REMARK    4  A    between atoms: C3_5  and  O2_6 
REMARK    5  A    between atoms: C3_5  and  C4_8 
REMARK    6  A    between atoms: C4_8  and  C5_10 
REMARK    7  A    between atoms: C6_12  and  N1_13 
REMARK    8  A    between atoms: C11_22  and  O7_23 
REMARK    9  A    between atoms: C12_25  and  O8_26 
REMARK   10  A    between atoms: C13_28  and  O9_29 
REMARK   11  A    between atoms: C13_28  and  C14_31 
REMARK   12  A    between atoms: C14_31  and  N3_32 
REMARK   13  A    between atoms: C14_31  and  C17_45 
REMARK       I    between atoms: N3_32  and  C15_34 
REMARK   14  A    between atoms: C15_34  and  C16_36 
REMARK   15  A    between atoms: C16_36  and  N4_37 
REMARK   16  A    between atoms: C16_36  and  O11_41 
REMARK   17  A    between atoms: O11_41  and  N5_42 
REMARK   18  A    between atoms: C17_45  and  N6_46 
REMARK   19  A    between atoms: C17_45  and  O12_50 
ROOT
HETATM    1  C1  UNL     1     -16.936 -65.709 -52.358  1.00  0.00     0.052 C 
HETATM    2  C2  UNL     1     -16.371 -66.975 -51.843  1.00  0.00     0.118 C 
ENDROOT
BRANCH   2   3
HETATM    3  O1  UNL     1     -17.007 -67.284 -50.647  1.00  0.00    -0.384 OA
ATOM      4  H1  UNL     1     -16.446 -67.869 -50.152  1.00  0.00     0.210 HD
ENDBRANCH   2   3
BRANCH   2   5
HETATM    5  C3  UNL     1     -16.598 -68.184 -52.728  1.00  0.00     0.227 C 
BRANCH   5   6
HETATM    6  O2  UNL     1     -16.488 -69.405 -51.991  1.00  0.00    -0.385 OA
ATOM      7  H2  UNL     1     -15.696 -69.879 -52.215  1.00  0.00     0.210 HD
ENDBRANCH   5   6
BRANCH   5   8
HETATM    8  C4  UNL     1     -17.899 -68.237 -53.427  1.00  0.00     0.189 C 
HETATM    9  O3  UNL     1     -17.988 -68.128 -54.627  1.00  0.00    -0.292 OA
BRANCH   8  10
HETATM   10  C5  UNL     1     -19.165 -68.437 -52.681  1.00  0.00     0.227 C 
HETATM   11  O4  UNL     1     -19.005 -69.208 -51.520  1.00  0.00    -0.348 OA
HETATM   12  C6  UNL     1     -20.324 -69.311 -51.075  1.00  0.00     0.264 C 
HETATM   13  C11 UNL     1     -21.216 -69.448 -52.282  1.00  0.00     0.199 C 
HETATM   14  C12 UNL     1     -20.179 -69.299 -53.415  1.00  0.00     0.187 C 
BRANCH  12  15
HETATM   15  N1  UNL     1     -20.558 -70.429 -50.194  1.00  0.00    -0.280 N 
HETATM   16  C7  UNL     1     -20.216 -71.668 -50.620  1.00  0.00     0.104 A 
HETATM   17  C8  UNL     1     -20.410 -72.794 -49.841  1.00  0.00     0.092 A 
HETATM   18  C9  UNL     1     -20.963 -72.654 -48.599  1.00  0.00     0.250 A 
HETATM   19  O5  UNL     1     -21.154 -73.648 -47.867  1.00  0.00    -0.268 OA
HETATM   20  N2  UNL     1     -21.301 -71.415 -48.178  1.00  0.00    -0.275 N 
HETATM   21  C10 UNL     1     -21.097 -70.325 -48.972  1.00  0.00     0.331 A 
ATOM     22  H2  UNL     1     -21.715 -71.294 -47.255  1.00  0.00     0.173 HD
HETATM   23  O6  UNL     1     -21.422 -69.165 -48.561  1.00  0.00    -0.246 OA
ENDBRANCH  12  15
BRANCH  13  24
HETATM   24  O7  UNL     1     -22.130 -68.425 -52.392  1.00  0.00    -0.388 OA
ATOM     25  H7  UNL     1     -22.841 -68.626 -52.988  1.00  0.00     0.210 HD
ENDBRANCH  13  24
BRANCH  14  26
HETATM   26  O8  UNL     1     -19.692 -70.543 -53.765  1.00  0.00    -0.390 OA
ATOM     27  H8  UNL     1     -18.844 -70.510 -54.193  1.00  0.00     0.210 HD
ENDBRANCH  14  26
ENDBRANCH   8  10
ENDBRANCH   5   8
ENDBRANCH   2   5
BRANCH   2  28
HETATM   28  C13 UNL     1     -14.908 -66.897 -51.493  1.00  0.00     0.205 C 
BRANCH  28  29
HETATM   29  O9  UNL     1     -14.528 -68.145 -50.904  1.00  0.00    -0.387 OA
ATOM     30  H9  UNL     1     -14.216 -67.970 -50.025  1.00  0.00     0.210 HD
ENDBRANCH  28  29
BRANCH  28  31
HETATM   31  C14 UNL     1     -14.436 -65.883 -50.547  1.00  0.00     0.077 C 
BRANCH  31  32
HETATM   32  N3  UNL     1     -15.102 -65.793 -49.271  1.00  0.00    -0.324 N 
HETATM   33  C15 UNL     1     -14.724 -66.577 -48.156  1.00  0.00     0.281 C 
HETATM   34  O10 UNL     1     -13.780 -67.392 -48.231  1.00  0.00    -0.268 OA
ATOM     35  H3  UNL     1     -15.876 -65.136 -49.169  1.00  0.00     0.168 HD
BRANCH  33  36
HETATM   36  C16 UNL     1     -15.439 -66.453 -46.866  1.00  0.00     0.438 C 
BRANCH  36  37
HETATM   37  N4  UNL     1     -14.568 -66.681 -45.729  1.00  0.00    -0.042 N 
ATOM     38  H43 UNL     1     -15.097 -67.010 -44.921  1.00  0.00     0.278 HD
ATOM     39  H42 UNL     1     -13.974 -67.496 -45.879  1.00  0.00     0.278 HD
ATOM     40  H41 UNL     1     -14.012 -65.859 -45.495  1.00  0.00     0.278 HD
ENDBRANCH  36  37
BRANCH  36  41
HETATM   41  O11 UNL     1     -16.507 -67.376 -46.833  1.00  0.00    -0.244 OA
BRANCH  41  42
HETATM   42  N5  UNL     1     -17.023 -67.377 -45.589  1.00  0.00    -0.308 N 
ATOM     43  H52 UNL     1     -17.343 -66.549 -45.086  1.00  0.00     0.184 HD
ATOM     44  H51 UNL     1     -17.035 -68.339 -45.251  1.00  0.00     0.184 HD
ENDBRANCH  41  42
ENDBRANCH  36  41
ENDBRANCH  33  36
ENDBRANCH  31  32
BRANCH  31  45
HETATM   45  C17 UNL     1     -13.962 -64.558 -51.050  1.00  0.00     0.365 C 
BRANCH  45  46
HETATM   46  N6  UNL     1     -12.689 -64.264 -50.330  1.00  0.00    -0.048 N 
ATOM     47  H63 UNL     1     -12.193 -65.103 -50.028  1.00  0.00     0.277 HD
ATOM     48  H62 UNL     1     -11.957 -63.895 -50.936  1.00  0.00     0.277 HD
ATOM     49  H61 UNL     1     -12.931 -63.639 -49.561  1.00  0.00     0.277 HD
ENDBRANCH  45  46
BRANCH  45  50
HETATM   50  O12 UNL     1     -13.477 -64.684 -52.391  1.00  0.00    -0.365 OA
ATOM     51  H12 UNL     1     -12.559 -64.443 -52.431  1.00  0.00     0.212 HD
ENDBRANCH  45  50
ENDBRANCH  31  45
ENDBRANCH  28  31
ENDBRANCH   2  28
TORSDOF 19
ENDMDL
