MODEL 1
REMARK VINA RESULT: -7.942246334      0.000      0.000
REMARK  17 active torsions:
REMARK  status: ('A' for Active; 'I' for Inactive)
REMARK    1  A    between atoms: N1_1  and  C1_5 
REMARK    2  A    between atoms: C1_5  and  C2_6 
REMARK    3  A    between atoms: C2_6  and  O1_7 
REMARK    4  A    between atoms: O1_7  and  N2_8 
REMARK    5  A    between atoms: N2_8  and  C3_10 
REMARK    6  A    between atoms: C7_14  and  O2_15 
REMARK    7  A    between atoms: C8_17  and  O3_18 
REMARK    8  A    between atoms: C9_20  and  O4_21 
REMARK    9  A    between atoms: C10_23  and  O5_24 
REMARK   10  A    between atoms: N3_26  and  O6_27 
REMARK   11  A    between atoms: C11_31  and  C12_32 
REMARK   12  A    between atoms: C12_32  and  N5_33 
REMARK   13  A    between atoms: C13_39  and  S1_40 
REMARK   14  A    between atoms: S1_40  and  C14_41 
REMARK   15  A    between atoms: C14_41  and  C15_42 
REMARK       I    between atoms: C15_42  and  N9_44 
REMARK   16  A    between atoms: N9_44  and  N10_45 
REMARK   17  A    between atoms: N10_45  and  N11_47 
ROOT
HETATM    1  C3  UNL     1     -20.031 -65.191 -50.317  1.00  0.00     0.084 A 
HETATM    2  C4  UNL     1     -19.075 -64.207 -50.736  1.00  0.00     0.065 A 
HETATM    3  C5  UNL     1     -18.046 -64.907 -51.389  1.00  0.00     0.062 A 
HETATM    4  C6  UNL     1     -16.981 -64.296 -51.912  1.00  0.00     0.095 C 
HETATM    5  C7  UNL     1     -16.839 -62.837 -51.804  1.00  0.00     0.203 C 
HETATM    6  C8  UNL     1     -15.682 -62.248 -52.489  1.00  0.00     0.186 C 
HETATM    7  C9  UNL     1     -14.956 -63.114 -53.423  1.00  0.00     0.200 C 
HETATM    8  C10 UNL     1     -14.673 -64.469 -52.767  1.00  0.00     0.278 C 
HETATM    9  N3  UNL     1     -15.993 -65.007 -52.598  1.00  0.00    -0.228 N 
HETATM   10  N4  UNL     1     -18.403 -66.187 -51.351  1.00  0.00    -0.351 N 
ATOM     11  H4  UNL     1     -17.849 -66.940 -51.760  1.00  0.00     0.166 HD
HETATM   12  C11 UNL     1     -19.572 -66.385 -50.713  1.00  0.00     0.079 A 
ENDROOT
BRANCH  12  13
HETATM   13  C12 UNL     1     -20.147 -67.579 -50.504  1.00  0.00     0.148 C 
BRANCH  13  14
HETATM   14  N5  UNL     1     -21.490 -67.962 -50.775  1.00  0.00    -0.225 N 
HETATM   15  N6  UNL     1     -22.534 -67.612 -50.022  1.00  0.00     0.002 NA
HETATM   16  N7  UNL     1     -23.636 -67.987 -50.650  1.00  0.00    -0.224 N 
HETATM   17  N8  UNL     1     -23.317 -68.565 -51.790  1.00  0.00    -0.266 N 
ATOM     18  H7  UNL     1     -24.586 -67.848 -50.305  1.00  0.00     0.205 HD
HETATM   19  C13 UNL     1     -21.937 -68.554 -51.873  1.00  0.00     0.180 A 
ATOM     20  H8  UNL     1     -23.965 -68.947 -52.479  1.00  0.00     0.190 HD
BRANCH  19  21
HETATM   21  S1  UNL     1     -21.075 -69.328 -53.166  1.00  0.00    -0.080 SA
BRANCH  21  22
HETATM   22  C14 UNL     1     -20.349 -70.919 -52.848  1.00  0.00     0.203 C 
BRANCH  22  23
HETATM   23  C15 UNL     1     -19.181 -70.792 -51.982  1.00  0.00     0.323 C 
HETATM   24  O7  UNL     1     -19.203 -71.323 -50.863  1.00  0.00    -0.254 OA
HETATM   25  N9  UNL     1     -18.010 -70.078 -52.364  1.00  0.00    -0.271 NA
BRANCH  25  26
HETATM   26  N10 UNL     1     -16.944 -69.433 -52.704  1.00  0.00    -0.179 N 
ATOM     27  H10 UNL     1     -16.097 -69.374 -52.139  1.00  0.00     0.223 HD
BRANCH  26  28
HETATM   28  N11 UNL     1     -17.111 -68.826 -53.955  1.00  0.00    -0.320 N 
ATOM     29 2H11 UNL     1     -17.588 -69.267 -54.741  1.00  0.00     0.179 HD
ATOM     30 1H11 UNL     1     -16.692 -67.895 -53.963  1.00  0.00     0.179 HD
ENDBRANCH  26  28
ENDBRANCH  25  26
ENDBRANCH  22  23
ENDBRANCH  21  22
ENDBRANCH  19  21
ENDBRANCH  13  14
ENDBRANCH  12  13
BRANCH   1  31
HETATM   31  N2  UNL     1     -21.173 -64.855 -49.578  1.00  0.00    -0.265 N 
ATOM     32  H2  UNL     1     -21.681 -65.580 -49.072  1.00  0.00     0.194 HD
BRANCH  31  33
HETATM   33  O1  UNL     1     -21.607 -63.579 -49.531  1.00  0.00    -0.278 OA
BRANCH  33  34
HETATM   34  C2  UNL     1     -21.713 -63.029 -48.284  1.00  0.00     0.228 C 
BRANCH  34  35
HETATM   35  C1  UNL     1     -22.240 -61.607 -48.380  1.00  0.00     0.258 C 
BRANCH  35  36
HETATM   36  N1  UNL     1     -23.396 -61.551 -49.205  1.00  0.00    -0.077 N 
ATOM     37  H13 UNL     1     -23.164 -61.680 -50.190  1.00  0.00     0.274 HD
ATOM     38  H12 UNL     1     -23.991 -62.370 -49.079  1.00  0.00     0.274 HD
ATOM     39  H11 UNL     1     -23.911 -60.683 -49.050  1.00  0.00     0.274 HD
ENDBRANCH  35  36
ENDBRANCH  34  35
ENDBRANCH  33  34
ENDBRANCH  31  33
ENDBRANCH   1  31
BRANCH   5  40
HETATM   40  O2  UNL     1     -17.955 -62.099 -52.284  1.00  0.00    -0.387 OA
ATOM     41  H2  UNL     1     -17.766 -61.541 -53.030  1.00  0.00     0.210 HD
ENDBRANCH   5  40
BRANCH   9  42
HETATM   42  O6  UNL     1     -16.235 -66.261 -53.157  1.00  0.00    -0.285 OA
ATOM     43  H6  UNL     1     -16.573 -66.364 -54.039  1.00  0.00     0.245 HD
ENDBRANCH   9  42
BRANCH   6  44
HETATM   44  O3  UNL     1     -14.743 -61.859 -51.492  1.00  0.00    -0.390 OA
ATOM     45  H3  UNL     1     -13.920 -61.676 -51.928  1.00  0.00     0.210 HD
ENDBRANCH   6  44
BRANCH   8  46
HETATM   46  O5  UNL     1     -14.011 -64.374 -51.586  1.00  0.00    -0.372 OA
ATOM     47  H5  UNL     1     -14.299 -65.004 -50.936  1.00  0.00     0.212 HD
ENDBRANCH   8  46
BRANCH   7  48
HETATM   48  O4  UNL     1     -13.831 -62.513 -53.948  1.00  0.00    -0.388 OA
ATOM     49  H4  UNL     1     -13.069 -63.081 -53.935  1.00  0.00     0.210 HD
ENDBRANCH   7  48
TORSDOF 17
ENDMDL
MODEL 2
REMARK VINA RESULT: -7.706908373      2.272      5.650
REMARK  17 active torsions:
REMARK  status: ('A' for Active; 'I' for Inactive)
REMARK    1  A    between atoms: N1_1  and  C1_5 
REMARK    2  A    between atoms: C1_5  and  C2_6 
REMARK    3  A    between atoms: C2_6  and  O1_7 
REMARK    4  A    between atoms: O1_7  and  N2_8 
REMARK    5  A    between atoms: N2_8  and  C3_10 
REMARK    6  A    between atoms: C7_14  and  O2_15 
REMARK    7  A    between atoms: C8_17  and  O3_18 
REMARK    8  A    between atoms: C9_20  and  O4_21 
REMARK    9  A    between atoms: C10_23  and  O5_24 
REMARK   10  A    between atoms: N3_26  and  O6_27 
REMARK   11  A    between atoms: C11_31  and  C12_32 
REMARK   12  A    between atoms: C12_32  and  N5_33 
REMARK   13  A    between atoms: C13_39  and  S1_40 
REMARK   14  A    between atoms: S1_40  and  C14_41 
REMARK   15  A    between atoms: C14_41  and  C15_42 
REMARK       I    between atoms: C15_42  and  N9_44 
REMARK   16  A    between atoms: N9_44  and  N10_45 
REMARK   17  A    between atoms: N10_45  and  N11_47 
ROOT
HETATM    1  C3  UNL     1     -18.358 -65.697 -50.180  1.00  0.00     0.084 A 
HETATM    2  C4  UNL     1     -18.383 -64.414 -49.537  1.00  0.00     0.065 A 
HETATM    3  C5  UNL     1     -19.714 -64.194 -49.144  1.00  0.00     0.062 A 
HETATM    4  C6  UNL     1     -20.103 -63.085 -48.511  1.00  0.00     0.095 C 
HETATM    5  C7  UNL     1     -19.128 -62.025 -48.212  1.00  0.00     0.203 C 
HETATM    6  C8  UNL     1     -19.631 -60.887 -47.432  1.00  0.00     0.186 C 
HETATM    7  C9  UNL     1     -20.947 -61.046 -46.804  1.00  0.00     0.200 C 
HETATM    8  C10 UNL     1     -21.948 -61.599 -47.824  1.00  0.00     0.278 C 
HETATM    9  N3  UNL     1     -21.422 -62.908 -48.088  1.00  0.00    -0.228 N 
HETATM   10  N4  UNL     1     -20.385 -65.277 -49.526  1.00  0.00    -0.351 N 
ATOM     11  H4  UNL     1     -21.383 -65.408 -49.364  1.00  0.00     0.166 HD
HETATM   12  C11 UNL     1     -19.606 -66.180 -50.150  1.00  0.00     0.079 A 
ENDROOT
BRANCH  12  13
HETATM   13  C12 UNL     1     -20.031 -67.345 -50.664  1.00  0.00     0.148 C 
BRANCH  13  14
HETATM   14  N5  UNL     1     -21.371 -67.807 -50.789  1.00  0.00    -0.225 N 
HETATM   15  N6  UNL     1     -22.361 -67.465 -49.963  1.00  0.00     0.002 NA
HETATM   16  N7  UNL     1     -23.493 -67.928 -50.465  1.00  0.00    -0.224 N 
HETATM   17  N8  UNL     1     -23.247 -68.556 -51.597  1.00  0.00    -0.266 N 
ATOM     18  H7  UNL     1     -24.414 -67.817 -50.042  1.00  0.00     0.205 HD
HETATM   19  C13 UNL     1     -21.882 -68.483 -51.808  1.00  0.00     0.180 A 
ATOM     20  H8  UNL     1     -23.932 -69.008 -52.202  1.00  0.00     0.190 HD
BRANCH  19  21
HETATM   21  S1  UNL     1     -21.099 -69.288 -53.132  1.00  0.00    -0.080 SA
BRANCH  21  22
HETATM   22  C14 UNL     1     -20.449 -70.917 -52.849  1.00  0.00     0.203 C 
BRANCH  22  23
HETATM   23  C15 UNL     1     -19.815 -71.002 -51.537  1.00  0.00     0.323 C 
HETATM   24  O7  UNL     1     -18.585 -70.886 -51.455  1.00  0.00    -0.254 OA
HETATM   25  N9  UNL     1     -20.550 -71.216 -50.336  1.00  0.00    -0.271 NA
BRANCH  25  26
HETATM   26  N10 UNL     1     -21.211 -71.410 -49.243  1.00  0.00    -0.179 N 
ATOM     27  H10 UNL     1     -21.628 -72.299 -48.968  1.00  0.00     0.223 HD
BRANCH  26  28
HETATM   28  N11 UNL     1     -21.274 -70.233 -48.488  1.00  0.00    -0.320 N 
ATOM     29 2H11 UNL     1     -21.767 -69.392 -48.787  1.00  0.00     0.179 HD
ATOM     30 1H11 UNL     1     -20.763 -70.339 -47.611  1.00  0.00     0.179 HD
ENDBRANCH  26  28
ENDBRANCH  25  26
ENDBRANCH  22  23
ENDBRANCH  21  22
ENDBRANCH  19  21
ENDBRANCH  13  14
ENDBRANCH  12  13
BRANCH   1  31
HETATM   31  N2  UNL     1     -17.191 -66.221 -50.753  1.00  0.00    -0.265 N 
ATOM     32  H2  UNL     1     -16.554 -66.778 -50.184  1.00  0.00     0.194 HD
BRANCH  31  33
HETATM   33  O1  UNL     1     -16.904 -65.994 -52.051  1.00  0.00    -0.278 OA
BRANCH  33  34
HETATM   34  C2  UNL     1     -16.431 -67.066 -52.754  1.00  0.00     0.228 C 
BRANCH  34  35
HETATM   35  C1  UNL     1     -17.585 -67.845 -53.364  1.00  0.00     0.258 C 
BRANCH  35  36
HETATM   36  N1  UNL     1     -17.244 -69.217 -53.516  1.00  0.00    -0.077 N 
ATOM     37  H13 UNL     1     -16.343 -69.334 -53.978  1.00  0.00     0.274 HD
ATOM     38  H12 UNL     1     -17.015 -69.650 -52.621  1.00  0.00     0.274 HD
ATOM     39  H11 UNL     1     -17.984 -69.724 -54.001  1.00  0.00     0.274 HD
ENDBRANCH  35  36
ENDBRANCH  34  35
ENDBRANCH  33  34
ENDBRANCH  31  33
ENDBRANCH   1  31
BRANCH   5  40
HETATM   40  O2  UNL     1     -17.978 -62.466 -47.504  1.00  0.00    -0.387 OA
ATOM     41  H2  UNL     1     -17.577 -63.253 -47.854  1.00  0.00     0.210 HD
ENDBRANCH   5  40
BRANCH   9  42
HETATM   42  O6  UNL     1     -22.289 -63.983 -47.893  1.00  0.00    -0.285 OA
ATOM     43  H6  UNL     1     -22.192 -64.584 -47.164  1.00  0.00     0.245 HD
ENDBRANCH   9  42
BRANCH   6  44
HETATM   44  O3  UNL     1     -19.739 -59.775 -48.314  1.00  0.00    -0.390 OA
ATOM     45  H3  UNL     1     -20.052 -59.036 -47.807  1.00  0.00     0.210 HD
ENDBRANCH   6  44
BRANCH   8  46
HETATM   46  O5  UNL     1     -22.042 -60.854 -48.954  1.00  0.00    -0.372 OA
ATOM     47  H5  UNL     1     -21.897 -61.351 -49.751  1.00  0.00     0.212 HD
ENDBRANCH   8  46
BRANCH   7  48
HETATM   48  O4  UNL     1     -21.382 -59.899 -46.174  1.00  0.00    -0.388 OA
ATOM     49  H4  UNL     1     -21.482 -59.165 -46.770  1.00  0.00     0.210 HD
ENDBRANCH   7  48
TORSDOF 17
ENDMDL
MODEL 3
REMARK VINA RESULT: -7.679803516      2.643      5.684
REMARK  17 active torsions:
REMARK  status: ('A' for Active; 'I' for Inactive)
REMARK    1  A    between atoms: N1_1  and  C1_5 
REMARK    2  A    between atoms: C1_5  and  C2_6 
REMARK    3  A    between atoms: C2_6  and  O1_7 
REMARK    4  A    between atoms: O1_7  and  N2_8 
REMARK    5  A    between atoms: N2_8  and  C3_10 
REMARK    6  A    between atoms: C7_14  and  O2_15 
REMARK    7  A    between atoms: C8_17  and  O3_18 
REMARK    8  A    between atoms: C9_20  and  O4_21 
REMARK    9  A    between atoms: C10_23  and  O5_24 
REMARK   10  A    between atoms: N3_26  and  O6_27 
REMARK   11  A    between atoms: C11_31  and  C12_32 
REMARK   12  A    between atoms: C12_32  and  N5_33 
REMARK   13  A    between atoms: C13_39  and  S1_40 
REMARK   14  A    between atoms: S1_40  and  C14_41 
REMARK   15  A    between atoms: C14_41  and  C15_42 
REMARK       I    between atoms: C15_42  and  N9_44 
REMARK   16  A    between atoms: N9_44  and  N10_45 
REMARK   17  A    between atoms: N10_45  and  N11_47 
ROOT
HETATM    1  C3  UNL     1     -18.433 -65.612 -50.061  1.00  0.00     0.084 A 
HETATM    2  C4  UNL     1     -18.448 -64.329 -49.418  1.00  0.00     0.065 A 
HETATM    3  C5  UNL     1     -19.783 -64.082 -49.058  1.00  0.00     0.062 A 
HETATM    4  C6  UNL     1     -20.164 -62.966 -48.433  1.00  0.00     0.095 C 
HETATM    5  C7  UNL     1     -19.175 -61.927 -48.109  1.00  0.00     0.203 C 
HETATM    6  C8  UNL     1     -19.673 -60.779 -47.341  1.00  0.00     0.186 C 
HETATM    7  C9  UNL     1     -21.008 -60.910 -46.746  1.00  0.00     0.200 C 
HETATM    8  C10 UNL     1     -21.995 -61.442 -47.791  1.00  0.00     0.278 C 
HETATM    9  N3  UNL     1     -21.489 -62.761 -48.043  1.00  0.00    -0.228 N 
HETATM   10  N4  UNL     1     -20.466 -65.150 -49.458  1.00  0.00    -0.351 N 
ATOM     11  H4  UNL     1     -21.471 -65.261 -49.321  1.00  0.00     0.166 HD
HETATM   12  C11 UNL     1     -19.691 -66.069 -50.063  1.00  0.00     0.079 A 
ENDROOT
BRANCH  12  13
HETATM   13  C12 UNL     1     -20.128 -67.224 -50.589  1.00  0.00     0.148 C 
BRANCH  13  14
HETATM   14  N5  UNL     1     -21.468 -67.696 -50.671  1.00  0.00    -0.225 N 
HETATM   15  N6  UNL     1     -22.456 -67.282 -49.877  1.00  0.00     0.002 NA
HETATM   16  N7  UNL     1     -23.589 -67.788 -50.334  1.00  0.00    -0.224 N 
HETATM   17  N8  UNL     1     -23.345 -68.513 -51.407  1.00  0.00    -0.266 N 
ATOM     18  H7  UNL     1     -24.510 -67.639 -49.921  1.00  0.00     0.205 HD
HETATM   19  C13 UNL     1     -21.980 -68.459 -51.625  1.00  0.00     0.180 A 
ATOM     20  H8  UNL     1     -24.030 -69.017 -51.968  1.00  0.00     0.190 HD
BRANCH  19  21
HETATM   21  S1  UNL     1     -21.199 -69.378 -52.874  1.00  0.00    -0.080 SA
BRANCH  21  22
HETATM   22  C14 UNL     1     -19.426 -69.305 -52.975  1.00  0.00     0.203 C 
BRANCH  22  23
HETATM   23  C15 UNL     1     -18.819 -70.417 -52.250  1.00  0.00     0.323 C 
HETATM   24  O7  UNL     1     -17.584 -70.495 -52.195  1.00  0.00    -0.254 OA
HETATM   25  N9  UNL     1     -19.585 -71.425 -51.600  1.00  0.00    -0.271 NA
BRANCH  25  26
HETATM   26  N10 UNL     1     -20.274 -72.344 -51.008  1.00  0.00    -0.179 N 
ATOM     27  H10 UNL     1     -20.257 -73.332 -51.257  1.00  0.00     0.223 HD
BRANCH  26  28
HETATM   28  N11 UNL     1     -21.046 -71.796 -49.976  1.00  0.00    -0.320 N 
ATOM     29 2H11 UNL     1     -22.062 -71.719 -50.006  1.00  0.00     0.179 HD
ATOM     30 1H11 UNL     1     -20.452 -71.490 -49.204  1.00  0.00     0.179 HD
ENDBRANCH  26  28
ENDBRANCH  25  26
ENDBRANCH  22  23
ENDBRANCH  21  22
ENDBRANCH  19  21
ENDBRANCH  13  14
ENDBRANCH  12  13
BRANCH   1  31
HETATM   31  N2  UNL     1     -17.264 -66.160 -50.606  1.00  0.00    -0.265 N 
ATOM     32  H2  UNL     1     -17.123 -66.151 -51.616  1.00  0.00     0.194 HD
BRANCH  31  33
HETATM   33  O1  UNL     1     -16.323 -66.700 -49.805  1.00  0.00    -0.278 OA
BRANCH  33  34
HETATM   34  C2  UNL     1     -15.069 -66.803 -50.340  1.00  0.00     0.228 C 
BRANCH  34  35
HETATM   35  C1  UNL     1     -15.155 -67.127 -51.822  1.00  0.00     0.258 C 
BRANCH  35  36
HETATM   36  N1  UNL     1     -15.379 -68.516 -52.024  1.00  0.00    -0.077 N 
ATOM     37  H13 UNL     1     -14.503 -69.032 -52.110  1.00  0.00     0.274 HD
ATOM     38  H12 UNL     1     -15.741 -68.967 -51.183  1.00  0.00     0.274 HD
ATOM     39  H11 UNL     1     -15.988 -68.673 -52.828  1.00  0.00     0.274 HD
ENDBRANCH  35  36
ENDBRANCH  34  35
ENDBRANCH  33  34
ENDBRANCH  31  33
ENDBRANCH   1  31
BRANCH   5  40
HETATM   40  O2  UNL     1     -18.052 -62.392 -47.373  1.00  0.00    -0.387 OA
ATOM     41  H2  UNL     1     -17.492 -62.995 -47.848  1.00  0.00     0.210 HD
ENDBRANCH   5  40
BRANCH   9  42
HETATM   42  O6  UNL     1     -22.383 -63.817 -47.872  1.00  0.00    -0.285 OA
ATOM     43  H6  UNL     1     -22.148 -64.606 -47.397  1.00  0.00     0.245 HD
ENDBRANCH   9  42
BRANCH   6  44
HETATM   44  O3  UNL     1     -19.737 -59.664 -48.224  1.00  0.00    -0.390 OA
ATOM     45  H3  UNL     1     -18.846 -59.383 -48.395  1.00  0.00     0.210 HD
ENDBRANCH   6  44
BRANCH   8  46
HETATM   46  O5  UNL     1     -22.044 -60.694 -48.922  1.00  0.00    -0.372 OA
ATOM     47  H5  UNL     1     -21.199 -60.353 -49.191  1.00  0.00     0.212 HD
ENDBRANCH   8  46
BRANCH   7  48
HETATM   48  O4  UNL     1     -21.435 -59.755 -46.126  1.00  0.00    -0.388 OA
ATOM     49  H4  UNL     1     -21.848 -59.145 -46.725  1.00  0.00     0.210 HD
ENDBRANCH   7  48
TORSDOF 17
ENDMDL
MODEL 4
REMARK VINA RESULT: -7.649753223      4.124      6.460
REMARK  17 active torsions:
REMARK  status: ('A' for Active; 'I' for Inactive)
REMARK    1  A    between atoms: N1_1  and  C1_5 
REMARK    2  A    between atoms: C1_5  and  C2_6 
REMARK    3  A    between atoms: C2_6  and  O1_7 
REMARK    4  A    between atoms: O1_7  and  N2_8 
REMARK    5  A    between atoms: N2_8  and  C3_10 
REMARK    6  A    between atoms: C7_14  and  O2_15 
REMARK    7  A    between atoms: C8_17  and  O3_18 
REMARK    8  A    between atoms: C9_20  and  O4_21 
REMARK    9  A    between atoms: C10_23  and  O5_24 
REMARK   10  A    between atoms: N3_26  and  O6_27 
REMARK   11  A    between atoms: C11_31  and  C12_32 
REMARK   12  A    between atoms: C12_32  and  N5_33 
REMARK   13  A    between atoms: C13_39  and  S1_40 
REMARK   14  A    between atoms: S1_40  and  C14_41 
REMARK   15  A    between atoms: C14_41  and  C15_42 
REMARK       I    between atoms: C15_42  and  N9_44 
REMARK   16  A    between atoms: N9_44  and  N10_45 
REMARK   17  A    between atoms: N10_45  and  N11_47 
ROOT
HETATM    1  C3  UNL     1     -15.969 -67.498 -51.593  1.00  0.00     0.084 A 
HETATM    2  C4  UNL     1     -14.694 -67.660 -50.953  1.00  0.00     0.065 A 
HETATM    3  C5  UNL     1     -14.588 -66.621 -50.013  1.00  0.00     0.062 A 
HETATM    4  C6  UNL     1     -13.517 -66.466 -49.231  1.00  0.00     0.095 C 
HETATM    5  C7  UNL     1     -12.380 -67.392 -49.344  1.00  0.00     0.203 C 
HETATM    6  C8  UNL     1     -11.291 -67.196 -48.380  1.00  0.00     0.186 C 
HETATM    7  C9  UNL     1     -11.560 -66.301 -47.250  1.00  0.00     0.200 C 
HETATM    8  C10 UNL     1     -12.193 -64.999 -47.754  1.00  0.00     0.278 C 
HETATM    9  N3  UNL     1     -13.452 -65.454 -48.271  1.00  0.00    -0.228 N 
HETATM   10  N4  UNL     1     -15.722 -65.934 -50.108  1.00  0.00    -0.351 N 
ATOM     11  H4  UNL     1     -15.937 -65.118 -49.534  1.00  0.00     0.166 HD
HETATM   12  C11 UNL     1     -16.555 -66.427 -51.043  1.00  0.00     0.079 A 
ENDROOT
BRANCH  12  13
HETATM   13  C12 UNL     1     -17.750 -65.909 -51.366  1.00  0.00     0.148 C 
BRANCH  13  14
HETATM   14  N5  UNL     1     -19.039 -66.436 -51.075  1.00  0.00    -0.225 N 
HETATM   15  N6  UNL     1     -19.623 -67.413 -51.770  1.00  0.00     0.002 NA
HETATM   16  N7  UNL     1     -20.723 -67.771 -51.131  1.00  0.00    -0.224 N 
HETATM   17  N8  UNL     1     -20.853 -67.045 -50.039  1.00  0.00    -0.266 N 
ATOM     18  H7  UNL     1     -21.371 -68.498 -51.435  1.00  0.00     0.205 HD
HETATM   19  C13 UNL     1     -19.773 -66.181 -50.002  1.00  0.00     0.180 A 
ATOM     20  H8  UNL     1     -21.605 -67.107 -49.354  1.00  0.00     0.190 HD
BRANCH  19  21
HETATM   21  S1  UNL     1     -19.604 -64.952 -48.787  1.00  0.00    -0.080 SA
BRANCH  21  22
HETATM   22  C14 UNL     1     -18.282 -65.120 -47.611  1.00  0.00     0.203 C 
BRANCH  22  23
HETATM   23  C15 UNL     1     -17.989 -66.526 -47.357  1.00  0.00     0.323 C 
HETATM   24  O7  UNL     1     -18.880 -67.367 -47.535  1.00  0.00    -0.254 OA
HETATM   25  N9  UNL     1     -16.718 -66.981 -46.907  1.00  0.00    -0.271 NA
BRANCH  25  26
HETATM   26  N10 UNL     1     -15.566 -67.401 -46.499  1.00  0.00    -0.179 N 
ATOM     27  H10 UNL     1     -15.071 -68.204 -46.888  1.00  0.00     0.223 HD
BRANCH  26  28
HETATM   28  N11 UNL     1     -15.090 -66.603 -45.452  1.00  0.00    -0.320 N 
ATOM     29 2H11 UNL     1     -15.528 -66.552 -44.533  1.00  0.00     0.179 HD
ATOM     30 1H11 UNL     1     -14.256 -66.090 -45.739  1.00  0.00     0.179 HD
ENDBRANCH  26  28
ENDBRANCH  25  26
ENDBRANCH  22  23
ENDBRANCH  21  22
ENDBRANCH  19  21
ENDBRANCH  13  14
ENDBRANCH  12  13
BRANCH   1  31
HETATM   31  N2  UNL     1     -16.392 -68.334 -52.635  1.00  0.00    -0.265 N 
ATOM     32  H2  UNL     1     -16.194 -68.076 -53.602  1.00  0.00     0.194 HD
BRANCH  31  33
HETATM   33  O1  UNL     1     -17.058 -69.476 -52.370  1.00  0.00    -0.278 OA
BRANCH  33  34
HETATM   34  C2  UNL     1     -17.882 -69.931 -53.361  1.00  0.00     0.228 C 
BRANCH  34  35
HETATM   35  C1  UNL     1     -18.924 -70.876 -52.787  1.00  0.00     0.258 C 
BRANCH  35  36
HETATM   36  N1  UNL     1     -20.232 -70.489 -53.186  1.00  0.00    -0.077 N 
ATOM     37  H13 UNL     1     -20.209 -69.777 -53.916  1.00  0.00     0.274 HD
ATOM     38  H12 UNL     1     -20.702 -71.229 -53.707  1.00  0.00     0.274 HD
ATOM     39  H11 UNL     1     -20.782 -70.186 -52.382  1.00  0.00     0.274 HD
ENDBRANCH  35  36
ENDBRANCH  34  35
ENDBRANCH  33  34
ENDBRANCH  31  33
ENDBRANCH   1  31
BRANCH   5  40
HETATM   40  O2  UNL     1     -12.725 -68.765 -49.223  1.00  0.00    -0.387 OA
ATOM     41  H2  UNL     1     -12.127 -69.361 -49.660  1.00  0.00     0.210 HD
ENDBRANCH   5  40
BRANCH   9  42
HETATM   42  O6  UNL     1     -14.597 -64.841 -47.762  1.00  0.00    -0.285 OA
ATOM     43  H6  UNL     1     -14.577 -63.970 -47.382  1.00  0.00     0.245 HD
ENDBRANCH   9  42
BRANCH   6  44
HETATM   44  O3  UNL     1     -10.189 -66.632 -49.083  1.00  0.00    -0.390 OA
ATOM     45  H3  UNL     1      -9.410 -67.109 -48.827  1.00  0.00     0.210 HD
ENDBRANCH   6  44
BRANCH   8  46
HETATM   46  O5  UNL     1     -11.455 -64.367 -48.702  1.00  0.00    -0.372 OA
ATOM     47  H5  UNL     1     -11.932 -64.199 -49.506  1.00  0.00     0.212 HD
ENDBRANCH   8  46
BRANCH   7  48
HETATM   48  O4  UNL     1     -10.456 -66.100 -46.449  1.00  0.00    -0.388 OA
ATOM     49  H4  UNL     1      -9.977 -65.310 -46.672  1.00  0.00     0.210 HD
ENDBRANCH   7  48
TORSDOF 17
ENDMDL
MODEL 5
REMARK VINA RESULT: -7.635795537      2.808      5.474
REMARK  17 active torsions:
REMARK  status: ('A' for Active; 'I' for Inactive)
REMARK    1  A    between atoms: N1_1  and  C1_5 
REMARK    2  A    between atoms: C1_5  and  C2_6 
REMARK    3  A    between atoms: C2_6  and  O1_7 
REMARK    4  A    between atoms: O1_7  and  N2_8 
REMARK    5  A    between atoms: N2_8  and  C3_10 
REMARK    6  A    between atoms: C7_14  and  O2_15 
REMARK    7  A    between atoms: C8_17  and  O3_18 
REMARK    8  A    between atoms: C9_20  and  O4_21 
REMARK    9  A    between atoms: C10_23  and  O5_24 
REMARK   10  A    between atoms: N3_26  and  O6_27 
REMARK   11  A    between atoms: C11_31  and  C12_32 
REMARK   12  A    between atoms: C12_32  and  N5_33 
REMARK   13  A    between atoms: C13_39  and  S1_40 
REMARK   14  A    between atoms: S1_40  and  C14_41 
REMARK   15  A    between atoms: C14_41  and  C15_42 
REMARK       I    between atoms: C15_42  and  N9_44 
REMARK   16  A    between atoms: N9_44  and  N10_45 
REMARK   17  A    between atoms: N10_45  and  N11_47 
ROOT
HETATM    1  C3  UNL     1     -18.428 -65.544 -49.801  1.00  0.00     0.084 A 
HETATM    2  C4  UNL     1     -18.470 -64.218 -49.255  1.00  0.00     0.065 A 
HETATM    3  C5  UNL     1     -19.801 -63.992 -48.864  1.00  0.00     0.062 A 
HETATM    4  C6  UNL     1     -20.202 -62.846 -48.310  1.00  0.00     0.095 C 
HETATM    5  C7  UNL     1     -19.244 -61.751 -48.101  1.00  0.00     0.203 C 
HETATM    6  C8  UNL     1     -19.758 -60.567 -47.402  1.00  0.00     0.186 C 
HETATM    7  C9  UNL     1     -21.065 -60.700 -46.749  1.00  0.00     0.200 C 
HETATM    8  C10 UNL     1     -22.067 -61.344 -47.714  1.00  0.00     0.278 C 
HETATM    9  N3  UNL     1     -21.520 -62.660 -47.887  1.00  0.00    -0.228 N 
HETATM   10  N4  UNL     1     -20.456 -65.111 -49.158  1.00  0.00    -0.351 N 
ATOM     11  H4  UNL     1     -21.451 -65.247 -48.975  1.00  0.00     0.166 HD
HETATM   12  C11 UNL     1     -19.668 -66.045 -49.722  1.00  0.00     0.079 A 
ENDROOT
BRANCH  12  13
HETATM   13  C12 UNL     1     -20.078 -67.251 -50.144  1.00  0.00     0.148 C 
BRANCH  13  14
HETATM   14  N5  UNL     1     -21.404 -67.666 -50.450  1.00  0.00    -0.225 N 
HETATM   15  N6  UNL     1     -22.495 -67.186 -49.851  1.00  0.00     0.002 NA
HETATM   16  N7  UNL     1     -23.554 -67.654 -50.490  1.00  0.00    -0.224 N 
HETATM   17  N8  UNL     1     -23.161 -68.420 -51.487  1.00  0.00    -0.266 N 
ATOM     18  H7  UNL     1     -24.524 -67.453 -50.248  1.00  0.00     0.205 HD
HETATM   19  C13 UNL     1     -21.778 -68.433 -51.463  1.00  0.00     0.180 A 
ATOM     20  H8  UNL     1     -23.762 -68.909 -52.150  1.00  0.00     0.190 HD
BRANCH  19  21
HETATM   21  S1  UNL     1     -20.836 -69.421 -52.537  1.00  0.00    -0.080 SA
BRANCH  21  22
HETATM   22  C14 UNL     1     -19.266 -68.793 -53.082  1.00  0.00     0.203 C 
BRANCH  22  23
HETATM   23  C15 UNL     1     -18.170 -69.492 -52.420  1.00  0.00     0.323 C 
HETATM   24  O7  UNL     1     -18.376 -70.613 -51.938  1.00  0.00    -0.254 OA
HETATM   25  N9  UNL     1     -16.863 -68.938 -52.298  1.00  0.00    -0.271 NA
BRANCH  25  26
HETATM   26  N10 UNL     1     -15.676 -68.443 -52.184  1.00  0.00    -0.179 N 
ATOM     27  H10 UNL     1     -14.983 -68.749 -51.502  1.00  0.00     0.223 HD
BRANCH  26  28
HETATM   28  N11 UNL     1     -15.471 -67.427 -53.126  1.00  0.00    -0.320 N 
ATOM     29 2H11 UNL     1     -14.553 -67.156 -53.478  1.00  0.00     0.179 HD
ATOM     30 1H11 UNL     1     -16.359 -67.007 -53.403  1.00  0.00     0.179 HD
ENDBRANCH  26  28
ENDBRANCH  25  26
ENDBRANCH  22  23
ENDBRANCH  21  22
ENDBRANCH  19  21
ENDBRANCH  13  14
ENDBRANCH  12  13
BRANCH   1  31
HETATM   31  N2  UNL     1     -17.259 -66.090 -50.347  1.00  0.00    -0.265 N 
ATOM     32  H2  UNL     1     -17.008 -65.884 -51.314  1.00  0.00     0.194 HD
BRANCH  31  33
HETATM   33  O1  UNL     1     -16.462 -66.885 -49.605  1.00  0.00    -0.278 OA
BRANCH  33  34
HETATM   34  C2  UNL     1     -15.573 -66.245 -48.788  1.00  0.00     0.228 C 
BRANCH  34  35
HETATM   35  C1  UNL     1     -15.837 -66.608 -47.336  1.00  0.00     0.258 C 
BRANCH  35  36
HETATM   36  N1  UNL     1     -14.745 -67.336 -46.790  1.00  0.00    -0.077 N 
ATOM     37  H13 UNL     1     -14.224 -67.834 -47.512  1.00  0.00     0.274 HD
ATOM     38  H12 UNL     1     -14.003 -66.717 -46.464  1.00  0.00     0.274 HD
ATOM     39  H11 UNL     1     -15.061 -67.966 -46.053  1.00  0.00     0.274 HD
ENDBRANCH  35  36
ENDBRANCH  34  35
ENDBRANCH  33  34
ENDBRANCH  31  33
ENDBRANCH   1  31
BRANCH   5  40
HETATM   40  O2  UNL     1     -18.079 -62.119 -47.375  1.00  0.00    -0.387 OA
ATOM     41  H2  UNL     1     -18.126 -61.947 -46.442  1.00  0.00     0.210 HD
ENDBRANCH   5  40
BRANCH   9  42
HETATM   42  O6  UNL     1     -22.366 -63.732 -47.604  1.00  0.00    -0.285 OA
ATOM     43  H6  UNL     1     -22.060 -64.512 -47.157  1.00  0.00     0.245 HD
ENDBRANCH   9  42
BRANCH   6  44
HETATM   44  O3  UNL     1     -19.895 -59.525 -48.362  1.00  0.00    -0.390 OA
ATOM     45  H3  UNL     1     -20.742 -59.118 -48.226  1.00  0.00     0.210 HD
ENDBRANCH   6  44
BRANCH   8  46
HETATM   46  O5  UNL     1     -22.185 -60.686 -48.895  1.00  0.00    -0.372 OA
ATOM     47  H5  UNL     1     -23.071 -60.671 -49.236  1.00  0.00     0.212 HD
ENDBRANCH   8  46
BRANCH   7  48
HETATM   48  O4  UNL     1     -21.514 -59.518 -46.201  1.00  0.00    -0.388 OA
ATOM     49  H4  UNL     1     -22.212 -59.117 -46.706  1.00  0.00     0.210 HD
ENDBRANCH   7  48
TORSDOF 17
ENDMDL
