MODEL 1
REMARK VINA RESULT: -6.300299056      0.000      0.000
REMARK  6 active torsions:
REMARK  status: ('A' for Active; 'I' for Inactive)
REMARK    1  A    between atoms: C2_2  and  C3_3 
REMARK    2  A    between atoms: C3_3  and  N1_5 
REMARK    3  A    between atoms: N1_5  and  C5_7 
REMARK    4  A    between atoms: N7_23  and  C11_24 
REMARK    5  A    between atoms: C11_24  and  C12_25 
REMARK    6  A    between atoms: C12_25  and  N8_26 
ROOT
HETATM    1  C5  UNL     1     -38.610   9.292   5.431  1.00  0.00     0.683 A 
HETATM    2  N2  UNL     1     -37.382   9.813   5.078  1.00  0.00    -0.184 N 
ATOM      3  H2  UNL     1     -36.595   9.940   5.715  1.00  0.00     0.184 HD
HETATM    4  C6  UNL     1     -37.377  10.124   3.789  1.00  0.00     0.137 A 
HETATM    5  C7  UNL     1     -36.455  10.665   2.906  1.00  0.00     0.132 A 
HETATM    6  N3  UNL     1     -35.296  10.968   3.356  1.00  0.00    -0.383 N 
ATOM      7  H31 UNL     1     -34.617  11.366   2.707  1.00  0.00     0.157 HD
ATOM      8  H32 UNL     1     -35.017  10.834   4.328  1.00  0.00     0.157 HD
HETATM    9  N4  UNL     1     -36.820  10.841   1.630  1.00  0.00    -0.318 N 
ATOM     10  H4  UNL     1     -36.131  11.240   0.993  1.00  0.00     0.169 HD
HETATM   11  C8  UNL     1     -38.023  10.535   1.126  1.00  0.00     0.191 A 
HETATM   12  C9  UNL     1     -38.348  10.754  -0.268  1.00  0.00     0.137 C 
HETATM   13  N5  UNL     1     -38.622  10.923  -1.380  1.00  0.00    -0.188 NA
HETATM   14  N6  UNL     1     -38.921  10.010   1.981  1.00  0.00    -0.317 N 
ATOM     15  H6  UNL     1     -39.849   9.762   1.641  1.00  0.00     0.169 HD
HETATM   16  C10 UNL     1     -38.612   9.807   3.284  1.00  0.00     0.157 A 
HETATM   17  N7  UNL     1     -39.353   9.294   4.325  1.00  0.00    -0.164 N 
ENDROOT
BRANCH  17  18
HETATM   18  C11 UNL     1     -40.722   8.861   4.131  1.00  0.00     0.171 C 
BRANCH  18  19
HETATM   19  C12 UNL     1     -41.721   9.955   4.452  1.00  0.00     0.170 C 
BRANCH  19  20
HETATM   20  N8  UNL     1     -42.431  10.351   3.265  1.00  0.00    -0.289 N 
HETATM   21  C13 UNL     1     -43.621  11.080   3.497  1.00  0.00     0.177 C 
HETATM   22  C14 UNL     1     -43.364  12.562   3.671  1.00  0.00     0.256 C 
HETATM   23  N9  UNL     1     -42.037  12.922   3.225  1.00  0.00    -0.050 N 
HETATM   24  C15 UNL     1     -41.588  12.133   2.106  1.00  0.00     0.432 C 
ATOM     25  H92 UNL     1     -41.980  13.918   3.014  1.00  0.00     0.279 HD
ATOM     26  H91 UNL     1     -41.369  12.876   3.994  1.00  0.00     0.279 HD
HETATM   27  O1  UNL     1     -41.658  10.791   2.283  1.00  0.00    -0.255 OA
ENDBRANCH  19  20
ENDBRANCH  18  19
ENDBRANCH  17  18
BRANCH   1  28
HETATM   28  N1  UNL     1     -38.852   8.923   6.601  1.00  0.00    -0.222 N 
ATOM     29  H1  UNL     1     -38.288   8.112   6.852  1.00  0.00     0.178 HD
BRANCH  28  30
HETATM   30  C3  UNL     1     -39.671   9.303   7.652  1.00  0.00     0.095 C 
HETATM   31  C4  UNL     1     -41.008   8.572   7.707  1.00  0.00     0.032 C 
BRANCH  30  32
HETATM   32  C2  UNL     1     -38.963   8.850   8.959  1.00  0.00     0.021 C 
HETATM   33  C1  UNL     1     -39.497   9.625  10.124  1.00  0.00     0.007 C 
ENDBRANCH  30  32
ENDBRANCH  28  30
ENDBRANCH   1  28
TORSDOF 6
ENDMDL
MODEL 2
REMARK VINA RESULT: -6.176650765      1.491      1.849
REMARK  6 active torsions:
REMARK  status: ('A' for Active; 'I' for Inactive)
REMARK    1  A    between atoms: C2_2  and  C3_3 
REMARK    2  A    between atoms: C3_3  and  N1_5 
REMARK    3  A    between atoms: N1_5  and  C5_7 
REMARK    4  A    between atoms: N7_23  and  C11_24 
REMARK    5  A    between atoms: C11_24  and  C12_25 
REMARK    6  A    between atoms: C12_25  and  N8_26 
ROOT
HETATM    1  C5  UNL     1     -40.035   9.024   5.401  1.00  0.00     0.683 A 
HETATM    2  N2  UNL     1     -38.748   9.386   5.746  1.00  0.00    -0.184 N 
ATOM      3  H2  UNL     1     -38.360   9.344   6.688  1.00  0.00     0.184 HD
HETATM    4  C6  UNL     1     -38.093   9.798   4.669  1.00  0.00     0.137 A 
HETATM    5  C7  UNL     1     -36.814  10.268   4.410  1.00  0.00     0.132 A 
HETATM    6  N3  UNL     1     -35.996  10.359   5.389  1.00  0.00    -0.383 N 
ATOM      7  H31 UNL     1     -35.055  10.704   5.199  1.00  0.00     0.157 HD
ATOM      8  H32 UNL     1     -36.236  10.106   6.348  1.00  0.00     0.157 HD
HETATM    9  N4  UNL     1     -36.499  10.600   3.151  1.00  0.00    -0.318 N 
ATOM     10  H4  UNL     1     -35.555  10.944   2.977  1.00  0.00     0.169 HD
HETATM   11  C8  UNL     1     -37.330  10.516   2.104  1.00  0.00     0.191 A 
HETATM   12  C9  UNL     1     -36.918  10.895   0.768  1.00  0.00     0.137 C 
HETATM   13  N5  UNL     1     -36.604  11.193  -0.306  1.00  0.00    -0.188 NA
HETATM   14  N6  UNL     1     -38.572  10.061   2.352  1.00  0.00    -0.317 N 
ATOM     15  H6  UNL     1     -39.238   9.981   1.584  1.00  0.00     0.169 HD
HETATM   16  C10 UNL     1     -38.952   9.709   3.604  1.00  0.00     0.157 A 
HETATM   17  N7  UNL     1     -40.146   9.226   4.089  1.00  0.00    -0.164 N 
ENDROOT
BRANCH  17  18
HETATM   18  C11 UNL     1     -41.284   9.017   3.216  1.00  0.00     0.171 C 
BRANCH  18  19
HETATM   19  C12 UNL     1     -42.259  10.176   3.256  1.00  0.00     0.170 C 
BRANCH  19  20
HETATM   20  N8  UNL     1     -42.416  10.747   1.944  1.00  0.00    -0.289 N 
HETATM   21  C13 UNL     1     -43.459  11.695   1.827  1.00  0.00     0.177 C 
HETATM   22  C14 UNL     1     -43.020  13.087   2.229  1.00  0.00     0.256 C 
HETATM   23  N9  UNL     1     -41.579  13.183   2.305  1.00  0.00    -0.050 N 
HETATM   24  C15 UNL     1     -40.909  12.356   1.334  1.00  0.00     0.432 C 
ATOM     25  H92 UNL     1     -41.274  14.154   2.230  1.00  0.00     0.279 HD
ATOM     26  H91 UNL     1     -41.250  12.977   3.248  1.00  0.00     0.279 HD
HETATM   27  O1  UNL     1     -41.277  11.052   1.338  1.00  0.00    -0.255 OA
ENDBRANCH  19  20
ENDBRANCH  18  19
ENDBRANCH  17  18
BRANCH   1  28
HETATM   28  N1  UNL     1     -40.845   8.600   6.254  1.00  0.00    -0.222 N 
ATOM     29  H1  UNL     1     -40.409   8.541   7.175  1.00  0.00     0.178 HD
BRANCH  28  30
HETATM   30  C3  UNL     1     -42.167   8.187   6.304  1.00  0.00     0.095 C 
HETATM   31  C4  UNL     1     -42.386   6.725   5.933  1.00  0.00     0.032 C 
BRANCH  30  32
HETATM   32  C2  UNL     1     -42.599   8.245   7.796  1.00  0.00     0.021 C 
HETATM   33  C1  UNL     1     -41.391   8.204   8.679  1.00  0.00     0.007 C 
ENDBRANCH  30  32
ENDBRANCH  28  30
ENDBRANCH   1  28
TORSDOF 6
ENDMDL
MODEL 3
REMARK VINA RESULT: -6.123571202      1.562      5.391
REMARK  6 active torsions:
REMARK  status: ('A' for Active; 'I' for Inactive)
REMARK    1  A    between atoms: C2_2  and  C3_3 
REMARK    2  A    between atoms: C3_3  and  N1_5 
REMARK    3  A    between atoms: N1_5  and  C5_7 
REMARK    4  A    between atoms: N7_23  and  C11_24 
REMARK    5  A    between atoms: C11_24  and  C12_25 
REMARK    6  A    between atoms: C12_25  and  N8_26 
ROOT
HETATM    1  C5  UNL     1     -39.557   9.969   2.243  1.00  0.00     0.683 A 
HETATM    2  N2  UNL     1     -38.329   9.854   2.862  1.00  0.00    -0.184 N 
ATOM      3  H2  UNL     1     -37.427   9.922   2.391  1.00  0.00     0.184 HD
HETATM    4  C6  UNL     1     -38.497   9.642   4.160  1.00  0.00     0.137 A 
HETATM    5  C7  UNL     1     -37.657   9.454   5.248  1.00  0.00     0.132 A 
HETATM    6  N3  UNL     1     -36.394   9.476   5.044  1.00  0.00    -0.383 N 
ATOM      7  H31 UNL     1     -35.776   9.338   5.844  1.00  0.00     0.157 HD
ATOM      8  H32 UNL     1     -35.975   9.622   4.126  1.00  0.00     0.157 HD
HETATM    9  N4  UNL     1     -38.207   9.262   6.453  1.00  0.00    -0.318 N 
ATOM     10  H4  UNL     1     -37.576   9.125   7.243  1.00  0.00     0.169 HD
HETATM   11  C8  UNL     1     -39.523   9.235   6.702  1.00  0.00     0.191 A 
HETATM   12  C9  UNL     1     -40.047   9.020   8.035  1.00  0.00     0.137 C 
HETATM   13  N5  UNL     1     -40.481   8.851   9.095  1.00  0.00    -0.188 NA
HETATM   14  N6  UNL     1     -40.341   9.416   5.648  1.00  0.00    -0.317 N 
ATOM     15  H6  UNL     1     -41.351   9.403   5.791  1.00  0.00     0.169 HD
HETATM   16  C10 UNL     1     -39.847   9.616   4.403  1.00  0.00     0.157 A 
HETATM   17  N7  UNL     1     -40.477   9.821   3.196  1.00  0.00    -0.164 N 
ENDROOT
BRANCH  17  18
HETATM   18  C11 UNL     1     -41.922   9.845   3.097  1.00  0.00     0.171 C 
BRANCH  18  19
HETATM   19  C12 UNL     1     -42.518  11.098   3.706  1.00  0.00     0.170 C 
BRANCH  19  20
HETATM   20  N8  UNL     1     -43.043  11.956   2.678  1.00  0.00    -0.289 N 
HETATM   21  C13 UNL     1     -43.807  13.051   3.146  1.00  0.00     0.177 C 
HETATM   22  C14 UNL     1     -42.944  14.242   3.506  1.00  0.00     0.256 C 
HETATM   23  N9  UNL     1     -41.607  14.105   2.973  1.00  0.00    -0.050 N 
HETATM   24  C15 UNL     1     -41.576  13.418   1.707  1.00  0.00     0.432 C 
ATOM     25  H92 UNL     1     -41.146  15.012   2.907  1.00  0.00     0.279 HD
ATOM     26  H91 UNL     1     -40.990  13.653   3.648  1.00  0.00     0.279 HD
HETATM   27  O1  UNL     1     -42.196  12.213   1.690  1.00  0.00    -0.255 OA
ENDBRANCH  19  20
ENDBRANCH  18  19
ENDBRANCH  17  18
BRANCH   1  28
HETATM   28  N1  UNL     1     -39.653  10.174   1.013  1.00  0.00    -0.222 N 
ATOM     29  H1  UNL     1     -40.171   9.422   0.557  1.00  0.00     0.178 HD
BRANCH  28  30
HETATM   30  C3  UNL     1     -39.255  11.131   0.093  1.00  0.00     0.095 C 
HETATM   31  C4  UNL     1     -38.182  12.086   0.602  1.00  0.00     0.032 C 
BRANCH  30  32
HETATM   32  C2  UNL     1     -38.542  10.375  -1.062  1.00  0.00     0.021 C 
HETATM   33  C1  UNL     1     -37.064  10.356  -0.823  1.00  0.00     0.007 C 
ENDBRANCH  30  32
ENDBRANCH  28  30
ENDBRANCH   1  28
TORSDOF 6
ENDMDL
MODEL 4
REMARK VINA RESULT: -6.119642577      1.730      5.501
REMARK  6 active torsions:
REMARK  status: ('A' for Active; 'I' for Inactive)
REMARK    1  A    between atoms: C2_2  and  C3_3 
REMARK    2  A    between atoms: C3_3  and  N1_5 
REMARK    3  A    between atoms: N1_5  and  C5_7 
REMARK    4  A    between atoms: N7_23  and  C11_24 
REMARK    5  A    between atoms: C11_24  and  C12_25 
REMARK    6  A    between atoms: C12_25  and  N8_26 
ROOT
HETATM    1  C5  UNL     1     -39.604  10.210   2.239  1.00  0.00     0.683 A 
HETATM    2  N2  UNL     1     -38.386   9.802   2.743  1.00  0.00    -0.184 N 
ATOM      3  H2  UNL     1     -37.535   9.680   2.193  1.00  0.00     0.184 HD
HETATM    4  C6  UNL     1     -38.486   9.592   4.048  1.00  0.00     0.137 A 
HETATM    5  C7  UNL     1     -37.621   9.185   5.053  1.00  0.00     0.132 A 
HETATM    6  N3  UNL     1     -36.408   8.929   4.737  1.00  0.00    -0.383 N 
ATOM      7  H31 UNL     1     -35.772   8.630   5.475  1.00  0.00     0.157 HD
ATOM      8  H32 UNL     1     -36.046   9.006   3.786  1.00  0.00     0.157 HD
HETATM    9  N4  UNL     1     -38.096   9.083   6.301  1.00  0.00    -0.318 N 
ATOM     10  H4  UNL     1     -37.447   8.783   7.029  1.00  0.00     0.169 HD
HETATM   11  C8  UNL     1     -39.358   9.345   6.667  1.00  0.00     0.191 A 
HETATM   12  C9  UNL     1     -39.800   9.212   8.039  1.00  0.00     0.137 C 
HETATM   13  N5  UNL     1     -40.169   9.110   9.133  1.00  0.00    -0.188 NA
HETATM   14  N6  UNL     1     -40.199   9.739   5.694  1.00  0.00    -0.317 N 
ATOM     15  H6  UNL     1     -41.170   9.949   5.927  1.00  0.00     0.169 HD
HETATM   16  C10 UNL     1     -39.781   9.862   4.411  1.00  0.00     0.157 A 
HETATM   17  N7  UNL     1     -40.448  10.242   3.269  1.00  0.00    -0.164 N 
ENDROOT
BRANCH  17  18
HETATM   18  C11 UNL     1     -41.854  10.594   3.301  1.00  0.00     0.171 C 
BRANCH  18  19
HETATM   19  C12 UNL     1     -42.068  12.092   3.384  1.00  0.00     0.170 C 
BRANCH  19  20
HETATM   20  N8  UNL     1     -43.163  12.490   2.540  1.00  0.00    -0.289 N 
HETATM   21  C13 UNL     1     -44.322  11.686   2.646  1.00  0.00     0.177 C 
HETATM   22  C14 UNL     1     -45.222  12.121   3.784  1.00  0.00     0.256 C 
HETATM   23  N9  UNL     1     -44.865  13.438   4.263  1.00  0.00    -0.050 N 
HETATM   24  C15 UNL     1     -44.381  14.303   3.219  1.00  0.00     0.432 C 
ATOM     25  H92 UNL     1     -45.645  13.868   4.762  1.00  0.00     0.279 HD
ATOM     26  H91 UNL     1     -44.192  13.377   5.028  1.00  0.00     0.279 HD
HETATM   27  O1  UNL     1     -43.363  13.800   2.480  1.00  0.00    -0.255 OA
ENDBRANCH  19  20
ENDBRANCH  18  19
ENDBRANCH  17  18
BRANCH   1  28
HETATM   28  N1  UNL     1     -39.755  10.470   1.025  1.00  0.00    -0.222 N 
ATOM     29  H1  UNL     1     -40.442   9.845   0.601  1.00  0.00     0.178 HD
BRANCH  28  30
HETATM   30  C3  UNL     1     -39.256  11.364   0.092  1.00  0.00     0.095 C 
HETATM   31  C4  UNL     1     -38.163  12.285   0.624  1.00  0.00     0.032 C 
BRANCH  30  32
HETATM   32  C2  UNL     1     -38.521  10.524  -0.988  1.00  0.00     0.021 C 
HETATM   33  C1  UNL     1     -37.062  10.434  -0.659  1.00  0.00     0.007 C 
ENDBRANCH  30  32
ENDBRANCH  28  30
ENDBRANCH   1  28
TORSDOF 6
ENDMDL
MODEL 5
REMARK VINA RESULT: -6.089790887      0.977      1.328
REMARK  6 active torsions:
REMARK  status: ('A' for Active; 'I' for Inactive)
REMARK    1  A    between atoms: C2_2  and  C3_3 
REMARK    2  A    between atoms: C3_3  and  N1_5 
REMARK    3  A    between atoms: N1_5  and  C5_7 
REMARK    4  A    between atoms: N7_23  and  C11_24 
REMARK    5  A    between atoms: C11_24  and  C12_25 
REMARK    6  A    between atoms: C12_25  and  N8_26 
ROOT
HETATM    1  C5  UNL     1     -39.112   9.967   4.869  1.00  0.00     0.683 A 
HETATM    2  N2  UNL     1     -37.794  10.317   4.657  1.00  0.00    -0.184 N 
ATOM      3  H2  UNL     1     -37.112  10.501   5.392  1.00  0.00     0.184 HD
HETATM    4  C6  UNL     1     -37.548  10.377   3.356  1.00  0.00     0.137 A 
HETATM    5  C7  UNL     1     -36.442  10.669   2.572  1.00  0.00     0.132 A 
HETATM    6  N3  UNL     1     -35.345  10.962   3.162  1.00  0.00    -0.383 N 
ATOM      7  H31 UNL     1     -34.532  11.176   2.586  1.00  0.00     0.157 HD
ATOM      8  H32 UNL     1     -35.244  10.993   4.177  1.00  0.00     0.157 HD
HETATM    9  N4  UNL     1     -36.575  10.629   1.240  1.00  0.00    -0.318 N 
ATOM     10  H4  UNL     1     -35.753  10.846   0.677  1.00  0.00     0.169 HD
HETATM   11  C8  UNL     1     -37.707  10.326   0.590  1.00  0.00     0.191 A 
HETATM   12  C9  UNL     1     -37.776  10.302  -0.856  1.00  0.00     0.137 C 
HETATM   13  N5  UNL     1     -37.847  10.279  -2.012  1.00  0.00    -0.188 NA
HETATM   14  N6  UNL     1     -38.782  10.043   1.348  1.00  0.00    -0.317 N 
ATOM     15  H6  UNL     1     -39.665   9.807   0.895  1.00  0.00     0.169 HD
HETATM   16  C10 UNL     1     -38.712  10.066   2.701  1.00  0.00     0.157 A 
HETATM   17  N7  UNL     1     -39.662   9.817   3.665  1.00  0.00    -0.164 N 
ENDROOT
BRANCH  17  18
HETATM   18  C11 UNL     1     -41.021   9.462   3.308  1.00  0.00     0.171 C 
BRANCH  18  19
HETATM   19  C12 UNL     1     -42.008  10.563   3.638  1.00  0.00     0.170 C 
BRANCH  19  20
HETATM   20  N8  UNL     1     -42.520  11.159   2.432  1.00  0.00    -0.289 N 
HETATM   21  C13 UNL     1     -43.500  12.159   2.630  1.00  0.00     0.177 C 
HETATM   22  C14 UNL     1     -42.889  13.522   2.879  1.00  0.00     0.256 C 
HETATM   23  N9  UNL     1     -41.489  13.545   2.521  1.00  0.00    -0.050 N 
HETATM   24  C15 UNL     1     -41.184  12.699   1.396  1.00  0.00     0.432 C 
ATOM     25  H92 UNL     1     -41.170  14.500   2.356  1.00  0.00     0.279 HD
ATOM     26  H91 UNL     1     -40.904  13.311   3.323  1.00  0.00     0.279 HD
HETATM   27  O1  UNL     1     -41.600  11.414   1.512  1.00  0.00    -0.255 OA
ENDBRANCH  19  20
ENDBRANCH  18  19
ENDBRANCH  17  18
BRANCH   1  28
HETATM   28  N1  UNL     1     -39.580   9.845   6.023  1.00  0.00    -0.222 N 
ATOM     29  H1  UNL     1     -39.830  10.754   6.413  1.00  0.00     0.178 HD
BRANCH  28  30
HETATM   30  C3  UNL     1     -39.853   8.827   6.922  1.00  0.00     0.095 C 
HETATM   31  C4  UNL     1     -39.605   9.191   8.382  1.00  0.00     0.032 C 
BRANCH  30  32
HETATM   32  C2  UNL     1     -41.387   8.583   6.871  1.00  0.00     0.021 C 
HETATM   33  C1  UNL     1     -41.888   8.196   8.228  1.00  0.00     0.007 C 
ENDBRANCH  30  32
ENDBRANCH  28  30
ENDBRANCH   1  28
TORSDOF 6
ENDMDL
