MODEL 1
REMARK VINA RESULT: -6.382331354      0.000      0.000
REMARK  7 active torsions:
REMARK  status: ('A' for Active; 'I' for Inactive)
REMARK    1  A    between atoms: N1_2  and  O1_3 
REMARK    2  A    between atoms: N1_2  and  C2_5 
REMARK    3  A    between atoms: C3_8  and  N3_9 
REMARK    4  A    between atoms: C8_17  and  N5_18 
REMARK    5  A    between atoms: N5_18  and  C9_20 
REMARK    6  A    between atoms: C9_20  and  C10_21 
REMARK    7  A    between atoms: C10_21  and  N6_22 
ROOT
HETATM    1  C2  UNL     1     -40.224  11.366   1.356  1.00  0.00     0.167 A 
HETATM    2  N2  UNL     1     -41.130  12.173   1.935  1.00  0.00    -0.173 N 
ATOM      3  H2  UNL     1     -41.484  12.979   1.418  1.00  0.00     0.186 HD
HETATM    4  C3  UNL     1     -41.576  11.940   3.174  1.00  0.00     0.683 A 
HETATM    5  N4  UNL     1     -41.104  10.879   3.844  1.00  0.00    -0.175 N 
ATOM      6  H4  UNL     1     -41.447  10.703   4.789  1.00  0.00     0.186 HD
HETATM    7  C8  UNL     1     -40.203  10.041   3.322  1.00  0.00     0.141 A 
HETATM    8  C12 UNL     1     -39.727  10.273   2.026  1.00  0.00     0.135 A 
HETATM    9  C13 UNL     1     -38.748   9.370   1.448  1.00  0.00     0.107 C 
HETATM   10  N9  UNL     1     -37.969   8.639   1.006  1.00  0.00    -0.191 NA
ENDROOT
BRANCH   1  11
HETATM   11  N1  UNL     1     -39.771  11.649   0.028  1.00  0.00    -0.247 N 
HETATM   12  C1  UNL     1     -40.679  11.358  -1.092  1.00  0.00     0.187 C 
BRANCH  11  13
HETATM   13  O1  UNL     1     -38.574  12.163  -0.281  1.00  0.00    -0.286 OA
ATOM     14  H1  UNL     1     -38.394  13.045   0.024  1.00  0.00     0.244 HD
ENDBRANCH  11  13
ENDBRANCH   1  11
BRANCH   7  15
HETATM   15  N5  UNL     1     -39.727   8.923   4.047  1.00  0.00    -0.373 N 
ATOM     16  H5  UNL     1     -39.505   8.074   3.526  1.00  0.00     0.161 HD
BRANCH  15  17
HETATM   17  C9  UNL     1     -39.537   8.909   5.472  1.00  0.00     0.141 C 
BRANCH  17  18
HETATM   18  C10 UNL     1     -38.133   9.240   5.912  1.00  0.00     0.141 C 
BRANCH  18  19
HETATM   19  N6  UNL     1     -37.252   8.923   4.784  1.00  0.00    -0.365 N 
HETATM   20  C11 UNL     1     -36.355   9.744   4.375  1.00  0.00     0.197 C 
HETATM   21  N7  UNL     1     -36.164  11.003   4.991  1.00  0.00    -0.067 NA
HETATM   22  N8  UNL     1     -35.538   9.377   3.282  1.00  0.00    -0.067 NA
ATOM     23  H6  UNL     1     -37.355   8.025   4.312  1.00  0.00     0.161 HD
ENDBRANCH  18  19
ENDBRANCH  17  18
ENDBRANCH  15  17
ENDBRANCH   7  15
BRANCH   4  24
HETATM   24  N3  UNL     1     -42.548  12.822   3.771  1.00  0.00    -0.216 N 
HETATM   25  C4  UNL     1     -43.936  12.455   3.706  1.00  0.00     0.151 C 
HETATM   26  C5  UNL     1     -44.641  13.377   2.710  1.00  0.00     0.094 C 
HETATM   27  S1  UNL     1     -44.423  15.071   3.347  1.00  0.00    -0.166 SA
HETATM   28  C6  UNL     1     -42.628  15.259   3.676  1.00  0.00     0.094 C 
HETATM   29  C7  UNL     1     -42.109  14.028   4.409  1.00  0.00     0.151 C 
ENDBRANCH   4  24
TORSDOF 7
ENDMDL
MODEL 2
REMARK VINA RESULT: -6.313464769      2.897      5.692
REMARK  7 active torsions:
REMARK  status: ('A' for Active; 'I' for Inactive)
REMARK    1  A    between atoms: N1_2  and  O1_3 
REMARK    2  A    between atoms: N1_2  and  C2_5 
REMARK    3  A    between atoms: C3_8  and  N3_9 
REMARK    4  A    between atoms: C8_17  and  N5_18 
REMARK    5  A    between atoms: N5_18  and  C9_20 
REMARK    6  A    between atoms: C9_20  and  C10_21 
REMARK    7  A    between atoms: C10_21  and  N6_22 
ROOT
HETATM    1  C2  UNL     1     -38.160   9.532   3.548  1.00  0.00     0.167 A 
HETATM    2  N2  UNL     1     -39.000   8.805   4.305  1.00  0.00    -0.173 N 
ATOM      3  H2  UNL     1     -38.640   8.314   5.124  1.00  0.00     0.186 HD
HETATM    4  C3  UNL     1     -40.300   8.713   4.005  1.00  0.00     0.683 A 
HETATM    5  N4  UNL     1     -40.765   9.361   2.927  1.00  0.00    -0.175 N 
ATOM      6  H4  UNL     1     -41.758   9.288   2.701  1.00  0.00     0.186 HD
HETATM    7  C8  UNL     1     -39.979  10.098   2.136  1.00  0.00     0.141 A 
HETATM    8  C12 UNL     1     -38.616  10.204   2.439  1.00  0.00     0.135 A 
HETATM    9  C13 UNL     1     -37.751  11.001   1.588  1.00  0.00     0.107 C 
HETATM   10  N9  UNL     1     -37.080  11.642   0.898  1.00  0.00    -0.191 NA
ENDROOT
BRANCH   1  11
HETATM   11  N1  UNL     1     -36.776   9.606   3.902  1.00  0.00    -0.247 N 
HETATM   12  C1  UNL     1     -36.368  10.596   4.911  1.00  0.00     0.187 C 
BRANCH  11  13
HETATM   13  O1  UNL     1     -35.809   8.838   3.383  1.00  0.00    -0.286 OA
ATOM     14  H1  UNL     1     -36.051   8.275   2.657  1.00  0.00     0.244 HD
ENDBRANCH  11  13
ENDBRANCH   1  11
BRANCH   7  15
HETATM   15  N5  UNL     1     -40.495  10.779   1.009  1.00  0.00    -0.373 N 
ATOM     16  H5  UNL     1     -40.483  10.296   0.111  1.00  0.00     0.161 HD
BRANCH  15  17
HETATM   17  C9  UNL     1     -41.035  12.111   1.051  1.00  0.00     0.141 C 
BRANCH  17  18
HETATM   18  C10 UNL     1     -41.636  12.493   2.381  1.00  0.00     0.141 C 
BRANCH  18  19
HETATM   19  N6  UNL     1     -41.576  13.955   2.466  1.00  0.00    -0.365 N 
HETATM   20  C11 UNL     1     -42.033  14.593   3.480  1.00  0.00     0.197 C 
HETATM   21  N7  UNL     1     -42.621  13.921   4.577  1.00  0.00    -0.067 NA
HETATM   22  N8  UNL     1     -41.945  16.003   3.500  1.00  0.00    -0.067 NA
ATOM     23  H6  UNL     1     -41.159  14.480   1.697  1.00  0.00     0.161 HD
ENDBRANCH  18  19
ENDBRANCH  17  18
ENDBRANCH  15  17
ENDBRANCH   7  15
BRANCH   4  24
HETATM   24  N3  UNL     1     -41.181   7.926   4.834  1.00  0.00    -0.216 N 
HETATM   25  C4  UNL     1     -41.414   6.555   4.476  1.00  0.00     0.151 C 
HETATM   26  C5  UNL     1     -42.837   6.424   3.931  1.00  0.00     0.094 C 
HETATM   27  S1  UNL     1     -43.944   6.965   5.274  1.00  0.00    -0.166 SA
HETATM   28  C6  UNL     1     -43.308   8.594   5.827  1.00  0.00     0.094 C 
HETATM   29  C7  UNL     1     -41.794   8.527   5.982  1.00  0.00     0.151 C 
ENDBRANCH   4  24
TORSDOF 7
ENDMDL
MODEL 3
REMARK VINA RESULT: -6.256211133      2.999      6.204
REMARK  7 active torsions:
REMARK  status: ('A' for Active; 'I' for Inactive)
REMARK    1  A    between atoms: N1_2  and  O1_3 
REMARK    2  A    between atoms: N1_2  and  C2_5 
REMARK    3  A    between atoms: C3_8  and  N3_9 
REMARK    4  A    between atoms: C8_17  and  N5_18 
REMARK    5  A    between atoms: N5_18  and  C9_20 
REMARK    6  A    between atoms: C9_20  and  C10_21 
REMARK    7  A    between atoms: C10_21  and  N6_22 
ROOT
HETATM    1  C2  UNL     1     -37.997   9.878   3.591  1.00  0.00     0.167 A 
HETATM    2  N2  UNL     1     -37.807  10.057   2.272  1.00  0.00    -0.173 N 
ATOM      3  H2  UNL     1     -36.859  10.039   1.896  1.00  0.00     0.186 HD
HETATM    4  C3  UNL     1     -38.838  10.259   1.444  1.00  0.00     0.683 A 
HETATM    5  N4  UNL     1     -40.080  10.281   1.948  1.00  0.00    -0.175 N 
ATOM      6  H4  UNL     1     -40.864  10.435   1.313  1.00  0.00     0.186 HD
HETATM    7  C8  UNL     1     -40.332  10.109   3.249  1.00  0.00     0.141 A 
HETATM    8  C12 UNL     1     -39.263   9.897   4.128  1.00  0.00     0.135 A 
HETATM    9  C13 UNL     1     -39.522   9.709   5.544  1.00  0.00     0.107 C 
HETATM   10  N9  UNL     1     -39.752   9.561   6.668  1.00  0.00    -0.191 NA
ENDROOT
BRANCH   1  11
HETATM   11  N1  UNL     1     -36.869   9.664   4.445  1.00  0.00    -0.247 N 
HETATM   12  C1  UNL     1     -36.230  10.839   5.059  1.00  0.00     0.187 C 
BRANCH  11  13
HETATM   13  O1  UNL     1     -36.340   8.468   4.733  1.00  0.00    -0.286 OA
ATOM     14  H1  UNL     1     -36.002   7.962   4.004  1.00  0.00     0.244 HD
ENDBRANCH  11  13
ENDBRANCH   1  11
BRANCH   7  15
HETATM   15  N5  UNL     1     -41.653  10.129   3.755  1.00  0.00    -0.373 N 
ATOM     16  H5  UNL     1     -41.808   9.780   4.701  1.00  0.00     0.161 HD
BRANCH  15  17
HETATM   17  C9  UNL     1     -42.790  10.609   3.019  1.00  0.00     0.141 C 
BRANCH  17  18
HETATM   18  C10 UNL     1     -43.450  11.824   3.622  1.00  0.00     0.141 C 
BRANCH  18  19
HETATM   19  N6  UNL     1     -42.904  12.991   2.922  1.00  0.00    -0.365 N 
HETATM   20  C11 UNL     1     -42.427  13.999   3.556  1.00  0.00     0.197 C 
HETATM   21  N7  UNL     1     -42.398  14.040   4.970  1.00  0.00    -0.067 NA
HETATM   22  N8  UNL     1     -41.916  15.092   2.821  1.00  0.00    -0.067 NA
ATOM     23  H6  UNL     1     -42.904  13.002   1.902  1.00  0.00     0.161 HD
ENDBRANCH  18  19
ENDBRANCH  17  18
ENDBRANCH  15  17
ENDBRANCH   7  15
BRANCH   4  24
HETATM   24  N3  UNL     1     -38.607  10.449   0.033  1.00  0.00    -0.216 N 
HETATM   25  C4  UNL     1     -39.733  10.723  -0.814  1.00  0.00     0.151 C 
HETATM   26  C5  UNL     1     -40.018   9.487  -1.668  1.00  0.00     0.094 C 
HETATM   27  S1  UNL     1     -38.506   9.183  -2.639  1.00  0.00    -0.166 SA
HETATM   28  C6  UNL     1     -37.124   9.179  -1.433  1.00  0.00     0.094 C 
HETATM   29  C7  UNL     1     -37.271  10.360  -0.481  1.00  0.00     0.151 C 
ENDBRANCH   4  24
TORSDOF 7
ENDMDL
MODEL 4
REMARK VINA RESULT: -6.148942507      3.416      6.383
REMARK  7 active torsions:
REMARK  status: ('A' for Active; 'I' for Inactive)
REMARK    1  A    between atoms: N1_2  and  O1_3 
REMARK    2  A    between atoms: N1_2  and  C2_5 
REMARK    3  A    between atoms: C3_8  and  N3_9 
REMARK    4  A    between atoms: C8_17  and  N5_18 
REMARK    5  A    between atoms: N5_18  and  C9_20 
REMARK    6  A    between atoms: C9_20  and  C10_21 
REMARK    7  A    between atoms: C10_21  and  N6_22 
ROOT
HETATM    1  C2  UNL     1     -38.272   9.483   5.080  1.00  0.00     0.167 A 
HETATM    2  N2  UNL     1     -38.780   9.232   6.298  1.00  0.00    -0.173 N 
ATOM      3  H2  UNL     1     -38.147   9.115   7.090  1.00  0.00     0.186 HD
HETATM    4  C3  UNL     1     -40.100   9.133   6.492  1.00  0.00     0.683 A 
HETATM    5  N4  UNL     1     -40.923   9.288   5.446  1.00  0.00    -0.175 N 
ATOM      6  H4  UNL     1     -41.930   9.211   5.598  1.00  0.00     0.186 HD
HETATM    7  C8  UNL     1     -40.478   9.538   4.211  1.00  0.00     0.141 A 
HETATM    8  C12 UNL     1     -39.099   9.644   3.993  1.00  0.00     0.135 A 
HETATM    9  C13 UNL     1     -38.601   9.915   2.656  1.00  0.00     0.107 C 
HETATM   10  N9  UNL     1     -38.227  10.133   1.584  1.00  0.00    -0.191 NA
ENDROOT
BRANCH   1  11
HETATM   11  N1  UNL     1     -36.854   9.582   4.912  1.00  0.00    -0.247 N 
HETATM   12  C1  UNL     1     -36.223  10.897   5.099  1.00  0.00     0.187 C 
BRANCH  11  13
HETATM   13  O1  UNL     1     -36.046   8.562   4.595  1.00  0.00    -0.286 OA
ATOM     14  H1  UNL     1     -35.189   8.785   4.249  1.00  0.00     0.244 HD
ENDBRANCH  11  13
ENDBRANCH   1  11
BRANCH   7  15
HETATM   15  N5  UNL     1     -41.368   9.705   3.124  1.00  0.00    -0.373 N 
ATOM     16  H5  UNL     1     -41.826   8.875   2.748  1.00  0.00     0.161 HD
BRANCH  15  17
HETATM   17  C9  UNL     1     -41.666  10.973   2.516  1.00  0.00     0.141 C 
BRANCH  17  18
HETATM   18  C10 UNL     1     -42.514  11.884   3.369  1.00  0.00     0.141 C 
BRANCH  18  19
HETATM   19  N6  UNL     1     -42.316  13.244   2.859  1.00  0.00    -0.365 N 
HETATM   20  C11 UNL     1     -42.266  14.259   3.641  1.00  0.00     0.197 C 
HETATM   21  N7  UNL     1     -42.398  14.124   5.043  1.00  0.00    -0.067 NA
HETATM   22  N8  UNL     1     -42.072  15.544   3.085  1.00  0.00    -0.067 NA
ATOM     23  H6  UNL     1     -42.215  13.387   1.854  1.00  0.00     0.161 HD
ENDBRANCH  18  19
ENDBRANCH  17  18
ENDBRANCH  15  17
ENDBRANCH   7  15
BRANCH   4  24
HETATM   24  N3  UNL     1     -40.619   8.864   7.811  1.00  0.00    -0.216 N 
HETATM   25  C4  UNL     1     -39.803   9.189   8.948  1.00  0.00     0.151 C 
HETATM   26  C5  UNL     1     -39.289   7.890   9.571  1.00  0.00     0.094 C 
HETATM   27  S1  UNL     1     -40.768   6.941  10.055  1.00  0.00    -0.166 SA
HETATM   28  C6  UNL     1     -41.847   6.896   8.572  1.00  0.00     0.094 C 
HETATM   29  C7  UNL     1     -41.924   8.285   7.951  1.00  0.00     0.151 C 
ENDBRANCH   4  24
TORSDOF 7
ENDMDL
MODEL 5
REMARK VINA RESULT: -5.935856495      2.605      3.534
REMARK  7 active torsions:
REMARK  status: ('A' for Active; 'I' for Inactive)
REMARK    1  A    between atoms: N1_2  and  O1_3 
REMARK    2  A    between atoms: N1_2  and  C2_5 
REMARK    3  A    between atoms: C3_8  and  N3_9 
REMARK    4  A    between atoms: C8_17  and  N5_18 
REMARK    5  A    between atoms: N5_18  and  C9_20 
REMARK    6  A    between atoms: C9_20  and  C10_21 
REMARK    7  A    between atoms: C10_21  and  N6_22 
ROOT
HETATM    1  C2  UNL     1     -38.225  10.600   1.347  1.00  0.00     0.167 A 
HETATM    2  N2  UNL     1     -39.453  11.092   1.112  1.00  0.00    -0.173 N 
ATOM      3  H2  UNL     1     -39.658  11.517   0.207  1.00  0.00     0.186 HD
HETATM    4  C3  UNL     1     -40.412  11.036   2.043  1.00  0.00     0.683 A 
HETATM    5  N4  UNL     1     -40.134  10.477   3.229  1.00  0.00    -0.175 N 
ATOM      6  H4  UNL     1     -40.868  10.436   3.937  1.00  0.00     0.186 HD
HETATM    7  C8  UNL     1     -38.932   9.972   3.521  1.00  0.00     0.141 A 
HETATM    8  C12 UNL     1     -37.918  10.023   2.557  1.00  0.00     0.135 A 
HETATM    9  C13 UNL     1     -36.607   9.478   2.861  1.00  0.00     0.107 C 
HETATM   10  N9  UNL     1     -35.571   9.037   3.125  1.00  0.00    -0.191 NA
ENDROOT
BRANCH   1  11
HETATM   11  N1  UNL     1     -37.225  10.679   0.326  1.00  0.00    -0.247 N 
HETATM   12  C1  UNL     1     -37.578  10.226  -1.028  1.00  0.00     0.187 C 
BRANCH  11  13
HETATM   13  O1  UNL     1     -35.980  11.137   0.505  1.00  0.00    -0.286 OA
ATOM     14  H1  UNL     1     -35.353  10.958  -0.187  1.00  0.00     0.244 HD
ENDBRANCH  11  13
ENDBRANCH   1  11
BRANCH   7  15
HETATM   15  N5  UNL     1     -38.665   9.379   4.778  1.00  0.00    -0.373 N 
ATOM     16  H5  UNL     1     -37.888   8.721   4.841  1.00  0.00     0.161 HD
BRANCH  15  17
HETATM   17  C9  UNL     1     -39.421   9.647   5.971  1.00  0.00     0.141 C 
BRANCH  17  18
HETATM   18  C10 UNL     1     -38.795   9.111   7.234  1.00  0.00     0.141 C 
BRANCH  18  19
HETATM   19  N6  UNL     1     -39.858   9.061   8.242  1.00  0.00    -0.365 N 
HETATM   20  C11 UNL     1     -39.602   9.110   9.498  1.00  0.00     0.197 C 
HETATM   21  N7  UNL     1     -38.277   9.217   9.983  1.00  0.00    -0.067 NA
HETATM   22  N8  UNL     1     -40.672   9.058  10.419  1.00  0.00    -0.067 NA
ATOM     23  H6  UNL     1     -40.828   8.985   7.937  1.00  0.00     0.161 HD
ENDBRANCH  18  19
ENDBRANCH  17  18
ENDBRANCH  15  17
ENDBRANCH   7  15
BRANCH   4  24
HETATM   24  N3  UNL     1     -41.723  11.572   1.765  1.00  0.00    -0.216 N 
HETATM   25  C4  UNL     1     -41.862  12.993   1.607  1.00  0.00     0.151 C 
HETATM   26  C5  UNL     1     -42.583  13.555   2.834  1.00  0.00     0.094 C 
HETATM   27  S1  UNL     1     -44.203  12.723   2.894  1.00  0.00    -0.166 SA
HETATM   28  C6  UNL     1     -43.855  10.928   2.764  1.00  0.00     0.094 C 
HETATM   29  C7  UNL     1     -42.841  10.681   1.654  1.00  0.00     0.151 C 
ENDBRANCH   4  24
TORSDOF 7
ENDMDL
