MODEL 1
REMARK VINA RESULT: -6.021573798      0.000      0.000
REMARK  7 active torsions:
REMARK  status: ('A' for Active; 'I' for Inactive)
REMARK    1  A    between atoms: C2_2  and  N1_4 
REMARK    2  A    between atoms: C4_7  and  N3_8 
REMARK    3  A    between atoms: N5_14  and  C6_16 
REMARK    4  A    between atoms: C8_18  and  N6_19 
REMARK    5  A    between atoms: N6_19  and  C9_21 
REMARK    6  A    between atoms: C9_21  and  C10_22 
REMARK    7  A    between atoms: C10_22  and  N7_23 
ROOT
HETATM    1  C6  UNL     1     -40.501  10.384   3.644  1.00  0.00     0.140 A 
HETATM    2  C7  UNL     1     -40.316   9.866   4.909  1.00  0.00     0.100 A 
HETATM    3  C8  UNL     1     -39.105   9.427   5.391  1.00  0.00     0.145 A 
HETATM    4  N8  UNL     1     -38.028   9.506   4.582  1.00  0.00    -0.069 N 
HETATM    5  N9  UNL     1     -36.750   9.174   4.749  1.00  0.00    -0.273 N 
ATOM      6  H9  UNL     1     -36.336   8.769   5.588  1.00  0.00     0.189 HD
HETATM    7  C13 UNL     1     -36.109   9.468   3.617  1.00  0.00     0.215 A 
HETATM    8  N10 UNL     1     -36.963   9.986   2.725  1.00  0.00    -0.184 N 
ATOM      9  H10 UNL     1     -36.750  10.300   1.778  1.00  0.00     0.185 HD
HETATM   10  C14 UNL     1     -38.188  10.006   3.352  1.00  0.00     0.707 A 
HETATM   11  N11 UNL     1     -39.375  10.434   2.884  1.00  0.00    -0.174 N 
ATOM     12  H11 UNL     1     -39.431  10.805   1.936  1.00  0.00     0.186 HD
ENDROOT
BRANCH   1  13
HETATM   13  N5  UNL     1     -41.743  10.844   3.161  1.00  0.00    -0.174 N 
HETATM   14  C5  UNL     1     -42.203  12.033   3.220  1.00  0.00     0.716 A 
HETATM   15  N1  UNL     1     -43.409  12.416   2.737  1.00  0.00    -0.105 N 
HETATM   16  N4  UNL     1     -41.655  13.144   3.737  1.00  0.00    -0.020 N 
HETATM   17  N2  UNL     1     -43.575  13.705   2.958  1.00  0.00    -0.115 N 
HETATM   18  C4  UNL     1     -42.494  14.202   3.586  1.00  0.00     0.705 A 
ATOM     19  H2  UNL     1     -44.399  14.245   2.693  1.00  0.00     0.206 HD
ATOM     20  H4  UNL     1     -40.738  13.187   4.182  1.00  0.00     0.203 HD
ATOM     21  H5  UNL     1     -42.342  10.149   2.716  1.00  0.00     0.186 HD
BRANCH  15  22
HETATM   22  C2  UNL     1     -44.356  11.522   2.078  1.00  0.00     0.119 C 
HETATM   23  C1  UNL     1     -45.587  11.417   2.952  1.00  0.00     0.034 C 
HETATM   24  C3  UNL     1     -44.716  12.058   0.703  1.00  0.00     0.034 C 
ENDBRANCH  15  22
BRANCH  18  25
HETATM   25  N3  UNL     1     -42.290  15.429   3.967  1.00  0.00    -0.233 N 
ATOM     26  H32 UNL     1     -42.004  16.217   3.385  1.00  0.00     0.174 HD
ATOM     27  H31 UNL     1     -42.379  15.812   4.907  1.00  0.00     0.174 HD
ENDBRANCH  18  25
ENDBRANCH   1  13
BRANCH   3  28
HETATM   28  N6  UNL     1     -39.054   8.973   6.555  1.00  0.00    -0.372 N 
ATOM     29  H6  UNL     1     -38.316   8.281   6.686  1.00  0.00     0.161 HD
BRANCH  28  30
HETATM   30  C9  UNL     1     -39.804   9.219   7.726  1.00  0.00     0.151 C 
BRANCH  30  31
HETATM   31  C10 UNL     1     -39.092   8.864   9.015  1.00  0.00     0.290 C 
BRANCH  31  32
HETATM   32  N7  UNL     1     -39.935   8.164   9.915  1.00  0.00     0.081 N 
HETATM   33  C11 UNL     1     -39.397   6.901  10.373  1.00  0.00     0.309 C 
HETATM   34  C12 UNL     1     -41.283   7.950   9.507  1.00  0.00     0.309 C 
ENDBRANCH  31  32
ENDBRANCH  30  31
ENDBRANCH  28  30
ENDBRANCH   3  28
TORSDOF 7
ENDMDL
MODEL 2
REMARK VINA RESULT: -6.014474594      1.500      6.309
REMARK  7 active torsions:
REMARK  status: ('A' for Active; 'I' for Inactive)
REMARK    1  A    between atoms: C2_2  and  N1_4 
REMARK    2  A    between atoms: C4_7  and  N3_8 
REMARK    3  A    between atoms: N5_14  and  C6_16 
REMARK    4  A    between atoms: C8_18  and  N6_19 
REMARK    5  A    between atoms: N6_19  and  C9_21 
REMARK    6  A    between atoms: C9_21  and  C10_22 
REMARK    7  A    between atoms: C10_22  and  N7_23 
ROOT
HETATM    1  C6  UNL     1     -39.839   9.028   5.457  1.00  0.00     0.140 A 
HETATM    2  C7  UNL     1     -40.290   9.706   4.343  1.00  0.00     0.100 A 
HETATM    3  C8  UNL     1     -39.473  10.151   3.330  1.00  0.00     0.145 A 
HETATM    4  N8  UNL     1     -38.148   9.912   3.425  1.00  0.00    -0.069 N 
HETATM    5  N9  UNL     1     -37.120  10.205   2.631  1.00  0.00    -0.273 N 
ATOM      6  H9  UNL     1     -37.167  10.702   1.742  1.00  0.00     0.189 HD
HETATM    7  C13 UNL     1     -36.018   9.729   3.212  1.00  0.00     0.215 A 
HETATM    8  N10 UNL     1     -36.327   9.134   4.370  1.00  0.00    -0.184 N 
ATOM      9  H10 UNL     1     -35.685   8.683   5.023  1.00  0.00     0.185 HD
HETATM   10  C14 UNL     1     -37.693   9.257   4.498  1.00  0.00     0.707 A 
HETATM   11  N11 UNL     1     -38.496   8.823   5.487  1.00  0.00    -0.174 N 
ATOM     12  H11 UNL     1     -38.086   8.328   6.279  1.00  0.00     0.186 HD
ENDROOT
BRANCH   1  13
HETATM   13  N5  UNL     1     -40.685   8.564   6.485  1.00  0.00    -0.174 N 
HETATM   14  C5  UNL     1     -40.532   8.721   7.741  1.00  0.00     0.716 A 
HETATM   15  N1  UNL     1     -41.382   8.250   8.685  1.00  0.00    -0.105 N 
HETATM   16  N4  UNL     1     -39.559   9.350   8.418  1.00  0.00    -0.020 N 
HETATM   17  N2  UNL     1     -40.933   8.584   9.879  1.00  0.00    -0.115 N 
HETATM   18  C4  UNL     1     -39.788   9.279   9.756  1.00  0.00     0.705 A 
ATOM     19  H2  UNL     1     -41.387   8.352  10.762  1.00  0.00     0.206 HD
ATOM     20  H4  UNL     1     -38.760   9.817   7.989  1.00  0.00     0.203 HD
ATOM     21  H5  UNL     1     -41.511   8.044   6.190  1.00  0.00     0.186 HD
BRANCH  15  22
HETATM   22  C2  UNL     1     -42.597   7.494   8.397  1.00  0.00     0.119 C 
HETATM   23  C1  UNL     1     -42.532   6.191   9.164  1.00  0.00     0.034 C 
HETATM   24  C3  UNL     1     -43.823   8.297   8.800  1.00  0.00     0.034 C 
ENDBRANCH  15  22
BRANCH  18  25
HETATM   25  N3  UNL     1     -39.054   9.776  10.708  1.00  0.00    -0.233 N 
ATOM     26  H32 UNL     1     -39.376  10.245  11.555  1.00  0.00     0.174 HD
ATOM     27  H31 UNL     1     -38.036   9.783  10.771  1.00  0.00     0.174 HD
ENDBRANCH  18  25
ENDBRANCH   1  13
BRANCH   3  28
HETATM   28  N6  UNL     1     -39.990  10.757   2.367  1.00  0.00    -0.372 N 
ATOM     29  H6  UNL     1     -39.311  11.057   1.667  1.00  0.00     0.161 HD
BRANCH  28  30
HETATM   30  C9  UNL     1     -41.318  11.114   2.045  1.00  0.00     0.151 C 
BRANCH  30  31
HETATM   31  C10 UNL     1     -41.644  12.578   2.249  1.00  0.00     0.290 C 
BRANCH  31  32
HETATM   32  N7  UNL     1     -42.283  12.815   3.492  1.00  0.00     0.081 N 
HETATM   33  C11 UNL     1     -43.639  12.315   3.568  1.00  0.00     0.309 C 
HETATM   34  C12 UNL     1     -42.277  14.154   3.980  1.00  0.00     0.309 C 
ENDBRANCH  31  32
ENDBRANCH  30  31
ENDBRANCH  28  30
ENDBRANCH   3  28
TORSDOF 7
ENDMDL
MODEL 3
REMARK VINA RESULT: -5.960077604      2.937      6.809
REMARK  7 active torsions:
REMARK  status: ('A' for Active; 'I' for Inactive)
REMARK    1  A    between atoms: C2_2  and  N1_4 
REMARK    2  A    between atoms: C4_7  and  N3_8 
REMARK    3  A    between atoms: N5_14  and  C6_16 
REMARK    4  A    between atoms: C8_18  and  N6_19 
REMARK    5  A    between atoms: N6_19  and  C9_21 
REMARK    6  A    between atoms: C9_21  and  C10_22 
REMARK    7  A    between atoms: C10_22  and  N7_23 
ROOT
HETATM    1  C6  UNL     1     -39.775   9.049   5.448  1.00  0.00     0.140 A 
HETATM    2  C7  UNL     1     -40.213   9.721   4.325  1.00  0.00     0.100 A 
HETATM    3  C8  UNL     1     -39.384  10.164   3.321  1.00  0.00     0.145 A 
HETATM    4  N8  UNL     1     -38.060   9.931   3.434  1.00  0.00    -0.069 N 
HETATM    5  N9  UNL     1     -37.023  10.224   2.653  1.00  0.00    -0.273 N 
ATOM      6  H9  UNL     1     -37.060  10.717   1.761  1.00  0.00     0.189 HD
HETATM    7  C13 UNL     1     -35.927   9.754   3.250  1.00  0.00     0.215 A 
HETATM    8  N10 UNL     1     -36.249   9.164   4.407  1.00  0.00    -0.184 N 
ATOM      9  H10 UNL     1     -35.614   8.719   5.070  1.00  0.00     0.185 HD
HETATM   10  C14 UNL     1     -37.617   9.282   4.516  1.00  0.00     0.707 A 
HETATM   11  N11 UNL     1     -38.431   8.850   5.497  1.00  0.00    -0.174 N 
ATOM     12  H11 UNL     1     -38.030   8.360   6.296  1.00  0.00     0.186 HD
ENDROOT
BRANCH   1  13
HETATM   13  N5  UNL     1     -40.632   8.587   6.467  1.00  0.00    -0.174 N 
HETATM   14  C5  UNL     1     -40.489   8.738   7.725  1.00  0.00     0.716 A 
HETATM   15  N1  UNL     1     -41.350   8.269   8.660  1.00  0.00    -0.105 N 
HETATM   16  N4  UNL     1     -39.518   9.359   8.413  1.00  0.00    -0.020 N 
HETATM   17  N2  UNL     1     -40.910   8.597   9.858  1.00  0.00    -0.115 N 
HETATM   18  C4  UNL     1     -39.759   9.284   9.748  1.00  0.00     0.705 A 
ATOM     19  H2  UNL     1     -41.373   8.364  10.737  1.00  0.00     0.206 HD
ATOM     20  H4  UNL     1     -38.712   9.823   7.992  1.00  0.00     0.203 HD
ATOM     21  H5  UNL     1     -41.460   8.073   6.163  1.00  0.00     0.186 HD
BRANCH  15  22
HETATM   22  C2  UNL     1     -42.568   7.523   8.358  1.00  0.00     0.119 C 
HETATM   23  C1  UNL     1     -42.415   6.128   8.927  1.00  0.00     0.034 C 
HETATM   24  C3  UNL     1     -43.775   8.221   8.961  1.00  0.00     0.034 C 
ENDBRANCH  15  22
BRANCH  18  25
HETATM   25  N3  UNL     1     -39.031   9.774  10.708  1.00  0.00    -0.233 N 
ATOM     26  H32 UNL     1     -39.102  10.702  11.125  1.00  0.00     0.174 HD
ATOM     27  H31 UNL     1     -38.267   9.316  11.206  1.00  0.00     0.174 HD
ENDBRANCH  18  25
ENDBRANCH   1  13
BRANCH   3  28
HETATM   28  N6  UNL     1     -39.892  10.764   2.348  1.00  0.00    -0.372 N 
ATOM     29  H6  UNL     1     -40.120  11.737   2.550  1.00  0.00     0.161 HD
BRANCH  28  30
HETATM   30  C9  UNL     1     -40.215  10.376   1.030  1.00  0.00     0.151 C 
BRANCH  30  31
HETATM   31  C10 UNL     1     -39.356  11.013  -0.043  1.00  0.00     0.290 C 
BRANCH  31  32
HETATM   32  N7  UNL     1     -38.585  10.055  -0.749  1.00  0.00     0.081 N 
HETATM   33  C11 UNL     1     -38.723   8.702  -0.256  1.00  0.00     0.309 C 
HETATM   34  C12 UNL     1     -37.196  10.329  -0.907  1.00  0.00     0.309 C 
ENDBRANCH  31  32
ENDBRANCH  30  31
ENDBRANCH  28  30
ENDBRANCH   3  28
TORSDOF 7
ENDMDL
MODEL 4
REMARK VINA RESULT: -5.808052854      0.943      1.220
REMARK  7 active torsions:
REMARK  status: ('A' for Active; 'I' for Inactive)
REMARK    1  A    between atoms: C2_2  and  N1_4 
REMARK    2  A    between atoms: C4_7  and  N3_8 
REMARK    3  A    between atoms: N5_14  and  C6_16 
REMARK    4  A    between atoms: C8_18  and  N6_19 
REMARK    5  A    between atoms: N6_19  and  C9_21 
REMARK    6  A    between atoms: C9_21  and  C10_22 
REMARK    7  A    between atoms: C10_22  and  N7_23 
ROOT
HETATM    1  C6  UNL     1     -40.534  10.401   3.658  1.00  0.00     0.140 A 
HETATM    2  C7  UNL     1     -40.388   9.864   4.920  1.00  0.00     0.100 A 
HETATM    3  C8  UNL     1     -39.196   9.405   5.428  1.00  0.00     0.145 A 
HETATM    4  N8  UNL     1     -38.096   9.482   4.650  1.00  0.00    -0.069 N 
HETATM    5  N9  UNL     1     -36.827   9.132   4.846  1.00  0.00    -0.273 N 
ATOM      6  H9  UNL     1     -36.441   8.711   5.690  1.00  0.00     0.189 HD
HETATM    7  C13 UNL     1     -36.153   9.434   3.735  1.00  0.00     0.215 A 
HETATM    8  N10 UNL     1     -36.976   9.973   2.828  1.00  0.00    -0.184 N 
ATOM      9  H10 UNL     1     -36.735  10.297   1.891  1.00  0.00     0.185 HD
HETATM   10  C14 UNL     1     -38.218   9.999   3.423  1.00  0.00     0.707 A 
HETATM   11  N11 UNL     1     -39.387  10.448   2.929  1.00  0.00    -0.174 N 
ATOM     12  H11 UNL     1     -39.413  10.832   1.985  1.00  0.00     0.186 HD
ENDROOT
BRANCH   1  13
HETATM   13  N5  UNL     1     -41.757  10.882   3.149  1.00  0.00    -0.174 N 
HETATM   14  C5  UNL     1     -42.204  12.075   3.210  1.00  0.00     0.716 A 
HETATM   15  N1  UNL     1     -43.392  12.480   2.701  1.00  0.00    -0.105 N 
HETATM   16  N4  UNL     1     -41.657  13.173   3.756  1.00  0.00    -0.020 N 
HETATM   17  N2  UNL     1     -43.549  13.768   2.934  1.00  0.00    -0.115 N 
HETATM   18  C4  UNL     1     -42.479  14.244   3.596  1.00  0.00     0.705 A 
ATOM     19  H2  UNL     1     -44.359  14.321   2.654  1.00  0.00     0.206 HD
ATOM     20  H4  UNL     1     -40.751  13.200   4.225  1.00  0.00     0.203 HD
ATOM     21  H5  UNL     1     -42.352  10.199   2.679  1.00  0.00     0.186 HD
BRANCH  15  22
HETATM   22  C2  UNL     1     -44.332  11.605   2.007  1.00  0.00     0.119 C 
HETATM   23  C1  UNL     1     -45.710  11.844   2.585  1.00  0.00     0.034 C 
HETATM   24  C3  UNL     1     -44.316  11.895   0.515  1.00  0.00     0.034 C 
ENDBRANCH  15  22
BRANCH  18  25
HETATM   25  N3  UNL     1     -42.270  15.463   3.998  1.00  0.00    -0.233 N 
ATOM     26  H32 UNL     1     -42.970  16.187   4.162  1.00  0.00     0.174 HD
ATOM     27  H31 UNL     1     -41.376  15.902   4.217  1.00  0.00     0.174 HD
ENDBRANCH  18  25
ENDBRANCH   1  13
BRANCH   3  28
HETATM   28  N6  UNL     1     -39.181   8.935   6.587  1.00  0.00    -0.372 N 
ATOM     29  H6  UNL     1     -38.588   8.110   6.680  1.00  0.00     0.161 HD
BRANCH  28  30
HETATM   30  C9  UNL     1     -39.813   9.307   7.793  1.00  0.00     0.151 C 
BRANCH  30  31
HETATM   31  C10 UNL     1     -40.689   8.232   8.403  1.00  0.00     0.290 C 
BRANCH  31  32
HETATM   32  N7  UNL     1     -42.034   8.327   7.967  1.00  0.00     0.081 N 
HETATM   33  C11 UNL     1     -43.012   8.188   9.024  1.00  0.00     0.309 C 
HETATM   34  C12 UNL     1     -42.426   7.486   6.886  1.00  0.00     0.309 C 
ENDBRANCH  31  32
ENDBRANCH  30  31
ENDBRANCH  28  30
ENDBRANCH   3  28
TORSDOF 7
ENDMDL
MODEL 5
REMARK VINA RESULT: -5.804017545      2.057      6.818
REMARK  7 active torsions:
REMARK  status: ('A' for Active; 'I' for Inactive)
REMARK    1  A    between atoms: C2_2  and  N1_4 
REMARK    2  A    between atoms: C4_7  and  N3_8 
REMARK    3  A    between atoms: N5_14  and  C6_16 
REMARK    4  A    between atoms: C8_18  and  N6_19 
REMARK    5  A    between atoms: N6_19  and  C9_21 
REMARK    6  A    between atoms: C9_21  and  C10_22 
REMARK    7  A    between atoms: C10_22  and  N7_23 
ROOT
HETATM    1  C6  UNL     1     -39.824   9.023   5.458  1.00  0.00     0.140 A 
HETATM    2  C7  UNL     1     -40.270   9.700   4.341  1.00  0.00     0.100 A 
HETATM    3  C8  UNL     1     -39.450  10.139   3.329  1.00  0.00     0.145 A 
HETATM    4  N8  UNL     1     -38.126   9.896   3.426  1.00  0.00    -0.069 N 
HETATM    5  N9  UNL     1     -37.096  10.183   2.634  1.00  0.00    -0.273 N 
ATOM      6  H9  UNL     1     -37.140  10.679   1.744  1.00  0.00     0.189 HD
HETATM    7  C13 UNL     1     -35.997   9.705   3.217  1.00  0.00     0.215 A 
HETATM    8  N10 UNL     1     -36.310   9.114   4.377  1.00  0.00    -0.184 N 
ATOM      9  H10 UNL     1     -35.671   8.662   5.031  1.00  0.00     0.185 HD
HETATM   10  C14 UNL     1     -37.676   9.241   4.502  1.00  0.00     0.707 A 
HETATM   11  N11 UNL     1     -38.482   8.813   5.491  1.00  0.00    -0.174 N 
ATOM     12  H11 UNL     1     -38.075   8.318   6.285  1.00  0.00     0.186 HD
ENDROOT
BRANCH   1  13
HETATM   13  N5  UNL     1     -40.673   8.564   6.485  1.00  0.00    -0.174 N 
HETATM   14  C5  UNL     1     -40.522   8.723   7.741  1.00  0.00     0.716 A 
HETATM   15  N1  UNL     1     -41.375   8.258   8.685  1.00  0.00    -0.105 N 
HETATM   16  N4  UNL     1     -39.547   9.351   8.419  1.00  0.00    -0.020 N 
HETATM   17  N2  UNL     1     -40.927   8.593   9.879  1.00  0.00    -0.115 N 
HETATM   18  C4  UNL     1     -39.779   9.283   9.757  1.00  0.00     0.705 A 
ATOM     19  H2  UNL     1     -41.383   8.365  10.762  1.00  0.00     0.206 HD
ATOM     20  H4  UNL     1     -38.746   9.813   7.990  1.00  0.00     0.203 HD
ATOM     21  H5  UNL     1     -41.501   8.047   6.191  1.00  0.00     0.186 HD
BRANCH  15  22
HETATM   22  C2  UNL     1     -42.593   7.506   8.397  1.00  0.00     0.119 C 
HETATM   23  C1  UNL     1     -42.366   6.068   8.812  1.00  0.00     0.034 C 
HETATM   24  C3  UNL     1     -43.770   8.104   9.149  1.00  0.00     0.034 C 
ENDBRANCH  15  22
BRANCH  18  25
HETATM   25  N3  UNL     1     -39.045   9.780  10.708  1.00  0.00    -0.233 N 
ATOM     26  H32 UNL     1     -39.069   9.536  11.699  1.00  0.00     0.174 HD
ATOM     27  H31 UNL     1     -38.322  10.495  10.629  1.00  0.00     0.174 HD
ENDBRANCH  18  25
ENDBRANCH   1  13
BRANCH   3  28
HETATM   28  N6  UNL     1     -39.964  10.745   2.364  1.00  0.00    -0.372 N 
ATOM     29  H6  UNL     1     -39.343  10.820   1.558  1.00  0.00     0.161 HD
BRANCH  28  30
HETATM   30  C9  UNL     1     -41.224  11.347   2.155  1.00  0.00     0.151 C 
BRANCH  30  31
HETATM   31  C10 UNL     1     -41.178  12.660   1.402  1.00  0.00     0.290 C 
BRANCH  31  32
HETATM   32  N7  UNL     1     -41.972  12.630   0.227  1.00  0.00     0.081 N 
HETATM   33  C11 UNL     1     -43.356  12.273   0.455  1.00  0.00     0.309 C 
HETATM   34  C12 UNL     1     -41.487  11.852  -0.863  1.00  0.00     0.309 C 
ENDBRANCH  31  32
ENDBRANCH  30  31
ENDBRANCH  28  30
ENDBRANCH   3  28
TORSDOF 7
ENDMDL
