MODEL 1
REMARK VINA RESULT: -4.395020158      0.000      0.000
REMARK  2 active torsions:
REMARK  status: ('A' for Active; 'I' for Inactive)
REMARK    1  A    between atoms: O1_2  and  C2_3 
REMARK    2  A    between atoms: C5_7  and  N1_8 
ROOT
HETATM    1  C2  UNL     1      12.873  -5.847 -32.782  1.00  0.00     0.162 C 
HETATM    2  C3  UNL     1      11.926  -6.124 -33.858  1.00  0.00     0.045 C 
HETATM    3  C4  UNL     1      12.561  -6.812 -35.006  1.00  0.00     0.079 C 
HETATM    4  S1  UNL     1      14.361  -6.730 -34.690  1.00  0.00    -0.134 SA
HETATM    5  C5  UNL     1      14.236  -5.537 -33.311  1.00  0.00     0.273 C 
ENDROOT
BRANCH   5   6
HETATM    6  N1  UNL     1      15.202  -5.808 -32.286  1.00  0.00    -0.064 N 
ATOM      7  H13 UNL     1      14.786  -6.247 -31.464  1.00  0.00     0.275 HD
ATOM      8  H12 UNL     1      15.840  -6.561 -32.542  1.00  0.00     0.275 HD
ATOM      9  H11 UNL     1      15.692  -4.942 -32.059  1.00  0.00     0.275 HD
ENDBRANCH   5   6
BRANCH   1  10
HETATM   10  O1  UNL     1      12.460  -4.760 -32.011  1.00  0.00    -0.388 OA
HETATM   11  C1  UNL     1      12.460  -3.571 -32.730  1.00  0.00     0.202 C 
ENDBRANCH   1  10
TORSDOF 2
ENDMDL
MODEL 2
REMARK VINA RESULT: -4.192549179      2.070      2.591
REMARK  2 active torsions:
REMARK  status: ('A' for Active; 'I' for Inactive)
REMARK    1  A    between atoms: O1_2  and  C2_3 
REMARK    2  A    between atoms: C5_7  and  N1_8 
ROOT
HETATM    1  C2  UNL     1      14.026  -5.457 -33.814  1.00  0.00     0.162 C 
HETATM    2  C3  UNL     1      13.955  -6.600 -34.720  1.00  0.00     0.045 C 
HETATM    3  C4  UNL     1      12.560  -6.966 -35.059  1.00  0.00     0.079 C 
HETATM    4  S1  UNL     1      11.509  -5.996 -33.919  1.00  0.00    -0.134 SA
HETATM    5  C5  UNL     1      12.884  -5.445 -32.849  1.00  0.00     0.273 C 
ENDROOT
BRANCH   5   6
HETATM    6  N1  UNL     1      12.688  -4.103 -32.382  1.00  0.00    -0.064 N 
ATOM      7  H13 UNL     1      12.621  -3.430 -33.147  1.00  0.00     0.275 HD
ATOM      8  H12 UNL     1      11.759  -3.960 -31.986  1.00  0.00     0.275 HD
ATOM      9  H11 UNL     1      13.433  -3.872 -31.724  1.00  0.00     0.275 HD
ENDBRANCH   5   6
BRANCH   1  10
HETATM   10  O1  UNL     1      15.207  -5.471 -33.073  1.00  0.00    -0.388 OA
HETATM   11  C1  UNL     1      15.209  -6.459 -32.097  1.00  0.00     0.202 C 
ENDBRANCH   1  10
TORSDOF 2
ENDMDL
MODEL 3
REMARK VINA RESULT: -4.179528120      2.314      2.969
REMARK  2 active torsions:
REMARK  status: ('A' for Active; 'I' for Inactive)
REMARK    1  A    between atoms: O1_2  and  C2_3 
REMARK    2  A    between atoms: C5_7  and  N1_8 
ROOT
HETATM    1  C2  UNL     1      12.784  -5.551 -35.096  1.00  0.00     0.162 C 
HETATM    2  C3  UNL     1      12.140  -4.743 -34.064  1.00  0.00     0.045 C 
HETATM    3  C4  UNL     1      13.033  -4.482 -32.912  1.00  0.00     0.079 C 
HETATM    4  S1  UNL     1      14.479  -5.577 -33.156  1.00  0.00    -0.134 SA
HETATM    5  C5  UNL     1      13.726  -6.551 -34.507  1.00  0.00     0.273 C 
ENDROOT
BRANCH   5   6
HETATM    6  N1  UNL     1      14.694  -6.915 -35.501  1.00  0.00    -0.064 N 
ATOM      7  H13 UNL     1      14.267  -7.121 -36.405  1.00  0.00     0.275 HD
ATOM      8  H12 UNL     1      15.269  -6.124 -35.793  1.00  0.00     0.275 HD
ATOM      9  H11 UNL     1      15.252  -7.693 -35.148  1.00  0.00     0.275 HD
ENDBRANCH   5   6
BRANCH   1  10
HETATM   10  O1  UNL     1      11.843  -6.249 -35.853  1.00  0.00    -0.388 OA
HETATM   11  C1  UNL     1      10.649  -6.438 -35.169  1.00  0.00     0.202 C 
ENDBRANCH   1  10
TORSDOF 2
ENDMDL
MODEL 4
REMARK VINA RESULT: -4.169167957      3.038      3.963
REMARK  2 active torsions:
REMARK  status: ('A' for Active; 'I' for Inactive)
REMARK    1  A    between atoms: O1_2  and  C2_3 
REMARK    2  A    between atoms: C5_7  and  N1_8 
ROOT
HETATM    1  C2  UNL     1      13.768  -6.629 -35.051  1.00  0.00     0.162 C 
HETATM    2  C3  UNL     1      14.489  -5.837 -34.058  1.00  0.00     0.045 C 
HETATM    3  C4  UNL     1      13.643  -5.486 -32.894  1.00  0.00     0.079 C 
HETATM    4  S1  UNL     1      11.938  -5.947 -33.371  1.00  0.00    -0.134 SA
HETATM    5  C5  UNL     1      12.328  -6.235 -35.133  1.00  0.00     0.273 C 
ENDROOT
BRANCH   5   6
HETATM    6  N1  UNL     1      11.579  -7.335 -35.669  1.00  0.00    -0.064 N 
ATOM      7  H13 UNL     1      11.118  -7.101 -36.549  1.00  0.00     0.275 HD
ATOM      8  H12 UNL     1      12.179  -8.082 -36.017  1.00  0.00     0.275 HD
ATOM      9  H11 UNL     1      10.921  -7.661 -34.960  1.00  0.00     0.275 HD
ENDBRANCH   5   6
BRANCH   1  10
HETATM   10  O1  UNL     1      14.323  -6.476 -36.321  1.00  0.00    -0.388 OA
HETATM   11  C1  UNL     1      15.366  -7.363 -36.553  1.00  0.00     0.202 C 
ENDBRANCH   1  10
TORSDOF 2
ENDMDL
MODEL 5
REMARK VINA RESULT: -4.136000295      1.910      2.335
REMARK  2 active torsions:
REMARK  status: ('A' for Active; 'I' for Inactive)
REMARK    1  A    between atoms: O1_2  and  C2_3 
REMARK    2  A    between atoms: C5_7  and  N1_8 
ROOT
HETATM    1  C2  UNL     1      12.020  -5.805 -33.548  1.00  0.00     0.162 C 
HETATM    2  C3  UNL     1      12.569  -6.826 -34.436  1.00  0.00     0.045 C 
HETATM    3  C4  UNL     1      14.022  -7.032 -34.229  1.00  0.00     0.079 C 
HETATM    4  S1  UNL     1      14.560  -5.663 -33.142  1.00  0.00    -0.134 SA
HETATM    5  C5  UNL     1      13.006  -4.712 -33.286  1.00  0.00     0.273 C 
ENDROOT
BRANCH   5   6
HETATM    6  N1  UNL     1      12.663  -4.067 -32.052  1.00  0.00    -0.064 N 
ATOM      7  H13 UNL     1      12.485  -4.733 -31.300  1.00  0.00     0.275 HD
ATOM      8  H12 UNL     1      13.457  -3.585 -31.630  1.00  0.00     0.275 HD
ATOM      9  H11 UNL     1      11.871  -3.444 -32.216  1.00  0.00     0.275 HD
ENDBRANCH   5   6
BRANCH   1  10
HETATM   10  O1  UNL     1      10.876  -5.223 -34.093  1.00  0.00    -0.388 OA
HETATM   11  C1  UNL     1      10.382  -5.939 -35.176  1.00  0.00     0.202 C 
ENDBRANCH   1  10
TORSDOF 2
ENDMDL
