MODEL 1
REMARK VINA RESULT: -4.455151035      0.000      0.000
REMARK  1 active torsions:
REMARK  status: ('A' for Active; 'I' for Inactive)
REMARK    1  A    between atoms: O1_2  and  C2_3 
ROOT
HETATM    1  C2  UNL     1      12.699  -5.418 -35.377  1.00  0.00     0.365 C 
HETATM    2  N1  UNL     1      12.733  -5.192 -33.974  1.00  0.00    -0.375 N 
ATOM      3  H1  UNL     1      13.269  -4.431 -33.557  1.00  0.00     0.158 HD
HETATM    4  C3  UNL     1      11.964  -6.107 -33.186  1.00  0.00     0.120 C 
HETATM    5  C4  UNL     1      10.650  -6.493 -33.805  1.00  0.00     0.046 C 
HETATM    6  C5  UNL     1      10.600  -6.161 -35.289  1.00  0.00     0.174 C 
HETATM    7  O2  UNL     1      11.884  -6.466 -35.775  1.00  0.00    -0.344 OA
ENDROOT
BRANCH   1   8
HETATM    8  O1  UNL     1      13.955  -5.585 -35.949  1.00  0.00    -0.349 OA
HETATM    9  C1  UNL     1      14.554  -6.779 -35.591  1.00  0.00     0.206 C 
ENDBRANCH   1   8
TORSDOF 1
ENDMDL
MODEL 2
REMARK VINA RESULT: -4.398267010      2.347      2.765
REMARK  1 active torsions:
REMARK  status: ('A' for Active; 'I' for Inactive)
REMARK    1  A    between atoms: O1_2  and  C2_3 
ROOT
HETATM    1  C2  UNL     1      14.027  -6.241 -35.232  1.00  0.00     0.365 C 
HETATM    2  N1  UNL     1      13.058  -5.203 -35.161  1.00  0.00    -0.375 N 
ATOM      3  H1  UNL     1      12.230  -5.189 -35.756  1.00  0.00     0.158 HD
HETATM    4  C3  UNL     1      13.327  -4.178 -34.199  1.00  0.00     0.120 C 
HETATM    5  C4  UNL     1      13.909  -4.687 -32.910  1.00  0.00     0.046 C 
HETATM    6  C5  UNL     1      14.460  -6.098 -33.051  1.00  0.00     0.174 C 
HETATM    7  O2  UNL     1      15.065  -6.129 -34.320  1.00  0.00    -0.344 OA
ENDROOT
BRANCH   1   8
HETATM    8  O1  UNL     1      14.564  -6.422 -36.502  1.00  0.00    -0.349 OA
HETATM    9  C1  UNL     1      15.455  -7.478 -36.562  1.00  0.00     0.206 C 
ENDBRANCH   1   8
TORSDOF 1
ENDMDL
MODEL 3
REMARK VINA RESULT: -4.358822958      1.368      1.734
REMARK  1 active torsions:
REMARK  status: ('A' for Active; 'I' for Inactive)
REMARK    1  A    between atoms: O1_2  and  C2_3 
ROOT
HETATM    1  C2  UNL     1      13.108  -5.972 -35.126  1.00  0.00     0.365 C 
HETATM    2  N1  UNL     1      12.105  -6.967 -35.283  1.00  0.00    -0.375 N 
ATOM      3  H1  UNL     1      12.329  -7.959 -35.367  1.00  0.00     0.158 HD
HETATM    4  C3  UNL     1      10.759  -6.482 -35.317  1.00  0.00     0.120 C 
HETATM    5  C4  UNL     1      10.490  -5.357 -34.357  1.00  0.00     0.046 C 
HETATM    6  C5  UNL     1      11.775  -4.712 -33.860  1.00  0.00     0.174 C 
HETATM    7  O2  UNL     1      12.625  -4.680 -34.980  1.00  0.00    -0.344 OA
ENDROOT
BRANCH   1   8
HETATM    8  O1  UNL     1      14.069  -5.979 -36.131  1.00  0.00    -0.349 OA
HETATM    9  C1  UNL     1      14.938  -7.051 -36.034  1.00  0.00     0.206 C 
ENDBRANCH   1   8
TORSDOF 1
ENDMDL
MODEL 4
REMARK VINA RESULT: -4.351560778      2.212      2.656
REMARK  1 active torsions:
REMARK  status: ('A' for Active; 'I' for Inactive)
REMARK    1  A    between atoms: O1_2  and  C2_3 
ROOT
HETATM    1  C2  UNL     1      13.823  -4.748 -33.057  1.00  0.00     0.365 C 
HETATM    2  N1  UNL     1      12.535  -5.030 -32.525  1.00  0.00    -0.375 N 
ATOM      3  H1  UNL     1      12.199  -4.611 -31.657  1.00  0.00     0.158 HD
HETATM    4  C3  UNL     1      11.741  -5.942 -33.291  1.00  0.00     0.120 C 
HETATM    5  C4  UNL     1      11.864  -5.761 -34.778  1.00  0.00     0.046 C 
HETATM    6  C5  UNL     1      13.090  -4.942 -35.152  1.00  0.00     0.174 C 
HETATM    7  O2  UNL     1      14.098  -5.366 -34.267  1.00  0.00    -0.344 OA
ENDROOT
BRANCH   1   8
HETATM    8  O1  UNL     1      14.864  -5.011 -32.174  1.00  0.00    -0.349 OA
HETATM    9  C1  UNL     1      15.203  -6.351 -32.126  1.00  0.00     0.206 C 
ENDBRANCH   1   8
TORSDOF 1
ENDMDL
MODEL 5
REMARK VINA RESULT: -4.348474417      2.815      3.135
REMARK  1 active torsions:
REMARK  status: ('A' for Active; 'I' for Inactive)
REMARK    1  A    between atoms: O1_2  and  C2_3 
ROOT
HETATM    1  C2  UNL     1      14.685  -5.231 -32.929  1.00  0.00     0.365 C 
HETATM    2  N1  UNL     1      14.151  -3.978 -32.524  1.00  0.00    -0.375 N 
ATOM      3  H1  UNL     1      14.744  -3.176 -32.312  1.00  0.00     0.158 HD
HETATM    4  C3  UNL     1      12.724  -3.919 -32.435  1.00  0.00     0.120 C 
HETATM    5  C4  UNL     1      12.011  -4.668 -33.526  1.00  0.00     0.046 C 
HETATM    6  C5  UNL     1      12.931  -5.649 -34.238  1.00  0.00     0.174 C 
HETATM    7  O2  UNL     1      13.736  -6.198 -33.223  1.00  0.00    -0.344 OA
ENDROOT
BRANCH   1   8
HETATM    8  O1  UNL     1      15.604  -5.766 -32.032  1.00  0.00    -0.349 OA
HETATM    9  C1  UNL     1      15.215  -6.996 -31.533  1.00  0.00     0.206 C 
ENDBRANCH   1   8
TORSDOF 1
ENDMDL
