MODEL 1
REMARK VINA RESULT: -4.115529990      0.000      0.000
REMARK  2 active torsions:
REMARK  status: ('A' for Active; 'I' for Inactive)
REMARK    1  A    between atoms: N1_1  and  C1_5 
REMARK    2  A    between atoms: C1_5  and  C2_6 
ROOT
HETATM    1  C2  UNL     1      12.332  -5.098 -33.305  1.00  0.00     0.021 C 
HETATM    2  C3  UNL     1      13.422  -5.524 -34.259  1.00  0.00     0.017 C 
HETATM    3  C4  UNL     1      12.957  -6.937 -34.628  1.00  0.00     0.074 C 
HETATM    4  S1  UNL     1      11.242  -6.517 -35.156  1.00  0.00    -0.169 SA
HETATM    5  C5  UNL     1      11.071  -4.972 -34.168  1.00  0.00     0.080 C 
ENDROOT
BRANCH   1   6
HETATM    6  C1  UNL     1      12.643  -3.793 -32.612  1.00  0.00     0.234 C 
BRANCH   6   7
HETATM    7  N1  UNL     1      14.048  -3.871 -32.205  1.00  0.00    -0.079 N 
ATOM      8  H13 UNL     1      14.186  -4.328 -31.304  1.00  0.00     0.274 HD
ATOM      9  H12 UNL     1      14.596  -4.526 -32.763  1.00  0.00     0.274 HD
ATOM     10  H11 UNL     1      14.406  -2.915 -32.234  1.00  0.00     0.274 HD
ENDBRANCH   6   7
ENDBRANCH   1   6
TORSDOF 2
ENDMDL
MODEL 2
REMARK VINA RESULT: -4.058840131      0.979      1.673
REMARK  2 active torsions:
REMARK  status: ('A' for Active; 'I' for Inactive)
REMARK    1  A    between atoms: N1_1  and  C1_5 
REMARK    2  A    between atoms: C1_5  and  C2_6 
ROOT
HETATM    1  C2  UNL     1      12.520  -4.698 -33.803  1.00  0.00     0.021 C 
HETATM    2  C3  UNL     1      11.225  -5.473 -33.778  1.00  0.00     0.017 C 
HETATM    3  C4  UNL     1      11.255  -6.144 -35.157  1.00  0.00     0.074 C 
HETATM    4  S1  UNL     1      12.918  -6.927 -35.029  1.00  0.00    -0.169 SA
HETATM    5  C5  UNL     1      13.624  -5.763 -33.789  1.00  0.00     0.080 C 
ENDROOT
BRANCH   1   6
HETATM    6  C1  UNL     1      12.661  -3.761 -32.628  1.00  0.00     0.234 C 
BRANCH   6   7
HETATM    7  N1  UNL     1      14.057  -3.857 -32.194  1.00  0.00    -0.079 N 
ATOM      8  H13 UNL     1      14.282  -3.239 -31.414  1.00  0.00     0.274 HD
ATOM      9  H12 UNL     1      14.277  -4.735 -31.725  1.00  0.00     0.274 HD
ATOM     10  H11 UNL     1      14.625  -3.686 -33.024  1.00  0.00     0.274 HD
ENDBRANCH   6   7
ENDBRANCH   1   6
TORSDOF 2
ENDMDL
MODEL 3
REMARK VINA RESULT: -4.048976282      0.676      1.942
REMARK  2 active torsions:
REMARK  status: ('A' for Active; 'I' for Inactive)
REMARK    1  A    between atoms: N1_1  and  C1_5 
REMARK    2  A    between atoms: C1_5  and  C2_6 
ROOT
HETATM    1  C2  UNL     1      13.213  -5.450 -34.030  1.00  0.00     0.021 C 
HETATM    2  C3  UNL     1      11.965  -5.130 -33.243  1.00  0.00     0.017 C 
HETATM    3  C4  UNL     1      10.923  -5.042 -34.363  1.00  0.00     0.074 C 
HETATM    4  S1  UNL     1      11.246  -6.677 -35.150  1.00  0.00    -0.169 SA
HETATM    5  C5  UNL     1      12.988  -6.863 -34.582  1.00  0.00     0.080 C 
ENDROOT
BRANCH   1   6
HETATM    6  C1  UNL     1      14.464  -5.395 -33.187  1.00  0.00     0.234 C 
BRANCH   6   7
HETATM    7  N1  UNL     1      14.316  -4.228 -32.313  1.00  0.00    -0.079 N 
ATOM      8  H13 UNL     1      15.058  -3.538 -32.429  1.00  0.00     0.274 HD
ATOM      9  H12 UNL     1      13.539  -3.620 -32.575  1.00  0.00     0.274 HD
ATOM     10  H11 UNL     1      14.245  -4.591 -31.362  1.00  0.00     0.274 HD
ENDBRANCH   6   7
ENDBRANCH   1   6
TORSDOF 2
ENDMDL
MODEL 4
REMARK VINA RESULT: -4.034992581      2.706      3.605
REMARK  2 active torsions:
REMARK  status: ('A' for Active; 'I' for Inactive)
REMARK    1  A    between atoms: N1_1  and  C1_5 
REMARK    2  A    between atoms: C1_5  and  C2_6 
ROOT
HETATM    1  C2  UNL     1      12.241  -6.218 -34.179  1.00  0.00     0.021 C 
HETATM    2  C3  UNL     1      11.421  -4.955 -34.070  1.00  0.00     0.017 C 
HETATM    3  C4  UNL     1      12.059  -4.293 -32.843  1.00  0.00     0.074 C 
HETATM    4  S1  UNL     1      13.812  -4.328 -33.411  1.00  0.00    -0.169 SA
HETATM    5  C5  UNL     1      13.648  -5.749 -34.570  1.00  0.00     0.080 C 
ENDROOT
BRANCH   1   6
HETATM    6  C1  UNL     1      11.691  -7.183 -35.202  1.00  0.00     0.234 C 
BRANCH   6   7
HETATM    7  N1  UNL     1      10.411  -6.624 -35.644  1.00  0.00    -0.079 N 
ATOM      8  H13 UNL     1      10.508  -5.763 -36.181  1.00  0.00     0.274 HD
ATOM      9  H12 UNL     1       9.958  -7.175 -36.373  1.00  0.00     0.274 HD
ATOM     10  H11 UNL     1       9.842  -6.516 -34.803  1.00  0.00     0.274 HD
ENDBRANCH   6   7
ENDBRANCH   1   6
TORSDOF 2
ENDMDL
MODEL 5
REMARK VINA RESULT: -3.972550033      2.656      3.199
REMARK  2 active torsions:
REMARK  status: ('A' for Active; 'I' for Inactive)
REMARK    1  A    between atoms: N1_1  and  C1_5 
REMARK    2  A    between atoms: C1_5  and  C2_6 
ROOT
HETATM    1  C2  UNL     1      11.704  -5.505 -33.982  1.00  0.00     0.021 C 
HETATM    2  C3  UNL     1      12.603  -4.338 -34.316  1.00  0.00     0.017 C 
HETATM    3  C4  UNL     1      13.745  -4.549 -33.315  1.00  0.00     0.074 C 
HETATM    4  S1  UNL     1      14.141  -6.299 -33.737  1.00  0.00    -0.169 SA
HETATM    5  C5  UNL     1      12.489  -6.750 -34.412  1.00  0.00     0.080 C 
ENDROOT
BRANCH   1   6
HETATM    6  C1  UNL     1      10.373  -5.436 -34.691  1.00  0.00     0.234 C 
BRANCH   6   7
HETATM    7  N1  UNL     1      10.351  -6.560 -35.630  1.00  0.00    -0.079 N 
ATOM      8  H13 UNL     1      11.060  -6.493 -36.360  1.00  0.00     0.274 HD
ATOM      9  H12 UNL     1      10.675  -7.437 -35.221  1.00  0.00     0.274 HD
ATOM     10  H11 UNL     1       9.398  -6.609 -35.993  1.00  0.00     0.274 HD
ENDBRANCH   6   7
ENDBRANCH   1   6
TORSDOF 2
ENDMDL
