MODEL 1
REMARK VINA RESULT: -4.891199554      0.000      0.000
REMARK  2 active torsions:
REMARK  status: ('A' for Active; 'I' for Inactive)
REMARK    1  A    between atoms: C2_2  and  C3_3 
REMARK    2  A    between atoms: C5_6  and  N1_7 
ROOT
HETATM    1  C3  UNL     1      12.023  -6.010 -34.294  1.00  0.00     0.283 C 
HETATM    2  O1  UNL     1      12.314  -4.686 -33.921  1.00  0.00    -0.356 OA
HETATM    3  C4  UNL     1      13.196  -4.740 -32.857  1.00  0.00     0.206 C 
HETATM    4  C5  UNL     1      14.488  -5.401 -33.354  1.00  0.00     0.231 C 
HETATM    5  C6  UNL     1      14.080  -6.770 -33.854  1.00  0.00     0.206 C 
HETATM    6  O2  UNL     1      13.153  -6.578 -34.880  1.00  0.00    -0.356 OA
ENDROOT
BRANCH   4   7
HETATM    7  N1  UNL     1      15.337  -5.545 -32.191  1.00  0.00    -0.071 N 
ATOM      8  H13 UNL     1      15.601  -4.656 -31.767  1.00  0.00     0.274 HD
ATOM      9  H12 UNL     1      14.852  -5.930 -31.379  1.00  0.00     0.274 HD
ATOM     10  H11 UNL     1      16.134  -6.106 -32.492  1.00  0.00     0.274 HD
ENDBRANCH   4   7
BRANCH   1  11
HETATM   11  C2  UNL     1      10.818  -6.104 -35.121  1.00  0.00     0.023 C 
HETATM   12  C1  UNL     1       9.820  -5.266 -34.975  1.00  0.00     0.012 C 
ENDBRANCH   1  11
TORSDOF 2
ENDMDL
MODEL 2
REMARK VINA RESULT: -4.792187758      1.250      1.662
REMARK  2 active torsions:
REMARK  status: ('A' for Active; 'I' for Inactive)
REMARK    1  A    between atoms: C2_2  and  C3_3 
REMARK    2  A    between atoms: C5_6  and  N1_7 
ROOT
HETATM    1  C3  UNL     1      11.270  -5.322 -34.520  1.00  0.00     0.283 C 
HETATM    2  O1  UNL     1      12.216  -5.694 -35.493  1.00  0.00    -0.356 OA
HETATM    3  C4  UNL     1      13.448  -5.223 -35.074  1.00  0.00     0.206 C 
HETATM    4  C5  UNL     1      13.796  -5.933 -33.760  1.00  0.00     0.231 C 
HETATM    5  C6  UNL     1      12.676  -5.592 -32.801  1.00  0.00     0.206 C 
HETATM    6  O2  UNL     1      11.489  -6.068 -33.363  1.00  0.00    -0.356 OA
ENDROOT
BRANCH   4   7
HETATM    7  N1  UNL     1      15.028  -5.332 -33.295  1.00  0.00    -0.071 N 
ATOM      8  H13 UNL     1      15.210  -4.413 -33.699  1.00  0.00     0.274 HD
ATOM      9  H12 UNL     1      14.992  -5.034 -32.320  1.00  0.00     0.274 HD
ATOM     10  H11 UNL     1      15.763  -6.013 -33.486  1.00  0.00     0.274 HD
ENDBRANCH   4   7
BRANCH   1  11
HETATM   11  C2  UNL     1       9.897  -5.399 -35.021  1.00  0.00     0.023 C 
HETATM   12  C1  UNL     1       8.899  -5.734 -34.238  1.00  0.00     0.012 C 
ENDBRANCH   1  11
TORSDOF 2
ENDMDL
MODEL 3
REMARK VINA RESULT: -4.776650127      2.515      3.990
REMARK  2 active torsions:
REMARK  status: ('A' for Active; 'I' for Inactive)
REMARK    1  A    between atoms: C2_2  and  C3_3 
REMARK    2  A    between atoms: C5_6  and  N1_7 
ROOT
HETATM    1  C3  UNL     1      13.029  -6.296 -34.720  1.00  0.00     0.283 C 
HETATM    2  O1  UNL     1      12.276  -6.592 -35.871  1.00  0.00    -0.356 OA
HETATM    3  C4  UNL     1      10.962  -6.765 -35.474  1.00  0.00     0.206 C 
HETATM    4  C5  UNL     1      10.469  -5.431 -34.899  1.00  0.00     0.231 C 
HETATM    5  C6  UNL     1      11.399  -5.113 -33.747  1.00  0.00     0.206 C 
HETATM    6  O2  UNL     1      12.690  -5.021 -34.269  1.00  0.00    -0.356 OA
ENDROOT
BRANCH   4   7
HETATM    7  N1  UNL     1       9.138  -5.682 -34.389  1.00  0.00    -0.071 N 
ATOM      8  H13 UNL     1       8.728  -6.550 -34.735  1.00  0.00     0.274 HD
ATOM      9  H12 UNL     1       9.122  -5.925 -33.398  1.00  0.00     0.274 HD
ATOM     10  H11 UNL     1       8.589  -4.853 -34.615  1.00  0.00     0.274 HD
ENDBRANCH   4   7
BRANCH   1  11
HETATM   11  C2  UNL     1      14.465  -6.487 -34.930  1.00  0.00     0.023 C 
HETATM   12  C1  UNL     1      14.931  -7.035 -36.027  1.00  0.00     0.012 C 
ENDBRANCH   1  11
TORSDOF 2
ENDMDL
MODEL 4
REMARK VINA RESULT: -4.768651215      1.009      1.060
REMARK  2 active torsions:
REMARK  status: ('A' for Active; 'I' for Inactive)
REMARK    1  A    between atoms: C2_2  and  C3_3 
REMARK    2  A    between atoms: C5_6  and  N1_7 
ROOT
HETATM    1  C3  UNL     1      11.390  -5.484 -34.479  1.00  0.00     0.283 C 
HETATM    2  O1  UNL     1      11.610  -4.453 -33.548  1.00  0.00    -0.356 OA
HETATM    3  C4  UNL     1      12.743  -4.780 -32.826  1.00  0.00     0.206 C 
HETATM    4  C5  UNL     1      13.925  -4.813 -33.803  1.00  0.00     0.231 C 
HETATM    5  C6  UNL     1      13.566  -5.851 -34.844  1.00  0.00     0.206 C 
HETATM    6  O2  UNL     1      12.383  -5.435 -35.456  1.00  0.00    -0.356 OA
ENDROOT
BRANCH   4   7
HETATM    7  N1  UNL     1      15.064  -5.271 -33.037  1.00  0.00    -0.071 N 
ATOM      8  H13 UNL     1      15.000  -5.053 -32.043  1.00  0.00     0.274 HD
ATOM      9  H12 UNL     1      15.107  -6.286 -32.939  1.00  0.00     0.274 HD
ATOM     10  H11 UNL     1      15.887  -4.871 -33.489  1.00  0.00     0.274 HD
ENDBRANCH   4   7
BRANCH   1  11
HETATM   11  C2  UNL     1      10.029  -5.469 -35.018  1.00  0.00     0.023 C 
HETATM   12  C1  UNL     1       8.990  -5.732 -34.262  1.00  0.00     0.012 C 
ENDBRANCH   1  11
TORSDOF 2
ENDMDL
MODEL 5
REMARK VINA RESULT: -4.768402357      2.409      3.768
REMARK  2 active torsions:
REMARK  status: ('A' for Active; 'I' for Inactive)
REMARK    1  A    between atoms: C2_2  and  C3_3 
REMARK    2  A    between atoms: C5_6  and  N1_7 
ROOT
HETATM    1  C3  UNL     1      13.346  -5.710 -33.876  1.00  0.00     0.283 C 
HETATM    2  O1  UNL     1      12.204  -5.168 -33.259  1.00  0.00    -0.356 OA
HETATM    3  C4  UNL     1      11.224  -5.053 -34.229  1.00  0.00     0.206 C 
HETATM    4  C5  UNL     1      10.886  -6.466 -34.721  1.00  0.00     0.231 C 
HETATM    5  C6  UNL     1      12.184  -7.033 -35.256  1.00  0.00     0.206 C 
HETATM    6  O2  UNL     1      13.098  -7.043 -34.202  1.00  0.00    -0.356 OA
ENDROOT
BRANCH   4   7
HETATM    7  N1  UNL     1       9.949  -6.296 -35.811  1.00  0.00    -0.071 N 
ATOM      8  H13 UNL     1      10.159  -6.877 -36.623  1.00  0.00     0.274 HD
ATOM      9  H12 UNL     1       9.025  -6.685 -35.617  1.00  0.00     0.274 HD
ATOM     10  H11 UNL     1       9.935  -5.297 -36.017  1.00  0.00     0.274 HD
ENDBRANCH   4   7
BRANCH   1  11
HETATM   11  C2  UNL     1      14.557  -5.511 -33.079  1.00  0.00     0.023 C 
HETATM   12  C1  UNL     1      15.033  -6.459 -32.307  1.00  0.00     0.012 C 
ENDBRANCH   1  11
TORSDOF 2
ENDMDL
