MODEL 1
REMARK VINA RESULT: -4.473128396      0.000      0.000
REMARK  1 active torsions:
REMARK  status: ('A' for Active; 'I' for Inactive)
REMARK    1  A    between atoms: O1_2  and  C2_3 
ROOT
HETATM    1  C2  UNL     1      13.344  -5.451 -35.192  1.00  0.00     0.262 C 
HETATM    2  C3  UNL     1      14.070  -6.408 -34.256  1.00  0.00     0.088 C 
HETATM    3  C4  UNL     1      14.471  -5.529 -33.061  1.00  0.00     0.239 C 
HETATM    4  N1  UNL     1      13.202  -5.191 -32.410  1.00  0.00    -0.054 N 
ATOM      5  H11 UNL     1      13.319  -4.763 -31.492  1.00  0.00     0.279 HD
ATOM      6  H12 UNL     1      12.674  -6.007 -32.102  1.00  0.00     0.279 HD
HETATM    7  C5  UNL     1      12.471  -4.350 -33.352  1.00  0.00     0.402 C 
HETATM    8  O2  UNL     1      13.068  -4.256 -34.577  1.00  0.00    -0.335 OA
ENDROOT
BRANCH   1   9
HETATM    9  O1  UNL     1      12.174  -5.991 -35.686  1.00  0.00    -0.366 OA
HETATM   10  C1  UNL     1      11.990  -7.323 -35.320  1.00  0.00     0.204 C 
ENDBRANCH   1   9
TORSDOF 1
ENDMDL
MODEL 2
REMARK VINA RESULT: -4.461107430      1.666      2.295
REMARK  1 active torsions:
REMARK  status: ('A' for Active; 'I' for Inactive)
REMARK    1  A    between atoms: O1_2  and  C2_3 
ROOT
HETATM    1  C2  UNL     1      12.209  -5.928 -33.048  1.00  0.00     0.262 C 
HETATM    2  C3  UNL     1      11.906  -4.471 -33.371  1.00  0.00     0.088 C 
HETATM    3  C4  UNL     1      12.965  -3.685 -32.583  1.00  0.00     0.239 C 
HETATM    4  N1  UNL     1      14.231  -4.005 -33.249  1.00  0.00    -0.054 N 
ATOM      5  H11 UNL     1      15.006  -3.411 -32.953  1.00  0.00     0.279 HD
ATOM      6  H12 UNL     1      14.246  -3.750 -34.236  1.00  0.00     0.279 HD
HETATM    7  C5  UNL     1      14.468  -5.426 -33.014  1.00  0.00     0.402 C 
HETATM    8  O2  UNL     1      13.419  -6.063 -32.416  1.00  0.00    -0.335 OA
ENDROOT
BRANCH   1   9
HETATM    9  O1  UNL     1      12.190  -6.727 -34.173  1.00  0.00    -0.366 OA
HETATM   10  C1  UNL     1      11.358  -6.237 -35.177  1.00  0.00     0.204 C 
ENDBRANCH   1   9
TORSDOF 1
ENDMDL
MODEL 3
REMARK VINA RESULT: -4.422065052      1.602      2.962
REMARK  1 active torsions:
REMARK  status: ('A' for Active; 'I' for Inactive)
REMARK    1  A    between atoms: O1_2  and  C2_3 
ROOT
HETATM    1  C2  UNL     1      13.023  -5.261 -35.092  1.00  0.00     0.262 C 
HETATM    2  C3  UNL     1      12.146  -4.676 -33.995  1.00  0.00     0.088 C 
HETATM    3  C4  UNL     1      10.727  -5.138 -34.363  1.00  0.00     0.239 C 
HETATM    4  N1  UNL     1      10.747  -6.588 -34.153  1.00  0.00    -0.054 N 
ATOM      5  H11 UNL     1       9.820  -7.014 -34.179  1.00  0.00     0.279 HD
ATOM      6  H12 UNL     1      10.982  -6.856 -33.197  1.00  0.00     0.279 HD
HETATM    7  C5  UNL     1      11.663  -7.134 -35.149  1.00  0.00     0.402 C 
HETATM    8  O2  UNL     1      12.339  -6.177 -35.851  1.00  0.00    -0.335 OA
ENDROOT
BRANCH   1   9
HETATM    9  O1  UNL     1      14.166  -5.850 -34.590  1.00  0.00    -0.366 OA
HETATM   10  C1  UNL     1      14.454  -5.456 -33.284  1.00  0.00     0.204 C 
ENDBRANCH   1   9
TORSDOF 1
ENDMDL
MODEL 4
REMARK VINA RESULT: -4.411224430      2.240      3.392
REMARK  1 active torsions:
REMARK  status: ('A' for Active; 'I' for Inactive)
REMARK    1  A    between atoms: O1_2  and  C2_3 
ROOT
HETATM    1  C2  UNL     1      12.111  -5.829 -33.425  1.00  0.00     0.262 C 
HETATM    2  C3  UNL     1      12.745  -6.068 -34.788  1.00  0.00     0.088 C 
HETATM    3  C4  UNL     1      11.962  -7.259 -35.362  1.00  0.00     0.239 C 
HETATM    4  N1  UNL     1      10.619  -6.729 -35.614  1.00  0.00    -0.054 N 
ATOM      5  H11 UNL     1      10.034  -7.353 -36.169  1.00  0.00     0.279 HD
ATOM      6  H12 UNL     1      10.610  -5.939 -36.260  1.00  0.00     0.279 HD
HETATM    7  C5  UNL     1      10.052  -6.413 -34.307  1.00  0.00     0.402 C 
HETATM    8  O2  UNL     1      10.944  -6.536 -33.281  1.00  0.00    -0.335 OA
ENDROOT
BRANCH   1   9
HETATM    9  O1  UNL     1      11.865  -4.491 -33.191  1.00  0.00    -0.366 OA
HETATM   10  C1  UNL     1      12.969  -3.816 -32.674  1.00  0.00     0.204 C 
ENDBRANCH   1   9
TORSDOF 1
ENDMDL
MODEL 5
REMARK VINA RESULT: -4.360041448      1.705      2.147
REMARK  1 active torsions:
REMARK  status: ('A' for Active; 'I' for Inactive)
REMARK    1  A    between atoms: O1_2  and  C2_3 
ROOT
HETATM    1  C2  UNL     1      11.583  -6.461 -35.139  1.00  0.00     0.262 C 
HETATM    2  C3  UNL     1      11.656  -6.326 -33.625  1.00  0.00     0.088 C 
HETATM    3  C4  UNL     1      13.122  -5.952 -33.353  1.00  0.00     0.239 C 
HETATM    4  N1  UNL     1      13.263  -4.599 -33.899  1.00  0.00    -0.054 N 
ATOM      5  H11 UNL     1      14.133  -4.141 -33.628  1.00  0.00     0.279 HD
ATOM      6  H12 UNL     1      12.628  -3.922 -33.475  1.00  0.00     0.279 HD
HETATM    7  C5  UNL     1      13.098  -4.722 -35.343  1.00  0.00     0.402 C 
HETATM    8  O2  UNL     1      12.712  -5.969 -35.744  1.00  0.00    -0.335 OA
ENDROOT
BRANCH   1   9
HETATM    9  O1  UNL     1      10.473  -5.832 -35.666  1.00  0.00    -0.366 OA
HETATM   10  C1  UNL     1       9.621  -5.320 -34.690  1.00  0.00     0.204 C 
ENDBRANCH   1   9
TORSDOF 1
ENDMDL
