MODEL 1
REMARK VINA RESULT: -5.190201099      0.000      0.000
REMARK  2 active torsions:
REMARK  status: ('A' for Active; 'I' for Inactive)
REMARK    1  A    between atoms: C2_2  and  C3_3 
REMARK    2  A    between atoms: C6_6  and  N1_7 
ROOT
HETATM    1  C3  UNL     1      12.414  -5.692 -34.708  1.00  0.00     0.143 C 
HETATM    2  C4  UNL     1      13.391  -6.796 -34.823  1.00  0.00     0.038 C 
HETATM    3  C5  UNL     1      14.409  -6.912 -33.761  1.00  0.00     0.037 C 
HETATM    4  C6  UNL     1      14.275  -5.977 -32.614  1.00  0.00     0.207 C 
HETATM    5  C7  UNL     1      13.558  -4.740 -33.037  1.00  0.00     0.201 C 
HETATM    6  O1  UNL     1      12.272  -5.156 -33.444  1.00  0.00    -0.380 OA
ENDROOT
BRANCH   4   7
HETATM    7  N1  UNL     1      15.573  -5.730 -32.040  1.00  0.00    -0.073 N 
ATOM      8  H13 UNL     1      15.533  -5.628 -31.026  1.00  0.00     0.274 HD
ATOM      9  H12 UNL     1      16.176  -6.552 -32.081  1.00  0.00     0.274 HD
ATOM     10  H11 UNL     1      15.997  -4.919 -32.493  1.00  0.00     0.274 HD
ENDBRANCH   4   7
BRANCH   1  11
HETATM   11  C2  UNL     1      11.105  -6.151 -35.235  1.00  0.00    -0.005 C 
HETATM   12  C1  UNL     1      10.018  -5.488 -34.896  1.00  0.00     0.009 C 
ENDBRANCH   1  11
TORSDOF 2
ENDMDL
MODEL 2
REMARK VINA RESULT: -5.178830723      1.090      1.703
REMARK  2 active torsions:
REMARK  status: ('A' for Active; 'I' for Inactive)
REMARK    1  A    between atoms: C2_2  and  C3_3 
REMARK    2  A    between atoms: C6_6  and  N1_7 
ROOT
HETATM    1  C3  UNL     1      11.903  -6.596 -34.298  1.00  0.00     0.143 C 
HETATM    2  C4  UNL     1      11.764  -5.593 -33.220  1.00  0.00     0.038 C 
HETATM    3  C5  UNL     1      13.005  -5.064 -32.623  1.00  0.00     0.037 C 
HETATM    4  C6  UNL     1      14.278  -5.504 -33.251  1.00  0.00     0.207 C 
HETATM    5  C7  UNL     1      14.096  -6.826 -33.916  1.00  0.00     0.201 C 
HETATM    6  O1  UNL     1      13.133  -6.623 -34.926  1.00  0.00    -0.380 OA
ENDROOT
BRANCH   4   7
HETATM    7  N1  UNL     1      15.330  -5.488 -32.266  1.00  0.00    -0.073 N 
ATOM      8  H13 UNL     1      16.255  -5.431 -32.692  1.00  0.00     0.274 HD
ATOM      9  H12 UNL     1      15.356  -4.612 -31.744  1.00  0.00     0.274 HD
ATOM     10  H11 UNL     1      15.236  -6.299 -31.654  1.00  0.00     0.274 HD
ENDBRANCH   4   7
BRANCH   1  11
HETATM   11  C2  UNL     1      10.812  -6.400 -35.284  1.00  0.00    -0.005 C 
HETATM   12  C1  UNL     1       9.941  -5.433 -35.080  1.00  0.00     0.009 C 
ENDBRANCH   1  11
TORSDOF 2
ENDMDL
MODEL 3
REMARK VINA RESULT: -5.025058908      1.665      1.808
REMARK  2 active torsions:
REMARK  status: ('A' for Active; 'I' for Inactive)
REMARK    1  A    between atoms: C2_2  and  C3_3 
REMARK    2  A    between atoms: C6_6  and  N1_7 
ROOT
HETATM    1  C3  UNL     1      11.521  -5.612 -34.778  1.00  0.00     0.143 C 
HETATM    2  C4  UNL     1      11.662  -6.225 -33.440  1.00  0.00     0.038 C 
HETATM    3  C5  UNL     1      12.534  -5.539 -32.468  1.00  0.00     0.037 C 
HETATM    4  C6  UNL     1      13.090  -4.227 -32.893  1.00  0.00     0.207 C 
HETATM    5  C7  UNL     1      13.178  -4.161 -34.381  1.00  0.00     0.201 C 
HETATM    6  O1  UNL     1      11.853  -4.273 -34.853  1.00  0.00    -0.380 OA
ENDROOT
BRANCH   4   7
HETATM    7  N1  UNL     1      14.346  -3.998 -32.226  1.00  0.00    -0.073 N 
ATOM      8  H13 UNL     1      14.783  -4.867 -31.918  1.00  0.00     0.274 HD
ATOM      9  H12 UNL     1      15.074  -3.689 -32.870  1.00  0.00     0.274 HD
ATOM     10  H11 UNL     1      14.208  -3.342 -31.456  1.00  0.00     0.274 HD
ENDBRANCH   4   7
BRANCH   1  11
HETATM   11  C2  UNL     1      10.139  -5.839 -35.270  1.00  0.00    -0.005 C 
HETATM   12  C1  UNL     1       9.128  -5.510 -34.493  1.00  0.00     0.009 C 
ENDBRANCH   1  11
TORSDOF 2
ENDMDL
MODEL 4
REMARK VINA RESULT: -4.935247567      1.471      2.045
REMARK  2 active torsions:
REMARK  status: ('A' for Active; 'I' for Inactive)
REMARK    1  A    between atoms: C2_2  and  C3_3 
REMARK    2  A    between atoms: C6_6  and  N1_7 
ROOT
HETATM    1  C3  UNL     1      12.663  -6.755 -34.180  1.00  0.00     0.143 C 
HETATM    2  C4  UNL     1      11.743  -5.958 -33.341  1.00  0.00     0.038 C 
HETATM    3  C5  UNL     1      12.287  -4.742 -32.706  1.00  0.00     0.037 C 
HETATM    4  C6  UNL     1      13.678  -4.372 -33.075  1.00  0.00     0.207 C 
HETATM    5  C7  UNL     1      14.441  -5.583 -33.493  1.00  0.00     0.201 C 
HETATM    6  O1  UNL     1      13.781  -6.083 -34.635  1.00  0.00    -0.380 OA
ENDROOT
BRANCH   4   7
HETATM    7  N1  UNL     1      14.287  -3.646 -31.989  1.00  0.00    -0.073 N 
ATOM      8  H13 UNL     1      14.606  -2.721 -32.275  1.00  0.00     0.274 HD
ATOM      9  H12 UNL     1      13.604  -3.356 -31.289  1.00  0.00     0.274 HD
ATOM     10  H11 UNL     1      15.039  -4.206 -31.585  1.00  0.00     0.274 HD
ENDBRANCH   4   7
BRANCH   1  11
HETATM   11  C2  UNL     1      11.901  -7.335 -35.314  1.00  0.00    -0.005 C 
HETATM   12  C1  UNL     1      10.742  -6.801 -35.638  1.00  0.00     0.009 C 
ENDBRANCH   1  11
TORSDOF 2
ENDMDL
MODEL 5
REMARK VINA RESULT: -4.924906305      2.582      4.073
REMARK  2 active torsions:
REMARK  status: ('A' for Active; 'I' for Inactive)
REMARK    1  A    between atoms: C2_2  and  C3_3 
REMARK    2  A    between atoms: C6_6  and  N1_7 
ROOT
HETATM    1  C3  UNL     1      13.726  -5.597 -34.147  1.00  0.00     0.143 C 
HETATM    2  C4  UNL     1      12.659  -4.585 -33.993  1.00  0.00     0.038 C 
HETATM    3  C5  UNL     1      11.297  -4.967 -34.410  1.00  0.00     0.037 C 
HETATM    4  C6  UNL     1      11.109  -6.380 -34.831  1.00  0.00     0.207 C 
HETATM    5  C7  UNL     1      12.394  -6.943 -35.338  1.00  0.00     0.201 C 
HETATM    6  O1  UNL     1      13.291  -6.903 -34.251  1.00  0.00    -0.380 OA
ENDROOT
BRANCH   4   7
HETATM    7  N1  UNL     1      10.025  -6.460 -35.777  1.00  0.00    -0.073 N 
ATOM      8  H13 UNL     1       9.414  -5.645 -35.731  1.00  0.00     0.274 HD
ATOM      9  H12 UNL     1      10.345  -6.349 -36.740  1.00  0.00     0.274 HD
ATOM     10  H11 UNL     1       9.515  -7.333 -35.638  1.00  0.00     0.274 HD
ENDBRANCH   4   7
BRANCH   1  11
HETATM   11  C2  UNL     1      14.694  -5.452 -33.031  1.00  0.00    -0.005 C 
HETATM   12  C1  UNL     1      14.984  -6.509 -32.302  1.00  0.00     0.009 C 
ENDBRANCH   1  11
TORSDOF 2
ENDMDL
