MODEL 1
REMARK VINA RESULT: -5.476029051      0.000      0.000
REMARK  2 active torsions:
REMARK  status: ('A' for Active; 'I' for Inactive)
REMARK    1  A    between atoms: C2_2  and  C5_6 
REMARK    2  A    between atoms: C5_6  and  N2_7 
ROOT
HETATM    1  C1  UNL     1      35.699   1.603   4.498  1.00  0.00     0.033 C 
HETATM    2  C2  UNL     1      36.895   0.714   4.218  1.00  0.00     0.075 C 
HETATM    3  C3  UNL     1      37.009   0.604   2.712  1.00  0.00     0.033 C 
HETATM    4  C4  UNL     1      38.087   1.416   4.717  1.00  0.00     0.071 C 
HETATM    5  N1  UNL     1      39.021   1.981   5.119  1.00  0.00    -0.196 NA
ENDROOT
BRANCH   2   6
HETATM    6  C5  UNL     1      36.749  -0.648   4.853  1.00  0.00     0.143 A 
HETATM    7  C6  UNL     1      35.370  -1.106   5.218  1.00  0.00     0.043 A 
HETATM    8  C7  UNL     1      36.163  -1.787   4.125  1.00  0.00     0.043 A 
BRANCH   6   9
HETATM    9  N2  UNL     1      37.793  -0.947   5.817  1.00  0.00    -0.069 N 
ATOM     10  H23 UNL     1      37.797  -0.260   6.571  1.00  0.00     0.275 HD
ATOM     11  H22 UNL     1      37.562  -1.783   6.354  1.00  0.00     0.275 HD
ATOM     12  H21 UNL     1      38.718  -1.030   5.396  1.00  0.00     0.275 HD
ENDBRANCH   6   9
ENDBRANCH   2   6
TORSDOF 2
ENDMDL
MODEL 2
REMARK VINA RESULT: -5.460280701      2.086      2.578
REMARK  2 active torsions:
REMARK  status: ('A' for Active; 'I' for Inactive)
REMARK    1  A    between atoms: C2_2  and  C5_6 
REMARK    2  A    between atoms: C5_6  and  N2_7 
ROOT
HETATM    1  C1  UNL     1      37.541   0.815   2.833  1.00  0.00     0.033 C 
HETATM    2  C2  UNL     1      36.680   1.055   4.059  1.00  0.00     0.075 C 
HETATM    3  C3  UNL     1      37.573   0.839   5.263  1.00  0.00     0.033 C 
HETATM    4  C4  UNL     1      36.274   2.467   4.037  1.00  0.00     0.071 C 
HETATM    5  N1  UNL     1      35.957   3.587   4.006  1.00  0.00    -0.196 NA
ENDROOT
BRANCH   2   6
HETATM    6  C5  UNL     1      35.483   0.135   4.097  1.00  0.00     0.143 A 
HETATM    7  C6  UNL     1      35.688  -1.297   3.711  1.00  0.00     0.043 A 
HETATM    8  C7  UNL     1      35.335  -0.907   5.129  1.00  0.00     0.043 A 
BRANCH   6   9
HETATM    9  N2  UNL     1      34.266   0.757   3.609  1.00  0.00    -0.069 N 
ATOM     10  H23 UNL     1      34.425   1.740   3.385  1.00  0.00     0.275 HD
ATOM     11  H22 UNL     1      34.029   0.410   2.679  1.00  0.00     0.275 HD
ATOM     12  H21 UNL     1      33.476   0.654   4.246  1.00  0.00     0.275 HD
ENDBRANCH   6   9
ENDBRANCH   2   6
TORSDOF 2
ENDMDL
MODEL 3
REMARK VINA RESULT: -5.459310628      1.838      2.488
REMARK  2 active torsions:
REMARK  status: ('A' for Active; 'I' for Inactive)
REMARK    1  A    between atoms: C2_2  and  C5_6 
REMARK    2  A    between atoms: C5_6  and  N2_7 
ROOT
HETATM    1  C1  UNL     1      37.486   0.717   3.049  1.00  0.00     0.033 C 
HETATM    2  C2  UNL     1      36.388   0.546   4.082  1.00  0.00     0.075 C 
HETATM    3  C3  UNL     1      36.547   1.681   5.073  1.00  0.00     0.033 C 
HETATM    4  C4  UNL     1      35.105   0.721   3.387  1.00  0.00     0.071 C 
HETATM    5  N1  UNL     1      34.095   0.859   2.824  1.00  0.00    -0.196 NA
ENDROOT
BRANCH   2   6
HETATM    6  C5  UNL     1      36.466  -0.794   4.772  1.00  0.00     0.143 A 
HETATM    7  C6  UNL     1      35.209  -1.349   5.367  1.00  0.00     0.043 A 
HETATM    8  C7  UNL     1      35.876  -2.009   4.182  1.00  0.00     0.043 A 
BRANCH   6   9
HETATM    9  N2  UNL     1      37.672  -0.963   5.563  1.00  0.00    -0.069 N 
ATOM     10  H23 UNL     1      38.319  -1.604   5.104  1.00  0.00     0.275 HD
ATOM     11  H22 UNL     1      38.238  -0.115   5.548  1.00  0.00     0.275 HD
ATOM     12  H21 UNL     1      37.487  -1.258   6.522  1.00  0.00     0.275 HD
ENDBRANCH   6   9
ENDBRANCH   2   6
TORSDOF 2
ENDMDL
MODEL 4
REMARK VINA RESULT: -5.433391478      1.552      1.724
REMARK  2 active torsions:
REMARK  status: ('A' for Active; 'I' for Inactive)
REMARK    1  A    between atoms: C2_2  and  C5_6 
REMARK    2  A    between atoms: C5_6  and  N2_7 
ROOT
HETATM    1  C1  UNL     1      34.810   0.553   2.641  1.00  0.00     0.033 C 
HETATM    2  C2  UNL     1      36.149   0.831   3.296  1.00  0.00     0.075 C 
HETATM    3  C3  UNL     1      37.196   0.712   2.207  1.00  0.00     0.033 C 
HETATM    4  C4  UNL     1      36.127   2.226   3.758  1.00  0.00     0.071 C 
HETATM    5  N1  UNL     1      36.094   3.332   4.122  1.00  0.00    -0.196 NA
ENDROOT
BRANCH   2   6
HETATM    6  C5  UNL     1      36.433  -0.124   4.430  1.00  0.00     0.143 A 
HETATM    7  C6  UNL     1      35.280  -0.883   5.011  1.00  0.00     0.043 A 
HETATM    8  C7  UNL     1      36.381  -1.585   4.249  1.00  0.00     0.043 A 
BRANCH   6   9
HETATM    9  N2  UNL     1      37.400   0.389   5.384  1.00  0.00    -0.069 N 
ATOM     10  H23 UNL     1      36.976   0.505   6.304  1.00  0.00     0.275 HD
ATOM     11  H22 UNL     1      38.098  -0.320   5.610  1.00  0.00     0.275 HD
ATOM     12  H21 UNL     1      37.848   1.254   5.078  1.00  0.00     0.275 HD
ENDBRANCH   6   9
ENDBRANCH   2   6
TORSDOF 2
ENDMDL
MODEL 5
REMARK VINA RESULT: -5.280170985      2.104      3.209
REMARK  2 active torsions:
REMARK  status: ('A' for Active; 'I' for Inactive)
REMARK    1  A    between atoms: C2_2  and  C5_6 
REMARK    2  A    between atoms: C5_6  and  N2_7 
ROOT
HETATM    1  C1  UNL     1      36.162  -1.265   3.457  1.00  0.00     0.033 C 
HETATM    2  C2  UNL     1      36.242   0.250   3.454  1.00  0.00     0.075 C 
HETATM    3  C3  UNL     1      37.310   0.624   2.447  1.00  0.00     0.033 C 
HETATM    4  C4  UNL     1      34.952   0.754   2.962  1.00  0.00     0.071 C 
HETATM    5  N1  UNL     1      33.925   1.139   2.573  1.00  0.00    -0.196 NA
ENDROOT
BRANCH   2   6
HETATM    6  C5  UNL     1      36.566   0.801   4.822  1.00  0.00     0.143 A 
HETATM    7  C6  UNL     1      37.699   1.773   4.934  1.00  0.00     0.043 A 
HETATM    8  C7  UNL     1      36.270   2.197   5.189  1.00  0.00     0.043 A 
BRANCH   6   9
HETATM    9  N2  UNL     1      36.475  -0.193   5.877  1.00  0.00    -0.069 N 
ATOM     10  H23 UNL     1      36.174  -1.092   5.502  1.00  0.00     0.275 HD
ATOM     11  H22 UNL     1      37.402  -0.452   6.212  1.00  0.00     0.275 HD
ATOM     12  H21 UNL     1      35.877   0.097   6.652  1.00  0.00     0.275 HD
ENDBRANCH   6   9
ENDBRANCH   2   6
TORSDOF 2
ENDMDL
