MODEL 1
REMARK VINA RESULT: -4.722548728      0.000      0.000
REMARK  1 active torsions:
REMARK  status: ('A' for Active; 'I' for Inactive)
REMARK    1  A    between atoms: C2_2  and  C4_4 
ROOT
HETATM    1  C4  UNL     1      35.296   0.237   4.438  1.00  0.00     0.324 C 
HETATM    2  N1  UNL     1      35.021   0.064   3.017  1.00  0.00    -0.046 N 
ATOM      3  H11 UNL     1      34.167  -0.452   2.809  1.00  0.00     0.280 HD
ATOM      4  H12 UNL     1      35.650  -0.580   2.537  1.00  0.00     0.280 HD
HETATM    5  C5  UNL     1      35.047   1.425   2.514  1.00  0.00     0.261 C 
HETATM    6  C6  UNL     1      35.559   2.241   3.705  1.00  0.00     0.198 C 
HETATM    7  O1  UNL     1      36.270   1.234   4.396  1.00  0.00    -0.357 OA
ENDROOT
BRANCH   1   8
HETATM    8  C2  UNL     1      35.826  -1.035   5.057  1.00  0.00     0.034 C 
HETATM    9  C1  UNL     1      37.236  -0.818   5.562  1.00  0.00     0.014 C 
HETATM   10  C3  UNL     1      35.905  -2.070   3.949  1.00  0.00     0.014 C 
ENDBRANCH   1   8
TORSDOF 1
ENDMDL
MODEL 2
REMARK VINA RESULT: -4.694247679      1.175      1.309
REMARK  1 active torsions:
REMARK  status: ('A' for Active; 'I' for Inactive)
REMARK    1  A    between atoms: C2_2  and  C4_4 
ROOT
HETATM    1  C4  UNL     1      35.526  -0.183   3.494  1.00  0.00     0.324 C 
HETATM    2  N1  UNL     1      36.643   0.752   3.530  1.00  0.00    -0.046 N 
ATOM      3  H11 UNL     1      37.536   0.361   3.230  1.00  0.00     0.280 HD
ATOM      4  H12 UNL     1      36.953   1.010   4.467  1.00  0.00     0.280 HD
HETATM    5  C5  UNL     1      36.164   1.860   2.723  1.00  0.00     0.261 C 
HETATM    6  C6  UNL     1      34.692   1.517   2.477  1.00  0.00     0.198 C 
HETATM    7  O1  UNL     1      34.448   0.694   3.600  1.00  0.00    -0.357 OA
ENDROOT
BRANCH   1   8
HETATM    8  C2  UNL     1      35.577  -1.148   4.655  1.00  0.00     0.034 C 
HETATM    9  C1  UNL     1      36.750  -0.818   5.552  1.00  0.00     0.014 C 
HETATM   10  C3  UNL     1      35.834  -2.528   4.077  1.00  0.00     0.014 C 
ENDBRANCH   1   8
TORSDOF 1
ENDMDL
MODEL 3
REMARK VINA RESULT: -4.558483066      1.345      1.852
REMARK  1 active torsions:
REMARK  status: ('A' for Active; 'I' for Inactive)
REMARK    1  A    between atoms: C2_2  and  C4_4 
ROOT
HETATM    1  C4  UNL     1      36.307  -0.020   3.569  1.00  0.00     0.324 C 
HETATM    2  N1  UNL     1      36.414   1.219   4.328  1.00  0.00    -0.046 N 
ATOM      3  H11 UNL     1      37.367   1.491   4.568  1.00  0.00     0.280 HD
ATOM      4  H12 UNL     1      36.079   1.159   5.291  1.00  0.00     0.280 HD
HETATM    5  C5  UNL     1      35.701   2.171   3.497  1.00  0.00     0.261 C 
HETATM    6  C6  UNL     1      35.061   1.297   2.414  1.00  0.00     0.198 C 
HETATM    7  O1  UNL     1      34.994   0.068   3.109  1.00  0.00    -0.357 OA
ENDROOT
BRANCH   1   8
HETATM    8  C2  UNL     1      36.509  -1.229   4.453  1.00  0.00     0.034 C 
HETATM    9  C1  UNL     1      36.434  -2.494   3.626  1.00  0.00     0.014 C 
HETATM   10  C3  UNL     1      35.347  -1.266   5.429  1.00  0.00     0.014 C 
ENDBRANCH   1   8
TORSDOF 1
ENDMDL
MODEL 4
REMARK VINA RESULT: -4.512924250      1.492      3.501
REMARK  1 active torsions:
REMARK  status: ('A' for Active; 'I' for Inactive)
REMARK    1  A    between atoms: C2_2  and  C4_4 
ROOT
HETATM    1  C4  UNL     1      35.369  -0.372   4.421  1.00  0.00     0.324 C 
HETATM    2  N1  UNL     1      36.631  -0.267   5.141  1.00  0.00    -0.046 N 
ATOM      3  H11 UNL     1      36.550   0.090   6.093  1.00  0.00     0.280 HD
ATOM      4  H12 UNL     1      37.252   0.471   4.807  1.00  0.00     0.280 HD
HETATM    5  C5  UNL     1      37.174  -1.609   5.041  1.00  0.00     0.261 C 
HETATM    6  C6  UNL     1      36.229  -2.309   4.059  1.00  0.00     0.198 C 
HETATM    7  O1  UNL     1      35.745  -1.184   3.352  1.00  0.00    -0.357 OA
ENDROOT
BRANCH   1   8
HETATM    8  C2  UNL     1      34.887   0.981   3.951  1.00  0.00     0.034 C 
HETATM    9  C1  UNL     1      34.787   0.999   2.441  1.00  0.00     0.014 C 
HETATM   10  C3  UNL     1      35.951   1.992   4.339  1.00  0.00     0.014 C 
ENDBRANCH   1   8
TORSDOF 1
ENDMDL
MODEL 5
REMARK VINA RESULT: -4.493321059      1.527      2.139
REMARK  1 active torsions:
REMARK  status: ('A' for Active; 'I' for Inactive)
REMARK    1  A    between atoms: C2_2  and  C4_4 
ROOT
HETATM    1  C4  UNL     1      35.637   0.742   4.659  1.00  0.00     0.324 C 
HETATM    2  N1  UNL     1      34.881   1.964   4.421  1.00  0.00    -0.046 N 
ATOM      3  H11 UNL     1      33.938   1.964   4.811  1.00  0.00     0.280 HD
ATOM      4  H12 UNL     1      34.592   2.104   3.453  1.00  0.00     0.280 HD
HETATM    5  C5  UNL     1      35.756   2.995   4.948  1.00  0.00     0.261 C 
HETATM    6  C6  UNL     1      37.056   2.244   5.252  1.00  0.00     0.198 C 
HETATM    7  O1  UNL     1      36.927   1.168   4.345  1.00  0.00    -0.357 OA
ENDROOT
BRANCH   1   8
HETATM    8  C2  UNL     1      35.181  -0.376   3.750  1.00  0.00     0.034 C 
HETATM    9  C1  UNL     1      36.307  -1.366   3.542  1.00  0.00     0.014 C 
HETATM   10  C3  UNL     1      34.879   0.244   2.399  1.00  0.00     0.014 C 
ENDBRANCH   1   8
TORSDOF 1
ENDMDL
