MODEL 1
REMARK VINA RESULT: -4.874361953      0.000      0.000
REMARK  1 active torsions:
REMARK  status: ('A' for Active; 'I' for Inactive)
REMARK    1  A    between atoms: C5_6  and  C6_7 
ROOT
HETATM    1  C1  UNL     1      37.715   1.527   4.707  1.00  0.00     0.310 C 
HETATM    2  N1  UNL     1      36.482   0.932   5.117  1.00  0.00     0.093 N 
HETATM    3  C2  UNL     1      36.620  -0.365   5.710  1.00  0.00     0.273 C 
HETATM    4  C3  UNL     1      35.534  -1.237   5.062  1.00  0.00     0.033 C 
HETATM    5  C4  UNL     1      35.525  -0.608   3.661  1.00  0.00     0.043 C 
HETATM    6  C5  UNL     1      35.481   0.864   4.095  1.00  0.00     0.260 C 
ENDROOT
BRANCH   6   7
HETATM    7  C6  UNL     1      35.667   1.780   2.980  1.00  0.00     0.088 C 
HETATM    8  N2  UNL     1      34.709   2.493   2.553  1.00  0.00    -0.409 N 
ATOM      9  H22 UNL     1      33.801   2.412   3.010  1.00  0.00     0.155 HD
ATOM     10  H21 UNL     1      34.840   3.135   1.772  1.00  0.00     0.155 HD
ENDBRANCH   6   7
TORSDOF 1
ENDMDL
MODEL 2
REMARK VINA RESULT: -4.827292463      1.483      3.115
REMARK  1 active torsions:
REMARK  status: ('A' for Active; 'I' for Inactive)
REMARK    1  A    between atoms: C5_6  and  C6_7 
ROOT
HETATM    1  C1  UNL     1      37.555   1.831   4.870  1.00  0.00     0.310 C 
HETATM    2  N1  UNL     1      37.137   1.140   3.690  1.00  0.00     0.093 N 
HETATM    3  C2  UNL     1      36.088   1.792   2.964  1.00  0.00     0.273 C 
HETATM    4  C3  UNL     1      35.075   0.691   2.618  1.00  0.00     0.033 C 
HETATM    5  C4  UNL     1      35.236  -0.186   3.868  1.00  0.00     0.043 C 
HETATM    6  C5  UNL     1      36.770  -0.229   3.896  1.00  0.00     0.260 C 
ENDROOT
BRANCH   6   7
HETATM    7  C6  UNL     1      37.289  -0.835   5.112  1.00  0.00     0.088 C 
HETATM    8  N2  UNL     1      37.397  -2.095   5.219  1.00  0.00    -0.409 N 
ATOM      9  H22 UNL     1      37.111  -2.676   4.432  1.00  0.00     0.155 HD
ATOM     10  H21 UNL     1      37.761  -2.520   6.072  1.00  0.00     0.155 HD
ENDBRANCH   6   7
TORSDOF 1
ENDMDL
MODEL 3
REMARK VINA RESULT: -4.772920768      1.405      1.955
REMARK  1 active torsions:
REMARK  status: ('A' for Active; 'I' for Inactive)
REMARK    1  A    between atoms: C5_6  and  C6_7 
ROOT
HETATM    1  C1  UNL     1      37.564   1.094   4.758  1.00  0.00     0.310 C 
HETATM    2  N1  UNL     1      36.226   0.655   4.514  1.00  0.00     0.093 N 
HETATM    3  C2  UNL     1      36.114  -0.380   3.529  1.00  0.00     0.273 C 
HETATM    4  C3  UNL     1      34.954   0.039   2.615  1.00  0.00     0.033 C 
HETATM    5  C4  UNL     1      35.144   1.562   2.666  1.00  0.00     0.043 C 
HETATM    6  C5  UNL     1      35.303   1.700   4.187  1.00  0.00     0.260 C 
ENDROOT
BRANCH   6   7
HETATM    7  C6  UNL     1      35.711   3.038   4.586  1.00  0.00     0.088 C 
HETATM    8  N2  UNL     1      34.910   4.018   4.501  1.00  0.00    -0.409 N 
ATOM      9  H22 UNL     1      33.969   3.848   4.146  1.00  0.00     0.155 HD
ATOM     10  H21 UNL     1      35.197   4.956   4.781  1.00  0.00     0.155 HD
ENDBRANCH   6   7
TORSDOF 1
ENDMDL
MODEL 4
REMARK VINA RESULT: -4.659846641      1.523      3.452
REMARK  1 active torsions:
REMARK  status: ('A' for Active; 'I' for Inactive)
REMARK    1  A    between atoms: C5_6  and  C6_7 
ROOT
HETATM    1  C1  UNL     1      35.183   0.095   2.984  1.00  0.00     0.310 C 
HETATM    2  N1  UNL     1      35.273   0.667   4.290  1.00  0.00     0.093 N 
HETATM    3  C2  UNL     1      35.634   2.053   4.305  1.00  0.00     0.273 C 
HETATM    4  C3  UNL     1      36.712   2.191   5.389  1.00  0.00     0.033 C 
HETATM    5  C4  UNL     1      37.396   0.826   5.223  1.00  0.00     0.043 C 
HETATM    6  C5  UNL     1      36.128  -0.039   5.196  1.00  0.00     0.260 C 
ENDROOT
BRANCH   6   7
HETATM    7  C6  UNL     1      36.404  -1.422   4.841  1.00  0.00     0.088 C 
HETATM    8  N2  UNL     1      37.465  -1.998   5.232  1.00  0.00    -0.409 N 
ATOM      9  H22 UNL     1      38.123  -1.469   5.804  1.00  0.00     0.155 HD
ATOM     10  H21 UNL     1      37.658  -2.968   4.983  1.00  0.00     0.155 HD
ENDBRANCH   6   7
TORSDOF 1
ENDMDL
MODEL 5
REMARK VINA RESULT: -4.639255723      1.367      1.612
REMARK  1 active torsions:
REMARK  status: ('A' for Active; 'I' for Inactive)
REMARK    1  A    between atoms: C5_6  and  C6_7 
ROOT
HETATM    1  C1  UNL     1      37.371   0.670   2.396  1.00  0.00     0.310 C 
HETATM    2  N1  UNL     1      37.085   0.290   3.744  1.00  0.00     0.093 N 
HETATM    3  C2  UNL     1      36.551  -1.032   3.885  1.00  0.00     0.273 C 
HETATM    4  C3  UNL     1      35.365  -0.902   4.851  1.00  0.00     0.033 C 
HETATM    5  C4  UNL     1      34.879   0.498   4.448  1.00  0.00     0.043 C 
HETATM    6  C5  UNL     1      36.243   1.202   4.458  1.00  0.00     0.260 C 
ENDROOT
BRANCH   6   7
HETATM    7  C6  UNL     1      36.180   2.548   3.911  1.00  0.00     0.088 C 
HETATM    8  N2  UNL     1      35.157   3.278   4.088  1.00  0.00    -0.409 N 
ATOM      9  H22 UNL     1      34.377   2.901   4.626  1.00  0.00     0.155 HD
ATOM     10  H21 UNL     1      35.113   4.222   3.704  1.00  0.00     0.155 HD
ENDBRANCH   6   7
TORSDOF 1
ENDMDL
