MODEL 1
REMARK VINA RESULT: -5.871338405      0.000      0.000
REMARK  7 active torsions:
REMARK  status: ('A' for Active; 'I' for Inactive)
REMARK    1  A    between atoms: O1_1  and  C1_3 
REMARK    2  A    between atoms: C1_3  and  C2_4 
REMARK    3  A    between atoms: C2_4  and  S1_5 
REMARK    4  A    between atoms: S1_5  and  C3_6 
REMARK    5  A    between atoms: C4_8  and  C5_9 
REMARK    6  A    between atoms: C5_9  and  O3_10 
REMARK    7  A    between atoms: C6_12  and  O4_13 
ROOT
HETATM    1  C3  UNL     1     -29.702  -6.046  -3.982  1.00  0.00     0.188 C 
HETATM    2  O2  UNL     1     -29.517  -5.006  -4.841  1.00  0.00    -0.365 OA
HETATM    3  C4  UNL     1     -28.546  -5.162  -5.801  1.00  0.00     0.175 C 
HETATM    4  C6  UNL     1     -28.540  -6.505  -6.501  1.00  0.00     0.153 C 
HETATM    5  C7  UNL     1     -28.527  -7.630  -5.505  1.00  0.00     0.024 C 
HETATM    6  C8  UNL     1     -28.877  -8.976  -6.063  1.00  0.00     0.008 C 
HETATM    7  C9  UNL     1     -30.279  -9.322  -5.599  1.00  0.00     0.001 C 
HETATM    8  C10 UNL     1     -30.823  -7.925  -5.247  1.00  0.00     0.008 C 
HETATM    9  C11 UNL     1     -29.621  -7.431  -4.472  1.00  0.00     0.031 C 
ENDROOT
BRANCH   1  10
HETATM   10  S1  UNL     1     -28.802  -5.978  -2.416  1.00  0.00    -0.135 SA
BRANCH  10  11
HETATM   11  C2  UNL     1     -29.827  -6.617  -1.094  1.00  0.00     0.102 C 
BRANCH  11  12
HETATM   12  C1  UNL     1     -31.281  -6.326  -1.363  1.00  0.00     0.174 C 
BRANCH  12  13
HETATM   13  O1  UNL     1     -32.001  -6.595  -0.230  1.00  0.00    -0.400 OA
ATOM     14  H1  UNL     1     -32.610  -5.881  -0.078  1.00  0.00     0.209 HD
ENDBRANCH  12  13
ENDBRANCH  11  12
ENDBRANCH  10  11
ENDBRANCH   1  10
BRANCH   3  15
HETATM   15  C5  UNL     1     -28.734  -4.106  -6.878  1.00  0.00     0.198 C 
BRANCH  15  16
HETATM   16  O3  UNL     1     -29.340  -2.960  -6.405  1.00  0.00    -0.398 OA
ATOM     17  H3  UNL     1     -28.821  -2.180  -6.555  1.00  0.00     0.209 HD
ENDBRANCH  15  16
ENDBRANCH   3  15
BRANCH   4  18
HETATM   18  O4  UNL     1     -27.298  -6.572  -7.183  1.00  0.00    -0.393 OA
ATOM     19  H4  UNL     1     -27.518  -6.660  -8.104  1.00  0.00     0.210 HD
ENDBRANCH   4  18
TORSDOF 7
ENDMDL
MODEL 2
REMARK VINA RESULT: -5.771757036      1.890      4.802
REMARK  7 active torsions:
REMARK  status: ('A' for Active; 'I' for Inactive)
REMARK    1  A    between atoms: O1_1  and  C1_3 
REMARK    2  A    between atoms: C1_3  and  C2_4 
REMARK    3  A    between atoms: C2_4  and  S1_5 
REMARK    4  A    between atoms: S1_5  and  C3_6 
REMARK    5  A    between atoms: C4_8  and  C5_9 
REMARK    6  A    between atoms: C5_9  and  O3_10 
REMARK    7  A    between atoms: C6_12  and  O4_13 
ROOT
HETATM    1  C3  UNL     1     -28.638  -5.829  -5.296  1.00  0.00     0.188 C 
HETATM    2  O2  UNL     1     -28.387  -5.551  -3.987  1.00  0.00    -0.365 OA
HETATM    3  C4  UNL     1     -29.402  -5.800  -3.095  1.00  0.00     0.175 C 
HETATM    4  C6  UNL     1     -30.116  -7.122  -3.284  1.00  0.00     0.153 C 
HETATM    5  C7  UNL     1     -30.567  -7.291  -4.706  1.00  0.00     0.024 C 
HETATM    6  C8  UNL     1     -30.958  -8.688  -5.087  1.00  0.00     0.008 C 
HETATM    7  C9  UNL     1     -29.854  -9.259  -5.956  1.00  0.00     0.001 C 
HETATM    8  C10 UNL     1     -28.678  -8.341  -5.575  1.00  0.00     0.008 C 
HETATM    9  C11 UNL     1     -29.417  -7.023  -5.660  1.00  0.00     0.031 C 
ENDROOT
BRANCH   1  10
HETATM   10  S1  UNL     1     -29.240  -4.465  -6.318  1.00  0.00    -0.135 SA
BRANCH  10  11
HETATM   11  C2  UNL     1     -28.230  -4.311  -7.788  1.00  0.00     0.102 C 
BRANCH  11  12
HETATM   12  C1  UNL     1     -26.774  -4.515  -7.455  1.00  0.00     0.174 C 
BRANCH  12  13
HETATM   13  O1  UNL     1     -26.342  -5.664  -8.061  1.00  0.00    -0.400 OA
ATOM     14  H1  UNL     1     -26.164  -6.315  -7.392  1.00  0.00     0.209 HD
ENDBRANCH  12  13
ENDBRANCH  11  12
ENDBRANCH  10  11
ENDBRANCH   1  10
BRANCH   3  15
HETATM   15  C5  UNL     1     -28.838  -5.802  -1.684  1.00  0.00     0.198 C 
BRANCH  15  16
HETATM   16  O3  UNL     1     -27.539  -5.341  -1.625  1.00  0.00    -0.398 OA
ATOM     17  H3  UNL     1     -27.400  -4.718  -0.922  1.00  0.00     0.209 HD
ENDBRANCH  15  16
ENDBRANCH   3  15
BRANCH   4  18
HETATM   18  O4  UNL     1     -31.299  -7.029  -2.506  1.00  0.00    -0.393 OA
ATOM     19  H4  UNL     1     -31.182  -6.261  -1.958  1.00  0.00     0.210 HD
ENDBRANCH   4  18
TORSDOF 7
ENDMDL
MODEL 3
REMARK VINA RESULT: -5.319537670      2.516      4.499
REMARK  7 active torsions:
REMARK  status: ('A' for Active; 'I' for Inactive)
REMARK    1  A    between atoms: O1_1  and  C1_3 
REMARK    2  A    between atoms: C1_3  and  C2_4 
REMARK    3  A    between atoms: C2_4  and  S1_5 
REMARK    4  A    between atoms: S1_5  and  C3_6 
REMARK    5  A    between atoms: C4_8  and  C5_9 
REMARK    6  A    between atoms: C5_9  and  O3_10 
REMARK    7  A    between atoms: C6_12  and  O4_13 
ROOT
HETATM    1  C3  UNL     1     -29.625  -8.045  -4.668  1.00  0.00     0.188 C 
HETATM    2  O2  UNL     1     -28.776  -7.568  -5.619  1.00  0.00    -0.365 OA
HETATM    3  C4  UNL     1     -28.957  -6.265  -6.014  1.00  0.00     0.175 C 
HETATM    4  C6  UNL     1     -29.188  -5.276  -4.890  1.00  0.00     0.153 C 
HETATM    5  C7  UNL     1     -30.289  -5.743  -3.981  1.00  0.00     0.024 C 
HETATM    6  C8  UNL     1     -30.361  -5.041  -2.659  1.00  0.00     0.008 C 
HETATM    7  C9  UNL     1     -29.839  -5.992  -1.598  1.00  0.00     0.001 C 
HETATM    8  C10 UNL     1     -29.020  -6.970  -2.461  1.00  0.00     0.008 C 
HETATM    9  C11 UNL     1     -30.046  -7.180  -3.554  1.00  0.00     0.031 C 
ENDROOT
BRANCH   1  10
HETATM   10  S1  UNL     1     -31.095  -8.918  -5.252  1.00  0.00    -0.135 SA
BRANCH  10  11
HETATM   11  C2  UNL     1     -30.617 -10.427  -6.088  1.00  0.00     0.102 C 
BRANCH  11  12
HETATM   12  C1  UNL     1     -31.651 -11.503  -5.873  1.00  0.00     0.174 C 
BRANCH  12  13
HETATM   13  O1  UNL     1     -31.403 -12.532  -6.742  1.00  0.00    -0.400 OA
ATOM     14  H1  UNL     1     -32.092 -13.180  -6.654  1.00  0.00     0.209 HD
ENDBRANCH  12  13
ENDBRANCH  11  12
ENDBRANCH  10  11
ENDBRANCH   1  10
BRANCH   3  15
HETATM   15  C5  UNL     1     -27.724  -5.794  -6.768  1.00  0.00     0.198 C 
BRANCH  15  16
HETATM   16  O3  UNL     1     -26.972  -6.837  -7.268  1.00  0.00    -0.398 OA
ATOM     17  H3  UNL     1     -26.109  -6.564  -7.555  1.00  0.00     0.209 HD
ENDBRANCH  15  16
ENDBRANCH   3  15
BRANCH   4  18
HETATM   18  O4  UNL     1     -29.671  -4.097  -5.515  1.00  0.00    -0.393 OA
ATOM     19  H4  UNL     1     -29.558  -3.405  -4.873  1.00  0.00     0.210 HD
ENDBRANCH   4  18
TORSDOF 7
ENDMDL
MODEL 4
REMARK VINA RESULT: -4.951675767      2.422      4.137
REMARK  7 active torsions:
REMARK  status: ('A' for Active; 'I' for Inactive)
REMARK    1  A    between atoms: O1_1  and  C1_3 
REMARK    2  A    between atoms: C1_3  and  C2_4 
REMARK    3  A    between atoms: C2_4  and  S1_5 
REMARK    4  A    between atoms: S1_5  and  C3_6 
REMARK    5  A    between atoms: C4_8  and  C5_9 
REMARK    6  A    between atoms: C5_9  and  O3_10 
REMARK    7  A    between atoms: C6_12  and  O4_13 
ROOT
HETATM    1  C3  UNL     1     -28.638  -7.979  -5.597  1.00  0.00     0.188 C 
HETATM    2  O2  UNL     1     -27.829  -7.188  -6.355  1.00  0.00    -0.365 OA
HETATM    3  C4  UNL     1     -28.304  -5.938  -6.672  1.00  0.00     0.175 C 
HETATM    4  C6  UNL     1     -28.950  -5.185  -5.527  1.00  0.00     0.153 C 
HETATM    5  C7  UNL     1     -29.994  -6.027  -4.851  1.00  0.00     0.024 C 
HETATM    6  C8  UNL     1     -30.438  -5.530  -3.507  1.00  0.00     0.008 C 
HETATM    7  C9  UNL     1     -29.826  -6.434  -2.453  1.00  0.00     0.001 C 
HETATM    8  C10 UNL     1     -28.660  -7.057  -3.243  1.00  0.00     0.008 C 
HETATM    9  C11 UNL     1     -29.428  -7.392  -4.504  1.00  0.00     0.031 C 
ENDROOT
BRANCH   1  10
HETATM   10  S1  UNL     1     -29.717  -9.126  -6.483  1.00  0.00    -0.135 SA
BRANCH  10  11
HETATM   11  C2  UNL     1     -31.116  -9.564  -5.455  1.00  0.00     0.102 C 
BRANCH  11  12
HETATM   12  C1  UNL     1     -31.299 -11.060  -5.418  1.00  0.00     0.174 C 
BRANCH  12  13
HETATM   13  O1  UNL     1     -30.956 -11.576  -6.639  1.00  0.00    -0.400 OA
ATOM     14  H1  UNL     1     -31.402 -12.407  -6.756  1.00  0.00     0.209 HD
ENDBRANCH  12  13
ENDBRANCH  11  12
ENDBRANCH  10  11
ENDBRANCH   1  10
BRANCH   3  15
HETATM   15  C5  UNL     1     -27.155  -5.078  -7.172  1.00  0.00     0.198 C 
BRANCH  15  16
HETATM   16  O3  UNL     1     -26.343  -5.739  -8.070  1.00  0.00    -0.398 OA
ATOM     17  H3  UNL     1     -25.716  -5.164  -8.493  1.00  0.00     0.209 HD
ENDBRANCH  15  16
ENDBRANCH   3  15
BRANCH   4  18
HETATM   18  O4  UNL     1     -29.646  -4.105  -6.128  1.00  0.00    -0.393 OA
ATOM     19  H4  UNL     1     -30.146  -4.490  -6.839  1.00  0.00     0.210 HD
ENDBRANCH   4  18
TORSDOF 7
ENDMDL
MODEL 5
REMARK VINA RESULT: -4.890661588      1.828      4.552
REMARK  7 active torsions:
REMARK  status: ('A' for Active; 'I' for Inactive)
REMARK    1  A    between atoms: O1_1  and  C1_3 
REMARK    2  A    between atoms: C1_3  and  C2_4 
REMARK    3  A    between atoms: C2_4  and  S1_5 
REMARK    4  A    between atoms: S1_5  and  C3_6 
REMARK    5  A    between atoms: C4_8  and  C5_9 
REMARK    6  A    between atoms: C5_9  and  O3_10 
REMARK    7  A    between atoms: C6_12  and  O4_13 
ROOT
HETATM    1  C3  UNL     1     -28.791  -5.942  -5.207  1.00  0.00     0.188 C 
HETATM    2  O2  UNL     1     -28.579  -5.697  -3.885  1.00  0.00    -0.365 OA
HETATM    3  C4  UNL     1     -29.605  -6.007  -3.025  1.00  0.00     0.175 C 
HETATM    4  C6  UNL     1     -30.270  -7.345  -3.271  1.00  0.00     0.153 C 
HETATM    5  C7  UNL     1     -30.683  -7.484  -4.708  1.00  0.00     0.024 C 
HETATM    6  C8  UNL     1     -31.019  -8.880  -5.140  1.00  0.00     0.008 C 
HETATM    7  C9  UNL     1     -29.876  -9.388  -5.999  1.00  0.00     0.001 C 
HETATM    8  C10 UNL     1     -28.740  -8.444  -5.563  1.00  0.00     0.008 C 
HETATM    9  C11 UNL     1     -29.521  -7.149  -5.625  1.00  0.00     0.031 C 
ENDROOT
BRANCH   1  10
HETATM   10  S1  UNL     1     -29.415  -4.568  -6.201  1.00  0.00    -0.135 SA
BRANCH  10  11
HETATM   11  C2  UNL     1     -28.060  -3.767  -7.055  1.00  0.00     0.102 C 
BRANCH  11  12
HETATM   12  C1  UNL     1     -28.008  -2.301  -6.710  1.00  0.00     0.174 C 
BRANCH  12  13
HETATM   13  O1  UNL     1     -29.186  -1.948  -6.107  1.00  0.00    -0.400 OA
ATOM     14  H1  UNL     1     -29.107  -1.061  -5.776  1.00  0.00     0.209 HD
ENDBRANCH  12  13
ENDBRANCH  11  12
ENDBRANCH  10  11
ENDBRANCH   1  10
BRANCH   3  15
HETATM   15  C5  UNL     1     -29.073  -6.034  -1.601  1.00  0.00     0.198 C 
BRANCH  15  16
HETATM   16  O3  UNL     1     -28.036  -5.147  -1.400  1.00  0.00    -0.398 OA
ATOM     17  H3  UNL     1     -27.202  -5.477  -1.714  1.00  0.00     0.209 HD
ENDBRANCH  15  16
ENDBRANCH   3  15
BRANCH   4  18
HETATM   18  O4  UNL     1     -31.472  -7.315  -2.519  1.00  0.00    -0.393 OA
ATOM     19  H4  UNL     1     -31.295  -7.825  -1.736  1.00  0.00     0.210 HD
ENDBRANCH   4  18
TORSDOF 7
ENDMDL
