MODEL 1
REMARK VINA RESULT: -7.203021145      0.000      0.000
REMARK  5 active torsions:
REMARK  status: ('A' for Active; 'I' for Inactive)
REMARK    1  A    between atoms: S1_3  and  C2_4 
REMARK    2  A    between atoms: C2_4  and  C3_5 
REMARK    3  A    between atoms: C3_5  and  N3_9 
REMARK       I    between atoms: N3_9  and  C4_10 
REMARK    4  A    between atoms: C4_10  and  C5_12 
REMARK    5  A    between atoms: C5_12  and  N4_13 
ROOT
HETATM    1  N1  UNL     1     -28.538  -4.082  -9.805  1.00  0.00    -0.184 NA
HETATM    2  C1  UNL     1     -27.981  -4.492  -8.878  1.00  0.00     0.134 C 
HETATM    3  S1  UNL     1     -27.118  -5.096  -7.435  1.00  0.00    -0.042 SA
ENDROOT
BRANCH   3   4
HETATM    4  C2  UNL     1     -28.238  -6.310  -6.657  1.00  0.00     0.182 C 
BRANCH   4   5
HETATM    5  C3  UNL     1     -29.042  -5.644  -5.588  1.00  0.00     0.163 C 
HETATM    6  N2  UNL     1     -29.065  -4.369  -5.637  1.00  0.00    -0.377 N 
ATOM      7  H22 UNL     1     -28.553  -3.867  -6.361  1.00  0.00     0.158 HD
ATOM      8  H21 UNL     1     -29.614  -3.915  -4.907  1.00  0.00     0.158 HD
BRANCH   5   9
HETATM    9  N3  UNL     1     -29.743  -6.331  -4.597  1.00  0.00    -0.354 NA
HETATM   10  C4  UNL     1     -30.410  -6.986  -3.653  1.00  0.00     0.333 C 
HETATM   11  O1  UNL     1     -30.838  -8.201  -3.745  1.00  0.00    -0.254 OA
BRANCH  10  12
HETATM   12  C5  UNL     1     -30.779  -6.381  -2.281  1.00  0.00     0.234 C 
HETATM   13  C6  UNL     1     -29.585  -6.573  -1.443  1.00  0.00     0.019 C 
HETATM   14  C7  UNL     1     -29.630  -7.014  -0.211  1.00  0.00    -0.028 C 
HETATM   15  C8  UNL     1     -30.908  -7.363   0.451  1.00  0.00     0.027 C 
HETATM   16  C9  UNL     1     -31.696  -8.093  -0.665  1.00  0.00     0.007 C 
HETATM   17  C10 UNL     1     -31.983  -7.049  -1.753  1.00  0.00     0.054 C 
BRANCH  12  18
HETATM   18  N4  UNL     1     -31.023  -4.961  -2.412  1.00  0.00    -0.057 N 
ATOM     19  H43 UNL     1     -31.108  -4.677  -3.388  1.00  0.00     0.276 HD
ATOM     20  H42 UNL     1     -31.958  -4.703  -2.099  1.00  0.00     0.276 HD
ATOM     21  H41 UNL     1     -30.298  -4.434  -1.924  1.00  0.00     0.276 HD
ENDBRANCH  12  18
ENDBRANCH  10  12
ENDBRANCH   5   9
ENDBRANCH   4   5
ENDBRANCH   3   4
TORSDOF 5
ENDMDL
MODEL 2
REMARK VINA RESULT: -7.193662974      1.599      2.082
REMARK  5 active torsions:
REMARK  status: ('A' for Active; 'I' for Inactive)
REMARK    1  A    between atoms: S1_3  and  C2_4 
REMARK    2  A    between atoms: C2_4  and  C3_5 
REMARK    3  A    between atoms: C3_5  and  N3_9 
REMARK       I    between atoms: N3_9  and  C4_10 
REMARK    4  A    between atoms: C4_10  and  C5_12 
REMARK    5  A    between atoms: C5_12  and  N4_13 
ROOT
HETATM    1  N1  UNL     1     -29.731  -3.309  -6.677  1.00  0.00    -0.184 NA
HETATM    2  C1  UNL     1     -29.012  -3.963  -7.303  1.00  0.00     0.134 C 
HETATM    3  S1  UNL     1     -27.886  -4.949  -8.278  1.00  0.00    -0.042 SA
ENDROOT
BRANCH   3   4
HETATM    4  C2  UNL     1     -27.222  -6.216  -7.142  1.00  0.00     0.182 C 
BRANCH   4   5
HETATM    5  C3  UNL     1     -28.228  -7.304  -6.953  1.00  0.00     0.163 C 
HETATM    6  N2  UNL     1     -28.257  -8.187  -7.874  1.00  0.00    -0.377 N 
ATOM      7  H22 UNL     1     -27.631  -8.123  -8.676  1.00  0.00     0.158 HD
ATOM      8  H21 UNL     1     -28.944  -8.930  -7.745  1.00  0.00     0.158 HD
BRANCH   5   9
HETATM    9  N3  UNL     1     -29.084  -7.392  -5.856  1.00  0.00    -0.354 NA
HETATM   10  C4  UNL     1     -29.900  -7.477  -4.810  1.00  0.00     0.333 C 
HETATM   11  O1  UNL     1     -30.737  -8.435  -4.589  1.00  0.00    -0.254 OA
BRANCH  10  12
HETATM   12  C5  UNL     1     -29.968  -6.424  -3.682  1.00  0.00     0.234 C 
HETATM   13  C6  UNL     1     -28.755  -6.643  -2.878  1.00  0.00     0.019 C 
HETATM   14  C7  UNL     1     -28.751  -6.677  -1.570  1.00  0.00    -0.028 C 
HETATM   15  C8  UNL     1     -29.989  -6.495  -0.777  1.00  0.00     0.027 C 
HETATM   16  C9  UNL     1     -31.041  -7.308  -1.573  1.00  0.00     0.007 C 
HETATM   17  C10 UNL     1     -31.218  -6.595  -2.920  1.00  0.00     0.054 C 
BRANCH  12  18
HETATM   18  N4  UNL     1     -29.911  -5.091  -4.242  1.00  0.00    -0.057 N 
ATOM     19  H43 UNL     1     -29.110  -4.970  -4.862  1.00  0.00     0.276 HD
ATOM     20  H42 UNL     1     -30.653  -4.931  -4.923  1.00  0.00     0.276 HD
ATOM     21  H41 UNL     1     -29.923  -4.396  -3.495  1.00  0.00     0.276 HD
ENDBRANCH  12  18
ENDBRANCH  10  12
ENDBRANCH   5   9
ENDBRANCH   4   5
ENDBRANCH   3   4
TORSDOF 5
ENDMDL
MODEL 3
REMARK VINA RESULT: -7.099996799      0.956      1.045
REMARK  5 active torsions:
REMARK  status: ('A' for Active; 'I' for Inactive)
REMARK    1  A    between atoms: S1_3  and  C2_4 
REMARK    2  A    between atoms: C2_4  and  C3_5 
REMARK    3  A    between atoms: C3_5  and  N3_9 
REMARK       I    between atoms: N3_9  and  C4_10 
REMARK    4  A    between atoms: C4_10  and  C5_12 
REMARK    5  A    between atoms: C5_12  and  N4_13 
ROOT
HETATM    1  N1  UNL     1     -28.576  -4.064 -10.101  1.00  0.00    -0.184 NA
HETATM    2  C1  UNL     1     -27.984  -4.406  -9.168  1.00  0.00     0.134 C 
HETATM    3  S1  UNL     1     -27.053  -4.912  -7.731  1.00  0.00    -0.042 SA
ENDROOT
BRANCH   3   4
HETATM    4  C2  UNL     1     -28.259  -5.000  -6.361  1.00  0.00     0.182 C 
BRANCH   4   5
HETATM    5  C3  UNL     1     -28.625  -6.425  -6.101  1.00  0.00     0.163 C 
HETATM    6  N2  UNL     1     -28.110  -7.276  -6.901  1.00  0.00    -0.377 N 
ATOM      7  H22 UNL     1     -27.503  -6.974  -7.662  1.00  0.00     0.158 HD
ATOM      8  H21 UNL     1     -28.360  -8.248  -6.722  1.00  0.00     0.158 HD
BRANCH   5   9
HETATM    9  N3  UNL     1     -29.455  -6.838  -5.060  1.00  0.00    -0.354 NA
HETATM   10  C4  UNL     1     -30.246  -7.233  -4.068  1.00  0.00     0.333 C 
HETATM   11  O1  UNL     1     -30.917  -8.337  -4.038  1.00  0.00    -0.254 OA
BRANCH  10  12
HETATM   12  C5  UNL     1     -30.485  -6.416  -2.779  1.00  0.00     0.234 C 
HETATM   13  C6  UNL     1     -29.303  -6.669  -1.939  1.00  0.00     0.019 C 
HETATM   14  C7  UNL     1     -29.370  -6.943  -0.661  1.00  0.00    -0.028 C 
HETATM   15  C8  UNL     1     -30.663  -7.023   0.058  1.00  0.00     0.027 C 
HETATM   16  C9  UNL     1     -31.579  -7.768  -0.946  1.00  0.00     0.007 C 
HETATM   17  C10 UNL     1     -31.753  -6.837  -2.154  1.00  0.00     0.054 C 
BRANCH  12  18
HETATM   18  N4  UNL     1     -30.534  -5.003  -3.087  1.00  0.00    -0.057 N 
ATOM     19  H43 UNL     1     -30.948  -4.826  -4.002  1.00  0.00     0.276 HD
ATOM     20  H42 UNL     1     -31.220  -4.511  -2.514  1.00  0.00     0.276 HD
ATOM     21  H41 UNL     1     -29.604  -4.594  -3.004  1.00  0.00     0.276 HD
ENDBRANCH  12  18
ENDBRANCH  10  12
ENDBRANCH   5   9
ENDBRANCH   4   5
ENDBRANCH   3   4
TORSDOF 5
ENDMDL
MODEL 4
REMARK VINA RESULT: -6.881961829      1.463      1.881
REMARK  5 active torsions:
REMARK  status: ('A' for Active; 'I' for Inactive)
REMARK    1  A    between atoms: S1_3  and  C2_4 
REMARK    2  A    between atoms: C2_4  and  C3_5 
REMARK    3  A    between atoms: C3_5  and  N3_9 
REMARK       I    between atoms: N3_9  and  C4_10 
REMARK    4  A    between atoms: C4_10  and  C5_12 
REMARK    5  A    between atoms: C5_12  and  N4_13 
ROOT
HETATM    1  N1  UNL     1     -27.941  -4.054  -9.640  1.00  0.00    -0.184 NA
HETATM    2  C1  UNL     1     -28.024  -4.509  -8.580  1.00  0.00     0.134 C 
HETATM    3  S1  UNL     1     -28.183  -5.208  -6.944  1.00  0.00    -0.042 SA
ENDROOT
BRANCH   3   4
HETATM    4  C2  UNL     1     -27.496  -6.896  -7.055  1.00  0.00     0.182 C 
BRANCH   4   5
HETATM    5  C3  UNL     1     -28.542  -7.894  -6.677  1.00  0.00     0.163 C 
HETATM    6  N2  UNL     1     -28.620  -8.918  -7.435  1.00  0.00    -0.377 N 
ATOM      7  H22 UNL     1     -28.004  -9.015  -8.242  1.00  0.00     0.158 HD
ATOM      8  H21 UNL     1     -29.334  -9.598  -7.177  1.00  0.00     0.158 HD
BRANCH   5   9
HETATM    9  N3  UNL     1     -29.384  -7.760  -5.573  1.00  0.00    -0.354 NA
HETATM   10  C4  UNL     1     -30.186  -7.634  -4.521  1.00  0.00     0.333 C 
HETATM   11  O1  UNL     1     -31.161  -8.427  -4.224  1.00  0.00    -0.254 OA
BRANCH  10  12
HETATM   12  C5  UNL     1     -30.068  -6.500  -3.479  1.00  0.00     0.234 C 
HETATM   13  C6  UNL     1     -28.767  -6.712  -2.826  1.00  0.00     0.019 C 
HETATM   14  C7  UNL     1     -28.590  -6.651  -1.530  1.00  0.00    -0.028 C 
HETATM   15  C8  UNL     1     -29.705  -6.361  -0.599  1.00  0.00     0.027 C 
HETATM   16  C9  UNL     1     -30.879  -7.184  -1.186  1.00  0.00     0.007 C 
HETATM   17  C10 UNL     1     -31.211  -6.562  -2.549  1.00  0.00     0.054 C 
BRANCH  12  18
HETATM   18  N4  UNL     1     -30.044  -5.215  -4.143  1.00  0.00    -0.057 N 
ATOM     19  H43 UNL     1     -29.895  -4.449  -3.486  1.00  0.00     0.276 HD
ATOM     20  H42 UNL     1     -29.204  -5.093  -4.708  1.00  0.00     0.276 HD
ATOM     21  H41 UNL     1     -30.895  -5.087  -4.690  1.00  0.00     0.276 HD
ENDBRANCH  12  18
ENDBRANCH  10  12
ENDBRANCH   5   9
ENDBRANCH   4   5
ENDBRANCH   3   4
TORSDOF 5
ENDMDL
MODEL 5
REMARK VINA RESULT: -6.774178875      1.609      2.353
REMARK  5 active torsions:
REMARK  status: ('A' for Active; 'I' for Inactive)
REMARK    1  A    between atoms: S1_3  and  C2_4 
REMARK    2  A    between atoms: C2_4  and  C3_5 
REMARK    3  A    between atoms: C3_5  and  N3_9 
REMARK       I    between atoms: N3_9  and  C4_10 
REMARK    4  A    between atoms: C4_10  and  C5_12 
REMARK    5  A    between atoms: C5_12  and  N4_13 
ROOT
HETATM    1  N1  UNL     1     -30.139 -10.036  -6.898  1.00  0.00    -0.184 NA
HETATM    2  C1  UNL     1     -29.293  -9.301  -6.615  1.00  0.00     0.134 C 
HETATM    3  S1  UNL     1     -27.967  -8.181  -6.193  1.00  0.00    -0.042 SA
ENDROOT
BRANCH   3   4
HETATM    4  C2  UNL     1     -28.525  -6.525  -6.725  1.00  0.00     0.182 C 
BRANCH   4   5
HETATM    5  C3  UNL     1     -29.173  -5.818  -5.580  1.00  0.00     0.163 C 
HETATM    6  N2  UNL     1     -29.080  -4.545  -5.601  1.00  0.00    -0.377 N 
ATOM      7  H22 UNL     1     -28.582  -4.072  -6.354  1.00  0.00     0.158 HD
ATOM      8  H21 UNL     1     -29.523  -4.062  -4.819  1.00  0.00     0.158 HD
BRANCH   5   9
HETATM    9  N3  UNL     1     -29.854  -6.464  -4.549  1.00  0.00    -0.354 NA
HETATM   10  C4  UNL     1     -30.503  -7.081  -3.567  1.00  0.00     0.333 C 
HETATM   11  O1  UNL     1     -30.958  -8.289  -3.612  1.00  0.00    -0.254 OA
BRANCH  10  12
HETATM   12  C5  UNL     1     -30.813  -6.434  -2.199  1.00  0.00     0.234 C 
HETATM   13  C6  UNL     1     -29.604  -6.653  -1.388  1.00  0.00     0.019 C 
HETATM   14  C7  UNL     1     -29.633  -7.065  -0.146  1.00  0.00    -0.028 C 
HETATM   15  C8  UNL     1     -30.905  -7.352   0.557  1.00  0.00     0.027 C 
HETATM   16  C9  UNL     1     -31.749  -8.076  -0.523  1.00  0.00     0.007 C 
HETATM   17  C10 UNL     1     -32.026  -7.046  -1.625  1.00  0.00     0.054 C 
BRANCH  12  18
HETATM   18  N4  UNL     1     -31.008  -5.009  -2.355  1.00  0.00    -0.057 N 
ATOM     19  H43 UNL     1     -31.961  -4.726  -2.127  1.00  0.00     0.276 HD
ATOM     20  H42 UNL     1     -30.517  -4.475  -1.638  1.00  0.00     0.276 HD
ATOM     21  H41 UNL     1     -30.740  -4.720  -3.296  1.00  0.00     0.276 HD
ENDBRANCH  12  18
ENDBRANCH  10  12
ENDBRANCH   5   9
ENDBRANCH   4   5
ENDBRANCH   3   4
TORSDOF 5
ENDMDL
