MODEL 1
REMARK VINA RESULT: -6.127165916      0.000      0.000
REMARK  6 active torsions:
REMARK  status: ('A' for Active; 'I' for Inactive)
REMARK    1  A    between atoms: N1_1  and  C1_5 
REMARK    2  A    between atoms: C1_5  and  C2_6 
REMARK    3  A    between atoms: C2_6  and  C3_7 
REMARK    4  A    between atoms: C3_7  and  C5_15 
REMARK    5  A    between atoms: N2_8  and  N3_10 
REMARK    6  A    between atoms: N3_10  and  C4_12 
ROOT
HETATM    1  C3  UNL     1     -29.584  -7.211  -5.058  1.00  0.00     0.019 C 
HETATM    2  N2  UNL     1     -29.633  -8.368  -5.611  1.00  0.00    -0.306 N 
ATOM      3  H2  UNL     1     -29.061  -8.572  -6.431  1.00  0.00     0.186 HD
ENDROOT
BRANCH   1   4
HETATM    4  C2  UNL     1     -30.404  -6.926  -3.884  1.00  0.00     0.082 C 
BRANCH   4   5
HETATM    5  C1  UNL     1     -29.574  -6.558  -2.662  1.00  0.00     0.235 C 
BRANCH   5   6
HETATM    6  N1  UNL     1     -30.048  -5.271  -2.185  1.00  0.00    -0.079 N 
ATOM      7  H13 UNL     1     -29.389  -4.813  -1.556  1.00  0.00     0.274 HD
ATOM      8  H12 UNL     1     -30.057  -4.557  -2.912  1.00  0.00     0.274 HD
ATOM      9  H11 UNL     1     -30.964  -5.420  -1.762  1.00  0.00     0.274 HD
ENDBRANCH   5   6
ENDBRANCH   4   5
ENDBRANCH   1   4
BRANCH   1  10
HETATM   10  C5  UNL     1     -28.697  -6.194  -5.625  1.00  0.00     0.094 C 
HETATM   11  C6  UNL     1     -29.488  -4.994  -6.150  1.00  0.00     0.021 C 
HETATM   12  C7  UNL     1     -28.502  -3.929  -6.475  1.00  0.00     0.002 C 
HETATM   13  C8  UNL     1     -27.777  -4.121  -7.768  1.00  0.00     0.010 C 
HETATM   14  C9  UNL     1     -27.081  -5.410  -7.934  1.00  0.00     0.075 C 
HETATM   15  S2  UNL     1     -27.753  -6.798  -7.053  1.00  0.00    -0.158 SA
ENDBRANCH   1  10
BRANCH   2  16
HETATM   16  N3  UNL     1     -30.468  -9.338  -5.082  1.00  0.00    -0.279 N 
ATOM     17  H3  UNL     1     -30.743  -9.293  -4.101  1.00  0.00     0.189 HD
BRANCH  16  18
HETATM   18  C4  UNL     1     -30.949 -10.410  -5.914  1.00  0.00     0.199 C 
HETATM   19  N4  UNL     1     -30.444 -10.629  -7.206  1.00  0.00    -0.068 NA
HETATM   20  S1  UNL     1     -32.109 -11.371  -5.304  1.00  0.00    -0.043 SA
ENDBRANCH  16  18
ENDBRANCH   2  16
TORSDOF 6
ENDMDL
MODEL 2
REMARK VINA RESULT: -5.855358784      2.679      5.871
REMARK  6 active torsions:
REMARK  status: ('A' for Active; 'I' for Inactive)
REMARK    1  A    between atoms: N1_1  and  C1_5 
REMARK    2  A    between atoms: C1_5  and  C2_6 
REMARK    3  A    between atoms: C2_6  and  C3_7 
REMARK    4  A    between atoms: C3_7  and  C5_15 
REMARK    5  A    between atoms: N2_8  and  N3_10 
REMARK    6  A    between atoms: N3_10  and  C4_12 
ROOT
HETATM    1  C3  UNL     1     -29.311  -6.388  -5.005  1.00  0.00     0.019 C 
HETATM    2  N2  UNL     1     -29.590  -5.163  -5.263  1.00  0.00    -0.306 N 
ATOM      3  H2  UNL     1     -29.958  -4.554  -4.533  1.00  0.00     0.186 HD
ENDROOT
BRANCH   1   4
HETATM    4  C2  UNL     1     -28.785  -7.257  -6.054  1.00  0.00     0.082 C 
BRANCH   4   5
HETATM    5  C1  UNL     1     -29.285  -8.690  -5.937  1.00  0.00     0.235 C 
BRANCH   5   6
HETATM    6  N1  UNL     1     -28.948  -9.371  -7.174  1.00  0.00    -0.079 N 
ATOM      7  H13 UNL     1     -29.631  -9.214  -7.914  1.00  0.00     0.274 HD
ATOM      8  H12 UNL     1     -28.142  -8.962  -7.646  1.00  0.00     0.274 HD
ATOM      9  H11 UNL     1     -28.819 -10.359  -6.954  1.00  0.00     0.274 HD
ENDBRANCH   5   6
ENDBRANCH   4   5
ENDBRANCH   1   4
BRANCH   1  10
HETATM   10  C5  UNL     1     -29.528  -6.892  -3.647  1.00  0.00     0.094 C 
HETATM   11  C6  UNL     1     -31.010  -6.851  -3.267  1.00  0.00     0.021 C 
HETATM   12  C7  UNL     1     -31.154  -7.597  -1.989  1.00  0.00     0.002 C 
HETATM   13  C8  UNL     1     -30.737  -6.838  -0.771  1.00  0.00     0.010 C 
HETATM   14  C9  UNL     1     -29.370  -6.286  -0.790  1.00  0.00     0.075 C 
HETATM   15  S2  UNL     1     -28.690  -5.894  -2.383  1.00  0.00    -0.158 SA
ENDBRANCH   1  10
BRANCH   2  16
HETATM   16  N3  UNL     1     -29.388  -4.677  -6.544  1.00  0.00    -0.279 N 
ATOM     17  H3  UNL     1     -29.936  -5.046  -7.321  1.00  0.00     0.189 HD
BRANCH  16  18
HETATM   18  C4  UNL     1     -28.404  -3.653  -6.782  1.00  0.00     0.199 C 
HETATM   19  N4  UNL     1     -28.617  -2.318  -6.397  1.00  0.00    -0.068 NA
HETATM   20  S1  UNL     1     -27.024  -4.094  -7.518  1.00  0.00    -0.043 SA
ENDBRANCH  16  18
ENDBRANCH   2  16
TORSDOF 6
ENDMDL
MODEL 3
REMARK VINA RESULT: -5.820778130      2.653      5.719
REMARK  6 active torsions:
REMARK  status: ('A' for Active; 'I' for Inactive)
REMARK    1  A    between atoms: N1_1  and  C1_5 
REMARK    2  A    between atoms: C1_5  and  C2_6 
REMARK    3  A    between atoms: C2_6  and  C3_7 
REMARK    4  A    between atoms: C3_7  and  C5_15 
REMARK    5  A    between atoms: N2_8  and  N3_10 
REMARK    6  A    between atoms: N3_10  and  C4_12 
ROOT
HETATM    1  C3  UNL     1     -29.296  -6.086  -4.612  1.00  0.00     0.019 C 
HETATM    2  N2  UNL     1     -28.440  -5.212  -4.996  1.00  0.00    -0.306 N 
ATOM      3  H2  UNL     1     -28.123  -4.485  -4.355  1.00  0.00     0.186 HD
ENDROOT
BRANCH   1   4
HETATM    4  C2  UNL     1     -29.747  -7.124  -5.535  1.00  0.00     0.082 C 
BRANCH   4   5
HETATM    5  C1  UNL     1     -28.700  -8.207  -5.760  1.00  0.00     0.235 C 
BRANCH   5   6
HETATM    6  N1  UNL     1     -29.402  -9.468  -5.905  1.00  0.00    -0.079 N 
ATOM      7  H13 UNL     1     -30.342  -9.359  -6.285  1.00  0.00     0.274 HD
ATOM      8  H12 UNL     1     -29.023 -10.051  -6.651  1.00  0.00     0.274 HD
ATOM      9  H11 UNL     1     -29.392  -9.931  -4.996  1.00  0.00     0.274 HD
ENDBRANCH   5   6
ENDBRANCH   4   5
ENDBRANCH   1   4
BRANCH   1  10
HETATM   10  C5  UNL     1     -29.807  -6.022  -3.241  1.00  0.00     0.094 C 
HETATM   11  C6  UNL     1     -28.768  -6.522  -2.235  1.00  0.00     0.021 C 
HETATM   12  C7  UNL     1     -29.281  -6.192  -0.878  1.00  0.00     0.002 C 
HETATM   13  C8  UNL     1     -30.339  -7.115  -0.368  1.00  0.00     0.010 C 
HETATM   14  C9  UNL     1     -31.518  -7.291  -1.236  1.00  0.00     0.075 C 
HETATM   15  S2  UNL     1     -31.261  -7.077  -2.980  1.00  0.00    -0.158 SA
ENDBRANCH   1  10
BRANCH   2  16
HETATM   16  N3  UNL     1     -27.950  -5.265  -6.291  1.00  0.00    -0.279 N 
ATOM     17  H3  UNL     1     -27.217  -5.932  -6.530  1.00  0.00     0.189 HD
BRANCH  16  18
HETATM   18  C4  UNL     1     -28.473  -4.380  -7.299  1.00  0.00     0.199 C 
HETATM   19  N4  UNL     1     -29.565  -3.531  -7.046  1.00  0.00    -0.068 NA
HETATM   20  S1  UNL     1     -27.753  -4.392  -8.755  1.00  0.00    -0.043 SA
ENDBRANCH  16  18
ENDBRANCH   2  16
TORSDOF 6
ENDMDL
MODEL 4
REMARK VINA RESULT: -5.795485256      2.262      3.956
REMARK  6 active torsions:
REMARK  status: ('A' for Active; 'I' for Inactive)
REMARK    1  A    between atoms: N1_1  and  C1_5 
REMARK    2  A    between atoms: C1_5  and  C2_6 
REMARK    3  A    between atoms: C2_6  and  C3_7 
REMARK    4  A    between atoms: C3_7  and  C5_15 
REMARK    5  A    between atoms: N2_8  and  N3_10 
REMARK    6  A    between atoms: N3_10  and  C4_12 
ROOT
HETATM    1  C3  UNL     1     -30.080  -7.390  -4.822  1.00  0.00     0.019 C 
HETATM    2  N2  UNL     1     -29.663  -7.071  -3.651  1.00  0.00    -0.306 N 
ATOM      3  H2  UNL     1     -28.899  -6.405  -3.540  1.00  0.00     0.186 HD
ENDROOT
BRANCH   1   4
HETATM    4  C2  UNL     1     -31.175  -8.344  -4.974  1.00  0.00     0.082 C 
BRANCH   4   5
HETATM    5  C1  UNL     1     -30.718  -9.676  -5.554  1.00  0.00     0.235 C 
BRANCH   5   6
HETATM    6  N1  UNL     1     -31.251 -10.726  -4.704  1.00  0.00    -0.079 N 
ATOM      7  H13 UNL     1     -32.233 -10.587  -4.469  1.00  0.00     0.274 HD
ATOM      8  H12 UNL     1     -31.355 -11.616  -5.191  1.00  0.00     0.274 HD
ATOM      9  H11 UNL     1     -30.650 -10.789  -3.883  1.00  0.00     0.274 HD
ENDBRANCH   5   6
ENDBRANCH   4   5
ENDBRANCH   1   4
BRANCH   1  10
HETATM   10  C5  UNL     1     -29.441  -6.782  -5.990  1.00  0.00     0.094 C 
HETATM   11  C6  UNL     1     -28.146  -7.511  -6.359  1.00  0.00     0.021 C 
HETATM   12  C7  UNL     1     -27.709  -6.982  -7.679  1.00  0.00     0.002 C 
HETATM   13  C8  UNL     1     -27.040  -5.647  -7.629  1.00  0.00     0.010 C 
HETATM   14  C9  UNL     1     -27.798  -4.568  -6.969  1.00  0.00     0.075 C 
HETATM   15  S2  UNL     1     -28.947  -5.059  -5.707  1.00  0.00    -0.158 SA
ENDBRANCH   1  10
BRANCH   2  16
HETATM   16  N3  UNL     1     -30.262  -7.639  -2.539  1.00  0.00    -0.279 N 
ATOM     17  H3  UNL     1     -30.163  -8.639  -2.364  1.00  0.00     0.189 HD
BRANCH  16  18
HETATM   18  C4  UNL     1     -31.024  -6.823  -1.631  1.00  0.00     0.199 C 
HETATM   19  N4  UNL     1     -31.197  -5.444  -1.841  1.00  0.00    -0.068 NA
HETATM   20  S1  UNL     1     -31.687  -7.554  -0.340  1.00  0.00    -0.043 SA
ENDBRANCH  16  18
ENDBRANCH   2  16
TORSDOF 6
ENDMDL
MODEL 5
REMARK VINA RESULT: -5.570070299      2.084      3.782
REMARK  6 active torsions:
REMARK  status: ('A' for Active; 'I' for Inactive)
REMARK    1  A    between atoms: N1_1  and  C1_5 
REMARK    2  A    between atoms: C1_5  and  C2_6 
REMARK    3  A    between atoms: C2_6  and  C3_7 
REMARK    4  A    between atoms: C3_7  and  C5_15 
REMARK    5  A    between atoms: N2_8  and  N3_10 
REMARK    6  A    between atoms: N3_10  and  C4_12 
ROOT
HETATM    1  C3  UNL     1     -29.455  -6.104  -4.398  1.00  0.00     0.019 C 
HETATM    2  N2  UNL     1     -29.992  -5.300  -3.554  1.00  0.00    -0.306 N 
ATOM      3  H2  UNL     1     -29.820  -4.297  -3.616  1.00  0.00     0.186 HD
ENDROOT
BRANCH   1   4
HETATM    4  C2  UNL     1     -29.704  -7.539  -4.303  1.00  0.00     0.082 C 
BRANCH   4   5
HETATM    5  C1  UNL     1     -31.054  -7.942  -4.879  1.00  0.00     0.235 C 
BRANCH   5   6
HETATM    6  N1  UNL     1     -31.112  -9.392  -4.883  1.00  0.00    -0.079 N 
ATOM      7  H13 UNL     1     -30.505  -9.816  -4.182  1.00  0.00     0.274 HD
ATOM      8  H12 UNL     1     -31.997  -9.756  -4.531  1.00  0.00     0.274 HD
ATOM      9  H11 UNL     1     -30.902  -9.704  -5.831  1.00  0.00     0.274 HD
ENDBRANCH   5   6
ENDBRANCH   4   5
ENDBRANCH   1   4
BRANCH   1  10
HETATM   10  C5  UNL     1     -28.596  -5.554  -5.449  1.00  0.00     0.094 C 
HETATM   11  C6  UNL     1     -29.317  -4.465  -6.247  1.00  0.00     0.021 C 
HETATM   12  C7  UNL     1     -28.299  -3.812  -7.112  1.00  0.00     0.002 C 
HETATM   13  C8  UNL     1     -27.933  -4.583  -8.339  1.00  0.00     0.010 C 
HETATM   14  C9  UNL     1     -27.479  -5.968  -8.120  1.00  0.00     0.075 C 
HETATM   15  S2  UNL     1     -28.108  -6.795  -6.680  1.00  0.00    -0.158 SA
ENDBRANCH   1  10
BRANCH   2  16
HETATM   16  N3  UNL     1     -30.807  -5.810  -2.556  1.00  0.00    -0.279 N 
ATOM     17  H3  UNL     1     -31.819  -5.819  -2.681  1.00  0.00     0.189 HD
BRANCH  16  18
HETATM   18  C4  UNL     1     -30.228  -6.327  -1.343  1.00  0.00     0.199 C 
HETATM   19  N4  UNL     1     -28.950  -5.938  -0.908  1.00  0.00    -0.068 NA
HETATM   20  S1  UNL     1     -31.111  -7.385  -0.483  1.00  0.00    -0.043 SA
ENDBRANCH  16  18
ENDBRANCH   2  16
TORSDOF 6
ENDMDL
