MODEL 1
REMARK VINA RESULT: -7.676901371      0.000      0.000
REMARK  5 active torsions:
REMARK  status: ('A' for Active; 'I' for Inactive)
REMARK    1  A    between atoms: C2_3  and  C3_4 
REMARK    2  A    between atoms: C2_3  and  N6_17 
REMARK    3  A    between atoms: C3_4  and  S1_5 
REMARK    4  A    between atoms: S1_5  and  C4_6 
REMARK    5  A    between atoms: C5_9  and  N3_10 
ROOT
HETATM    1  N1  UNL     1     -30.113  -8.568  -5.545  1.00  0.00    -0.195 NA
HETATM    2  C1  UNL     1     -29.590  -7.567  -5.269  1.00  0.00     0.085 C 
HETATM    3  C2  UNL     1     -28.938  -6.311  -4.898  1.00  0.00     0.204 C 
ENDROOT
BRANCH   3   4
HETATM    4  C3  UNL     1     -29.148  -5.347  -6.030  1.00  0.00     0.123 C 
BRANCH   4   5
HETATM    5  S1  UNL     1     -27.531  -4.897  -6.722  1.00  0.00    -0.089 SA
BRANCH   5   6
HETATM    6  C4  UNL     1     -27.683  -4.499  -8.461  1.00  0.00     0.174 A 
HETATM    7  N2  UNL     1     -28.796  -4.512  -9.232  1.00  0.00    -0.168 N 
HETATM    8  C5  UNL     1     -28.500  -4.156 -10.483  1.00  0.00     0.692 A 
ATOM      9  H2  UNL     1     -29.729  -4.759  -8.902  1.00  0.00     0.186 HD
HETATM   10  N4  UNL     1     -27.164  -3.909 -10.505  1.00  0.00    -0.130 N 
HETATM   11  N5  UNL     1     -26.701  -4.121  -9.290  1.00  0.00    -0.265 N 
ATOM     12  H4  UNL     1     -26.619  -3.614 -11.314  1.00  0.00     0.205 HD
ATOM     13  H5  UNL     1     -25.725  -4.012  -9.017  1.00  0.00     0.189 HD
BRANCH   8  14
HETATM   14  N3  UNL     1     -29.262  -4.040 -11.519  1.00  0.00    -0.233 N 
ATOM     15  H32 UNL     1     -29.885  -4.780 -11.844  1.00  0.00     0.174 HD
ATOM     16  H31 UNL     1     -29.382  -3.259 -12.163  1.00  0.00     0.174 HD
ENDBRANCH   8  14
ENDBRANCH   5   6
ENDBRANCH   4   5
ENDBRANCH   3   4
BRANCH   3  17
HETATM   17  N6  UNL     1     -29.500  -5.859  -3.661  1.00  0.00    -0.356 N 
HETATM   18  C6  UNL     1     -30.806  -6.298  -3.380  1.00  0.00     0.064 C 
HETATM   19  C7  UNL     1     -31.305  -6.054  -1.981  1.00  0.00     0.045 C 
HETATM   20  C8  UNL     1     -30.311  -6.718  -1.051  1.00  0.00     0.010 C 
HETATM   21  C9  UNL     1     -29.027  -5.943  -1.220  1.00  0.00     0.045 C 
HETATM   22  C10 UNL     1     -28.569  -5.763  -2.609  1.00  0.00     0.064 C 
ENDBRANCH   3  17
TORSDOF 5
ENDMDL
MODEL 2
REMARK VINA RESULT: -7.624295282      1.292      1.508
REMARK  5 active torsions:
REMARK  status: ('A' for Active; 'I' for Inactive)
REMARK    1  A    between atoms: C2_3  and  C3_4 
REMARK    2  A    between atoms: C2_3  and  N6_17 
REMARK    3  A    between atoms: C3_4  and  S1_5 
REMARK    4  A    between atoms: S1_5  and  C4_6 
REMARK    5  A    between atoms: C5_9  and  N3_10 
ROOT
HETATM    1  N1  UNL     1     -31.416  -8.913  -5.227  1.00  0.00    -0.195 NA
HETATM    2  C1  UNL     1     -30.623  -8.146  -4.857  1.00  0.00     0.085 C 
HETATM    3  C2  UNL     1     -29.635  -7.184  -4.369  1.00  0.00     0.204 C 
ENDROOT
BRANCH   3   4
HETATM    4  C3  UNL     1     -29.444  -6.155  -5.447  1.00  0.00     0.123 C 
BRANCH   4   5
HETATM    5  S1  UNL     1     -28.242  -6.788  -6.652  1.00  0.00    -0.089 SA
BRANCH   5   6
HETATM    6  C4  UNL     1     -27.597  -5.452  -7.655  1.00  0.00     0.174 A 
HETATM    7  N2  UNL     1     -27.765  -5.242  -8.982  1.00  0.00    -0.168 N 
HETATM    8  C5  UNL     1     -27.124  -4.136  -9.362  1.00  0.00     0.692 A 
ATOM      9  H2  UNL     1     -28.304  -5.845  -9.602  1.00  0.00     0.186 HD
HETATM   10  N4  UNL     1     -26.537  -3.630  -8.246  1.00  0.00    -0.130 N 
HETATM   11  N5  UNL     1     -26.833  -4.432  -7.244  1.00  0.00    -0.265 N 
ATOM     12  H4  UNL     1     -25.971  -2.784  -8.194  1.00  0.00     0.205 HD
ATOM     13  H5  UNL     1     -26.523  -4.293  -6.283  1.00  0.00     0.189 HD
BRANCH   8  14
HETATM   14  N3  UNL     1     -27.031  -3.586 -10.527  1.00  0.00    -0.233 N 
ATOM     15  H32 UNL     1     -27.489  -2.708 -10.773  1.00  0.00     0.174 HD
ATOM     16  H31 UNL     1     -26.529  -3.891 -11.360  1.00  0.00     0.174 HD
ENDBRANCH   8  14
ENDBRANCH   5   6
ENDBRANCH   4   5
ENDBRANCH   3   4
BRANCH   3  17
HETATM   17  N6  UNL     1     -30.114  -6.629  -3.140  1.00  0.00    -0.356 N 
HETATM   18  C6  UNL     1     -31.360  -7.104  -2.692  1.00  0.00     0.064 C 
HETATM   19  C7  UNL     1     -31.748  -6.734  -1.286  1.00  0.00     0.045 C 
HETATM   20  C8  UNL     1     -30.637  -7.238  -0.389  1.00  0.00     0.010 C 
HETATM   21  C9  UNL     1     -29.424  -6.420  -0.759  1.00  0.00     0.045 C 
HETATM   22  C10 UNL     1     -29.102  -6.369  -2.195  1.00  0.00     0.064 C 
ENDBRANCH   3  17
TORSDOF 5
ENDMDL
MODEL 3
REMARK VINA RESULT: -7.370508625      3.015      7.673
REMARK  5 active torsions:
REMARK  status: ('A' for Active; 'I' for Inactive)
REMARK    1  A    between atoms: C2_3  and  C3_4 
REMARK    2  A    between atoms: C2_3  and  N6_17 
REMARK    3  A    between atoms: C3_4  and  S1_5 
REMARK    4  A    between atoms: S1_5  and  C4_6 
REMARK    5  A    between atoms: C5_9  and  N3_10 
ROOT
HETATM    1  N1  UNL     1     -28.858  -9.312  -5.912  1.00  0.00    -0.195 NA
HETATM    2  C1  UNL     1     -29.140  -8.227  -5.600  1.00  0.00     0.085 C 
HETATM    3  C2  UNL     1     -29.485  -6.855  -5.228  1.00  0.00     0.204 C 
ENDROOT
BRANCH   3   4
HETATM    4  C3  UNL     1     -29.426  -6.772  -3.729  1.00  0.00     0.123 C 
BRANCH   4   5
HETATM    5  S1  UNL     1     -31.114  -6.575  -3.089  1.00  0.00    -0.089 SA
BRANCH   5   6
HETATM    6  C4  UNL     1     -31.237  -7.238  -1.430  1.00  0.00     0.174 A 
HETATM    7  N2  UNL     1     -30.565  -6.853  -0.320  1.00  0.00    -0.168 N 
HETATM    8  C5  UNL     1     -30.932  -7.594   0.727  1.00  0.00     0.692 A 
ATOM      9  H2  UNL     1     -29.875  -6.102  -0.289  1.00  0.00     0.186 HD
HETATM   10  N4  UNL     1     -31.862  -8.471   0.267  1.00  0.00    -0.130 N 
HETATM   11  N5  UNL     1     -32.026  -8.239  -1.019  1.00  0.00    -0.265 N 
ATOM     12  H4  UNL     1     -32.346  -9.179   0.818  1.00  0.00     0.205 HD
ATOM     13  H5  UNL     1     -32.668  -8.753  -1.621  1.00  0.00     0.189 HD
BRANCH   8  14
HETATM   14  N3  UNL     1     -30.538  -7.552   1.955  1.00  0.00    -0.233 N 
ATOM     15  H32 UNL     1     -30.778  -6.797   2.598  1.00  0.00     0.174 HD
ATOM     16  H31 UNL     1     -29.959  -8.205   2.483  1.00  0.00     0.174 HD
ENDBRANCH   8  14
ENDBRANCH   5   6
ENDBRANCH   4   5
ENDBRANCH   3   4
BRANCH   3  17
HETATM   17  N6  UNL     1     -28.568  -5.968  -5.877  1.00  0.00    -0.356 N 
HETATM   18  C6  UNL     1     -27.897  -6.487  -6.999  1.00  0.00     0.064 C 
HETATM   19  C7  UNL     1     -27.141  -5.495  -7.841  1.00  0.00     0.045 C 
HETATM   20  C8  UNL     1     -28.142  -4.440  -8.263  1.00  0.00     0.010 C 
HETATM   21  C9  UNL     1     -28.549  -3.743  -6.989  1.00  0.00     0.045 C 
HETATM   22  C10 UNL     1     -28.984  -4.623  -5.890  1.00  0.00     0.064 C 
ENDBRANCH   3  17
TORSDOF 5
ENDMDL
MODEL 4
REMARK VINA RESULT: -7.168837957      1.515      1.925
REMARK  5 active torsions:
REMARK  status: ('A' for Active; 'I' for Inactive)
REMARK    1  A    between atoms: C2_3  and  C3_4 
REMARK    2  A    between atoms: C2_3  and  N6_17 
REMARK    3  A    between atoms: C3_4  and  S1_5 
REMARK    4  A    between atoms: S1_5  and  C4_6 
REMARK    5  A    between atoms: C5_9  and  N3_10 
ROOT
HETATM    1  N1  UNL     1     -27.945  -7.794  -7.843  1.00  0.00    -0.195 NA
HETATM    2  C1  UNL     1     -28.075  -6.923  -7.083  1.00  0.00     0.085 C 
HETATM    3  C2  UNL     1     -28.252  -5.843  -6.112  1.00  0.00     0.204 C 
ENDROOT
BRANCH   3   4
HETATM    4  C3  UNL     1     -28.325  -4.556  -6.885  1.00  0.00     0.123 C 
BRANCH   4   5
HETATM    5  S1  UNL     1     -26.845  -4.418  -7.929  1.00  0.00    -0.089 SA
BRANCH   5   6
HETATM    6  C4  UNL     1     -27.301  -4.008  -9.611  1.00  0.00     0.174 A 
HETATM    7  N2  UNL     1     -28.244  -4.588 -10.390  1.00  0.00    -0.168 N 
HETATM    8  C5  UNL     1     -28.283  -4.002 -11.588  1.00  0.00     0.692 A 
ATOM      9  H2  UNL     1     -28.840  -5.364 -10.102  1.00  0.00     0.186 HD
HETATM   10  N4  UNL     1     -27.341  -3.023 -11.565  1.00  0.00    -0.130 N 
HETATM   11  N5  UNL     1     -26.771  -3.048 -10.379  1.00  0.00    -0.265 N 
ATOM     12  H4  UNL     1     -27.117  -2.386 -12.329  1.00  0.00     0.205 HD
ATOM     13  H5  UNL     1     -26.025  -2.419 -10.084  1.00  0.00     0.189 HD
BRANCH   8  14
HETATM   14  N3  UNL     1     -29.031  -4.248 -12.611  1.00  0.00    -0.233 N 
ATOM     15  H32 UNL     1     -29.521  -3.524 -13.137  1.00  0.00     0.174 HD
ATOM     16  H31 UNL     1     -29.262  -5.134 -13.059  1.00  0.00     0.174 HD
ENDBRANCH   8  14
ENDBRANCH   5   6
ENDBRANCH   4   5
ENDBRANCH   3   4
BRANCH   3  17
HETATM   17  N6  UNL     1     -29.434  -6.109  -5.351  1.00  0.00    -0.356 N 
HETATM   18  C6  UNL     1     -29.809  -7.461  -5.245  1.00  0.00     0.064 C 
HETATM   19  C7  UNL     1     -30.882  -7.778  -4.240  1.00  0.00     0.045 C 
HETATM   20  C8  UNL     1     -30.387  -7.261  -2.906  1.00  0.00     0.010 C 
HETATM   21  C9  UNL     1     -30.330  -5.761  -3.056  1.00  0.00     0.045 C 
HETATM   22  C10 UNL     1     -29.602  -5.265  -4.237  1.00  0.00     0.064 C 
ENDBRANCH   3  17
TORSDOF 5
ENDMDL
MODEL 5
REMARK VINA RESULT: -7.132967555      3.063      7.505
REMARK  5 active torsions:
REMARK  status: ('A' for Active; 'I' for Inactive)
REMARK    1  A    between atoms: C2_3  and  C3_4 
REMARK    2  A    between atoms: C2_3  and  N6_17 
REMARK    3  A    between atoms: C3_4  and  S1_5 
REMARK    4  A    between atoms: S1_5  and  C4_6 
REMARK    5  A    between atoms: C5_9  and  N3_10 
ROOT
HETATM    1  N1  UNL     1     -28.106  -4.814  -6.464  1.00  0.00    -0.195 NA
HETATM    2  C1  UNL     1     -28.521  -5.592  -5.706  1.00  0.00     0.085 C 
HETATM    3  C2  UNL     1     -29.041  -6.587  -4.769  1.00  0.00     0.204 C 
ENDROOT
BRANCH   3   4
HETATM    4  C3  UNL     1     -29.972  -5.873  -3.830  1.00  0.00     0.123 C 
BRANCH   4   5
HETATM    5  S1  UNL     1     -29.257  -5.908  -2.161  1.00  0.00    -0.089 SA
BRANCH   5   6
HETATM    6  C4  UNL     1     -30.289  -6.870  -1.058  1.00  0.00     0.174 A 
HETATM    7  N2  UNL     1     -30.202  -6.982   0.288  1.00  0.00    -0.168 N 
HETATM    8  C5  UNL     1     -31.152  -7.797   0.750  1.00  0.00     0.692 A 
ATOM      9  H2  UNL     1     -29.508  -6.509   0.868  1.00  0.00     0.186 HD
HETATM   10  N4  UNL     1     -31.860  -8.211  -0.333  1.00  0.00    -0.130 N 
HETATM   11  N5  UNL     1     -31.326  -7.646  -1.397  1.00  0.00    -0.265 N 
ATOM     12  H4  UNL     1     -32.659  -8.844  -0.325  1.00  0.00     0.205 HD
ATOM     13  H5  UNL     1     -31.660  -7.781  -2.351  1.00  0.00     0.189 HD
BRANCH   8  14
HETATM   14  N3  UNL     1     -31.417  -8.168   1.957  1.00  0.00    -0.233 N 
ATOM     15  H32 UNL     1     -30.719  -8.554   2.593  1.00  0.00     0.174 HD
ATOM     16  H31 UNL     1     -32.297  -8.153   2.472  1.00  0.00     0.174 HD
ENDBRANCH   8  14
ENDBRANCH   5   6
ENDBRANCH   4   5
ENDBRANCH   3   4
BRANCH   3  17
HETATM   17  N6  UNL     1     -29.685  -7.621  -5.521  1.00  0.00    -0.356 N 
HETATM   18  C6  UNL     1     -28.835  -8.549  -6.149  1.00  0.00     0.064 C 
HETATM   19  C7  UNL     1     -29.492  -9.779  -6.714  1.00  0.00     0.045 C 
HETATM   20  C8  UNL     1     -30.234 -10.433  -5.567  1.00  0.00     0.010 C 
HETATM   21  C9  UNL     1     -31.326  -9.462  -5.194  1.00  0.00     0.045 C 
HETATM   22  C10 UNL     1     -30.893  -8.074  -4.956  1.00  0.00     0.064 C 
ENDBRANCH   3  17
TORSDOF 5
ENDMDL
