MODEL 1
REMARK VINA RESULT: -7.410654537      0.000      0.000
REMARK  6 active torsions:
REMARK  status: ('A' for Active; 'I' for Inactive)
REMARK    1  A    between atoms: O1_2  and  C2_3 
REMARK    2  A    between atoms: C2_3  and  C3_5 
REMARK    3  A    between atoms: C6_8  and  C7_9 
REMARK    4  A    between atoms: C7_9  and  C8_10 
REMARK    5  A    between atoms: C8_10  and  S1_11 
REMARK    6  A    between atoms: N1_13  and  N2_15 
REMARK       I    between atoms: N2_15  and  C10_17 
ROOT
HETATM    1  C7  UNL     1     -29.539  -7.022  -4.741  1.00  0.00     0.018 C 
HETATM    2  N1  UNL     1     -30.009  -8.222  -4.745  1.00  0.00    -0.305 N 
ATOM      3  H1  UNL     1     -30.555  -8.530  -3.940  1.00  0.00     0.186 HD
ENDROOT
BRANCH   1   4
HETATM    4  C6  UNL     1     -29.835  -6.184  -3.557  1.00  0.00     0.047 C 
HETATM    5  C3  UNL     1     -30.144  -6.955  -2.297  1.00  0.00     0.095 C 
HETATM    6  C4  UNL     1     -29.319  -5.907  -1.539  1.00  0.00     0.016 C 
HETATM    7  C5  UNL     1     -28.577  -5.678  -2.839  1.00  0.00     0.012 C 
BRANCH   5   8
HETATM    8  C2  UNL     1     -31.554  -6.859  -1.837  1.00  0.00     0.263 C 
HETATM    9  O2  UNL     1     -32.273  -5.911  -2.185  1.00  0.00    -0.265 OA
BRANCH   8  10
HETATM   10  O1  UNL     1     -32.069  -7.828  -1.021  1.00  0.00    -0.326 OA
HETATM   11  C1  UNL     1     -31.598  -8.144   0.261  1.00  0.00     0.213 C 
ENDBRANCH   8  10
ENDBRANCH   5   8
ENDBRANCH   1   4
BRANCH   1  12
HETATM   12  C8  UNL     1     -28.759  -6.589  -5.895  1.00  0.00     0.128 C 
BRANCH  12  13
HETATM   13  S1  UNL     1     -28.956  -4.845  -6.296  1.00  0.00    -0.168 SA
HETATM   14  C9  UNL     1     -27.510  -4.320  -7.259  1.00  0.00     0.090 C 
ENDBRANCH  12  13
ENDBRANCH   1  12
BRANCH   2  15
HETATM   15  N2  UNL     1     -29.809  -9.120  -5.791  1.00  0.00    -0.274 N 
HETATM   16  C10 UNL     1     -30.610 -10.294  -5.816  1.00  0.00     0.200 C 
HETATM   17  N3  UNL     1     -31.163 -10.762  -4.758  1.00  0.00    -0.372 N 
HETATM   18  N4  UNL     1     -30.815 -10.981  -7.041  1.00  0.00    -0.062 NA
ATOM     19  H32 UNL     1     -31.016 -10.269  -3.877  1.00  0.00     0.158 HD
ATOM     20  H31 UNL     1     -31.738 -11.604  -4.776  1.00  0.00     0.158 HD
ATOM     21  H2  UNL     1     -29.111  -8.941  -6.513  1.00  0.00     0.189 HD
ENDBRANCH   2  15
TORSDOF 6
ENDMDL
MODEL 2
REMARK VINA RESULT: -7.176203086      1.427      1.584
REMARK  6 active torsions:
REMARK  status: ('A' for Active; 'I' for Inactive)
REMARK    1  A    between atoms: O1_2  and  C2_3 
REMARK    2  A    between atoms: C2_3  and  C3_5 
REMARK    3  A    between atoms: C6_8  and  C7_9 
REMARK    4  A    between atoms: C7_9  and  C8_10 
REMARK    5  A    between atoms: C8_10  and  S1_11 
REMARK    6  A    between atoms: N1_13  and  N2_15 
REMARK       I    between atoms: N2_15  and  C10_17 
ROOT
HETATM    1  C7  UNL     1     -30.413  -7.627  -3.951  1.00  0.00     0.018 C 
HETATM    2  N1  UNL     1     -30.932  -8.714  -4.407  1.00  0.00    -0.305 N 
ATOM      3  H1  UNL     1     -31.835  -9.012  -4.037  1.00  0.00     0.186 HD
ENDROOT
BRANCH   1   4
HETATM    4  C6  UNL     1     -31.179  -6.893  -2.917  1.00  0.00     0.047 C 
HETATM    5  C3  UNL     1     -30.678  -7.083  -1.506  1.00  0.00     0.095 C 
HETATM    6  C4  UNL     1     -30.951  -5.590  -1.285  1.00  0.00     0.016 C 
HETATM    7  C5  UNL     1     -30.762  -5.424  -2.779  1.00  0.00     0.012 C 
BRANCH   5   8
HETATM    8  C2  UNL     1     -31.586  -7.858  -0.621  1.00  0.00     0.263 C 
HETATM    9  O2  UNL     1     -32.166  -8.872  -1.036  1.00  0.00    -0.265 OA
BRANCH   8  10
HETATM   10  O1  UNL     1     -31.787  -7.450   0.669  1.00  0.00    -0.326 OA
HETATM   11  C1  UNL     1     -31.038  -7.867   1.778  1.00  0.00     0.213 C 
ENDBRANCH   8  10
ENDBRANCH   5   8
ENDBRANCH   1   4
BRANCH   1  12
HETATM   12  C8  UNL     1     -29.122  -7.207  -4.486  1.00  0.00     0.128 C 
BRANCH  12  13
HETATM   13  S1  UNL     1     -29.239  -5.971  -5.789  1.00  0.00    -0.168 SA
HETATM   14  C9  UNL     1     -27.884  -6.257  -6.962  1.00  0.00     0.090 C 
ENDBRANCH  12  13
ENDBRANCH   1  12
BRANCH   2  15
HETATM   15  N2  UNL     1     -30.323  -9.504  -5.380  1.00  0.00    -0.274 N 
HETATM   16  C10 UNL     1     -31.038 -10.638  -5.852  1.00  0.00     0.200 C 
HETATM   17  N3  UNL     1     -31.965 -11.193  -5.161  1.00  0.00    -0.372 N 
HETATM   18  N4  UNL     1     -30.730 -11.185  -7.125  1.00  0.00    -0.062 NA
ATOM     19  H32 UNL     1     -32.186 -10.801  -4.246  1.00  0.00     0.158 HD
ATOM     20  H31 UNL     1     -32.478 -12.008  -5.500  1.00  0.00     0.158 HD
ATOM     21  H2  UNL     1     -29.396  -9.277  -5.740  1.00  0.00     0.189 HD
ENDBRANCH   2  15
TORSDOF 6
ENDMDL
MODEL 3
REMARK VINA RESULT: -6.947716532      1.305      1.391
REMARK  6 active torsions:
REMARK  status: ('A' for Active; 'I' for Inactive)
REMARK    1  A    between atoms: O1_2  and  C2_3 
REMARK    2  A    between atoms: C2_3  and  C3_5 
REMARK    3  A    between atoms: C6_8  and  C7_9 
REMARK    4  A    between atoms: C7_9  and  C8_10 
REMARK    5  A    between atoms: C8_10  and  S1_11 
REMARK    6  A    between atoms: N1_13  and  N2_15 
REMARK       I    between atoms: N2_15  and  C10_17 
ROOT
HETATM    1  C7  UNL     1     -29.605  -8.091  -5.210  1.00  0.00     0.018 C 
HETATM    2  N1  UNL     1     -30.458  -9.055  -5.270  1.00  0.00    -0.305 N 
ATOM      3  H1  UNL     1     -31.364  -8.928  -4.818  1.00  0.00     0.186 HD
ENDROOT
BRANCH   1   4
HETATM    4  C6  UNL     1     -30.017  -6.867  -4.485  1.00  0.00     0.047 C 
HETATM    5  C3  UNL     1     -29.922  -6.962  -2.981  1.00  0.00     0.095 C 
HETATM    6  C4  UNL     1     -29.392  -5.523  -2.996  1.00  0.00     0.016 C 
HETATM    7  C5  UNL     1     -28.912  -5.807  -4.404  1.00  0.00     0.012 C 
BRANCH   5   8
HETATM    8  C2  UNL     1     -31.229  -6.969  -2.274  1.00  0.00     0.263 C 
HETATM    9  O2  UNL     1     -31.997  -5.998  -2.347  1.00  0.00    -0.265 OA
BRANCH   8  10
HETATM   10  O1  UNL     1     -31.593  -8.059  -1.533  1.00  0.00    -0.326 OA
HETATM   11  C1  UNL     1     -31.607  -8.121  -0.133  1.00  0.00     0.213 C 
ENDBRANCH   8  10
ENDBRANCH   5   8
ENDBRANCH   1   4
BRANCH   1  12
HETATM   12  C8  UNL     1     -28.312  -8.281  -5.859  1.00  0.00     0.128 C 
BRANCH  12  13
HETATM   13  S1  UNL     1     -28.257  -7.700  -7.562  1.00  0.00    -0.168 SA
HETATM   14  C9  UNL     1     -27.415  -6.093  -7.584  1.00  0.00     0.090 C 
ENDBRANCH  12  13
ENDBRANCH   1  12
BRANCH   2  15
HETATM   15  N2  UNL     1     -30.206 -10.262  -5.918  1.00  0.00    -0.274 N 
HETATM   16  C10 UNL     1     -31.256 -11.220  -5.962  1.00  0.00     0.200 C 
HETATM   17  N3  UNL     1     -32.214 -11.217  -5.110  1.00  0.00    -0.372 N 
HETATM   18  N4  UNL     1     -31.258 -12.216  -6.973  1.00  0.00    -0.062 NA
ATOM     19  H32 UNL     1     -32.213 -10.501  -4.384  1.00  0.00     0.158 HD
ATOM     20  H31 UNL     1     -32.967 -11.904  -5.142  1.00  0.00     0.158 HD
ATOM     21  H2  UNL     1     -29.300 -10.452  -6.346  1.00  0.00     0.189 HD
ENDBRANCH   2  15
TORSDOF 6
ENDMDL
MODEL 4
REMARK VINA RESULT: -6.403608521      3.084      5.141
REMARK  6 active torsions:
REMARK  status: ('A' for Active; 'I' for Inactive)
REMARK    1  A    between atoms: O1_2  and  C2_3 
REMARK    2  A    between atoms: C2_3  and  C3_5 
REMARK    3  A    between atoms: C6_8  and  C7_9 
REMARK    4  A    between atoms: C7_9  and  C8_10 
REMARK    5  A    between atoms: C8_10  and  S1_11 
REMARK    6  A    between atoms: N1_13  and  N2_15 
REMARK       I    between atoms: N2_15  and  C10_17 
ROOT
HETATM    1  C7  UNL     1     -30.080  -6.978  -4.424  1.00  0.00     0.018 C 
HETATM    2  N1  UNL     1     -30.179  -8.077  -5.091  1.00  0.00    -0.305 N 
ATOM      3  H1  UNL     1     -29.587  -8.199  -5.913  1.00  0.00     0.186 HD
ENDROOT
BRANCH   1   4
HETATM    4  C6  UNL     1     -29.106  -5.976  -4.913  1.00  0.00     0.047 C 
HETATM    5  C3  UNL     1     -29.004  -5.874  -6.416  1.00  0.00     0.095 C 
HETATM    6  C4  UNL     1     -28.903  -4.355  -6.234  1.00  0.00     0.016 C 
HETATM    7  C5  UNL     1     -29.663  -4.547  -4.938  1.00  0.00     0.012 C 
BRANCH   5   8
HETATM    8  C2  UNL     1     -27.720  -6.360  -6.987  1.00  0.00     0.263 C 
HETATM    9  O2  UNL     1     -27.585  -7.544  -7.330  1.00  0.00    -0.265 OA
BRANCH   8  10
HETATM   10  O1  UNL     1     -26.674  -5.493  -7.138  1.00  0.00    -0.326 OA
HETATM   11  C1  UNL     1     -26.332  -4.832  -8.327  1.00  0.00     0.213 C 
ENDBRANCH   8  10
ENDBRANCH   5   8
ENDBRANCH   1   4
BRANCH   1  12
HETATM   12  C8  UNL     1     -30.929  -6.812  -3.250  1.00  0.00     0.128 C 
BRANCH  12  13
HETATM   13  S1  UNL     1     -30.015  -6.633  -1.709  1.00  0.00    -0.168 SA
HETATM   14  C9  UNL     1     -30.990  -7.400  -0.383  1.00  0.00     0.090 C 
ENDBRANCH  12  13
ENDBRANCH   1  12
BRANCH   2  15
HETATM   15  N2  UNL     1     -31.052  -9.106  -4.746  1.00  0.00    -0.274 N 
HETATM   16  C10 UNL     1     -31.003 -10.300  -5.517  1.00  0.00     0.200 C 
HETATM   17  N3  UNL     1     -30.540 -10.317  -6.713  1.00  0.00    -0.372 N 
HETATM   18  N4  UNL     1     -31.477 -11.516  -4.961  1.00  0.00    -0.062 NA
ATOM     19  H32 UNL     1     -30.200  -9.443  -7.113  1.00  0.00     0.158 HD
ATOM     20  H31 UNL     1     -30.506 -11.174  -7.266  1.00  0.00     0.158 HD
ATOM     21  H2  UNL     1     -31.705  -9.006  -3.968  1.00  0.00     0.189 HD
ENDBRANCH   2  15
TORSDOF 6
ENDMDL
MODEL 5
REMARK VINA RESULT: -6.326310951      2.793      4.021
REMARK  6 active torsions:
REMARK  status: ('A' for Active; 'I' for Inactive)
REMARK    1  A    between atoms: O1_2  and  C2_3 
REMARK    2  A    between atoms: C2_3  and  C3_5 
REMARK    3  A    between atoms: C6_8  and  C7_9 
REMARK    4  A    between atoms: C7_9  and  C8_10 
REMARK    5  A    between atoms: C8_10  and  S1_11 
REMARK    6  A    between atoms: N1_13  and  N2_15 
REMARK       I    between atoms: N2_15  and  C10_17 
ROOT
HETATM    1  C7  UNL     1     -29.518  -6.015  -3.981  1.00  0.00     0.018 C 
HETATM    2  N1  UNL     1     -29.391  -4.984  -4.743  1.00  0.00    -0.305 N 
ATOM      3  H1  UNL     1     -29.416  -4.059  -4.313  1.00  0.00     0.186 HD
ENDROOT
BRANCH   1   4
HETATM    4  C6  UNL     1     -29.691  -5.769  -2.531  1.00  0.00     0.047 C 
HETATM    5  C3  UNL     1     -29.811  -7.016  -1.688  1.00  0.00     0.095 C 
HETATM    6  C4  UNL     1     -28.935  -6.308  -0.647  1.00  0.00     0.016 C 
HETATM    7  C5  UNL     1     -28.372  -5.501  -1.797  1.00  0.00     0.012 C 
BRANCH   5   8
HETATM    8  C2  UNL     1     -31.155  -7.238  -1.093  1.00  0.00     0.263 C 
HETATM    9  O2  UNL     1     -32.134  -6.575  -1.466  1.00  0.00    -0.265 OA
BRANCH   8  10
HETATM   10  O1  UNL     1     -31.317  -8.185  -0.120  1.00  0.00    -0.326 OA
HETATM   11  C1  UNL     1     -31.353  -7.936   1.259  1.00  0.00     0.213 C 
ENDBRANCH   8  10
ENDBRANCH   5   8
ENDBRANCH   1   4
BRANCH   1  12
HETATM   12  C8  UNL     1     -29.479  -7.334  -4.604  1.00  0.00     0.128 C 
BRANCH  12  13
HETATM   13  S1  UNL     1     -31.102  -8.076  -4.844  1.00  0.00    -0.168 SA
HETATM   14  C9  UNL     1     -30.868  -9.726  -5.562  1.00  0.00     0.090 C 
ENDBRANCH  12  13
ENDBRANCH   1  12
BRANCH   2  15
HETATM   15  N2  UNL     1     -29.220  -5.066  -6.123  1.00  0.00    -0.274 N 
HETATM   16  C10 UNL     1     -28.785  -3.898  -6.806  1.00  0.00     0.200 C 
HETATM   17  N3  UNL     1     -28.955  -2.724  -6.319  1.00  0.00    -0.372 N 
HETATM   18  N4  UNL     1     -28.142  -4.017  -8.065  1.00  0.00    -0.062 NA
ATOM     19  H32 UNL     1     -29.417  -2.637  -5.414  1.00  0.00     0.158 HD
ATOM     20  H31 UNL     1     -28.643  -1.885  -6.809  1.00  0.00     0.158 HD
ATOM     21  H2  UNL     1     -29.402  -5.935  -6.626  1.00  0.00     0.189 HD
ENDBRANCH   2  15
TORSDOF 6
ENDMDL
