MODEL 1
REMARK VINA RESULT: -7.029136098      0.000      0.000
REMARK  5 active torsions:
REMARK  status: ('A' for Active; 'I' for Inactive)
REMARK    1  A    between atoms: C5_6  and  C6_7 
REMARK    2  A    between atoms: C6_7  and  N2_8 
REMARK    3  A    between atoms: N2_8  and  C7_10 
REMARK    4  A    between atoms: C10_14  and  C11_15 
REMARK    5  A    between atoms: C11_15  and  O1_16 
ROOT
HETATM    1  N1  UNL     1     -32.217  -8.623  -0.679  1.00  0.00    -0.195 NA
HETATM    2  C1  UNL     1     -31.632  -7.635  -0.769  1.00  0.00     0.092 C 
HETATM    3  C2  UNL     1     -30.865  -6.379  -0.865  1.00  0.00     0.292 C 
HETATM    4  C3  UNL     1     -29.385  -6.631  -0.975  1.00  0.00     0.050 C 
HETATM    5  C4  UNL     1     -28.967  -5.626  -2.014  1.00  0.00     0.041 C 
HETATM    6  C5  UNL     1     -30.163  -5.606  -2.958  1.00  0.00     0.225 C 
HETATM    7  N3  UNL     1     -31.271  -5.605  -1.995  1.00  0.00    -0.050 N 
ATOM      8  H31 UNL     1     -31.577  -4.665  -1.743  1.00  0.00     0.279 HD
ATOM      9  H32 UNL     1     -32.150  -5.928  -2.401  1.00  0.00     0.279 HD
ENDROOT
BRANCH   6  10
HETATM   10  C6  UNL     1     -30.165  -6.832  -3.804  1.00  0.00     0.088 C 
BRANCH  10  11
HETATM   11  N2  UNL     1     -28.994  -7.100  -4.516  1.00  0.00    -0.394 N 
ATOM     12  H2  UNL     1     -28.190  -7.495  -4.028  1.00  0.00     0.159 HD
BRANCH  11  13
HETATM   13  C7  UNL     1     -28.903  -6.831  -5.916  1.00  0.00     0.097 C 
HETATM   14  C8  UNL     1     -28.262  -7.771  -6.790  1.00  0.00     0.036 C 
HETATM   15  C9  UNL     1     -27.837  -7.105  -8.082  1.00  0.00     0.076 C 
HETATM   16  S1  UNL     1     -27.255  -5.515  -7.454  1.00  0.00    -0.160 SA
HETATM   17  C10 UNL     1     -28.381  -5.428  -6.055  1.00  0.00     0.093 C 
BRANCH  17  18
HETATM   18  C11 UNL     1     -29.505  -4.484  -6.455  1.00  0.00     0.181 C 
BRANCH  18  19
HETATM   19  O1  UNL     1     -29.017  -3.735  -7.542  1.00  0.00    -0.400 OA
ATOM     20  H1  UNL     1     -28.660  -4.366  -8.156  1.00  0.00     0.209 HD
ENDBRANCH  18  19
ENDBRANCH  17  18
ENDBRANCH  11  13
ENDBRANCH  10  11
ENDBRANCH   6  10
TORSDOF 5
ENDMDL
MODEL 2
REMARK VINA RESULT: -6.662237090      1.504      2.260
REMARK  5 active torsions:
REMARK  status: ('A' for Active; 'I' for Inactive)
REMARK    1  A    between atoms: C5_6  and  C6_7 
REMARK    2  A    between atoms: C6_7  and  N2_8 
REMARK    3  A    between atoms: N2_8  and  C7_10 
REMARK    4  A    between atoms: C10_14  and  C11_15 
REMARK    5  A    between atoms: C11_15  and  O1_16 
ROOT
HETATM    1  N1  UNL     1     -27.525  -5.052  -1.399  1.00  0.00    -0.195 NA
HETATM    2  C1  UNL     1     -28.503  -5.658  -1.368  1.00  0.00     0.092 C 
HETATM    3  C2  UNL     1     -29.768  -6.415  -1.311  1.00  0.00     0.292 C 
HETATM    4  C3  UNL     1     -30.964  -5.531  -1.547  1.00  0.00     0.050 C 
HETATM    5  C4  UNL     1     -31.822  -6.387  -2.438  1.00  0.00     0.041 C 
HETATM    6  C5  UNL     1     -30.793  -7.112  -3.295  1.00  0.00     0.225 C 
HETATM    7  N3  UNL     1     -29.792  -7.464  -2.281  1.00  0.00    -0.050 N 
ATOM      8  H31 UNL     1     -29.953  -8.383  -1.868  1.00  0.00     0.279 HD
ATOM      9  H32 UNL     1     -28.872  -7.655  -2.680  1.00  0.00     0.279 HD
ENDROOT
BRANCH   6  10
HETATM   10  C6  UNL     1     -30.239  -6.184  -4.321  1.00  0.00     0.088 C 
BRANCH  10  11
HETATM   11  N2  UNL     1     -29.054  -6.578  -4.945  1.00  0.00    -0.394 N 
ATOM     12  H2  UNL     1     -28.402  -7.183  -4.445  1.00  0.00     0.159 HD
BRANCH  11  13
HETATM   13  C7  UNL     1     -28.738  -6.147  -6.269  1.00  0.00     0.097 C 
HETATM   14  C8  UNL     1     -27.839  -6.916  -7.081  1.00  0.00     0.036 C 
HETATM   15  C9  UNL     1     -27.264  -6.073  -8.200  1.00  0.00     0.076 C 
HETATM   16  S1  UNL     1     -27.001  -4.512  -7.330  1.00  0.00    -0.160 SA
HETATM   17  C10 UNL     1     -28.370  -4.692  -6.177  1.00  0.00     0.093 C 
BRANCH  17  18
HETATM   18  C11 UNL     1     -29.504  -3.827  -6.703  1.00  0.00     0.181 C 
BRANCH  18  19
HETATM   19  O1  UNL     1     -29.242  -2.521  -6.246  1.00  0.00    -0.400 OA
ATOM     20  H1  UNL     1     -29.084  -1.998  -7.022  1.00  0.00     0.209 HD
ENDBRANCH  18  19
ENDBRANCH  17  18
ENDBRANCH  11  13
ENDBRANCH  10  11
ENDBRANCH   6  10
TORSDOF 5
ENDMDL
MODEL 3
REMARK VINA RESULT: -6.065407933      1.856      2.328
REMARK  5 active torsions:
REMARK  status: ('A' for Active; 'I' for Inactive)
REMARK    1  A    between atoms: C5_6  and  C6_7 
REMARK    2  A    between atoms: C6_7  and  N2_8 
REMARK    3  A    between atoms: N2_8  and  C7_10 
REMARK    4  A    between atoms: C10_14  and  C11_15 
REMARK    5  A    between atoms: C11_15  and  O1_16 
ROOT
HETATM    1  N1  UNL     1     -32.247  -8.611  -0.663  1.00  0.00    -0.195 NA
HETATM    2  C1  UNL     1     -31.625  -7.646  -0.751  1.00  0.00     0.092 C 
HETATM    3  C2  UNL     1     -30.810  -6.420  -0.845  1.00  0.00     0.292 C 
HETATM    4  C3  UNL     1     -29.346  -6.729  -1.009  1.00  0.00     0.050 C 
HETATM    5  C4  UNL     1     -28.921  -5.718  -2.039  1.00  0.00     0.041 C 
HETATM    6  C5  UNL     1     -30.144  -5.629  -2.943  1.00  0.00     0.225 C 
HETATM    7  N3  UNL     1     -31.220  -5.606  -1.945  1.00  0.00    -0.050 N 
ATOM      8  H31 UNL     1     -31.478  -4.660  -1.664  1.00  0.00     0.279 HD
ATOM      9  H32 UNL     1     -32.123  -5.883  -2.329  1.00  0.00     0.279 HD
ENDROOT
BRANCH   6  10
HETATM   10  C6  UNL     1     -30.222  -6.835  -3.814  1.00  0.00     0.088 C 
BRANCH  10  11
HETATM   11  N2  UNL     1     -30.074  -6.624  -5.187  1.00  0.00    -0.394 N 
ATOM     12  H2  UNL     1     -30.894  -6.398  -5.750  1.00  0.00     0.159 HD
BRANCH  11  13
HETATM   13  C7  UNL     1     -28.796  -6.721  -5.816  1.00  0.00     0.097 C 
HETATM   14  C8  UNL     1     -28.192  -5.560  -6.404  1.00  0.00     0.036 C 
HETATM   15  C9  UNL     1     -27.133  -5.953  -7.412  1.00  0.00     0.076 C 
HETATM   16  S1  UNL     1     -27.937  -7.369  -8.194  1.00  0.00    -0.160 SA
HETATM   17  C10 UNL     1     -28.857  -7.903  -6.744  1.00  0.00     0.093 C 
BRANCH  17  18
HETATM   18  C11 UNL     1     -28.099  -9.080  -6.151  1.00  0.00     0.181 C 
BRANCH  18  19
HETATM   19  O1  UNL     1     -29.047 -10.105  -5.974  1.00  0.00    -0.400 OA
ATOM     20  H1  UNL     1     -29.898  -9.687  -6.025  1.00  0.00     0.209 HD
ENDBRANCH  18  19
ENDBRANCH  17  18
ENDBRANCH  11  13
ENDBRANCH  10  11
ENDBRANCH   6  10
TORSDOF 5
ENDMDL
MODEL 4
REMARK VINA RESULT: -5.982928275      2.079      3.069
REMARK  5 active torsions:
REMARK  status: ('A' for Active; 'I' for Inactive)
REMARK    1  A    between atoms: C5_6  and  C6_7 
REMARK    2  A    between atoms: C6_7  and  N2_8 
REMARK    3  A    between atoms: N2_8  and  C7_10 
REMARK    4  A    between atoms: C10_14  and  C11_15 
REMARK    5  A    between atoms: C11_15  and  O1_16 
ROOT
HETATM    1  N1  UNL     1     -27.305  -4.898  -1.260  1.00  0.00    -0.195 NA
HETATM    2  C1  UNL     1     -28.231  -5.566  -1.408  1.00  0.00     0.092 C 
HETATM    3  C2  UNL     1     -29.432  -6.405  -1.580  1.00  0.00     0.292 C 
HETATM    4  C3  UNL     1     -30.674  -5.576  -1.781  1.00  0.00     0.050 C 
HETATM    5  C4  UNL     1     -31.390  -6.334  -2.865  1.00  0.00     0.041 C 
HETATM    6  C5  UNL     1     -30.244  -6.842  -3.730  1.00  0.00     0.225 C 
HETATM    7  N3  UNL     1     -29.298  -7.284  -2.698  1.00  0.00    -0.050 N 
ATOM      8  H31 UNL     1     -29.416  -8.266  -2.447  1.00  0.00     0.279 HD
ATOM      9  H32 UNL     1     -28.339  -7.346  -3.040  1.00  0.00     0.279 HD
ENDROOT
BRANCH   6  10
HETATM   10  C6  UNL     1     -29.690  -5.727  -4.548  1.00  0.00     0.088 C 
BRANCH  10  11
HETATM   11  N2  UNL     1     -29.486  -5.989  -5.904  1.00  0.00    -0.394 N 
ATOM     12  H2  UNL     1     -30.262  -6.333  -6.470  1.00  0.00     0.159 HD
BRANCH  11  13
HETATM   13  C7  UNL     1     -28.211  -5.783  -6.513  1.00  0.00     0.097 C 
HETATM   14  C8  UNL     1     -27.522  -4.536  -6.338  1.00  0.00     0.036 C 
HETATM   15  C9  UNL     1     -26.482  -4.336  -7.420  1.00  0.00     0.076 C 
HETATM   16  S1  UNL     1     -27.373  -4.981  -8.852  1.00  0.00    -0.160 SA
HETATM   17  C10 UNL     1     -28.344  -6.199  -7.952  1.00  0.00     0.093 C 
BRANCH  17  18
HETATM   18  C11 UNL     1     -27.676  -7.546  -8.176  1.00  0.00     0.181 C 
BRANCH  18  19
HETATM   19  O1  UNL     1     -28.574  -8.513  -7.686  1.00  0.00    -0.400 OA
ATOM     20  H1  UNL     1     -29.247  -8.033  -7.219  1.00  0.00     0.209 HD
ENDBRANCH  18  19
ENDBRANCH  17  18
ENDBRANCH  11  13
ENDBRANCH  10  11
ENDBRANCH   6  10
TORSDOF 5
ENDMDL
MODEL 5
REMARK VINA RESULT: -5.881302501      1.537      2.072
REMARK  5 active torsions:
REMARK  status: ('A' for Active; 'I' for Inactive)
REMARK    1  A    between atoms: C5_6  and  C6_7 
REMARK    2  A    between atoms: C6_7  and  N2_8 
REMARK    3  A    between atoms: N2_8  and  C7_10 
REMARK    4  A    between atoms: C10_14  and  C11_15 
REMARK    5  A    between atoms: C11_15  and  O1_16 
ROOT
HETATM    1  N1  UNL     1     -31.995  -8.567  -1.065  1.00  0.00    -0.195 NA
HETATM    2  C1  UNL     1     -31.372  -7.598  -1.078  1.00  0.00     0.092 C 
HETATM    3  C2  UNL     1     -30.558  -6.368  -1.075  1.00  0.00     0.292 C 
HETATM    4  C3  UNL     1     -29.084  -6.669  -1.131  1.00  0.00     0.050 C 
HETATM    5  C4  UNL     1     -28.583  -5.629  -2.097  1.00  0.00     0.041 C 
HETATM    6  C5  UNL     1     -29.732  -5.518  -3.091  1.00  0.00     0.225 C 
HETATM    7  N3  UNL     1     -30.883  -5.525  -2.181  1.00  0.00    -0.050 N 
ATOM      8  H31 UNL     1     -31.168  -4.588  -1.896  1.00  0.00     0.279 HD
ATOM      9  H32 UNL     1     -31.752  -5.795  -2.642  1.00  0.00     0.279 HD
ENDROOT
BRANCH   6  10
HETATM   10  C6  UNL     1     -29.736  -6.700  -3.998  1.00  0.00     0.088 C 
BRANCH  10  11
HETATM   11  N2  UNL     1     -29.698  -6.436  -5.369  1.00  0.00    -0.394 N 
ATOM     12  H2  UNL     1     -30.562  -6.471  -5.910  1.00  0.00     0.159 HD
BRANCH  11  13
HETATM   13  C7  UNL     1     -28.470  -6.118  -6.026  1.00  0.00     0.097 C 
HETATM   14  C8  UNL     1     -27.884  -4.818  -5.867  1.00  0.00     0.036 C 
HETATM   15  C9  UNL     1     -26.910  -4.523  -6.988  1.00  0.00     0.076 C 
HETATM   16  S1  UNL     1     -27.800  -5.234  -8.389  1.00  0.00    -0.160 SA
HETATM   17  C10 UNL     1     -28.627  -6.535  -7.462  1.00  0.00     0.093 C 
BRANCH  17  18
HETATM   18  C11 UNL     1     -27.855  -7.819  -7.726  1.00  0.00     0.181 C 
BRANCH  18  19
HETATM   19  O1  UNL     1     -28.739  -8.873  -7.426  1.00  0.00    -0.400 OA
ATOM     20  H1  UNL     1     -29.614  -8.520  -7.533  1.00  0.00     0.209 HD
ENDBRANCH  18  19
ENDBRANCH  17  18
ENDBRANCH  11  13
ENDBRANCH  10  11
ENDBRANCH   6  10
TORSDOF 5
ENDMDL
