MODEL 1
REMARK VINA RESULT: -8.154730337      0.000      0.000
REMARK  7 active torsions:
REMARK  status: ('A' for Active; 'I' for Inactive)
REMARK    1  A    between atoms: C2_2  and  C3_3 
REMARK    2  A    between atoms: N1_8  and  C8_9 
REMARK    3  A    between atoms: C8_9  and  C9_10 
REMARK    4  A    between atoms: C8_9  and  C10_15 
REMARK    5  A    between atoms: N2_11  and  O1_13 
REMARK    6  A    between atoms: C10_15  and  S1_16 
REMARK    7  A    between atoms: S1_16  and  C11_17 
ROOT
HETATM    1  C8  UNL     1     -15.478 -29.544 -11.419  1.00  0.00     0.134 C 
ENDROOT
BRANCH   1   2
HETATM    2  N1  UNL     1     -14.374 -30.295 -11.755  1.00  0.00    -0.378 N 
HETATM    3  C7  UNL     1     -13.925 -31.330 -10.915  1.00  0.00     0.059 C 
HETATM    4  C6  UNL     1     -13.298 -32.401 -11.789  1.00  0.00     0.045 C 
HETATM    5  C5  UNL     1     -13.689 -32.261 -13.241  1.00  0.00     0.016 C 
HETATM    6  C3  UNL     1     -13.400 -30.892 -13.802  1.00  0.00    -0.024 C 
HETATM    7  C4  UNL     1     -14.545 -30.555 -14.748  1.00  0.00     0.017 C 
HETATM    8  C14 UNL     1     -13.389 -29.867 -12.654  1.00  0.00     0.088 C 
HETATM    9  C15 UNL     1     -13.438 -28.472 -13.161  1.00  0.00     0.033 C 
BRANCH   6  10
HETATM   10  C2  UNL     1     -12.148 -30.850 -14.614  1.00  0.00     0.006 C 
HETATM   11  C1  UNL     1     -12.286 -30.206 -15.965  1.00  0.00     0.006 C 
ENDBRANCH   6  10
ENDBRANCH   1   2
BRANCH   1  12
HETATM   12  C9  UNL     1     -16.399 -30.382 -10.566  1.00  0.00     0.112 C 
HETATM   13  N2  UNL     1     -17.087 -31.331 -11.089  1.00  0.00    -0.282 N 
ATOM     14  H2  UNL     1     -16.994 -31.500 -12.090  1.00  0.00     0.192 HD
BRANCH  13  15
HETATM   15  O1  UNL     1     -17.932 -32.119 -10.376  1.00  0.00    -0.290 OA
ATOM     16  H1  UNL     1     -18.730 -31.797  -9.973  1.00  0.00     0.244 HD
ENDBRANCH  13  15
ENDBRANCH   1  12
BRANCH   1  17
HETATM   17  C10 UNL     1     -15.105 -28.362 -10.511  1.00  0.00     0.113 C 
BRANCH  17  18
HETATM   18  S1  UNL     1     -16.630 -27.562  -9.896  1.00  0.00    -0.092 SA
BRANCH  18  19
HETATM   19  C11 UNL     1     -17.216 -26.477 -11.189  1.00  0.00     0.136 C 
HETATM   20  N3  UNL     1     -18.171 -26.778 -11.992  1.00  0.00    -0.369 N 
HETATM   21  C12 UNL     1     -18.459 -25.748 -12.942  1.00  0.00     0.141 C 
ATOM     22  H3  UNL     1     -18.675 -27.665 -11.956  1.00  0.00     0.161 HD
HETATM   23  C13 UNL     1     -17.720 -24.535 -12.416  1.00  0.00     0.141 C 
HETATM   24  N4  UNL     1     -16.754 -25.180 -11.530  1.00  0.00    -0.369 N 
ATOM     25  H4  UNL     1     -15.882 -24.762 -11.207  1.00  0.00     0.161 HD
ENDBRANCH  18  19
ENDBRANCH  17  18
ENDBRANCH   1  17
TORSDOF 7
ENDMDL
MODEL 2
REMARK VINA RESULT: -7.930746689      0.656      1.142
REMARK  7 active torsions:
REMARK  status: ('A' for Active; 'I' for Inactive)
REMARK    1  A    between atoms: C2_2  and  C3_3 
REMARK    2  A    between atoms: N1_8  and  C8_9 
REMARK    3  A    between atoms: C8_9  and  C9_10 
REMARK    4  A    between atoms: C8_9  and  C10_15 
REMARK    5  A    between atoms: N2_11  and  O1_13 
REMARK    6  A    between atoms: C10_15  and  S1_16 
REMARK    7  A    between atoms: S1_16  and  C11_17 
ROOT
HETATM    1  C8  UNL     1     -15.777 -29.578 -11.646  1.00  0.00     0.134 C 
ENDROOT
BRANCH   1   2
HETATM    2  N1  UNL     1     -14.598 -30.271 -11.810  1.00  0.00    -0.378 N 
HETATM    3  C7  UNL     1     -14.165 -31.194 -10.841  1.00  0.00     0.059 C 
HETATM    4  C6  UNL     1     -13.388 -32.286 -11.551  1.00  0.00     0.045 C 
HETATM    5  C5  UNL     1     -13.645 -32.301 -13.040  1.00  0.00     0.016 C 
HETATM    6  C3  UNL     1     -13.393 -30.967 -13.696  1.00  0.00    -0.024 C 
HETATM    7  C4  UNL     1     -14.461 -30.799 -14.769  1.00  0.00     0.017 C 
HETATM    8  C14 UNL     1     -13.561 -29.850 -12.652  1.00  0.00     0.088 C 
HETATM    9  C15 UNL     1     -13.652 -28.511 -13.288  1.00  0.00     0.033 C 
BRANCH   6  10
HETATM   10  C2  UNL     1     -12.074 -30.903 -14.392  1.00  0.00     0.006 C 
HETATM   11  C1  UNL     1     -11.274 -32.175 -14.363  1.00  0.00     0.006 C 
ENDBRANCH   6  10
ENDBRANCH   1   2
BRANCH   1  12
HETATM   12  C9  UNL     1     -16.912 -30.564 -11.528  1.00  0.00     0.112 C 
HETATM   13  N2  UNL     1     -17.044 -31.280 -10.471  1.00  0.00    -0.282 N 
ATOM     14  H2  UNL     1     -16.365 -31.164  -9.719  1.00  0.00     0.192 HD
BRANCH  13  15
HETATM   15  O1  UNL     1     -18.044 -32.185 -10.304  1.00  0.00    -0.290 OA
ATOM     16  H1  UNL     1     -18.710 -32.107  -9.631  1.00  0.00     0.244 HD
ENDBRANCH  13  15
ENDBRANCH   1  12
BRANCH   1  17
HETATM   17  C10 UNL     1     -15.806 -28.817 -10.312  1.00  0.00     0.113 C 
BRANCH  17  18
HETATM   18  S1  UNL     1     -15.347 -27.070 -10.597  1.00  0.00    -0.092 SA
BRANCH  18  19
HETATM   19  C11 UNL     1     -16.734 -26.286 -11.407  1.00  0.00     0.136 C 
HETATM   20  N3  UNL     1     -16.773 -25.036 -11.698  1.00  0.00    -0.369 N 
HETATM   21  C12 UNL     1     -17.989 -24.643 -12.343  1.00  0.00     0.141 C 
ATOM     22  H3  UNL     1     -16.014 -24.388 -11.489  1.00  0.00     0.161 HD
HETATM   23  C13 UNL     1     -18.646 -25.949 -12.734  1.00  0.00     0.141 C 
HETATM   24  N4  UNL     1     -17.951 -26.872 -11.838  1.00  0.00    -0.369 N 
ATOM     25  H4  UNL     1     -18.289 -27.794 -11.566  1.00  0.00     0.161 HD
ENDBRANCH  18  19
ENDBRANCH  17  18
ENDBRANCH   1  17
TORSDOF 7
ENDMDL
MODEL 3
REMARK VINA RESULT: -7.281355388      1.705      2.602
REMARK  7 active torsions:
REMARK  status: ('A' for Active; 'I' for Inactive)
REMARK    1  A    between atoms: C2_2  and  C3_3 
REMARK    2  A    between atoms: N1_8  and  C8_9 
REMARK    3  A    between atoms: C8_9  and  C9_10 
REMARK    4  A    between atoms: C8_9  and  C10_15 
REMARK    5  A    between atoms: N2_11  and  O1_13 
REMARK    6  A    between atoms: C10_15  and  S1_16 
REMARK    7  A    between atoms: S1_16  and  C11_17 
ROOT
HETATM    1  C8  UNL     1     -14.671 -30.125 -11.931  1.00  0.00     0.134 C 
ENDROOT
BRANCH   1   2
HETATM    2  N1  UNL     1     -13.915 -29.401 -12.827  1.00  0.00    -0.378 N 
HETATM    3  C7  UNL     1     -13.452 -28.114 -12.502  1.00  0.00     0.059 C 
HETATM    4  C6  UNL     1     -12.128 -27.902 -13.212  1.00  0.00     0.045 C 
HETATM    5  C5  UNL     1     -11.516 -29.198 -13.689  1.00  0.00     0.016 C 
HETATM    6  C3  UNL     1     -12.449 -30.010 -14.551  1.00  0.00    -0.024 C 
HETATM    7  C4  UNL     1     -12.213 -31.472 -14.194  1.00  0.00     0.017 C 
HETATM    8  C14 UNL     1     -13.903 -29.645 -14.206  1.00  0.00     0.088 C 
HETATM    9  C15 UNL     1     -14.865 -30.626 -14.770  1.00  0.00     0.033 C 
BRANCH   6  10
HETATM   10  C2  UNL     1     -12.157 -29.874 -16.009  1.00  0.00     0.006 C 
HETATM   11  C1  UNL     1     -11.083 -30.786 -16.532  1.00  0.00     0.006 C 
ENDBRANCH   6  10
ENDBRANCH   1   2
BRANCH   1  12
HETATM   12  C9  UNL     1     -13.746 -30.895 -11.021  1.00  0.00     0.112 C 
HETATM   13  N2  UNL     1     -14.116 -31.208  -9.832  1.00  0.00    -0.282 N 
ATOM     14  H2  UNL     1     -15.046 -30.924  -9.524  1.00  0.00     0.192 HD
BRANCH  13  15
HETATM   15  O1  UNL     1     -13.331 -31.899  -8.966  1.00  0.00    -0.290 OA
ATOM     16  H1  UNL     1     -13.672 -32.362  -8.209  1.00  0.00     0.244 HD
ENDBRANCH  13  15
ENDBRANCH   1  12
BRANCH   1  17
HETATM   17  C10 UNL     1     -15.451 -29.208 -10.978  1.00  0.00     0.113 C 
BRANCH  17  18
HETATM   18  S1  UNL     1     -17.130 -28.923 -11.645  1.00  0.00    -0.092 SA
BRANCH  18  19
HETATM   19  C11 UNL     1     -17.333 -27.156 -11.826  1.00  0.00     0.136 C 
HETATM   20  N3  UNL     1     -16.390 -26.309 -11.628  1.00  0.00    -0.369 N 
HETATM   21  C12 UNL     1     -16.795 -24.952 -11.835  1.00  0.00     0.141 C 
ATOM     22  H3  UNL     1     -15.445 -26.576 -11.351  1.00  0.00     0.161 HD
HETATM   23  C13 UNL     1     -18.131 -25.062 -12.539  1.00  0.00     0.141 C 
HETATM   24  N4  UNL     1     -18.497 -26.435 -12.195  1.00  0.00    -0.369 N 
ATOM     25  H4  UNL     1     -19.443 -26.814 -12.216  1.00  0.00     0.161 HD
ENDBRANCH  18  19
ENDBRANCH  17  18
ENDBRANCH   1  17
TORSDOF 7
ENDMDL
MODEL 4
REMARK VINA RESULT: -7.176979858      1.635      2.322
REMARK  7 active torsions:
REMARK  status: ('A' for Active; 'I' for Inactive)
REMARK    1  A    between atoms: C2_2  and  C3_3 
REMARK    2  A    between atoms: N1_8  and  C8_9 
REMARK    3  A    between atoms: C8_9  and  C9_10 
REMARK    4  A    between atoms: C8_9  and  C10_15 
REMARK    5  A    between atoms: N2_11  and  O1_13 
REMARK    6  A    between atoms: C10_15  and  S1_16 
REMARK    7  A    between atoms: S1_16  and  C11_17 
ROOT
HETATM    1  C8  UNL     1     -15.278 -29.805 -11.646  1.00  0.00     0.134 C 
ENDROOT
BRANCH   1   2
HETATM    2  N1  UNL     1     -14.436 -29.209 -12.559  1.00  0.00    -0.378 N 
HETATM    3  C7  UNL     1     -13.927 -27.918 -12.332  1.00  0.00     0.059 C 
HETATM    4  C6  UNL     1     -12.555 -27.838 -12.976  1.00  0.00     0.045 C 
HETATM    5  C5  UNL     1     -11.984 -29.202 -13.286  1.00  0.00     0.016 C 
HETATM    6  C3  UNL     1     -12.907 -30.053 -14.121  1.00  0.00    -0.024 C 
HETATM    7  C4  UNL     1     -12.767 -31.481 -13.610  1.00  0.00     0.017 C 
HETATM    8  C14 UNL     1     -14.357 -29.590 -13.904  1.00  0.00     0.088 C 
HETATM    9  C15 UNL     1     -15.335 -30.578 -14.429  1.00  0.00     0.033 C 
BRANCH   6  10
HETATM   10  C2  UNL     1     -12.526 -30.077 -15.564  1.00  0.00     0.006 C 
HETATM   11  C1  UNL     1     -11.187 -29.471 -15.881  1.00  0.00     0.006 C 
ENDBRANCH   6  10
ENDBRANCH   1   2
BRANCH   1  12
HETATM   12  C9  UNL     1     -14.778 -29.509 -10.253  1.00  0.00     0.112 C 
HETATM   13  N2  UNL     1     -14.819 -30.412  -9.342  1.00  0.00    -0.282 N 
ATOM     14  H2  UNL     1     -15.198 -31.327  -9.584  1.00  0.00     0.192 HD
BRANCH  13  15
HETATM   15  O1  UNL     1     -14.385 -30.208  -8.071  1.00  0.00    -0.290 OA
ATOM     16  H1  UNL     1     -14.245 -30.912  -7.449  1.00  0.00     0.244 HD
ENDBRANCH  13  15
ENDBRANCH   1  12
BRANCH   1  17
HETATM   17  C10 UNL     1     -16.681 -29.179 -11.676  1.00  0.00     0.113 C 
BRANCH  17  18
HETATM   18  S1  UNL     1     -16.686 -27.647 -10.676  1.00  0.00    -0.092 SA
BRANCH  18  19
HETATM   19  C11 UNL     1     -17.417 -26.363 -11.682  1.00  0.00     0.136 C 
HETATM   20  N3  UNL     1     -18.467 -26.534 -12.400  1.00  0.00    -0.369 N 
HETATM   21  C12 UNL     1     -18.861 -25.360 -13.116  1.00  0.00     0.141 C 
ATOM     22  H3  UNL     1     -18.971 -27.420 -12.454  1.00  0.00     0.161 HD
HETATM   23  C13 UNL     1     -18.051 -24.246 -12.486  1.00  0.00     0.141 C 
HETATM   24  N4  UNL     1     -16.988 -25.022 -11.850  1.00  0.00    -0.369 N 
ATOM     25  H4  UNL     1     -16.079 -24.655 -11.570  1.00  0.00     0.161 HD
ENDBRANCH  18  19
ENDBRANCH  17  18
ENDBRANCH   1  17
TORSDOF 7
ENDMDL
MODEL 5
REMARK VINA RESULT: -6.917518597      2.203      5.473
REMARK  7 active torsions:
REMARK  status: ('A' for Active; 'I' for Inactive)
REMARK    1  A    between atoms: C2_2  and  C3_3 
REMARK    2  A    between atoms: N1_8  and  C8_9 
REMARK    3  A    between atoms: C8_9  and  C9_10 
REMARK    4  A    between atoms: C8_9  and  C10_15 
REMARK    5  A    between atoms: N2_11  and  O1_13 
REMARK    6  A    between atoms: C10_15  and  S1_16 
REMARK    7  A    between atoms: S1_16  and  C11_17 
ROOT
HETATM    1  C8  UNL     1     -15.472 -29.608 -10.089  1.00  0.00     0.134 C 
ENDROOT
BRANCH   1   2
HETATM    2  N1  UNL     1     -15.982 -28.772 -11.057  1.00  0.00    -0.378 N 
HETATM    3  C7  UNL     1     -16.820 -29.270 -12.069  1.00  0.00     0.059 C 
HETATM    4  C6  UNL     1     -17.790 -28.169 -12.456  1.00  0.00     0.045 C 
HETATM    5  C5  UNL     1     -17.856 -27.070 -11.422  1.00  0.00     0.016 C 
HETATM    6  C3  UNL     1     -16.505 -26.488 -11.092  1.00  0.00    -0.024 C 
HETATM    7  C4  UNL     1     -16.509 -26.194  -9.597  1.00  0.00     0.017 C 
HETATM    8  C14 UNL     1     -15.417 -27.534 -11.387  1.00  0.00     0.088 C 
HETATM    9  C15 UNL     1     -14.112 -27.156 -10.786  1.00  0.00     0.033 C 
BRANCH   6  10
HETATM   10  C2  UNL     1     -16.249 -25.188 -11.782  1.00  0.00     0.006 C 
HETATM   11  C1  UNL     1     -17.455 -24.558 -12.421  1.00  0.00     0.006 C 
ENDBRANCH   6  10
ENDBRANCH   1   2
BRANCH   1  12
HETATM   12  C9  UNL     1     -16.388 -29.584  -8.890  1.00  0.00     0.112 C 
HETATM   13  N2  UNL     1     -16.336 -30.520  -8.013  1.00  0.00    -0.282 N 
ATOM     14  H2  UNL     1     -15.664 -31.275  -8.150  1.00  0.00     0.192 HD
BRANCH  13  15
HETATM   15  O1  UNL     1     -17.133 -30.556  -6.913  1.00  0.00    -0.290 OA
ATOM     16  H1  UNL     1     -17.105 -31.256  -6.272  1.00  0.00     0.244 HD
ENDBRANCH  13  15
ENDBRANCH   1  12
BRANCH   1  17
HETATM   17  C10 UNL     1     -15.492 -31.077 -10.541  1.00  0.00     0.113 C 
BRANCH  17  18
HETATM   18  S1  UNL     1     -13.836 -31.545 -11.160  1.00  0.00    -0.092 SA
BRANCH  18  19
HETATM   19  C11 UNL     1     -13.654 -30.816 -12.782  1.00  0.00     0.136 C 
HETATM   20  N3  UNL     1     -13.012 -29.728 -13.004  1.00  0.00    -0.369 N 
HETATM   21  C12 UNL     1     -13.006 -29.345 -14.383  1.00  0.00     0.141 C 
ATOM     22  H3  UNL     1     -12.552 -29.188 -12.271  1.00  0.00     0.161 HD
HETATM   23  C13 UNL     1     -13.500 -30.574 -15.116  1.00  0.00     0.141 C 
HETATM   24  N4  UNL     1     -14.158 -31.286 -14.022  1.00  0.00    -0.369 N 
ATOM     25  H4  UNL     1     -14.868 -32.008 -14.134  1.00  0.00     0.161 HD
ENDBRANCH  18  19
ENDBRANCH  17  18
ENDBRANCH   1  17
TORSDOF 7
ENDMDL
