MODEL 1
REMARK VINA RESULT: -8.193106911      0.000      0.000
REMARK  6 active torsions:
REMARK  status: ('A' for Active; 'I' for Inactive)
REMARK    1  A    between atoms: C3_4  and  O1_5 
REMARK    2  A    between atoms: O1_5  and  C4_6 
REMARK    3  A    between atoms: C4_6  and  C5_7 
REMARK    4  A    between atoms: C11_15  and  N3_16 
REMARK    5  A    between atoms: C12_21  and  O2_22 
REMARK    6  A    between atoms: O2_22  and  C13_23 
ROOT
HETATM    1  N1  UNL     1     -13.435 -27.723 -12.558  1.00  0.00    -0.191 NA
HETATM    2  C1  UNL     1     -13.978 -28.266 -11.705  1.00  0.00     0.108 C 
HETATM    3  C2  UNL     1     -14.676 -28.942 -10.645  1.00  0.00     0.147 A 
HETATM    4  C3  UNL     1     -15.518 -28.221  -9.778  1.00  0.00     0.182 A 
HETATM    5  N2  UNL     1     -16.155 -28.880  -8.798  1.00  0.00    -0.169 N 
ATOM      6  H2  UNL     1     -16.768 -28.368  -8.164  1.00  0.00     0.186 HD
HETATM    7  C11 UNL     1     -16.002 -30.178  -8.643  1.00  0.00     0.679 A 
HETATM    8  N4  UNL     1     -15.197 -30.865  -9.473  1.00  0.00    -0.169 N 
ATOM      9  H4  UNL     1     -15.098 -31.870  -9.328  1.00  0.00     0.186 HD
HETATM   10  C12 UNL     1     -14.516 -30.299 -10.481  1.00  0.00     0.183 A 
ENDROOT
BRANCH   4  11
HETATM   11  O1  UNL     1     -15.630 -26.905  -9.986  1.00  0.00    -0.334 OA
BRANCH  11  12
HETATM   12  C4  UNL     1     -16.375 -25.889 -10.391  1.00  0.00     0.182 C 
BRANCH  12  13
HETATM   13  C5  UNL     1     -16.877 -25.828 -11.822  1.00  0.00     0.010 C 
HETATM   14  C6  UNL     1     -17.996 -26.783 -12.032  1.00  0.00     0.007 C 
HETATM   15  C7  UNL     1     -19.273 -26.164 -12.524  1.00  0.00     0.000 C 
HETATM   16  C8  UNL     1     -18.885 -25.201 -13.650  1.00  0.00     0.000 C 
HETATM   17  C9  UNL     1     -18.265 -24.019 -12.895  1.00  0.00     0.000 C 
HETATM   18  C10 UNL     1     -16.946 -24.467 -12.322  1.00  0.00     0.007 C 
ENDBRANCH  12  13
ENDBRANCH  11  12
ENDBRANCH   4  11
BRANCH  10  19
HETATM   19  O2  UNL     1     -13.684 -30.970 -11.349  1.00  0.00    -0.329 OA
BRANCH  19  20
HETATM   20  C13 UNL     1     -14.083 -31.982 -12.181  1.00  0.00     0.130 C 
HETATM   21  C14 UNL     1     -15.164 -31.429 -13.104  1.00  0.00     0.032 C 
HETATM   22  C15 UNL     1     -14.455 -30.901 -14.320  1.00  0.00     0.002 C 
HETATM   23  C16 UNL     1     -13.032 -31.404 -14.258  1.00  0.00     0.002 C 
HETATM   24  C17 UNL     1     -13.001 -32.431 -13.154  1.00  0.00     0.032 C 
ENDBRANCH  19  20
ENDBRANCH  10  19
BRANCH   7  25
HETATM   25  N3  UNL     1     -16.628 -30.813  -7.684  1.00  0.00    -0.234 N 
ATOM     26  H32 UNL     1     -16.164 -30.947  -6.786  1.00  0.00     0.174 HD
ATOM     27  H31 UNL     1     -17.573 -31.171  -7.830  1.00  0.00     0.174 HD
ENDBRANCH   7  25
TORSDOF 6
ENDMDL
MODEL 2
REMARK VINA RESULT: -8.013598859      3.414      7.209
REMARK  6 active torsions:
REMARK  status: ('A' for Active; 'I' for Inactive)
REMARK    1  A    between atoms: C3_4  and  O1_5 
REMARK    2  A    between atoms: O1_5  and  C4_6 
REMARK    3  A    between atoms: C4_6  and  C5_7 
REMARK    4  A    between atoms: C11_15  and  N3_16 
REMARK    5  A    between atoms: C12_21  and  O2_22 
REMARK    6  A    between atoms: O2_22  and  C13_23 
ROOT
HETATM    1  N1  UNL     1     -14.683 -30.749 -14.786  1.00  0.00    -0.191 NA
HETATM    2  C1  UNL     1     -14.140 -29.915 -14.216  1.00  0.00     0.108 C 
HETATM    3  C2  UNL     1     -13.458 -28.858 -13.517  1.00  0.00     0.147 A 
HETATM    4  C3  UNL     1     -12.147 -28.499 -13.881  1.00  0.00     0.182 A 
HETATM    5  N2  UNL     1     -11.538 -27.510 -13.210  1.00  0.00    -0.169 N 
ATOM      6  H2  UNL     1     -10.587 -27.241 -13.465  1.00  0.00     0.186 HD
HETATM    7  C11 UNL     1     -12.147 -26.880 -12.229  1.00  0.00     0.679 A 
HETATM    8  N4  UNL     1     -13.400 -27.225 -11.883  1.00  0.00    -0.169 N 
ATOM      9  H4  UNL     1     -13.847 -26.718 -11.119  1.00  0.00     0.186 HD
HETATM   10  C12 UNL     1     -14.094 -28.199 -12.490  1.00  0.00     0.183 A 
ENDROOT
BRANCH   4  11
HETATM   11  O1  UNL     1     -11.581 -29.178 -14.885  1.00  0.00    -0.334 OA
BRANCH  11  12
HETATM   12  C4  UNL     1     -10.609 -29.975 -15.298  1.00  0.00     0.182 C 
BRANCH  12  13
HETATM   13  C5  UNL     1     -10.867 -31.457 -15.502  1.00  0.00     0.010 C 
HETATM   14  C6  UNL     1      -9.824 -32.062 -16.369  1.00  0.00     0.007 C 
HETATM   15  C7  UNL     1      -9.076 -33.210 -15.754  1.00  0.00     0.000 C 
HETATM   16  C8  UNL     1     -10.126 -34.113 -15.100  1.00  0.00     0.000 C 
HETATM   17  C9  UNL     1     -10.526 -33.325 -13.846  1.00  0.00     0.000 C 
HETATM   18  C10 UNL     1     -11.303 -32.111 -14.282  1.00  0.00     0.007 C 
ENDBRANCH  12  13
ENDBRANCH  11  12
ENDBRANCH   4  11
BRANCH  10  19
HETATM   19  O2  UNL     1     -15.377 -28.578 -12.164  1.00  0.00    -0.329 OA
BRANCH  19  20
HETATM   20  C13 UNL     1     -15.759 -29.051 -10.937  1.00  0.00     0.130 C 
HETATM   21  C14 UNL     1     -17.049 -29.845 -11.124  1.00  0.00     0.032 C 
HETATM   22  C15 UNL     1     -16.638 -31.267 -11.385  1.00  0.00     0.002 C 
HETATM   23  C16 UNL     1     -15.167 -31.372 -11.057  1.00  0.00     0.002 C 
HETATM   24  C17 UNL     1     -14.804 -30.085 -10.360  1.00  0.00     0.032 C 
ENDBRANCH  19  20
ENDBRANCH  10  19
BRANCH   7  25
HETATM   25  N3  UNL     1     -11.544 -25.915 -11.580  1.00  0.00    -0.234 N 
ATOM     26  H32 UNL     1     -10.621 -25.607 -11.886  1.00  0.00     0.174 HD
ATOM     27  H31 UNL     1     -11.990 -25.472 -10.777  1.00  0.00     0.174 HD
ENDBRANCH   7  25
TORSDOF 6
ENDMDL
MODEL 3
REMARK VINA RESULT: -7.896116822      1.304      1.574
REMARK  6 active torsions:
REMARK  status: ('A' for Active; 'I' for Inactive)
REMARK    1  A    between atoms: C3_4  and  O1_5 
REMARK    2  A    between atoms: O1_5  and  C4_6 
REMARK    3  A    between atoms: C4_6  and  C5_7 
REMARK    4  A    between atoms: C11_15  and  N3_16 
REMARK    5  A    between atoms: C12_21  and  O2_22 
REMARK    6  A    between atoms: O2_22  and  C13_23 
ROOT
HETATM    1  N1  UNL     1     -13.019 -27.185 -12.199  1.00  0.00    -0.191 NA
HETATM    2  C1  UNL     1     -13.727 -28.037 -11.900  1.00  0.00     0.108 C 
HETATM    3  C2  UNL     1     -14.628 -29.098 -11.536  1.00  0.00     0.147 A 
HETATM    4  C3  UNL     1     -15.747 -28.829 -10.726  1.00  0.00     0.182 A 
HETATM    5  N2  UNL     1     -16.569 -29.839 -10.403  1.00  0.00    -0.169 N 
ATOM      6  H2  UNL     1     -17.384 -29.657  -9.817  1.00  0.00     0.186 HD
HETATM    7  C11 UNL     1     -16.341 -31.062 -10.832  1.00  0.00     0.679 A 
HETATM    8  N4  UNL     1     -15.271 -31.316 -11.606  1.00  0.00    -0.169 N 
ATOM      9  H4  UNL     1     -15.121 -32.274 -11.923  1.00  0.00     0.186 HD
HETATM   10  C12 UNL     1     -14.391 -30.377 -11.983  1.00  0.00     0.183 A 
ENDROOT
BRANCH   4  11
HETATM   11  O1  UNL     1     -15.922 -27.567 -10.321  1.00  0.00    -0.334 OA
BRANCH  11  12
HETATM   12  C4  UNL     1     -16.448 -26.374 -10.549  1.00  0.00     0.182 C 
BRANCH  12  13
HETATM   13  C5  UNL     1     -16.962 -26.014 -11.932  1.00  0.00     0.010 C 
HETATM   14  C6  UNL     1     -18.184 -26.791 -12.262  1.00  0.00     0.007 C 
HETATM   15  C7  UNL     1     -19.390 -25.963 -12.598  1.00  0.00     0.000 C 
HETATM   16  C8  UNL     1     -18.913 -24.868 -13.558  1.00  0.00     0.000 C 
HETATM   17  C9  UNL     1     -18.153 -23.908 -12.636  1.00  0.00     0.000 C 
HETATM   18  C10 UNL     1     -16.884 -24.589 -12.192  1.00  0.00     0.007 C 
ENDBRANCH  12  13
ENDBRANCH  11  12
ENDBRANCH   4  11
BRANCH  10  19
HETATM   19  O2  UNL     1     -13.286 -30.601 -12.774  1.00  0.00    -0.329 OA
BRANCH  19  20
HETATM   20  C13 UNL     1     -13.267 -31.423 -13.869  1.00  0.00     0.130 C 
HETATM   21  C14 UNL     1     -13.678 -30.594 -15.082  1.00  0.00     0.032 C 
HETATM   22  C15 UNL     1     -12.410 -30.032 -15.661  1.00  0.00     0.002 C 
HETATM   23  C16 UNL     1     -11.260 -30.754 -14.998  1.00  0.00     0.002 C 
HETATM   24  C17 UNL     1     -11.873 -31.906 -14.242  1.00  0.00     0.032 C 
ENDBRANCH  19  20
ENDBRANCH  10  19
BRANCH   7  25
HETATM   25  N3  UNL     1     -17.150 -32.042 -10.512  1.00  0.00    -0.234 N 
ATOM     26  H32 UNL     1     -18.010 -31.835 -10.004  1.00  0.00     0.174 HD
ATOM     27  H31 UNL     1     -16.925 -33.004 -10.766  1.00  0.00     0.174 HD
ENDBRANCH   7  25
TORSDOF 6
ENDMDL
MODEL 4
REMARK VINA RESULT: -7.458218417      2.679      4.253
REMARK  6 active torsions:
REMARK  status: ('A' for Active; 'I' for Inactive)
REMARK    1  A    between atoms: C3_4  and  O1_5 
REMARK    2  A    between atoms: O1_5  and  C4_6 
REMARK    3  A    between atoms: C4_6  and  C5_7 
REMARK    4  A    between atoms: C11_15  and  N3_16 
REMARK    5  A    between atoms: C12_21  and  O2_22 
REMARK    6  A    between atoms: O2_22  and  C13_23 
ROOT
HETATM    1  N1  UNL     1     -14.119 -30.527 -14.892  1.00  0.00    -0.191 NA
HETATM    2  C1  UNL     1     -14.037 -31.230 -13.989  1.00  0.00     0.108 C 
HETATM    3  C2  UNL     1     -13.950 -32.121 -12.863  1.00  0.00     0.147 A 
HETATM    4  C3  UNL     1     -14.935 -32.091 -11.858  1.00  0.00     0.182 A 
HETATM    5  N2  UNL     1     -14.825 -32.934 -10.820  1.00  0.00    -0.169 N 
ATOM      6  H2  UNL     1     -15.534 -32.921 -10.085  1.00  0.00     0.186 HD
HETATM    7  C11 UNL     1     -13.819 -33.778 -10.734  1.00  0.00     0.679 A 
HETATM    8  N4  UNL     1     -12.880 -33.805 -11.696  1.00  0.00    -0.169 N 
ATOM      9  H4  UNL     1     -12.112 -34.470 -11.603  1.00  0.00     0.186 HD
HETATM   10  C12 UNL     1     -12.898 -33.004 -12.771  1.00  0.00     0.183 A 
ENDROOT
BRANCH   4  11
HETATM   11  O1  UNL     1     -15.930 -31.210 -12.001  1.00  0.00    -0.334 OA
BRANCH  11  12
HETATM   12  C4  UNL     1     -16.573 -30.152 -11.535  1.00  0.00     0.182 C 
BRANCH  12  13
HETATM   13  C5  UNL     1     -16.206 -28.759 -12.015  1.00  0.00     0.010 C 
HETATM   14  C6  UNL     1     -17.324 -27.808 -11.785  1.00  0.00     0.007 C 
HETATM   15  C7  UNL     1     -16.978 -26.615 -10.941  1.00  0.00     0.000 C 
HETATM   16  C8  UNL     1     -15.638 -26.087 -11.463  1.00  0.00     0.000 C 
HETATM   17  C9  UNL     1     -14.632 -27.116 -10.932  1.00  0.00     0.000 C 
HETATM   18  C10 UNL     1     -14.839 -28.406 -11.683  1.00  0.00     0.007 C 
ENDBRANCH  12  13
ENDBRANCH  11  12
ENDBRANCH   4  11
BRANCH  10  19
HETATM   19  O2  UNL     1     -11.954 -33.004 -13.775  1.00  0.00    -0.329 OA
BRANCH  19  20
HETATM   20  C13 UNL     1     -10.657 -33.416 -13.622  1.00  0.00     0.130 C 
HETATM   21  C14 UNL     1     -10.449 -34.640 -14.507  1.00  0.00     0.032 C 
HETATM   22  C15 UNL     1      -9.977 -34.126 -15.839  1.00  0.00     0.002 C 
HETATM   23  C16 UNL     1      -9.622 -32.669 -15.651  1.00  0.00     0.002 C 
HETATM   24  C17 UNL     1      -9.637 -32.425 -14.163  1.00  0.00     0.032 C 
ENDBRANCH  19  20
ENDBRANCH  10  19
BRANCH   7  25
HETATM   25  N3  UNL     1     -13.722 -34.597  -9.717  1.00  0.00    -0.234 N 
ATOM     26  H32 UNL     1     -12.805 -34.785  -9.311  1.00  0.00     0.174 HD
ATOM     27  H31 UNL     1     -14.553 -35.046  -9.331  1.00  0.00     0.174 HD
ENDBRANCH   7  25
TORSDOF 6
ENDMDL
MODEL 5
REMARK VINA RESULT: -7.394275546      1.911      2.665
REMARK  6 active torsions:
REMARK  status: ('A' for Active; 'I' for Inactive)
REMARK    1  A    between atoms: C3_4  and  O1_5 
REMARK    2  A    between atoms: O1_5  and  C4_6 
REMARK    3  A    between atoms: C4_6  and  C5_7 
REMARK    4  A    between atoms: C11_15  and  N3_16 
REMARK    5  A    between atoms: C12_21  and  O2_22 
REMARK    6  A    between atoms: O2_22  and  C13_23 
ROOT
HETATM    1  N1  UNL     1     -14.071 -31.300 -13.830  1.00  0.00    -0.191 NA
HETATM    2  C1  UNL     1     -14.388 -31.164 -12.736  1.00  0.00     0.108 C 
HETATM    3  C2  UNL     1     -14.801 -30.987 -11.369  1.00  0.00     0.147 A 
HETATM    4  C3  UNL     1     -15.036 -29.695 -10.862  1.00  0.00     0.182 A 
HETATM    5  N2  UNL     1     -15.421 -29.563  -9.584  1.00  0.00    -0.169 N 
ATOM      6  H2  UNL     1     -15.595 -28.632  -9.205  1.00  0.00     0.186 HD
HETATM    7  C11 UNL     1     -15.579 -30.616  -8.810  1.00  0.00     0.679 A 
HETATM    8  N4  UNL     1     -15.353 -31.849  -9.298  1.00  0.00    -0.169 N 
ATOM      9  H4  UNL     1     -15.484 -32.646  -8.674  1.00  0.00     0.186 HD
HETATM   10  C12 UNL     1     -14.966 -32.087 -10.559  1.00  0.00     0.183 A 
ENDROOT
BRANCH   4  11
HETATM   11  O1  UNL     1     -14.857 -28.667 -11.697  1.00  0.00    -0.334 OA
BRANCH  11  12
HETATM   12  C4  UNL     1     -15.101 -27.400 -11.992  1.00  0.00     0.182 C 
BRANCH  12  13
HETATM   13  C5  UNL     1     -16.362 -26.723 -11.482  1.00  0.00     0.010 C 
HETATM   14  C6  UNL     1     -16.245 -25.246 -11.578  1.00  0.00     0.007 C 
HETATM   15  C7  UNL     1     -17.313 -24.577 -12.395  1.00  0.00     0.000 C 
HETATM   16  C8  UNL     1     -18.645 -25.200 -11.963  1.00  0.00     0.000 C 
HETATM   17  C9  UNL     1     -18.606 -26.585 -12.619  1.00  0.00     0.000 C 
HETATM   18  C10 UNL     1     -17.565 -27.412 -11.911  1.00  0.00     0.007 C 
ENDBRANCH  12  13
ENDBRANCH  11  12
ENDBRANCH   4  11
BRANCH  10  19
HETATM   19  O2  UNL     1     -14.727 -33.334 -11.092  1.00  0.00    -0.329 OA
BRANCH  19  20
HETATM   20  C13 UNL     1     -13.809 -34.225 -10.603  1.00  0.00     0.130 C 
HETATM   21  C14 UNL     1     -13.668 -35.354 -11.619  1.00  0.00     0.032 C 
HETATM   22  C15 UNL     1     -12.563 -34.948 -12.555  1.00  0.00     0.002 C 
HETATM   23  C16 UNL     1     -11.865 -33.762 -11.930  1.00  0.00     0.002 C 
HETATM   24  C17 UNL     1     -12.398 -33.661 -10.522  1.00  0.00     0.032 C 
ENDBRANCH  19  20
ENDBRANCH  10  19
BRANCH   7  25
HETATM   25  N3  UNL     1     -15.955 -30.476  -7.563  1.00  0.00    -0.234 N 
ATOM     26  H32 UNL     1     -16.302 -31.287  -7.051  1.00  0.00     0.174 HD
ATOM     27  H31 UNL     1     -15.903 -29.566  -7.105  1.00  0.00     0.174 HD
ENDBRANCH   7  25
TORSDOF 6
ENDMDL
