MODEL 1
REMARK VINA RESULT: -6.655667745      0.000      0.000
REMARK  5 active torsions:
REMARK  status: ('A' for Active; 'I' for Inactive)
REMARK    1  A    between atoms: C2_3  and  C3_4 
REMARK    2  A    between atoms: C2_3  and  S1_8 
REMARK    3  A    between atoms: C3_4  and  C4_5 
REMARK    4  A    between atoms: S1_8  and  C5_9 
REMARK    5  A    between atoms: N4_15  and  C7_17 
ROOT
HETATM    1  N1  UNL     1      -7.851 -32.274 -17.250  1.00  0.00    -0.196 NA
HETATM    2  C1  UNL     1      -8.734 -32.000 -16.578  1.00  0.00     0.075 C 
HETATM    3  C2  UNL     1      -9.833 -31.664 -15.707  1.00  0.00     0.171 C 
ENDROOT
BRANCH   3   4
HETATM    4  C3  UNL     1     -10.352 -32.840 -14.923  1.00  0.00     0.143 C 
BRANCH   4   5
HETATM    5  C4  UNL     1      -9.266 -33.310 -14.043  1.00  0.00     0.174 C 
HETATM    6  O1  UNL     1      -8.948 -34.519 -14.012  1.00  0.00    -0.648 OA
HETATM    7  O2  UNL     1      -8.592 -32.410 -13.245  1.00  0.00    -0.648 OA
ENDBRANCH   4   5
ENDBRANCH   3   4
BRANCH   3   8
HETATM    8  S1  UNL     1     -11.157 -30.831 -16.647  1.00  0.00    -0.083 SA
BRANCH   8   9
HETATM    9  C5  UNL     1     -12.259 -30.129 -15.392  1.00  0.00     0.131 A 
HETATM   10  N2  UNL     1     -13.520 -30.415 -15.153  1.00  0.00    -0.286 N 
HETATM   11  N3  UNL     1     -14.159 -29.822 -14.224  1.00  0.00    -0.279 N 
ATOM     12  H2  UNL     1     -13.993 -31.121 -15.718  1.00  0.00     0.188 HD
HETATM   13  C6  UNL     1     -13.544 -28.904 -13.487  1.00  0.00     0.162 A 
ATOM     14  H3  UNL     1     -15.136 -30.051 -14.046  1.00  0.00     0.189 HD
HETATM   15  N4  UNL     1     -13.908 -28.168 -12.520  1.00  0.00    -0.365 N 
HETATM   16  S2  UNL     1     -11.954 -28.934 -14.217  1.00  0.00    -0.027 SA
ATOM     17  H4  UNL     1     -13.141 -27.572 -12.207  1.00  0.00     0.162 HD
BRANCH  15  18
HETATM   18  C7  UNL     1     -15.046 -27.944 -11.769  1.00  0.00     0.083 C 
HETATM   19  C8  UNL     1     -15.270 -28.783 -10.568  1.00  0.00     0.025 C 
HETATM   20  C9  UNL     1     -16.209 -28.266  -9.541  1.00  0.00     0.002 C 
HETATM   21  C10 UNL     1     -16.700 -26.888  -9.654  1.00  0.00     0.000 C 
HETATM   22  C11 UNL     1     -16.488 -26.193 -10.954  1.00  0.00     0.002 C 
HETATM   23  C12 UNL     1     -15.063 -26.439 -11.396  1.00  0.00     0.025 C 
ENDBRANCH  15  18
ENDBRANCH   8   9
ENDBRANCH   3   8
TORSDOF 5
ENDMDL
MODEL 2
REMARK VINA RESULT: -6.582388821      3.907      8.528
REMARK  5 active torsions:
REMARK  status: ('A' for Active; 'I' for Inactive)
REMARK    1  A    between atoms: C2_3  and  C3_4 
REMARK    2  A    between atoms: C2_3  and  S1_8 
REMARK    3  A    between atoms: C3_4  and  C4_5 
REMARK    4  A    between atoms: S1_8  and  C5_9 
REMARK    5  A    between atoms: N4_15  and  C7_17 
ROOT
HETATM    1  N1  UNL     1     -14.915 -29.014  -8.471  1.00  0.00    -0.196 NA
HETATM    2  C1  UNL     1     -15.271 -28.829  -9.542  1.00  0.00     0.075 C 
HETATM    3  C2  UNL     1     -15.711 -28.568 -10.890  1.00  0.00     0.171 C 
ENDROOT
BRANCH   3   4
HETATM    4  C3  UNL     1     -16.739 -27.472 -10.978  1.00  0.00     0.143 C 
BRANCH   4   5
HETATM    5  C4  UNL     1     -16.090 -26.211 -10.572  1.00  0.00     0.174 C 
HETATM    6  O1  UNL     1     -16.410 -25.645  -9.504  1.00  0.00    -0.648 OA
HETATM    7  O2  UNL     1     -15.120 -25.649 -11.375  1.00  0.00    -0.648 OA
ENDBRANCH   4   5
ENDBRANCH   3   4
BRANCH   3   8
HETATM    8  S1  UNL     1     -16.286 -30.110 -11.680  1.00  0.00    -0.083 SA
BRANCH   8   9
HETATM    9  C5  UNL     1     -14.834 -30.772 -12.537  1.00  0.00     0.131 A 
HETATM   10  N2  UNL     1     -14.396 -32.012 -12.575  1.00  0.00    -0.286 N 
HETATM   11  N3  UNL     1     -13.346 -32.313 -13.230  1.00  0.00    -0.279 N 
ATOM     12  H2  UNL     1     -14.904 -32.741 -12.073  1.00  0.00     0.188 HD
HETATM   13  C6  UNL     1     -12.686 -31.364 -13.885  1.00  0.00     0.162 A 
ATOM     14  H3  UNL     1     -13.015 -33.277 -13.253  1.00  0.00     0.189 HD
HETATM   15  N4  UNL     1     -11.641 -31.361 -14.604  1.00  0.00    -0.365 N 
HETATM   16  S2  UNL     1     -13.677 -29.975 -13.500  1.00  0.00    -0.027 SA
ATOM     17  H4  UNL     1     -11.435 -30.421 -14.942  1.00  0.00     0.162 HD
BRANCH  15  18
HETATM   18  C7  UNL     1     -10.703 -32.266 -15.061  1.00  0.00     0.083 C 
HETATM   19  C8  UNL     1      -9.809 -31.851 -16.167  1.00  0.00     0.025 C 
HETATM   20  C9  UNL     1      -8.547 -32.613 -16.346  1.00  0.00     0.002 C 
HETATM   21  C10 UNL     1      -8.149 -33.583 -15.320  1.00  0.00     0.000 C 
HETATM   22  C11 UNL     1      -9.181 -33.982 -14.323  1.00  0.00     0.002 C 
HETATM   23  C12 UNL     1      -9.877 -32.733 -13.835  1.00  0.00     0.025 C 
ENDBRANCH  15  18
ENDBRANCH   8   9
ENDBRANCH   3   8
TORSDOF 5
ENDMDL
MODEL 3
REMARK VINA RESULT: -6.555875310      3.529      7.991
REMARK  5 active torsions:
REMARK  status: ('A' for Active; 'I' for Inactive)
REMARK    1  A    between atoms: C2_3  and  C3_4 
REMARK    2  A    between atoms: C2_3  and  S1_8 
REMARK    3  A    between atoms: C3_4  and  C4_5 
REMARK    4  A    between atoms: S1_8  and  C5_9 
REMARK    5  A    between atoms: N4_15  and  C7_17 
ROOT
HETATM    1  N1  UNL     1     -15.612 -26.043 -10.220  1.00  0.00    -0.196 NA
HETATM    2  C1  UNL     1     -15.931 -27.139 -10.141  1.00  0.00     0.075 C 
HETATM    3  C2  UNL     1     -16.327 -28.519 -10.012  1.00  0.00     0.171 C 
ENDROOT
BRANCH   3   4
HETATM    4  C3  UNL     1     -15.228 -29.406  -9.489  1.00  0.00     0.143 C 
BRANCH   4   5
HETATM    5  C4  UNL     1     -15.857 -30.592  -8.878  1.00  0.00     0.174 C 
HETATM    6  O1  UNL     1     -16.426 -30.512  -7.768  1.00  0.00    -0.648 OA
HETATM    7  O2  UNL     1     -15.821 -31.803  -9.537  1.00  0.00    -0.648 OA
ENDBRANCH   4   5
ENDBRANCH   3   4
BRANCH   3   8
HETATM    8  S1  UNL     1     -17.010 -29.134 -11.588  1.00  0.00    -0.083 SA
BRANCH   8   9
HETATM    9  C5  UNL     1     -15.607 -29.888 -12.450  1.00  0.00     0.131 A 
HETATM   10  N2  UNL     1     -15.383 -31.159 -12.701  1.00  0.00    -0.286 N 
HETATM   11  N3  UNL     1     -14.334 -31.527 -13.324  1.00  0.00    -0.279 N 
ATOM     12  H2  UNL     1     -16.057 -31.860 -12.392  1.00  0.00     0.188 HD
HETATM   13  C6  UNL     1     -13.457 -30.614 -13.727  1.00  0.00     0.162 A 
ATOM     14  H3  UNL     1     -14.169 -32.515 -13.513  1.00  0.00     0.189 HD
HETATM   15  N4  UNL     1     -12.355 -30.675 -14.353  1.00  0.00    -0.365 N 
HETATM   16  S2  UNL     1     -14.235 -29.159 -13.148  1.00  0.00    -0.027 SA
ATOM     17  H4  UNL     1     -11.958 -29.744 -14.482  1.00  0.00     0.162 HD
BRANCH  15  18
HETATM   18  C7  UNL     1     -11.539 -31.640 -14.910  1.00  0.00     0.083 C 
HETATM   19  C8  UNL     1     -10.421 -31.198 -15.777  1.00  0.00     0.025 C 
HETATM   20  C9  UNL     1      -9.309 -32.157 -15.996  1.00  0.00     0.002 C 
HETATM   21  C10 UNL     1      -9.262 -33.388 -15.198  1.00  0.00     0.000 C 
HETATM   22  C11 UNL     1     -10.493 -33.761 -14.448  1.00  0.00     0.002 C 
HETATM   23  C12 UNL     1     -11.016 -32.526 -13.751  1.00  0.00     0.025 C 
ENDBRANCH  15  18
ENDBRANCH   8   9
ENDBRANCH   3   8
TORSDOF 5
ENDMDL
MODEL 4
REMARK VINA RESULT: -6.550584279      3.572      7.989
REMARK  5 active torsions:
REMARK  status: ('A' for Active; 'I' for Inactive)
REMARK    1  A    between atoms: C2_3  and  C3_4 
REMARK    2  A    between atoms: C2_3  and  S1_8 
REMARK    3  A    between atoms: C3_4  and  C4_5 
REMARK    4  A    between atoms: S1_8  and  C5_9 
REMARK    5  A    between atoms: N4_15  and  C7_17 
ROOT
HETATM    1  N1  UNL     1     -15.709 -25.929 -10.285  1.00  0.00    -0.196 NA
HETATM    2  C1  UNL     1     -16.022 -27.026 -10.197  1.00  0.00     0.075 C 
HETATM    3  C2  UNL     1     -16.414 -28.407 -10.058  1.00  0.00     0.171 C 
ENDROOT
BRANCH   3   4
HETATM    4  C3  UNL     1     -15.374 -29.253  -9.374  1.00  0.00     0.143 C 
BRANCH   4   5
HETATM    5  C4  UNL     1     -16.051 -30.441  -8.820  1.00  0.00     0.174 C 
HETATM    6  O1  UNL     1     -16.679 -30.372  -7.742  1.00  0.00    -0.648 OA
HETATM    7  O2  UNL     1     -15.992 -31.641  -9.497  1.00  0.00    -0.648 OA
ENDBRANCH   4   5
ENDBRANCH   3   4
BRANCH   3   8
HETATM    8  S1  UNL     1     -16.899 -29.095 -11.677  1.00  0.00    -0.083 SA
BRANCH   8   9
HETATM    9  C5  UNL     1     -15.372 -29.765 -12.384  1.00  0.00     0.131 A 
HETATM   10  N2  UNL     1     -14.913 -30.996 -12.333  1.00  0.00    -0.286 N 
HETATM   11  N3  UNL     1     -13.808 -31.304 -12.888  1.00  0.00    -0.279 N 
ATOM     12  H2  UNL     1     -15.448 -31.714 -11.843  1.00  0.00     0.188 HD
HETATM   13  C6  UNL     1     -13.112 -30.371 -13.527  1.00  0.00     0.162 A 
ATOM     14  H3  UNL     1     -13.461 -32.262 -12.842  1.00  0.00     0.189 HD
HETATM   15  N4  UNL     1     -12.012 -30.377 -14.158  1.00  0.00    -0.365 N 
HETATM   16  S2  UNL     1     -14.153 -28.986 -13.283  1.00  0.00    -0.027 SA
ATOM     17  H4  UNL     1     -11.793 -29.448 -14.518  1.00  0.00     0.162 HD
BRANCH  15  18
HETATM   18  C7  UNL     1     -11.025 -31.283 -14.498  1.00  0.00     0.083 C 
HETATM   19  C8  UNL     1     -11.170 -32.683 -14.036  1.00  0.00     0.025 C 
HETATM   20  C9  UNL     1     -10.387 -33.721 -14.753  1.00  0.00     0.002 C 
HETATM   21  C10 UNL     1      -9.685 -33.357 -15.989  1.00  0.00     0.000 C 
HETATM   22  C11 UNL     1      -9.530 -31.906 -16.282  1.00  0.00     0.002 C 
HETATM   23  C12 UNL     1     -10.859 -31.228 -16.038  1.00  0.00     0.025 C 
ENDBRANCH  15  18
ENDBRANCH   8   9
ENDBRANCH   3   8
TORSDOF 5
ENDMDL
MODEL 5
REMARK VINA RESULT: -6.503540051      4.356      5.328
REMARK  5 active torsions:
REMARK  status: ('A' for Active; 'I' for Inactive)
REMARK    1  A    between atoms: C2_3  and  C3_4 
REMARK    2  A    between atoms: C2_3  and  S1_8 
REMARK    3  A    between atoms: C3_4  and  C4_5 
REMARK    4  A    between atoms: S1_8  and  C5_9 
REMARK    5  A    between atoms: N4_15  and  C7_17 
ROOT
HETATM    1  N1  UNL     1     -13.887 -35.723 -11.363  1.00  0.00    -0.196 NA
HETATM    2  C1  UNL     1     -14.033 -34.593 -11.455  1.00  0.00     0.075 C 
HETATM    3  C2  UNL     1     -14.215 -33.170 -11.600  1.00  0.00     0.171 C 
ENDROOT
BRANCH   3   4
HETATM    4  C3  UNL     1     -13.065 -32.491 -12.294  1.00  0.00     0.143 C 
BRANCH   4   5
HETATM    5  C4  UNL     1     -13.602 -31.777 -13.467  1.00  0.00     0.174 C 
HETATM    6  O1  UNL     1     -14.835 -31.644 -13.623  1.00  0.00    -0.648 OA
HETATM    7  O2  UNL     1     -12.737 -31.248 -14.403  1.00  0.00    -0.648 OA
ENDBRANCH   4   5
ENDBRANCH   3   4
BRANCH   3   8
HETATM    8  S1  UNL     1     -14.585 -32.409  -9.983  1.00  0.00    -0.083 SA
BRANCH   8   9
HETATM    9  C5  UNL     1     -15.367 -30.823 -10.374  1.00  0.00     0.131 A 
HETATM   10  N2  UNL     1     -16.258 -30.552 -11.302  1.00  0.00    -0.286 N 
HETATM   11  N3  UNL     1     -16.711 -29.370 -11.447  1.00  0.00    -0.279 N 
ATOM     12  H2  UNL     1     -16.592 -31.298 -11.914  1.00  0.00     0.188 HD
HETATM   13  C6  UNL     1     -16.279 -28.399 -10.651  1.00  0.00     0.162 A 
ATOM     14  H3  UNL     1     -17.402 -29.170 -12.171  1.00  0.00     0.189 HD
HETATM   15  N4  UNL     1     -16.539 -27.161 -10.557  1.00  0.00    -0.365 N 
HETATM   16  S2  UNL     1     -15.154 -29.294  -9.653  1.00  0.00    -0.027 SA
ATOM     17  H4  UNL     1     -15.996 -26.730  -9.809  1.00  0.00     0.162 HD
BRANCH  15  18
HETATM   18  C7  UNL     1     -17.348 -26.229 -11.179  1.00  0.00     0.083 C 
HETATM   19  C8  UNL     1     -16.715 -25.006 -11.727  1.00  0.00     0.025 C 
HETATM   20  C9  UNL     1     -17.471 -24.251 -12.758  1.00  0.00     0.002 C 
HETATM   21  C10 UNL     1     -18.685 -24.846 -13.328  1.00  0.00     0.000 C 
HETATM   22  C11 UNL     1     -19.268 -26.018 -12.619  1.00  0.00     0.002 C 
HETATM   23  C12 UNL     1     -18.146 -26.973 -12.279  1.00  0.00     0.025 C 
ENDBRANCH  15  18
ENDBRANCH   8   9
ENDBRANCH   3   8
TORSDOF 5
ENDMDL
