MODEL 1
REMARK VINA RESULT: -6.563016866      0.000      0.000
REMARK  3 active torsions:
REMARK  status: ('A' for Active; 'I' for Inactive)
REMARK    1  A    between atoms: C4_7  and  C5_8 
REMARK    2  A    between atoms: C5_8  and  N2_9 
REMARK    3  A    between atoms: C11_16  and  N3_17 
ROOT
HETATM    1  C1  UNL     1       6.641  -1.765  13.780  1.00  0.00     0.070 C 
HETATM    2  C2  UNL     1       7.730  -0.727  13.690  1.00  0.00     0.033 A 
HETATM    3  N1  UNL     1       7.605   0.547  14.146  1.00  0.00    -0.352 N 
ATOM      4  H1  UNL     1       6.782   0.933  14.607  1.00  0.00     0.166 HD
HETATM    5  C3  UNL     1       8.737   1.212  13.891  1.00  0.00     0.090 A 
HETATM    6 BR1  UNL     1       9.199   3.040  14.219  1.00  0.00    -0.031 Br
HETATM    7  C4  UNL     1       9.634   0.340  13.240  1.00  0.00     0.023 A 
HETATM    8  C11 UNL     1       8.982  -0.858  13.129  1.00  0.00     0.064 A 
ENDROOT
BRANCH   7   9
HETATM    9  C5  UNL     1      10.947   0.682  12.707  1.00  0.00     0.175 C 
BRANCH   9  10
HETATM   10  N2  UNL     1      10.821   1.519  11.575  1.00  0.00    -0.345 N 
HETATM   11  C6  UNL     1      10.512   0.938  10.387  1.00  0.00    -0.071 C 
HETATM   12  C7  UNL     1      10.275   0.553   9.068  1.00  0.00     0.130 C 
HETATM   13  C8  UNL     1      10.961   1.633   8.164  1.00  0.00     0.180 C 
HETATM   14  O1  UNL     1      11.219   2.765   8.966  1.00  0.00    -0.389 OA
HETATM   15  C9  UNL     1      12.189   2.741   9.879  1.00  0.00     0.188 C 
HETATM   16  C10 UNL     1      11.836   2.547  11.376  1.00  0.00     0.158 C 
ENDBRANCH   9  10
ENDBRANCH   7   9
BRANCH   8  17
HETATM   17  N3  UNL     1       9.435  -2.075  12.500  1.00  0.00    -0.369 N 
HETATM   18  C12 UNL     1      10.092  -3.191  13.073  1.00  0.00     0.134 C 
HETATM   19  C13 UNL     1       9.394  -4.469  12.678  1.00  0.00     0.095 C 
HETATM   20  S1  UNL     1       8.770  -4.039  11.030  1.00  0.00    -0.148 SA
HETATM   21  C14 UNL     1       9.220  -2.256  11.048  1.00  0.00     0.197 C 
ENDBRANCH   8  17
TORSDOF 3
ENDMDL
MODEL 2
REMARK VINA RESULT: -6.428695484      1.760      2.429
REMARK  3 active torsions:
REMARK  status: ('A' for Active; 'I' for Inactive)
REMARK    1  A    between atoms: C4_7  and  C5_8 
REMARK    2  A    between atoms: C5_8  and  N2_9 
REMARK    3  A    between atoms: C11_16  and  N3_17 
ROOT
HETATM    1  C1  UNL     1      10.346  -1.130  16.652  1.00  0.00     0.070 C 
HETATM    2  C2  UNL     1      10.151  -0.092  15.576  1.00  0.00     0.033 A 
HETATM    3  N1  UNL     1      10.390   1.234  15.747  1.00  0.00    -0.352 N 
ATOM      4  H1  UNL     1      10.738   1.668  16.602  1.00  0.00     0.166 HD
HETATM    5  C3  UNL     1      10.094   1.879  14.614  1.00  0.00     0.090 A 
HETATM    6 BR1  UNL     1      10.150   3.746  14.201  1.00  0.00    -0.031 Br
HETATM    7  C4  UNL     1       9.641   0.937  13.666  1.00  0.00     0.023 A 
HETATM    8  C11 UNL     1       9.687  -0.279  14.292  1.00  0.00     0.064 A 
ENDROOT
BRANCH   7   9
HETATM    9  C5  UNL     1       9.132   1.223  12.331  1.00  0.00     0.175 C 
BRANCH   9  10
HETATM   10  N2  UNL     1      10.013   0.720  11.345  1.00  0.00    -0.345 N 
HETATM   11  C6  UNL     1      11.039   1.515  10.947  1.00  0.00    -0.071 C 
HETATM   12  C7  UNL     1      12.105   2.180  10.343  1.00  0.00     0.130 C 
HETATM   13  C8  UNL     1      12.242   1.578   8.903  1.00  0.00     0.180 C 
HETATM   14  O1  UNL     1      11.526   0.362   8.875  1.00  0.00    -0.389 OA
HETATM   15  C9  UNL     1      10.194   0.360   8.880  1.00  0.00     0.188 C 
HETATM   16  C10 UNL     1       9.426   0.050  10.190  1.00  0.00     0.158 C 
ENDBRANCH   9  10
ENDBRANCH   7   9
BRANCH   8  17
HETATM   17  N3  UNL     1       9.287  -1.569  13.784  1.00  0.00    -0.369 N 
HETATM   18  C12 UNL     1       7.988  -2.111  13.634  1.00  0.00     0.134 C 
HETATM   19  C13 UNL     1       7.807  -2.659  12.240  1.00  0.00     0.095 C 
HETATM   20  S1  UNL     1       9.492  -3.209  11.853  1.00  0.00    -0.148 SA
HETATM   21  C14 UNL     1      10.328  -2.521  13.339  1.00  0.00     0.197 C 
ENDBRANCH   8  17
TORSDOF 3
ENDMDL
MODEL 3
REMARK VINA RESULT: -6.254482845      2.716      3.747
REMARK  3 active torsions:
REMARK  status: ('A' for Active; 'I' for Inactive)
REMARK    1  A    between atoms: C4_7  and  C5_8 
REMARK    2  A    between atoms: C5_8  and  N2_9 
REMARK    3  A    between atoms: C11_16  and  N3_17 
ROOT
HETATM    1  C1  UNL     1       5.717  -0.618  14.743  1.00  0.00     0.070 C 
HETATM    2  C2  UNL     1       6.953  -0.897  13.927  1.00  0.00     0.033 A 
HETATM    3  N1  UNL     1       7.114  -1.996  13.144  1.00  0.00    -0.352 N 
ATOM      4  H1  UNL     1       6.424  -2.734  13.009  1.00  0.00     0.166 HD
HETATM    5  C3  UNL     1       8.326  -1.953  12.580  1.00  0.00     0.090 A 
HETATM    6 BR1  UNL     1       9.198  -3.203  11.423  1.00  0.00    -0.031 Br
HETATM    7  C4  UNL     1       8.982  -0.782  13.014  1.00  0.00     0.023 A 
HETATM    8  C11 UNL     1       8.105  -0.146  13.850  1.00  0.00     0.064 A 
ENDROOT
BRANCH   7   9
HETATM    9  C5  UNL     1      10.353  -0.391  12.710  1.00  0.00     0.175 C 
BRANCH   9  10
HETATM   10  N2  UNL     1      10.372   0.682  11.789  1.00  0.00    -0.345 N 
HETATM   11  C6  UNL     1      10.131   0.400  10.483  1.00  0.00    -0.071 C 
HETATM   12  C7  UNL     1       9.984   0.332   9.098  1.00  0.00     0.130 C 
HETATM   13  C8  UNL     1      10.806   1.530   8.509  1.00  0.00     0.180 C 
HETATM   14  O1  UNL     1      11.061   2.436   9.561  1.00  0.00    -0.389 OA
HETATM   15  C9  UNL     1      11.947   2.139  10.510  1.00  0.00     0.188 C 
HETATM   16  C10 UNL     1      11.458   1.649  11.897  1.00  0.00     0.158 C 
ENDBRANCH   9  10
ENDBRANCH   7   9
BRANCH   8  17
HETATM   17  N3  UNL     1       8.298   1.072  14.599  1.00  0.00    -0.369 N 
HETATM   18  C12 UNL     1       8.823   1.251  15.901  1.00  0.00     0.134 C 
HETATM   19  C13 UNL     1       9.899   2.308  15.891  1.00  0.00     0.095 C 
HETATM   20  S1  UNL     1       9.308   3.404  14.571  1.00  0.00    -0.148 SA
HETATM   21  C14 UNL     1       7.912   2.361  13.986  1.00  0.00     0.197 C 
ENDBRANCH   8  17
TORSDOF 3
ENDMDL
MODEL 4
REMARK VINA RESULT: -6.162160494      3.187      4.592
REMARK  3 active torsions:
REMARK  status: ('A' for Active; 'I' for Inactive)
REMARK    1  A    between atoms: C4_7  and  C5_8 
REMARK    2  A    between atoms: C5_8  and  N2_9 
REMARK    3  A    between atoms: C11_16  and  N3_17 
ROOT
HETATM    1  C1  UNL     1      10.695   0.019  16.701  1.00  0.00     0.070 C 
HETATM    2  C2  UNL     1      10.071  -0.183  15.344  1.00  0.00     0.033 A 
HETATM    3  N1  UNL     1       9.666  -1.389  14.867  1.00  0.00    -0.352 N 
ATOM      4  H1  UNL     1       9.722  -2.275  15.369  1.00  0.00     0.166 HD
HETATM    5  C3  UNL     1       9.182  -1.227  13.631  1.00  0.00     0.090 A 
HETATM    6 BR1  UNL     1       8.506  -2.514  12.387  1.00  0.00    -0.031 Br
HETATM    7  C4  UNL     1       9.278   0.138  13.287  1.00  0.00     0.023 A 
HETATM    8  C11 UNL     1       9.834   0.762  14.370  1.00  0.00     0.064 A 
ENDROOT
BRANCH   7   9
HETATM    9  C5  UNL     1       8.947   0.735  11.999  1.00  0.00     0.175 C 
BRANCH   9  10
HETATM   10  N2  UNL     1       9.923   0.406  11.031  1.00  0.00    -0.345 N 
HETATM   11  C6  UNL     1      10.955   1.271  10.851  1.00  0.00    -0.071 C 
HETATM   12  C7  UNL     1      12.047   2.039  10.452  1.00  0.00     0.130 C 
HETATM   13  C8  UNL     1      12.325   1.667   8.956  1.00  0.00     0.180 C 
HETATM   14  O1  UNL     1      11.653   0.456   8.681  1.00  0.00    -0.389 OA
HETATM   15  C9  UNL     1      10.326   0.430   8.566  1.00  0.00     0.188 C 
HETATM   16  C10 UNL     1       9.459  -0.090   9.741  1.00  0.00     0.158 C 
ENDBRANCH   9  10
ENDBRANCH   7   9
BRANCH   8  17
HETATM   17  N3  UNL     1      10.191   2.152  14.525  1.00  0.00    -0.369 N 
HETATM   18  C12 UNL     1       9.388   3.245  14.931  1.00  0.00     0.134 C 
HETATM   19  C13 UNL     1      10.074   4.017  16.030  1.00  0.00     0.095 C 
HETATM   20  S1  UNL     1      11.819   3.784  15.594  1.00  0.00    -0.148 SA
HETATM   21  C14 UNL     1      11.578   2.574  14.231  1.00  0.00     0.197 C 
ENDBRANCH   8  17
TORSDOF 3
ENDMDL
MODEL 5
REMARK VINA RESULT: -6.128913392      3.030      5.140
REMARK  3 active torsions:
REMARK  status: ('A' for Active; 'I' for Inactive)
REMARK    1  A    between atoms: C4_7  and  C5_8 
REMARK    2  A    between atoms: C5_8  and  N2_9 
REMARK    3  A    between atoms: C11_16  and  N3_17 
ROOT
HETATM    1  C1  UNL     1      10.742   3.973  14.938  1.00  0.00     0.070 C 
HETATM    2  C2  UNL     1      10.664   3.019  13.774  1.00  0.00     0.033 A 
HETATM    3  N1  UNL     1      11.526   3.032  12.723  1.00  0.00    -0.352 N 
ATOM      4  H1  UNL     1      12.318   3.665  12.614  1.00  0.00     0.166 HD
HETATM    5  C3  UNL     1      11.167   2.080  11.856  1.00  0.00     0.090 A 
HETATM    6 BR1  UNL     1      11.915   1.605  10.159  1.00  0.00    -0.031 Br
HETATM    7  C4  UNL     1      10.025   1.422  12.358  1.00  0.00     0.023 A 
HETATM    8  C11 UNL     1       9.735   2.027  13.551  1.00  0.00     0.064 A 
ENDROOT
BRANCH   7   9
HETATM    9  C5  UNL     1       9.256   0.381  11.687  1.00  0.00     0.175 C 
BRANCH   9  10
HETATM   10  N2  UNL     1       9.879  -0.878  11.845  1.00  0.00    -0.345 N 
HETATM   11  C6  UNL     1       9.350  -1.936  11.177  1.00  0.00    -0.071 C 
HETATM   12  C7  UNL     1       8.938  -3.158  10.650  1.00  0.00     0.130 C 
HETATM   13  C8  UNL     1       9.418  -4.257  11.659  1.00  0.00     0.180 C 
HETATM   14  O1  UNL     1      10.393  -3.676  12.497  1.00  0.00    -0.389 OA
HETATM   15  C9  UNL     1      10.043  -2.798  13.435  1.00  0.00     0.188 C 
HETATM   16  C10 UNL     1      10.259  -1.282  13.194  1.00  0.00     0.158 C 
ENDBRANCH   9  10
ENDBRANCH   7   9
BRANCH   8  17
HETATM   17  N3  UNL     1       8.636   1.766  14.449  1.00  0.00    -0.369 N 
HETATM   18  C12 UNL     1       7.293   2.208  14.376  1.00  0.00     0.134 C 
HETATM   19  C13 UNL     1       6.350   1.042  14.540  1.00  0.00     0.095 C 
HETATM   20  S1  UNL     1       7.302  -0.032  15.650  1.00  0.00    -0.148 SA
HETATM   21  C14 UNL     1       8.870   0.927  15.645  1.00  0.00     0.197 C 
ENDBRANCH   8  17
TORSDOF 3
ENDMDL
