MODEL 1
REMARK VINA RESULT: -7.381244112      0.000      0.000
REMARK  3 active torsions:
REMARK  status: ('A' for Active; 'I' for Inactive)
REMARK       I    between atoms: C1_2  and  N1_3 
REMARK    1  A    between atoms: C1_2  and  C7_13 
REMARK    2  A    between atoms: N1_3  and  C2_5 
REMARK    3  A    between atoms: N3_15  and  C9_16 
ROOT
HETATM    1  O1  UNL     1      12.214   0.248  14.070  1.00  0.00    -0.270 OA
HETATM    2  C1  UNL     1      11.741   1.328  14.475  1.00  0.00     0.253 C 
HETATM    3  N1  UNL     1      10.868   2.087  13.698  1.00  0.00    -0.324 N 
ATOM      4  H1  UNL     1      10.521   2.957  14.104  1.00  0.00     0.169 HD
ENDROOT
BRANCH   2   5
HETATM    5  C7  UNL     1      12.143   1.812  15.866  1.00  0.00     0.231 C 
HETATM    6  C8  UNL     1      13.217   0.968  16.457  1.00  0.00     0.159 C 
HETATM    7  N3  UNL     1      12.797   0.146  17.548  1.00  0.00    -0.403 N 
HETATM    8  C14 UNL     1      11.421  -0.182  17.572  1.00  0.00     0.143 C 
HETATM    9  C15 UNL     1      10.464   0.877  17.154  1.00  0.00     0.188 C 
HETATM   10  O2  UNL     1      11.042   2.015  16.663  1.00  0.00    -0.373 OA
BRANCH   7  11
HETATM   11  C9  UNL     1      13.399   0.416  18.798  1.00  0.00     0.079 C 
HETATM   12  C10 UNL     1      13.935  -0.769  19.540  1.00  0.00     0.025 C 
HETATM   13  C11 UNL     1      13.828  -0.353  21.014  1.00  0.00     0.002 C 
HETATM   14  C12 UNL     1      12.518   0.368  21.060  1.00  0.00     0.002 C 
HETATM   15  C13 UNL     1      12.442   1.088  19.733  1.00  0.00     0.025 C 
ENDBRANCH   7  11
ENDBRANCH   2   5
BRANCH   3  16
HETATM   16  C2  UNL     1      10.420   1.761  12.396  1.00  0.00     0.051 A 
HETATM   17  C3  UNL     1       9.066   1.500  12.175  1.00  0.00     0.117 A 
HETATM   18  N2  UNL     1       8.573   1.210  10.980  1.00  0.00    -0.372 N 
HETATM   19  C4  UNL     1       9.359   1.152   9.901  1.00  0.00     0.106 A 
ATOM     20  H2  UNL     1       7.574   1.028  10.882  1.00  0.00     0.164 HD
HETATM   21  C5  UNL     1      10.700   1.396  10.027  1.00  0.00     0.028 A 
HETATM   22 BR1  UNL     1      11.849   1.323   8.518  1.00  0.00    -0.050 Br
HETATM   23  C6  UNL     1      11.219   1.701  11.291  1.00  0.00     0.051 A 
ENDBRANCH   3  16
TORSDOF 3
ENDMDL
MODEL 2
REMARK VINA RESULT: -7.130628871      3.087      7.690
REMARK  3 active torsions:
REMARK  status: ('A' for Active; 'I' for Inactive)
REMARK       I    between atoms: C1_2  and  N1_3 
REMARK    1  A    between atoms: C1_2  and  C7_13 
REMARK    2  A    between atoms: N1_3  and  C2_5 
REMARK    3  A    between atoms: N3_15  and  C9_16 
ROOT
HETATM    1  O1  UNL     1      10.206  -1.257  15.453  1.00  0.00    -0.270 OA
HETATM    2  C1  UNL     1      10.731  -0.354  14.771  1.00  0.00     0.253 C 
HETATM    3  N1  UNL     1      11.472   0.672  15.352  1.00  0.00    -0.324 N 
ATOM      4  H1  UNL     1      11.874   1.369  14.724  1.00  0.00     0.169 HD
ENDROOT
BRANCH   2   5
HETATM    5  C7  UNL     1      10.542  -0.397  13.256  1.00  0.00     0.231 C 
HETATM    6  C8  UNL     1      11.284   0.697  12.574  1.00  0.00     0.159 C 
HETATM    7  N3  UNL     1      10.458   1.724  12.019  1.00  0.00    -0.403 N 
HETATM    8  C14 UNL     1       9.187   1.876  12.623  1.00  0.00     0.143 C 
HETATM    9  C15 UNL     1       8.483   0.637  13.046  1.00  0.00     0.188 C 
HETATM   10  O2  UNL     1       9.213  -0.512  12.921  1.00  0.00    -0.373 OA
BRANCH   7  11
HETATM   11  C9  UNL     1      10.507   1.872  10.615  1.00  0.00     0.079 C 
HETATM   12  C10 UNL     1      10.170   0.653   9.812  1.00  0.00     0.025 C 
HETATM   13  C11 UNL     1      10.969   0.841   8.515  1.00  0.00     0.002 C 
HETATM   14  C12 UNL     1      12.263   1.412   9.002  1.00  0.00     0.002 C 
HETATM   15  C13 UNL     1      11.866   2.302  10.158  1.00  0.00     0.025 C 
ENDBRANCH   7  11
ENDBRANCH   2   5
BRANCH   3  16
HETATM   16  C2  UNL     1      11.719   0.834  16.736  1.00  0.00     0.051 A 
HETATM   17  C3  UNL     1      10.955   1.741  17.474  1.00  0.00     0.117 A 
HETATM   18  N2  UNL     1      11.115   1.929  18.775  1.00  0.00    -0.372 N 
HETATM   19  C4  UNL     1      12.033   1.246  19.466  1.00  0.00     0.106 A 
ATOM     20  H2  UNL     1      10.526   2.607  19.259  1.00  0.00     0.164 HD
HETATM   21  C5  UNL     1      12.825   0.335  18.821  1.00  0.00     0.028 A 
HETATM   22 BR1  UNL     1      14.140  -0.653  19.768  1.00  0.00    -0.050 Br
HETATM   23  C6  UNL     1      12.655   0.139  17.446  1.00  0.00     0.051 A 
ENDBRANCH   3  16
TORSDOF 3
ENDMDL
MODEL 3
REMARK VINA RESULT: -7.091897992      1.227      1.562
REMARK  3 active torsions:
REMARK  status: ('A' for Active; 'I' for Inactive)
REMARK       I    between atoms: C1_2  and  N1_3 
REMARK    1  A    between atoms: C1_2  and  C7_13 
REMARK    2  A    between atoms: N1_3  and  C2_5 
REMARK    3  A    between atoms: N3_15  and  C9_16 
ROOT
HETATM    1  O1  UNL     1      11.093   3.615  14.037  1.00  0.00    -0.270 OA
HETATM    2  C1  UNL     1      11.328   2.474  14.482  1.00  0.00     0.253 C 
HETATM    3  N1  UNL     1      11.061   1.325  13.741  1.00  0.00    -0.324 N 
ATOM      4  H1  UNL     1      11.287   0.430  14.175  1.00  0.00     0.169 HD
ENDROOT
BRANCH   2   5
HETATM    5  C7  UNL     1      11.927   2.359  15.882  1.00  0.00     0.231 C 
HETATM    6  C8  UNL     1      12.187   0.943  16.258  1.00  0.00     0.159 C 
HETATM    7  N3  UNL     1      11.318   0.425  17.268  1.00  0.00    -0.403 N 
HETATM    8  C14 UNL     1      10.058   1.060  17.373  1.00  0.00     0.143 C 
HETATM    9  C15 UNL     1      10.024   2.534  17.185  1.00  0.00     0.188 C 
HETATM   10  O2  UNL     1      11.210   3.094  16.796  1.00  0.00    -0.373 OA
BRANCH   7  11
HETATM   11  C9  UNL     1      11.932   0.043  18.482  1.00  0.00     0.079 C 
HETATM   12  C10 UNL     1      13.370   0.431  18.643  1.00  0.00     0.025 C 
HETATM   13  C11 UNL     1      13.935  -0.651  19.573  1.00  0.00     0.002 C 
HETATM   14  C12 UNL     1      13.267  -1.895  19.079  1.00  0.00     0.002 C 
HETATM   15  C13 UNL     1      11.882  -1.440  18.678  1.00  0.00     0.025 C 
ENDBRANCH   7  11
ENDBRANCH   2   5
BRANCH   3  16
HETATM   16  C2  UNL     1      10.503   1.289  12.441  1.00  0.00     0.051 A 
HETATM   17  C3  UNL     1       9.116   1.248  12.284  1.00  0.00     0.117 A 
HETATM   18  N2  UNL     1       8.524   1.235  11.099  1.00  0.00    -0.372 N 
HETATM   19  C4  UNL     1       9.236   1.262   9.968  1.00  0.00     0.106 A 
ATOM     20  H2  UNL     1       7.505   1.203  11.049  1.00  0.00     0.164 HD
HETATM   21  C5  UNL     1      10.603   1.305  10.031  1.00  0.00     0.028 A 
HETATM   22 BR1  UNL     1      11.648   1.344   8.447  1.00  0.00    -0.050 Br
HETATM   23  C6  UNL     1      11.226   1.318  11.284  1.00  0.00     0.051 A 
ENDBRANCH   3  16
TORSDOF 3
ENDMDL
MODEL 4
REMARK VINA RESULT: -6.917807713      1.396      1.513
REMARK  3 active torsions:
REMARK  status: ('A' for Active; 'I' for Inactive)
REMARK       I    between atoms: C1_2  and  N1_3 
REMARK    1  A    between atoms: C1_2  and  C7_13 
REMARK    2  A    between atoms: N1_3  and  C2_5 
REMARK    3  A    between atoms: N3_15  and  C9_16 
ROOT
HETATM    1  O1  UNL     1       9.284   2.644  13.827  1.00  0.00    -0.270 OA
HETATM    2  C1  UNL     1      10.262   2.002  14.259  1.00  0.00     0.253 C 
HETATM    3  N1  UNL     1      10.882   1.008  13.504  1.00  0.00    -0.324 N 
ATOM      4  H1  UNL     1      11.680   0.533  13.927  1.00  0.00     0.169 HD
ENDROOT
BRANCH   2   5
HETATM    5  C7  UNL     1      10.778   2.333  15.658  1.00  0.00     0.231 C 
HETATM    6  C8  UNL     1      12.142   1.786  15.889  1.00  0.00     0.159 C 
HETATM    7  N3  UNL     1      12.200   0.693  16.807  1.00  0.00    -0.403 N 
HETATM    8  C14 UNL     1      11.007  -0.057  16.938  1.00  0.00     0.143 C 
HETATM    9  C15 UNL     1       9.726   0.696  16.908  1.00  0.00     0.188 C 
HETATM   10  O2  UNL     1       9.846   2.028  16.620  1.00  0.00    -0.373 OA
BRANCH   7  11
HETATM   11  C9  UNL     1      12.935   0.915  17.993  1.00  0.00     0.079 C 
HETATM   12  C10 UNL     1      13.064  -0.257  18.917  1.00  0.00     0.025 C 
HETATM   13  C11 UNL     1      13.203   0.386  20.303  1.00  0.00     0.002 C 
HETATM   14  C12 UNL     1      12.238   1.527  20.237  1.00  0.00     0.002 C 
HETATM   15  C13 UNL     1      12.337   2.017  18.811  1.00  0.00     0.025 C 
ENDBRANCH   7  11
ENDBRANCH   2   5
BRANCH   3  16
HETATM   16  C2  UNL     1      10.504   0.598  12.204  1.00  0.00     0.051 A 
HETATM   17  C3  UNL     1       9.582  -0.439  12.046  1.00  0.00     0.117 A 
HETATM   18  N2  UNL     1       9.165  -0.860  10.861  1.00  0.00    -0.372 N 
HETATM   19  C4  UNL     1       9.613  -0.303   9.731  1.00  0.00     0.106 A 
ATOM     20  H2  UNL     1       8.490  -1.623  10.810  1.00  0.00     0.164 HD
HETATM   21  C5  UNL     1      10.518   0.722   9.794  1.00  0.00     0.028 A 
HETATM   22 BR1  UNL     1      11.176   1.537   8.212  1.00  0.00    -0.050 Br
HETATM   23  C6  UNL     1      10.957   1.164  11.048  1.00  0.00     0.051 A 
ENDBRANCH   3  16
TORSDOF 3
ENDMDL
MODEL 5
REMARK VINA RESULT: -6.866779900      1.266      1.704
REMARK  3 active torsions:
REMARK  status: ('A' for Active; 'I' for Inactive)
REMARK       I    between atoms: C1_2  and  N1_3 
REMARK    1  A    between atoms: C1_2  and  C7_13 
REMARK    2  A    between atoms: N1_3  and  C2_5 
REMARK    3  A    between atoms: N3_15  and  C9_16 
ROOT
HETATM    1  O1  UNL     1      11.611   2.519  14.866  1.00  0.00    -0.270 OA
HETATM    2  C1  UNL     1      11.983   1.330  14.902  1.00  0.00     0.253 C 
HETATM    3  N1  UNL     1      11.687   0.434  13.878  1.00  0.00    -0.324 N 
ATOM      4  H1  UNL     1      12.033  -0.521  13.981  1.00  0.00     0.169 HD
ENDROOT
BRANCH   2   5
HETATM    5  C7  UNL     1      12.788   0.866  16.115  1.00  0.00     0.231 C 
HETATM    6  C8  UNL     1      11.970   0.031  17.035  1.00  0.00     0.159 C 
HETATM    7  N3  UNL     1      11.643   0.657  18.277  1.00  0.00    -0.403 N 
HETATM    8  C14 UNL     1      11.634   2.072  18.264  1.00  0.00     0.143 C 
HETATM    9  C15 UNL     1      12.681   2.749  17.454  1.00  0.00     0.188 C 
HETATM   10  O2  UNL     1      13.458   1.913  16.701  1.00  0.00    -0.373 OA
BRANCH   7  11
HETATM   11  C9  UNL     1      12.163   0.044  19.440  1.00  0.00     0.079 C 
HETATM   12  C10 UNL     1      12.767   0.964  20.455  1.00  0.00     0.025 C 
HETATM   13  C11 UNL     1      13.824   0.095  21.149  1.00  0.00     0.002 C 
HETATM   14  C12 UNL     1      14.405  -0.689  20.015  1.00  0.00     0.002 C 
HETATM   15  C13 UNL     1      13.228  -0.953  19.103  1.00  0.00     0.025 C 
ENDBRANCH   7  11
ENDBRANCH   2   5
BRANCH   3  16
HETATM   16  C2  UNL     1      10.948   0.729  12.707  1.00  0.00     0.051 A 
HETATM   17  C3  UNL     1       9.588   0.416  12.650  1.00  0.00     0.117 A 
HETATM   18  N2  UNL     1       8.830   0.683  11.597  1.00  0.00    -0.372 N 
HETATM   19  C4  UNL     1       9.335   1.278  10.512  1.00  0.00     0.106 A 
ATOM     20  H2  UNL     1       7.842   0.430  11.615  1.00  0.00     0.164 HD
HETATM   21  C5  UNL     1      10.660   1.621  10.484  1.00  0.00     0.028 A 
HETATM   22 BR1  UNL     1      11.414   2.467   8.962  1.00  0.00    -0.050 Br
HETATM   23  C6  UNL     1      11.459   1.337  11.598  1.00  0.00     0.051 A 
ENDBRANCH   3  16
TORSDOF 3
ENDMDL
