MODEL 1
REMARK VINA RESULT: -7.298311393      0.000      0.000
REMARK  3 active torsions:
REMARK  status: ('A' for Active; 'I' for Inactive)
REMARK    1  A    between atoms: C2_2  and  C3_4 
REMARK       I    between atoms: C3_4  and  N1_6 
REMARK    2  A    between atoms: N1_6  and  C4_8 
REMARK    3  A    between atoms: N3_16  and  C10_17 
ROOT
HETATM    1  C4  UNL     1      12.819   1.620  17.040  1.00  0.00     0.051 A 
HETATM    2  C5  UNL     1      12.457   2.951  16.792  1.00  0.00     0.117 A 
HETATM    3  N2  UNL     1      11.939   3.365  15.623  1.00  0.00    -0.365 N 
ATOM      4  H2  UNL     1      11.699   4.350  15.506  1.00  0.00     0.165 HD
HETATM    5  C6  UNL     1      11.732   2.515  14.606  1.00  0.00     0.045 A 
HETATM    6  C7  UNL     1      12.074   1.203  14.811  1.00  0.00    -0.004 A 
HETATM    7  C8  UNL     1      12.615   0.736  16.014  1.00  0.00     0.041 A 
HETATM    8  C9  UNL     1      11.767   0.466  13.574  1.00  0.00     0.314 C 
HETATM    9  N3  UNL     1      10.856   1.311  12.874  1.00  0.00     0.104 N 
HETATM   10  C16 UNL     1      11.180   2.676  13.217  1.00  0.00     0.330 C 
ENDROOT
BRANCH   1  11
HETATM   11  N1  UNL     1      13.346   1.292  18.317  1.00  0.00    -0.321 N 
HETATM   12  C3  UNL     1      12.865   0.396  19.260  1.00  0.00     0.262 C 
HETATM   13  O1  UNL     1      11.829  -0.266  19.048  1.00  0.00    -0.267 OA
ATOM     14  H1  UNL     1      14.200   1.785  18.577  1.00  0.00     0.169 HD
BRANCH  12  15
HETATM   15  C2  UNL     1      13.534   0.182  20.532  1.00  0.00     0.069 C 
HETATM   16  C1  UNL     1      14.460  -0.750  20.738  1.00  0.00     0.037 C 
HETATM   17 BR1  UNL     1      13.040   1.333  21.996  1.00  0.00    -0.046 Br
ENDBRANCH  12  15
ENDBRANCH   1  11
BRANCH   9  18
HETATM   18  C10 UNL     1      10.908   1.048  11.467  1.00  0.00     0.241 C 
HETATM   19  C11 UNL     1      12.052   1.667  10.742  1.00  0.00     0.039 C 
HETATM   20  C12 UNL     1      11.503   2.600   9.680  1.00  0.00     0.022 C 
HETATM   21  C13 UNL     1      10.640   1.826   8.728  1.00  0.00     0.116 C 
HETATM   22  N4  UNL     1       9.621   1.102   9.421  1.00  0.00    -0.415 N 
HETATM   23  C14 UNL     1       9.488  -0.269   9.026  1.00  0.00     0.143 C 
HETATM   24  C15 UNL     1       9.558   1.337  10.829  1.00  0.00     0.152 C 
ENDBRANCH   9  18
TORSDOF 3
ENDMDL
MODEL 2
REMARK VINA RESULT: -7.141047902      1.381      1.904
REMARK  3 active torsions:
REMARK  status: ('A' for Active; 'I' for Inactive)
REMARK    1  A    between atoms: C2_2  and  C3_4 
REMARK       I    between atoms: C3_4  and  N1_6 
REMARK    2  A    between atoms: N1_6  and  C4_8 
REMARK    3  A    between atoms: N3_16  and  C10_17 
ROOT
HETATM    1  C4  UNL     1      11.665   1.285  16.653  1.00  0.00     0.051 A 
HETATM    2  C5  UNL     1      10.371   1.809  16.776  1.00  0.00     0.117 A 
HETATM    3  N2  UNL     1       9.576   2.057  15.721  1.00  0.00    -0.365 N 
ATOM      4  H2  UNL     1       8.645   2.441  15.879  1.00  0.00     0.165 HD
HETATM    5  C6  UNL     1       9.980   1.813  14.465  1.00  0.00     0.045 A 
HETATM    6  C7  UNL     1      11.241   1.300  14.304  1.00  0.00    -0.004 A 
HETATM    7  C8  UNL     1      12.095   1.029  15.378  1.00  0.00     0.041 A 
HETATM    8  C9  UNL     1      11.466   1.119  12.860  1.00  0.00     0.314 C 
HETATM    9  N3  UNL     1      10.157   1.128  12.294  1.00  0.00     0.104 N 
HETATM   10  C16 UNL     1       9.333   1.979  13.119  1.00  0.00     0.330 C 
ENDROOT
BRANCH   1  11
HETATM   11  N1  UNL     1      12.412   1.051  17.837  1.00  0.00    -0.321 N 
HETATM   12  C3  UNL     1      12.732  -0.152  18.450  1.00  0.00     0.262 C 
HETATM   13  O1  UNL     1      12.356  -1.239  17.964  1.00  0.00    -0.267 OA
ATOM     14  H1  UNL     1      12.765   1.886  18.305  1.00  0.00     0.169 HD
BRANCH  12  15
HETATM   15  C2  UNL     1      13.512  -0.211  19.674  1.00  0.00     0.069 C 
HETATM   16  C1  UNL     1      14.603  -0.956  19.825  1.00  0.00     0.037 C 
HETATM   17 BR1  UNL     1      12.914   0.864  21.156  1.00  0.00    -0.046 Br
ENDBRANCH  12  15
ENDBRANCH   1  11
BRANCH   9  18
HETATM   18  C10 UNL     1      10.207   1.537  10.922  1.00  0.00     0.241 C 
HETATM   19  C11 UNL     1       9.256   0.842  10.012  1.00  0.00     0.039 C 
HETATM   20  C12 UNL     1      10.052   0.125   8.937  1.00  0.00     0.022 C 
HETATM   21  C13 UNL     1      10.874   1.120   8.172  1.00  0.00     0.116 C 
HETATM   22  N4  UNL     1      11.689   1.904   9.046  1.00  0.00    -0.415 N 
HETATM   23  C14 UNL     1      11.641   3.315   8.803  1.00  0.00     0.143 C 
HETATM   24  C15 UNL     1      11.644   1.524  10.423  1.00  0.00     0.152 C 
ENDBRANCH   9  18
TORSDOF 3
ENDMDL
MODEL 3
REMARK VINA RESULT: -7.134055213      0.757      1.465
REMARK  3 active torsions:
REMARK  status: ('A' for Active; 'I' for Inactive)
REMARK    1  A    between atoms: C2_2  and  C3_4 
REMARK       I    between atoms: C3_4  and  N1_6 
REMARK    2  A    between atoms: N1_6  and  C4_8 
REMARK    3  A    between atoms: N3_16  and  C10_17 
ROOT
HETATM    1  C4  UNL     1      12.841   1.539  16.844  1.00  0.00     0.051 A 
HETATM    2  C5  UNL     1      12.539   2.908  16.821  1.00  0.00     0.117 A 
HETATM    3  N2  UNL     1      11.906   3.503  15.796  1.00  0.00    -0.365 N 
ATOM      4  H2  UNL     1      11.717   4.505  15.842  1.00  0.00     0.165 HD
HETATM    5  C6  UNL     1      11.515   2.811  14.715  1.00  0.00     0.045 A 
HETATM    6  C7  UNL     1      11.793   1.469  14.701  1.00  0.00    -0.004 A 
HETATM    7  C8  UNL     1      12.450   0.816  15.749  1.00  0.00     0.041 A 
HETATM    8  C9  UNL     1      11.283   0.924  13.431  1.00  0.00     0.314 C 
HETATM    9  N3  UNL     1      10.348   1.901  12.976  1.00  0.00     0.104 N 
HETATM   10  C16 UNL     1      10.803   3.188  13.446  1.00  0.00     0.330 C 
ENDROOT
BRANCH   1  11
HETATM   11  N1  UNL     1      13.503   1.014  17.985  1.00  0.00    -0.321 N 
HETATM   12  C3  UNL     1      12.963   0.430  19.121  1.00  0.00     0.262 C 
HETATM   13  O1  UNL     1      11.728   0.300  19.251  1.00  0.00    -0.267 OA
ATOM     14  H1  UNL     1      14.521   1.075  17.966  1.00  0.00     0.169 HD
BRANCH  12  15
HETATM   15  C2  UNL     1      13.795  -0.056  20.209  1.00  0.00     0.069 C 
HETATM   16  C1  UNL     1      14.761  -0.958  20.060  1.00  0.00     0.037 C 
HETATM   17 BR1  UNL     1      13.466   0.665  21.964  1.00  0.00    -0.046 Br
ENDBRANCH  12  15
ENDBRANCH   1  11
BRANCH   9  18
HETATM   18  C10 UNL     1      10.204   1.831  11.552  1.00  0.00     0.241 C 
HETATM   19  C11 UNL     1       9.043   1.037  11.065  1.00  0.00     0.039 C 
HETATM   20  C12 UNL     1       9.562  -0.103  10.211  1.00  0.00     0.022 C 
HETATM   21  C13 UNL     1      10.339   0.449   9.052  1.00  0.00     0.116 C 
HETATM   22  N4  UNL     1      11.370   1.335   9.493  1.00  0.00    -0.415 N 
HETATM   23  C14 UNL     1      11.430   2.581   8.788  1.00  0.00     0.143 C 
HETATM   24  C15 UNL     1      11.524   1.433  10.910  1.00  0.00     0.152 C 
ENDBRANCH   9  18
TORSDOF 3
ENDMDL
MODEL 4
REMARK VINA RESULT: -6.959281227      3.549      8.428
REMARK  3 active torsions:
REMARK  status: ('A' for Active; 'I' for Inactive)
REMARK    1  A    between atoms: C2_2  and  C3_4 
REMARK       I    between atoms: C3_4  and  N1_6 
REMARK    2  A    between atoms: N1_6  and  C4_8 
REMARK    3  A    between atoms: N3_16  and  C10_17 
ROOT
HETATM    1  C4  UNL     1      11.599   1.777  13.400  1.00  0.00     0.051 A 
HETATM    2  C5  UNL     1      11.346   3.059  13.908  1.00  0.00     0.117 A 
HETATM    3  N2  UNL     1      11.535   3.388  15.198  1.00  0.00    -0.365 N 
ATOM      4  H2  UNL     1      11.330   4.339  15.504  1.00  0.00     0.165 HD
HETATM    5  C6  UNL     1      11.988   2.496  16.091  1.00  0.00     0.045 A 
HETATM    6  C7  UNL     1      12.248   1.230  15.632  1.00  0.00    -0.004 A 
HETATM    7  C8  UNL     1      12.062   0.852  14.298  1.00  0.00     0.041 A 
HETATM    8  C9  UNL     1      12.724   0.432  16.774  1.00  0.00     0.314 C 
HETATM    9  N3  UNL     1      13.130   1.401  17.739  1.00  0.00     0.104 N 
HETATM   10  C16 UNL     1      12.296   2.566  17.561  1.00  0.00     0.330 C 
ENDROOT
BRANCH   1  11
HETATM   11  N1  UNL     1      11.374   1.544  12.018  1.00  0.00    -0.321 N 
HETATM   12  C3  UNL     1      10.174   1.418  11.334  1.00  0.00     0.262 C 
HETATM   13  O1  UNL     1       9.082   1.511  11.931  1.00  0.00    -0.267 OA
ATOM     14  H1  UNL     1      12.215   1.456  11.447  1.00  0.00     0.169 HD
BRANCH  12  15
HETATM   15  C2  UNL     1      10.124   1.174   9.903  1.00  0.00     0.069 C 
HETATM   16  C1  UNL     1       9.366   0.242   9.334  1.00  0.00     0.037 C 
HETATM   17 BR1  UNL     1      11.228   2.281   8.778  1.00  0.00    -0.046 Br
ENDBRANCH  12  15
ENDBRANCH   1  11
BRANCH   9  18
HETATM   18  C10 UNL     1      13.067   0.850  19.060  1.00  0.00     0.241 C 
HETATM   19  C11 UNL     1      12.994  -0.635  19.130  1.00  0.00     0.039 C 
HETATM   20  C12 UNL     1      11.706  -1.022  19.833  1.00  0.00     0.022 C 
HETATM   21  C13 UNL     1      11.688  -0.432  21.212  1.00  0.00     0.116 C 
HETATM   22  N4  UNL     1      11.907   0.980  21.177  1.00  0.00    -0.415 N 
HETATM   23  C14 UNL     1      12.883   1.457  22.110  1.00  0.00     0.143 C 
HETATM   24  C15 UNL     1      11.987   1.551  19.869  1.00  0.00     0.152 C 
ENDBRANCH   9  18
TORSDOF 3
ENDMDL
MODEL 5
REMARK VINA RESULT: -6.902783902      3.555      8.497
REMARK  3 active torsions:
REMARK  status: ('A' for Active; 'I' for Inactive)
REMARK    1  A    between atoms: C2_2  and  C3_4 
REMARK       I    between atoms: C3_4  and  N1_6 
REMARK    2  A    between atoms: N1_6  and  C4_8 
REMARK    3  A    between atoms: N3_16  and  C10_17 
ROOT
HETATM    1  C4  UNL     1      11.323   1.705  13.527  1.00  0.00     0.051 A 
HETATM    2  C5  UNL     1      11.193   3.010  14.020  1.00  0.00     0.117 A 
HETATM    3  N2  UNL     1      11.507   3.354  15.281  1.00  0.00    -0.365 N 
ATOM      4  H2  UNL     1      11.388   4.322  15.578  1.00  0.00     0.165 HD
HETATM    5  C6  UNL     1      11.972   2.452  16.159  1.00  0.00     0.045 A 
HETATM    6  C7  UNL     1      12.112   1.163  15.713  1.00  0.00    -0.004 A 
HETATM    7  C8  UNL     1      11.796   0.770  14.408  1.00  0.00     0.041 A 
HETATM    8  C9  UNL     1      12.627   0.359  16.835  1.00  0.00     0.314 C 
HETATM    9  N3  UNL     1      13.170   1.318  17.739  1.00  0.00     0.104 N 
HETATM   10  C16 UNL     1      12.400   2.532  17.597  1.00  0.00     0.330 C 
ENDROOT
BRANCH   1  11
HETATM   11  N1  UNL     1      10.973   1.459  12.173  1.00  0.00    -0.321 N 
HETATM   12  C3  UNL     1      11.468   2.046  11.018  1.00  0.00     0.262 C 
HETATM   13  O1  UNL     1      12.352   2.926  11.073  1.00  0.00    -0.267 OA
ATOM     14  H1  UNL     1      10.255   0.748  12.029  1.00  0.00     0.169 HD
BRANCH  12  15
HETATM   15  C2  UNL     1      10.991   1.674   9.697  1.00  0.00     0.069 C 
HETATM   16  C1  UNL     1      11.494   2.151   8.563  1.00  0.00     0.037 C 
HETATM   17 BR1  UNL     1       9.543   0.407   9.605  1.00  0.00    -0.046 Br
ENDBRANCH  12  15
ENDBRANCH   1  11
BRANCH   9  18
HETATM   18  C10 UNL     1      13.179   0.800  19.075  1.00  0.00     0.241 C 
HETATM   19  C11 UNL     1      13.145  -0.684  19.185  1.00  0.00     0.039 C 
HETATM   20  C12 UNL     1      11.899  -1.083  19.953  1.00  0.00     0.022 C 
HETATM   21  C13 UNL     1      11.927  -0.459  21.316  1.00  0.00     0.116 C 
HETATM   22  N4  UNL     1      12.109   0.956  21.237  1.00  0.00    -0.415 N 
HETATM   23  C14 UNL     1      13.113   1.480  22.115  1.00  0.00     0.143 C 
HETATM   24  C15 UNL     1      12.118   1.495  19.914  1.00  0.00     0.152 C 
ENDBRANCH   9  18
TORSDOF 3
ENDMDL
