MODEL 1
REMARK VINA RESULT: -6.851832879      0.000      0.000
REMARK  6 active torsions:
REMARK  status: ('A' for Active; 'I' for Inactive)
REMARK    1  A    between atoms: O1_2  and  C2_3 
REMARK    2  A    between atoms: C2_3  and  C3_4 
REMARK    3  A    between atoms: C3_4  and  N1_5 
REMARK    4  A    between atoms: N1_5  and  C4_7 
REMARK    5  A    between atoms: C9_17  and  O2_18 
REMARK    6  A    between atoms: C9_17  and  C10_20 
ROOT
HETATM    1  C4  UNL     1       8.291  -0.907  13.120  1.00  0.00     0.132 A 
HETATM    2  N2  UNL     1       7.164  -1.507  13.472  1.00  0.00    -0.331 N 
ATOM      3  H2  UNL     1       7.006  -2.488  13.240  1.00  0.00     0.168 HD
HETATM    4  C5  UNL     1       6.229  -0.803  14.139  1.00  0.00     0.079 A 
HETATM    5  C6  UNL     1       4.940  -1.448  14.553  1.00  0.00     0.089 C 
HETATM    6  N3  UNL     1       6.360   0.491  14.480  1.00  0.00    -0.347 N 
ATOM      7  H3  UNL     1       5.619   0.976  14.986  1.00  0.00     0.167 HD
HETATM    8  C7  UNL     1       7.501   1.133  14.133  1.00  0.00     0.042 A 
HETATM    9  C8  UNL     1       8.482   0.424  13.440  1.00  0.00     0.105 A 
HETATM   10  N4  UNL     1       9.656   1.131  13.069  1.00  0.00    -0.302 N 
HETATM   11  C9  UNL     1      10.205   1.033  11.822  1.00  0.00     0.127 C 
HETATM   12  C14 UNL     1      10.091   2.073  14.118  1.00  0.00     0.116 C 
HETATM   13  C15 UNL     1      11.366   2.767  13.775  1.00  0.00     0.057 C 
HETATM   14 CL1  UNL     1      10.228   1.319  15.690  1.00  0.00    -0.095 Cl
HETATM   15  C16 UNL     1       8.986   3.102  14.139  1.00  0.00     0.031 C 
HETATM   16  C17 UNL     1       9.325   4.239  15.099  1.00  0.00     0.014 C 
HETATM   17  C18 UNL     1       7.683   2.536  14.545  1.00  0.00     0.067 C 
ENDROOT
BRANCH  11  18
HETATM   18  O2  UNL     1      11.517   1.008  11.806  1.00  0.00    -0.349 OA
ATOM     19  H2  UNL     1      11.901   1.005  10.936  1.00  0.00     0.219 HD
ENDBRANCH  11  18
BRANCH  11  20
HETATM   20  C10 UNL     1       9.646   0.976  10.475  1.00  0.00     0.014 C 
HETATM   21  C11 UNL     1       9.949  -0.345   9.745  1.00  0.00     0.023 C 
HETATM   22  C12 UNL     1      10.577   1.943   9.582  1.00  0.00     0.023 C 
HETATM   23  C13 UNL     1       8.313   1.539  10.183  1.00  0.00     0.023 C 
ENDBRANCH  11  20
BRANCH   1  24
HETATM   24  N1  UNL     1       9.289  -1.495  12.543  1.00  0.00    -0.372 N 
ATOM     25  H1  UNL     1       9.546  -1.150  11.619  1.00  0.00     0.161 HD
BRANCH  24  26
HETATM   26  C3  UNL     1      10.065  -2.566  13.054  1.00  0.00     0.147 C 
BRANCH  26  27
HETATM   27  C2  UNL     1       9.855  -3.875  12.355  1.00  0.00     0.186 C 
BRANCH  27  28
HETATM   28  O1  UNL     1       9.668  -3.604  11.000  1.00  0.00    -0.394 OA
HETATM   29  C1  UNL     1       8.729  -4.471  10.432  1.00  0.00     0.201 C 
ENDBRANCH  27  28
ENDBRANCH  26  27
ENDBRANCH  24  26
ENDBRANCH   1  24
TORSDOF 6
ENDMDL
MODEL 2
REMARK VINA RESULT: -6.582117801      3.003      4.299
REMARK  6 active torsions:
REMARK  status: ('A' for Active; 'I' for Inactive)
REMARK    1  A    between atoms: O1_2  and  C2_3 
REMARK    2  A    between atoms: C2_3  and  C3_4 
REMARK    3  A    between atoms: C3_4  and  N1_5 
REMARK    4  A    between atoms: N1_5  and  C4_7 
REMARK    5  A    between atoms: C9_17  and  O2_18 
REMARK    6  A    between atoms: C9_17  and  C10_20 
ROOT
HETATM    1  C4  UNL     1       8.459   1.805  16.039  1.00  0.00     0.132 A 
HETATM    2  N2  UNL     1       7.369   2.472  16.388  1.00  0.00    -0.331 N 
ATOM      3  H2  UNL     1       6.468   1.998  16.442  1.00  0.00     0.168 HD
HETATM    4  C5  UNL     1       7.468   3.786  16.669  1.00  0.00     0.079 A 
HETATM    5  C6  UNL     1       6.256   4.576  17.065  1.00  0.00     0.089 C 
HETATM    6  N3  UNL     1       8.617   4.483  16.619  1.00  0.00    -0.347 N 
ATOM      7  H3  UNL     1       8.635   5.479  16.843  1.00  0.00     0.167 HD
HETATM    8  C7  UNL     1       9.749   3.829  16.266  1.00  0.00     0.042 A 
HETATM    9  C8  UNL     1       9.669   2.469  15.968  1.00  0.00     0.105 A 
HETATM   10  N4  UNL     1      10.868   1.817  15.577  1.00  0.00    -0.302 N 
HETATM   11  C9  UNL     1      10.922   0.964  14.511  1.00  0.00     0.127 C 
HETATM   12  C14 UNL     1      12.035   2.292  16.345  1.00  0.00     0.116 C 
HETATM   13  C15 UNL     1      13.288   1.561  15.999  1.00  0.00     0.057 C 
HETATM   14 CL1  UNL     1      11.774   2.240  18.074  1.00  0.00    -0.095 Cl
HETATM   15  C16 UNL     1      12.185   3.726  15.895  1.00  0.00     0.031 C 
HETATM   16  C17 UNL     1      13.433   4.356  16.506  1.00  0.00     0.014 C 
HETATM   17  C18 UNL     1      11.025   4.565  16.258  1.00  0.00     0.067 C 
ENDROOT
BRANCH  11  18
HETATM   18  O2  UNL     1      11.685  -0.088  14.694  1.00  0.00    -0.349 OA
ATOM     19  H2  UNL     1      11.296  -0.910  14.418  1.00  0.00     0.219 HD
ENDBRANCH  11  18
BRANCH  11  20
HETATM   20  C10 UNL     1      10.329   0.977  13.177  1.00  0.00     0.014 C 
HETATM   21  C11 UNL     1       9.953  -0.424  12.663  1.00  0.00     0.023 C 
HETATM   22  C12 UNL     1      11.552   1.265  12.167  1.00  0.00     0.023 C 
HETATM   23  C13 UNL     1       9.390   2.043  12.776  1.00  0.00     0.023 C 
ENDBRANCH  11  20
BRANCH   1  24
HETATM   24  N1  UNL     1       8.502   0.531  15.818  1.00  0.00    -0.372 N 
ATOM     25  H1  UNL     1       8.552   0.242  14.841  1.00  0.00     0.161 HD
BRANCH  24  26
HETATM   26  C3  UNL     1       8.489  -0.508  16.783  1.00  0.00     0.147 C 
BRANCH  26  27
HETATM   27  C2  UNL     1       8.962  -1.836  16.275  1.00  0.00     0.186 C 
BRANCH  27  28
HETATM   28  O1  UNL     1      10.334  -1.915  16.517  1.00  0.00    -0.394 OA
HETATM   29  C1  UNL     1      10.652  -1.451  17.797  1.00  0.00     0.201 C 
ENDBRANCH  27  28
ENDBRANCH  26  27
ENDBRANCH  24  26
ENDBRANCH   1  24
TORSDOF 6
ENDMDL
MODEL 3
REMARK VINA RESULT: -6.512735386      3.066      5.304
REMARK  6 active torsions:
REMARK  status: ('A' for Active; 'I' for Inactive)
REMARK    1  A    between atoms: O1_2  and  C2_3 
REMARK    2  A    between atoms: C2_3  and  C3_4 
REMARK    3  A    between atoms: C3_4  and  N1_5 
REMARK    4  A    between atoms: N1_5  and  C4_7 
REMARK    5  A    between atoms: C9_17  and  O2_18 
REMARK    6  A    between atoms: C9_17  and  C10_20 
ROOT
HETATM    1  C4  UNL     1      10.446   1.657  13.262  1.00  0.00     0.132 A 
HETATM    2  N2  UNL     1      10.578   1.584  11.946  1.00  0.00    -0.331 N 
ATOM      3  H2  UNL     1      11.497   1.677  11.512  1.00  0.00     0.168 HD
HETATM    4  C5  UNL     1       9.482   1.387  11.188  1.00  0.00     0.079 A 
HETATM    5  C6  UNL     1       9.591   1.301   9.695  1.00  0.00     0.089 C 
HETATM    6  N3  UNL     1       8.238   1.257  11.681  1.00  0.00    -0.347 N 
ATOM      7  H3  UNL     1       7.441   1.109  11.061  1.00  0.00     0.167 HD
HETATM    8  C7  UNL     1       8.070   1.328  13.024  1.00  0.00     0.042 A 
HETATM    9  C8  UNL     1       9.191   1.534  13.827  1.00  0.00     0.105 A 
HETATM   10  N4  UNL     1       8.980   1.628  15.228  1.00  0.00    -0.302 N 
HETATM   11  C9  UNL     1       9.567   2.595  15.993  1.00  0.00     0.127 C 
HETATM   12  C14 UNL     1       7.952   0.680  15.699  1.00  0.00     0.116 C 
HETATM   13  C15 UNL     1       7.774   0.713  17.180  1.00  0.00     0.057 C 
HETATM   14 CL1  UNL     1       8.255  -0.961  15.173  1.00  0.00    -0.095 Cl
HETATM   15  C16 UNL     1       6.685   1.195  15.060  1.00  0.00     0.031 C 
HETATM   16  C17 UNL     1       5.476   0.395  15.536  1.00  0.00     0.014 C 
HETATM   17  C18 UNL     1       6.721   1.134  13.585  1.00  0.00     0.067 C 
ENDROOT
BRANCH  11  18
HETATM   18  O2  UNL     1       9.971   2.186  17.173  1.00  0.00    -0.349 OA
ATOM     19  H2  UNL     1       9.273   1.902  17.752  1.00  0.00     0.219 HD
ENDBRANCH  11  18
BRANCH  11  20
HETATM   20  C10 UNL     1       9.827   4.018  15.795  1.00  0.00     0.014 C 
HETATM   21  C11 UNL     1      11.261   4.434  16.172  1.00  0.00     0.023 C 
HETATM   22  C12 UNL     1       9.055   4.766  16.996  1.00  0.00     0.023 C 
HETATM   23  C13 UNL     1       9.275   4.735  14.630  1.00  0.00     0.023 C 
ENDBRANCH  11  20
BRANCH   1  24
HETATM   24  N1  UNL     1      11.430   1.770  14.095  1.00  0.00    -0.372 N 
ATOM     25  H1  UNL     1      11.547   2.682  14.536  1.00  0.00     0.161 HD
BRANCH  24  26
HETATM   26  C3  UNL     1      12.362   0.767  14.462  1.00  0.00     0.147 C 
BRANCH  26  27
HETATM   27  C2  UNL     1      12.950   0.935  15.830  1.00  0.00     0.186 C 
BRANCH  27  28
HETATM   28  O1  UNL     1      12.234   0.112  16.700  1.00  0.00    -0.394 OA
HETATM   29  C1  UNL     1      12.817   0.085  17.971  1.00  0.00     0.201 C 
ENDBRANCH  27  28
ENDBRANCH  26  27
ENDBRANCH  24  26
ENDBRANCH   1  24
TORSDOF 6
ENDMDL
MODEL 4
REMARK VINA RESULT: -6.466348410      2.560      2.854
REMARK  6 active torsions:
REMARK  status: ('A' for Active; 'I' for Inactive)
REMARK    1  A    between atoms: O1_2  and  C2_3 
REMARK    2  A    between atoms: C2_3  and  C3_4 
REMARK    3  A    between atoms: C3_4  and  N1_5 
REMARK    4  A    between atoms: N1_5  and  C4_7 
REMARK    5  A    between atoms: C9_17  and  O2_18 
REMARK    6  A    between atoms: C9_17  and  C10_20 
ROOT
HETATM    1  C4  UNL     1       8.928  -0.883  15.249  1.00  0.00     0.132 A 
HETATM    2  N2  UNL     1       7.713  -1.161  15.696  1.00  0.00    -0.331 N 
ATOM      3  H2  UNL     1       7.141  -1.868  15.234  1.00  0.00     0.168 HD
HETATM    4  C5  UNL     1       7.244  -0.497  16.770  1.00  0.00     0.079 A 
HETATM    5  C6  UNL     1       5.872  -0.783  17.305  1.00  0.00     0.089 C 
HETATM    6  N3  UNL     1       7.934   0.448  17.434  1.00  0.00    -0.347 N 
ATOM      7  H3  UNL     1       7.529   0.920  18.242  1.00  0.00     0.167 HD
HETATM    8  C7  UNL     1       9.180   0.755  17.000  1.00  0.00     0.042 A 
HETATM    9  C8  UNL     1       9.685   0.082  15.888  1.00  0.00     0.105 A 
HETATM   10  N4  UNL     1      10.983   0.443  15.442  1.00  0.00    -0.302 N 
HETATM   11  C9  UNL     1      11.272   0.650  14.123  1.00  0.00     0.127 C 
HETATM   12  C14 UNL     1      11.900   0.714  16.566  1.00  0.00     0.116 C 
HETATM   13  C15 UNL     1      13.289   1.020  16.115  1.00  0.00     0.057 C 
HETATM   14 CL1  UNL     1      11.929  -0.580  17.742  1.00  0.00    -0.095 Cl
HETATM   15  C16 UNL     1      11.323   1.961  17.192  1.00  0.00     0.031 C 
HETATM   16  C17 UNL     1      12.220   2.465  18.318  1.00  0.00     0.014 C 
HETATM   17  C18 UNL     1       9.970   1.749  17.747  1.00  0.00     0.067 C 
ENDROOT
BRANCH  11  18
HETATM   18  O2  UNL     1      12.445   0.200  13.746  1.00  0.00    -0.349 OA
ATOM     19  H2  UNL     1      12.433  -0.309  12.944  1.00  0.00     0.219 HD
ENDBRANCH  11  18
BRANCH  11  20
HETATM   20  C10 UNL     1      10.562   1.299  13.025  1.00  0.00     0.014 C 
HETATM   21  C11 UNL     1      10.458   0.421  11.764  1.00  0.00     0.023 C 
HETATM   22  C12 UNL     1      11.585   2.402  12.445  1.00  0.00     0.023 C 
HETATM   23  C13 UNL     1       9.375   2.138  13.279  1.00  0.00     0.023 C 
ENDBRANCH  11  20
BRANCH   1  24
HETATM   24  N1  UNL     1       9.513  -1.503  14.275  1.00  0.00    -0.372 N 
ATOM     25  H1  UNL     1      10.427  -1.146  13.995  1.00  0.00     0.161 HD
BRANCH  24  26
HETATM   26  C3  UNL     1       9.026  -2.623  13.555  1.00  0.00     0.147 C 
BRANCH  26  27
HETATM   27  C2  UNL     1      10.043  -3.292  12.682  1.00  0.00     0.186 C 
BRANCH  27  28
HETATM   28  O1  UNL     1       9.700  -3.025  11.356  1.00  0.00    -0.394 OA
HETATM   29  C1  UNL     1       8.992  -4.089  10.789  1.00  0.00     0.201 C 
ENDBRANCH  27  28
ENDBRANCH  26  27
ENDBRANCH  24  26
ENDBRANCH   1  24
TORSDOF 6
ENDMDL
MODEL 5
REMARK VINA RESULT: -6.439819302      1.964      4.845
REMARK  6 active torsions:
REMARK  status: ('A' for Active; 'I' for Inactive)
REMARK    1  A    between atoms: O1_2  and  C2_3 
REMARK    2  A    between atoms: C2_3  and  C3_4 
REMARK    3  A    between atoms: C3_4  and  N1_5 
REMARK    4  A    between atoms: N1_5  and  C4_7 
REMARK    5  A    between atoms: C9_17  and  O2_18 
REMARK    6  A    between atoms: C9_17  and  C10_20 
ROOT
HETATM    1  C4  UNL     1       9.237   0.955  12.820  1.00  0.00     0.132 A 
HETATM    2  N2  UNL     1      10.078   1.961  13.000  1.00  0.00    -0.331 N 
ATOM      3  H2  UNL     1      10.512   2.422  12.200  1.00  0.00     0.168 HD
HETATM    4  C5  UNL     1      10.353   2.368  14.255  1.00  0.00     0.079 A 
HETATM    5  C6  UNL     1      11.301   3.504  14.499  1.00  0.00     0.089 C 
HETATM    6  N3  UNL     1       9.823   1.814  15.360  1.00  0.00    -0.347 N 
ATOM      7  H3  UNL     1      10.066   2.162  16.287  1.00  0.00     0.167 HD
HETATM    8  C7  UNL     1       8.959   0.781  15.209  1.00  0.00     0.042 A 
HETATM    9  C8  UNL     1       8.663   0.342  13.919  1.00  0.00     0.105 A 
HETATM   10  N4  UNL     1       7.774  -0.757  13.794  1.00  0.00    -0.302 N 
HETATM   11  C9  UNL     1       8.020  -1.805  12.952  1.00  0.00     0.127 C 
HETATM   12  C14 UNL     1       6.675  -0.697  14.777  1.00  0.00     0.116 C 
HETATM   13  C15 UNL     1       5.690  -1.804  14.607  1.00  0.00     0.057 C 
HETATM   14 CL1  UNL     1       5.846   0.843  14.770  1.00  0.00    -0.095 Cl
HETATM   15  C16 UNL     1       7.380  -0.891  16.098  1.00  0.00     0.031 C 
HETATM   16  C17 UNL     1       6.373  -0.976  17.241  1.00  0.00     0.014 C 
HETATM   17  C18 UNL     1       8.330   0.197  16.406  1.00  0.00     0.067 C 
ENDROOT
BRANCH  11  18
HETATM   18  O2  UNL     1       6.959  -2.267  12.333  1.00  0.00    -0.349 OA
ATOM     19  H2  UNL     1       6.536  -1.643  11.755  1.00  0.00     0.219 HD
ENDBRANCH  11  18
BRANCH  11  20
HETATM   20  C10 UNL     1       9.221  -2.556  12.602  1.00  0.00     0.014 C 
HETATM   21  C11 UNL     1       9.332  -2.862  11.097  1.00  0.00     0.023 C 
HETATM   22  C12 UNL     1       8.951  -4.060  13.116  1.00  0.00     0.023 C 
HETATM   23  C13 UNL     1      10.512  -2.273  13.259  1.00  0.00     0.023 C 
ENDBRANCH  11  20
BRANCH   1  24
HETATM   24  N1  UNL     1       8.840   0.524  11.666  1.00  0.00    -0.372 N 
ATOM     25  H1  UNL     1       8.331  -0.359  11.662  1.00  0.00     0.161 HD
BRANCH  24  26
HETATM   26  C3  UNL     1       9.036   1.145  10.406  1.00  0.00     0.147 C 
BRANCH  26  27
HETATM   27  C2  UNL     1       9.558   0.233   9.337  1.00  0.00     0.186 C 
BRANCH  27  28
HETATM   28  O1  UNL     1       9.924   1.025   8.249  1.00  0.00    -0.394 OA
HETATM   29  C1  UNL     1      11.309   1.211   8.198  1.00  0.00     0.201 C 
ENDBRANCH  27  28
ENDBRANCH  26  27
ENDBRANCH  24  26
ENDBRANCH   1  24
TORSDOF 6
ENDMDL
