MODEL 1
REMARK VINA RESULT: -6.342247934      0.000      0.000
REMARK  3 active torsions:
REMARK  status: ('A' for Active; 'I' for Inactive)
REMARK       I    between atoms: C1_2  and  N1_3 
REMARK    1  A    between atoms: C1_2  and  C7_14 
REMARK    2  A    between atoms: N1_3  and  N2_5 
REMARK    3  A    between atoms: C2_7  and  C3_8 
ROOT
HETATM    1  O1  UNL     1      12.272  -0.002  13.840  1.00  0.00    -0.271 OA
HETATM    2  C1  UNL     1      11.835   1.148  14.015  1.00  0.00     0.241 C 
HETATM    3  N1  UNL     1      11.876   1.690  15.319  1.00  0.00    -0.270 N 
ATOM      4  H1  UNL     1      11.518   2.634  15.464  1.00  0.00     0.190 HD
ENDROOT
BRANCH   2   5
HETATM    5  C7  UNL     1      11.283   1.936  12.888  1.00  0.00     0.096 C 
HETATM    6  C8  UNL     1      10.044   2.661  13.307  1.00  0.00     0.090 C 
HETATM    7  S2  UNL     1       8.721   1.515  12.833  1.00  0.00    -0.135 SA
HETATM    8  C9  UNL     1       9.762   0.207  12.105  1.00  0.00     0.252 C 
HETATM    9  N3  UNL     1       9.272  -0.223  10.816  1.00  0.00    -0.062 N 
HETATM   10  C12 UNL     1      10.982   1.012  11.758  1.00  0.00     0.042 C 
HETATM   11  C10 UNL     1       9.271   1.042  10.079  1.00  0.00     0.234 C 
ATOM     12  H32 UNL     1       9.793  -0.984  10.380  1.00  0.00     0.278 HD
ATOM     13  H31 UNL     1       8.381  -0.721  10.830  1.00  0.00     0.278 HD
HETATM   14  C11 UNL     1      10.552   1.737  10.502  1.00  0.00     0.036 C 
ENDBRANCH   2   5
BRANCH   3  15
HETATM   15  N2  UNL     1      12.382   1.001  16.412  1.00  0.00    -0.308 N 
HETATM   16  C2  UNL     1      12.332   1.473  17.597  1.00  0.00     0.126 C 
ATOM     17  H2  UNL     1      12.807   0.087  16.263  1.00  0.00     0.186 HD
BRANCH  16  18
HETATM   18  C3  UNL     1      12.866   0.747  18.751  1.00  0.00     0.023 A 
HETATM   19  C4  UNL     1      13.772  -0.278  18.772  1.00  0.00     0.022 A 
HETATM   20  C5  UNL     1      14.099  -0.774  19.972  1.00  0.00     0.028 A 
HETATM   21  C6  UNL     1      13.508  -0.223  21.075  1.00  0.00     0.052 A 
HETATM   22 BR1  UNL     1      13.770  -0.713  22.921  1.00  0.00    -0.043 Br
HETATM   23  S1  UNL     1      12.505   0.982  20.402  1.00  0.00    -0.081 SA
ENDBRANCH  16  18
ENDBRANCH   3  15
TORSDOF 3
ENDMDL
MODEL 2
REMARK VINA RESULT: -6.151013577      2.485      2.865
REMARK  3 active torsions:
REMARK  status: ('A' for Active; 'I' for Inactive)
REMARK       I    between atoms: C1_2  and  N1_3 
REMARK    1  A    between atoms: C1_2  and  C7_14 
REMARK    2  A    between atoms: N1_3  and  N2_5 
REMARK    3  A    between atoms: C2_7  and  C3_8 
ROOT
HETATM    1  O1  UNL     1      11.818  -0.002  14.151  1.00  0.00    -0.271 OA
HETATM    2  C1  UNL     1      10.618  -0.182  14.421  1.00  0.00     0.241 C 
HETATM    3  N1  UNL     1      10.214  -0.093  15.773  1.00  0.00    -0.270 N 
ATOM      4  H1  UNL     1       9.230  -0.241  15.996  1.00  0.00     0.190 HD
ENDROOT
BRANCH   2   5
HETATM    5  C7  UNL     1       9.631  -0.482  13.358  1.00  0.00     0.096 C 
HETATM    6  C8  UNL     1       8.301  -0.820  13.951  1.00  0.00     0.090 C 
HETATM    7  S2  UNL     1       8.356  -2.628  14.070  1.00  0.00    -0.135 SA
HETATM    8  C9  UNL     1      10.010  -2.884  13.347  1.00  0.00     0.252 C 
HETATM    9  N3  UNL     1      10.007  -3.920  12.339  1.00  0.00    -0.062 N 
HETATM   10  C12 UNL     1      10.137  -1.623  12.542  1.00  0.00     0.042 C 
HETATM   11  C10 UNL     1       9.002  -3.404  11.407  1.00  0.00     0.234 C 
ATOM     12  H32 UNL     1      10.916  -4.134  11.929  1.00  0.00     0.278 HD
ATOM     13  H31 UNL     1       9.839  -4.866  12.684  1.00  0.00     0.278 HD
HETATM   14  C11 UNL     1       9.272  -1.912  11.336  1.00  0.00     0.036 C 
ENDBRANCH   2   5
BRANCH   3  15
HETATM   15  N2  UNL     1      11.092   0.185  16.811  1.00  0.00    -0.308 N 
HETATM   16  C2  UNL     1      11.141  -0.526  17.870  1.00  0.00     0.126 C 
ATOM     17  H2  UNL     1      11.719   0.985  16.724  1.00  0.00     0.186 HD
BRANCH  16  18
HETATM   18  C3  UNL     1      12.066  -0.232  18.966  1.00  0.00     0.023 A 
HETATM   19  C4  UNL     1      12.053   0.823  19.838  1.00  0.00     0.022 A 
HETATM   20  C5  UNL     1      13.021   0.860  20.762  1.00  0.00     0.028 A 
HETATM   21  C6  UNL     1      13.942  -0.150  20.763  1.00  0.00     0.052 A 
HETATM   22 BR1  UNL     1      15.441  -0.376  21.954  1.00  0.00    -0.043 Br
HETATM   23  S1  UNL     1      13.427  -1.132  19.466  1.00  0.00    -0.081 SA
ENDBRANCH  16  18
ENDBRANCH   3  15
TORSDOF 3
ENDMDL
MODEL 3
REMARK VINA RESULT: -6.117627475      0.925      1.171
REMARK  3 active torsions:
REMARK  status: ('A' for Active; 'I' for Inactive)
REMARK       I    between atoms: C1_2  and  N1_3 
REMARK    1  A    between atoms: C1_2  and  C7_14 
REMARK    2  A    between atoms: N1_3  and  N2_5 
REMARK    3  A    between atoms: C2_7  and  C3_8 
ROOT
HETATM    1  O1  UNL     1      12.277   0.188  13.860  1.00  0.00    -0.271 OA
HETATM    2  C1  UNL     1      11.727   1.303  13.846  1.00  0.00     0.241 C 
HETATM    3  N1  UNL     1      11.664   2.035  15.053  1.00  0.00    -0.270 N 
ATOM      4  H1  UNL     1      11.212   2.949  15.043  1.00  0.00     0.190 HD
ENDROOT
BRANCH   2   5
HETATM    5  C7  UNL     1      11.150   1.855  12.598  1.00  0.00     0.096 C 
HETATM    6  C8  UNL     1       9.870   2.576  12.882  1.00  0.00     0.090 C 
HETATM    7  S2  UNL     1       8.614   1.298  12.608  1.00  0.00    -0.135 SA
HETATM    8  C9  UNL     1       9.729  -0.060  12.121  1.00  0.00     0.252 C 
HETATM    9  N3  UNL     1       9.277  -0.730  10.923  1.00  0.00    -0.062 N 
HETATM   10  C12 UNL     1      10.910   0.736  11.644  1.00  0.00     0.042 C 
HETATM   11  C10 UNL     1       9.221   0.387   9.979  1.00  0.00     0.234 C 
ATOM     12  H32 UNL     1       9.842  -1.527  10.627  1.00  0.00     0.278 HD
ATOM     13  H31 UNL     1       8.413  -1.265  11.020  1.00  0.00     0.278 HD
HETATM   14  C11 UNL     1      10.459   1.211  10.281  1.00  0.00     0.036 C 
ENDBRANCH   2   5
BRANCH   3  15
HETATM   15  N2  UNL     1      12.187   1.570  16.251  1.00  0.00    -0.308 N 
HETATM   16  C2  UNL     1      11.690   1.893  17.382  1.00  0.00     0.126 C 
ATOM     17  H2  UNL     1      12.996   0.950  16.228  1.00  0.00     0.186 HD
BRANCH  16  18
HETATM   18  C3  UNL     1      12.242   1.404  18.647  1.00  0.00     0.023 A 
HETATM   19  C4  UNL     1      11.920   1.780  19.923  1.00  0.00     0.022 A 
HETATM   20  C5  UNL     1      12.577   1.172  20.919  1.00  0.00     0.028 A 
HETATM   21  C6  UNL     1      13.513   0.232  20.588  1.00  0.00     0.052 A 
HETATM   22 BR1  UNL     1      14.615  -0.805  21.782  1.00  0.00    -0.043 Br
HETATM   23  S1  UNL     1      13.448   0.220  18.882  1.00  0.00    -0.081 SA
ENDBRANCH  16  18
ENDBRANCH   3  15
TORSDOF 3
ENDMDL
MODEL 4
REMARK VINA RESULT: -6.108027900      5.592      6.102
REMARK  3 active torsions:
REMARK  status: ('A' for Active; 'I' for Inactive)
REMARK       I    between atoms: C1_2  and  N1_3 
REMARK    1  A    between atoms: C1_2  and  C7_14 
REMARK    2  A    between atoms: N1_3  and  N2_5 
REMARK    3  A    between atoms: C2_7  and  C3_8 
ROOT
HETATM    1  O1  UNL     1       7.419   1.787  11.907  1.00  0.00    -0.271 OA
HETATM    2  C1  UNL     1       8.545   1.411  12.276  1.00  0.00     0.241 C 
HETATM    3  N1  UNL     1       9.024   1.858  13.528  1.00  0.00    -0.270 N 
ATOM      4  H1  UNL     1       9.948   1.551  13.832  1.00  0.00     0.190 HD
ENDROOT
BRANCH   2   5
HETATM    5  C7  UNL     1       9.369   0.517  11.429  1.00  0.00     0.096 C 
HETATM    6  C8  UNL     1      10.724   0.321  12.031  1.00  0.00     0.090 C 
HETATM    7  S2  UNL     1      11.719   1.601  11.220  1.00  0.00    -0.135 SA
HETATM    8  C9  UNL     1      10.419   2.298  10.148  1.00  0.00     0.252 C 
HETATM    9  N3  UNL     1      10.867   2.455   8.783  1.00  0.00    -0.062 N 
HETATM   10  C12 UNL     1       9.489   1.120  10.071  1.00  0.00     0.042 C 
HETATM   11  C10 UNL     1      11.261   1.083   8.457  1.00  0.00     0.234 C 
ATOM     12  H32 UNL     1      10.192   2.879   8.146  1.00  0.00     0.278 HD
ATOM     13  H31 UNL     1      11.586   3.163   8.637  1.00  0.00     0.278 HD
HETATM   14  C11 UNL     1      10.189   0.212   9.084  1.00  0.00     0.036 C 
ENDBRANCH   2   5
BRANCH   3  15
HETATM   15  N2  UNL     1       8.298   2.694  14.364  1.00  0.00    -0.308 N 
HETATM   16  C2  UNL     1       8.858   3.579  15.095  1.00  0.00     0.126 C 
ATOM     17  H2  UNL     1       7.284   2.599  14.396  1.00  0.00     0.186 HD
BRANCH  16  18
HETATM   18  C3  UNL     1       8.093   4.462  15.979  1.00  0.00     0.023 A 
HETATM   19  C4  UNL     1       8.374   4.837  17.264  1.00  0.00     0.022 A 
HETATM   20  C5  UNL     1       7.504   5.664  17.859  1.00  0.00     0.028 A 
HETATM   21  C6  UNL     1       6.412   6.065  17.142  1.00  0.00     0.052 A 
HETATM   22 BR1  UNL     1       4.994   7.239  17.715  1.00  0.00    -0.043 Br
HETATM   23  S1  UNL     1       6.630   5.273  15.647  1.00  0.00    -0.081 SA
ENDBRANCH  16  18
ENDBRANCH   3  15
TORSDOF 3
ENDMDL
MODEL 5
REMARK VINA RESULT: -6.057089464      1.595      1.805
REMARK  3 active torsions:
REMARK  status: ('A' for Active; 'I' for Inactive)
REMARK       I    between atoms: C1_2  and  N1_3 
REMARK    1  A    between atoms: C1_2  and  C7_14 
REMARK    2  A    between atoms: N1_3  and  N2_5 
REMARK    3  A    between atoms: C2_7  and  C3_8 
ROOT
HETATM    1  O1  UNL     1      11.101   3.187  16.696  1.00  0.00    -0.271 OA
HETATM    2  C1  UNL     1      11.783   2.767  15.745  1.00  0.00     0.241 C 
HETATM    3  N1  UNL     1      12.886   1.930  16.029  1.00  0.00    -0.270 N 
ATOM      4  H1  UNL     1      13.447   1.586  15.250  1.00  0.00     0.190 HD
ENDROOT
BRANCH   2   5
HETATM    5  C7  UNL     1      11.454   3.133  14.348  1.00  0.00     0.096 C 
HETATM    6  C8  UNL     1      10.074   3.703  14.263  1.00  0.00     0.090 C 
HETATM    7  S2  UNL     1       9.060   2.254  13.864  1.00  0.00    -0.135 SA
HETATM    8  C9  UNL     1      10.396   1.017  13.787  1.00  0.00     0.252 C 
HETATM    9  N3  UNL     1      10.307   0.195  12.602  1.00  0.00    -0.062 N 
HETATM   10  C12 UNL     1      11.563   1.915  13.495  1.00  0.00     0.042 C 
HETATM   11  C10 UNL     1      10.352   1.212  11.550  1.00  0.00     0.234 C 
ATOM     12  H32 UNL     1      11.008  -0.544  12.527  1.00  0.00     0.278 HD
ATOM     13  H31 UNL     1       9.507  -0.437  12.566  1.00  0.00     0.278 HD
HETATM   14  C11 UNL     1      11.391   2.212  12.022  1.00  0.00     0.036 C 
ENDBRANCH   2   5
BRANCH   3  15
HETATM   15  N2  UNL     1      13.242   1.553  17.316  1.00  0.00    -0.308 N 
HETATM   16  C2  UNL     1      12.982   0.394  17.783  1.00  0.00     0.126 C 
ATOM     17  H2  UNL     1      13.727   2.226  17.910  1.00  0.00     0.186 HD
BRANCH  16  18
HETATM   18  C3  UNL     1      13.356  -0.005  19.141  1.00  0.00     0.023 A 
HETATM   19  C4  UNL     1      14.519  -0.583  19.574  1.00  0.00     0.022 A 
HETATM   20  C5  UNL     1      14.613  -0.850  20.882  1.00  0.00     0.028 A 
HETATM   21  C6  UNL     1      13.550  -0.529  21.679  1.00  0.00     0.052 A 
HETATM   22 BR1  UNL     1      13.384  -0.786  23.582  1.00  0.00    -0.043 Br
HETATM   23  S1  UNL     1      12.440   0.145  20.572  1.00  0.00    -0.081 SA
ENDBRANCH  16  18
ENDBRANCH   3  15
TORSDOF 3
ENDMDL
