MODEL 1
REMARK VINA RESULT: -8.872362811      0.000      0.000
REMARK  12 active torsions:
REMARK  status: ('A' for Active; 'I' for Inactive)
REMARK       I    between atoms: N2_3  and  C2_5 
REMARK       I    between atoms: C2_5  and  N4_9 
REMARK    1  A    between atoms: N4_9  and  C3_11 
REMARK    2  A    between atoms: C3_11  and  N5_12 
REMARK    3  A    between atoms: C5_21  and  C6_22 
REMARK    4  A    between atoms: C7_25  and  N9_26 
REMARK    5  A    between atoms: C9_33  and  C10_34 
REMARK    6  A    between atoms: C10_34  and  O1_35 
REMARK    7  A    between atoms: C10_34  and  N12_37 
REMARK    8  A    between atoms: N12_37  and  C11_39 
REMARK    9  A    between atoms: C11_39  and  C12_40 
REMARK   10  A    between atoms: C12_40  and  C13_42 
REMARK   11  A    between atoms: C14_48  and  C15_49 
REMARK   12  A    between atoms: C15_49  and  N15_50 
ROOT
HETATM    1  N1  UNL     1       8.382  -7.427  33.965  1.00  0.00    -0.171 NA
HETATM    2  C1  UNL     1       8.300  -8.369  33.303  1.00  0.00     0.196 C 
HETATM    3  N2  UNL     1       8.204  -9.515  32.506  1.00  0.00    -0.126 N 
ATOM      4  H2  UNL     1       9.029  -9.841  32.002  1.00  0.00     0.197 HD
HETATM    5  C2  UNL     1       7.001 -10.227  32.383  1.00  0.00     0.684 C 
HETATM    6  N3  UNL     1       6.087 -10.131  33.263  1.00  0.00    -0.234 N 
ATOM      7  H31 UNL     1       5.213 -10.647  33.174  1.00  0.00     0.174 HD
ATOM      8  H32 UNL     1       6.230  -9.527  34.073  1.00  0.00     0.174 HD
HETATM    9  N4  UNL     1       6.802 -11.068  31.256  1.00  0.00    -0.171 N 
ATOM     10  H4  UNL     1       6.999 -12.063  31.359  1.00  0.00     0.182 HD
ENDROOT
BRANCH   9  11
HETATM   11  C3  UNL     1       6.346 -10.608  29.994  1.00  0.00     0.325 C 
HETATM   12  N6  UNL     1       5.170  -9.728  30.059  1.00  0.00    -0.170 N 
HETATM   13  C4  UNL     1       4.730  -9.714  28.680  1.00  0.00     0.700 A 
ATOM     14  H6  UNL     1       4.768  -9.250  30.866  1.00  0.00     0.182 HD
HETATM   15  N7  UNL     1       4.103  -9.028  27.722  1.00  0.00    -0.172 N 
HETATM   16  N14 UNL     1       5.102 -10.869  28.105  1.00  0.00    -0.109 N 
HETATM   17  C5  UNL     1       4.059  -9.670  26.599  1.00  0.00     0.164 A 
ATOM     18  H7  UNL     1       3.703  -8.101  27.859  1.00  0.00     0.186 HD
HETATM   19  N13 UNL     1       4.711 -10.859  26.870  1.00  0.00    -0.266 N 
ATOM     20  H13 UNL     1       4.862 -11.613  26.199  1.00  0.00     0.189 HD
HETATM   21  C14 UNL     1       5.807 -11.691  29.096  1.00  0.00     0.226 C 
BRANCH  11  22
HETATM   22  N5  UNL     1       7.353  -9.809  29.297  1.00  0.00    -0.030 N 
ATOM     23  H53 UNL     1       8.165 -10.375  29.051  1.00  0.00     0.279 HD
ATOM     24  H52 UNL     1       7.039  -9.559  28.359  1.00  0.00     0.279 HD
ATOM     25  H51 UNL     1       7.626  -8.981  29.825  1.00  0.00     0.279 HD
ENDBRANCH  11  22
BRANCH  17  26
HETATM   26  C6  UNL     1       3.565  -9.443  25.250  1.00  0.00     0.113 A 
HETATM   27  N8  UNL     1       2.187  -9.396  25.121  1.00  0.00    -0.187 N 
HETATM   28  C7  UNL     1       1.567  -9.325  23.959  1.00  0.00     0.677 A 
ATOM     29  H8  UNL     1       1.621  -9.416  25.970  1.00  0.00     0.184 HD
HETATM   30  N10 UNL     1       2.305  -9.299  22.849  1.00  0.00    -0.178 N 
HETATM   31  C8  UNL     1       3.624  -9.337  22.876  1.00  0.00     0.148 A 
ATOM     32  H10 UNL     1       1.833  -9.248  21.946  1.00  0.00     0.185 HD
HETATM   33  N11 UNL     1       4.354  -9.293  21.636  1.00  0.00    -0.081 NA
HETATM   34  C9  UNL     1       4.317  -9.409  24.115  1.00  0.00     0.087 A 
BRANCH  28  35
HETATM   35  N9  UNL     1       0.290  -9.282  23.864  1.00  0.00    -0.234 N 
ATOM     36  H92 UNL     1      -0.154  -8.451  23.473  1.00  0.00     0.174 HD
ATOM     37  H91 UNL     1      -0.305 -10.053  24.167  1.00  0.00     0.174 HD
ENDBRANCH  28  35
BRANCH  34  38
HETATM   38  C10 UNL     1       5.743  -9.501  24.011  1.00  0.00     0.152 C 
BRANCH  38  39
HETATM   39  O1  UNL     1       6.376  -8.378  24.406  1.00  0.00    -0.346 OA
ATOM     40  H1  UNL     1       7.067  -8.542  25.037  1.00  0.00     0.219 HD
ENDBRANCH  38  39
BRANCH  38  41
HETATM   41  N12 UNL     1       6.684 -10.422  23.633  1.00  0.00    -0.363 N 
ATOM     42  H12 UNL     1       7.446 -10.169  23.003  1.00  0.00     0.162 HD
BRANCH  41  43
HETATM   43  C11 UNL     1       6.557 -11.807  24.172  1.00  0.00     0.212 C 
BRANCH  43  44
HETATM   44  C12 UNL     1       7.751 -12.128  24.981  1.00  0.00     0.242 C 
HETATM   45  O2  UNL     1       8.563 -13.029  24.648  1.00  0.00    -0.284 OA
BRANCH  44  46
HETATM   46  C13 UNL     1       8.001 -11.390  26.198  1.00  0.00     0.248 C 
HETATM   47  O3  UNL     1       8.328 -12.005  27.240  1.00  0.00    -0.642 OA
HETATM   48  O4  UNL     1       7.888 -10.019  26.248  1.00  0.00    -0.642 OA
ENDBRANCH  44  46
ENDBRANCH  43  44
ENDBRANCH  41  43
ENDBRANCH  38  41
ENDBRANCH  34  38
ENDBRANCH  17  26
BRANCH  21  49
HETATM   49  C15 UNL     1       4.836 -12.565  29.820  1.00  0.00     0.184 C 
BRANCH  49  50
HETATM   50  N15 UNL     1       5.277 -13.951  29.862  1.00  0.00    -0.286 N 
HETATM   51  C16 UNL     1       4.481 -15.024  30.011  1.00  0.00     0.130 A 
HETATM   52  C17 UNL     1       5.287 -16.168  30.000  1.00  0.00     0.127 A 
HETATM   53  N16 UNL     1       6.541 -15.694  29.843  1.00  0.00    -0.296 N 
HETATM   54  N17 UNL     1       6.524 -14.365  29.761  1.00  0.00    -0.241 N 
ATOM     55  H16 UNL     1       7.381 -16.272  29.793  1.00  0.00     0.187 HD
ATOM     56  H17 UNL     1       7.341 -13.766  29.641  1.00  0.00     0.208 HD
ENDBRANCH  49  50
ENDBRANCH  21  49
ENDBRANCH   9  11
TORSDOF 12
ENDMDL
MODEL 2
REMARK VINA RESULT: -8.798130802      1.414      1.804
REMARK  12 active torsions:
REMARK  status: ('A' for Active; 'I' for Inactive)
REMARK       I    between atoms: N2_3  and  C2_5 
REMARK       I    between atoms: C2_5  and  N4_9 
REMARK    1  A    between atoms: N4_9  and  C3_11 
REMARK    2  A    between atoms: C3_11  and  N5_12 
REMARK    3  A    between atoms: C5_21  and  C6_22 
REMARK    4  A    between atoms: C7_25  and  N9_26 
REMARK    5  A    between atoms: C9_33  and  C10_34 
REMARK    6  A    between atoms: C10_34  and  O1_35 
REMARK    7  A    between atoms: C10_34  and  N12_37 
REMARK    8  A    between atoms: N12_37  and  C11_39 
REMARK    9  A    between atoms: C11_39  and  C12_40 
REMARK   10  A    between atoms: C12_40  and  C13_42 
REMARK   11  A    between atoms: C14_48  and  C15_49 
REMARK   12  A    between atoms: C15_49  and  N15_50 
ROOT
HETATM    1  N1  UNL     1       9.291  -8.061  34.065  1.00  0.00    -0.171 NA
HETATM    2  C1  UNL     1       8.953  -9.040  33.555  1.00  0.00     0.196 C 
HETATM    3  N2  UNL     1       8.548 -10.232  32.943  1.00  0.00    -0.126 N 
ATOM      4  H2  UNL     1       9.250 -10.840  32.523  1.00  0.00     0.197 HD
HETATM    5  C2  UNL     1       7.197 -10.610  32.894  1.00  0.00     0.684 C 
HETATM    6  N3  UNL     1       6.351 -10.137  33.719  1.00  0.00    -0.234 N 
ATOM      7  H31 UNL     1       5.370 -10.412  33.683  1.00  0.00     0.174 HD
ATOM      8  H32 UNL     1       6.658  -9.472  34.429  1.00  0.00     0.174 HD
HETATM    9  N4  UNL     1       6.769 -11.536  31.905  1.00  0.00    -0.171 N 
ATOM     10  H4  UNL     1       6.695 -12.519  32.169  1.00  0.00     0.182 HD
ENDROOT
BRANCH   9  11
HETATM   11  C3  UNL     1       6.439 -11.178  30.574  1.00  0.00     0.325 C 
HETATM   12  N6  UNL     1       5.163 -10.459  30.438  1.00  0.00    -0.170 N 
HETATM   13  C4  UNL     1       4.922 -10.545  29.013  1.00  0.00     0.700 A 
ATOM     14  H6  UNL     1       4.595 -10.016  31.160  1.00  0.00     0.182 HD
HETATM   15  N7  UNL     1       4.354  -9.976  27.948  1.00  0.00    -0.172 N 
HETATM   16  N14 UNL     1       5.515 -11.657  28.549  1.00  0.00    -0.109 N 
HETATM   17  C5  UNL     1       4.548 -10.651  26.861  1.00  0.00     0.164 A 
ATOM     18  H7  UNL     1       3.824  -9.106  27.987  1.00  0.00     0.186 HD
HETATM   19  N13 UNL     1       5.301 -11.735  27.273  1.00  0.00    -0.266 N 
ATOM     20  H13 UNL     1       5.638 -12.482  26.665  1.00  0.00     0.189 HD
HETATM   21  C14 UNL     1       6.173 -12.349  29.664  1.00  0.00     0.226 C 
BRANCH  11  22
HETATM   22  N5  UNL     1       7.424 -10.274  29.981  1.00  0.00    -0.030 N 
ATOM     23  H53 UNL     1       7.123  -9.302  30.055  1.00  0.00     0.279 HD
ATOM     24  H52 UNL     1       8.270 -10.227  30.549  1.00  0.00     0.279 HD
ATOM     25  H51 UNL     1       7.644 -10.520  29.015  1.00  0.00     0.279 HD
ENDBRANCH  11  22
BRANCH  17  26
HETATM   26  C6  UNL     1       4.222 -10.531  25.449  1.00  0.00     0.113 A 
HETATM   27  N8  UNL     1       2.934 -10.106  25.170  1.00  0.00    -0.187 N 
HETATM   28  C7  UNL     1       2.431 -10.064  23.951  1.00  0.00     0.677 A 
ATOM     29  H8  UNL     1       2.343  -9.810  25.947  1.00  0.00     0.184 HD
HETATM   30  N10 UNL     1       3.201 -10.452  22.934  1.00  0.00    -0.178 N 
HETATM   31  C8  UNL     1       4.442 -10.868  23.106  1.00  0.00     0.148 A 
ATOM     32  H10 UNL     1       2.818 -10.425  21.989  1.00  0.00     0.185 HD
HETATM   33  N11 UNL     1       5.217 -11.260  21.958  1.00  0.00    -0.081 NA
HETATM   34  C9  UNL     1       5.010 -10.920  24.408  1.00  0.00     0.087 A 
BRANCH  28  35
HETATM   35  N9  UNL     1       1.236  -9.667  23.716  1.00  0.00    -0.234 N 
ATOM     36  H92 UNL     1       0.849  -8.896  24.261  1.00  0.00     0.174 HD
ATOM     37  H91 UNL     1       0.650 -10.095  22.999  1.00  0.00     0.174 HD
ENDBRANCH  28  35
BRANCH  34  38
HETATM   38  C10 UNL     1       6.343 -11.442  24.471  1.00  0.00     0.152 C 
BRANCH  38  39
HETATM   39  O1  UNL     1       6.389 -12.786  24.377  1.00  0.00    -0.346 OA
ATOM     40  H1  UNL     1       6.231 -13.105  23.496  1.00  0.00     0.219 HD
ENDBRANCH  38  39
BRANCH  38  41
HETATM   41  N12 UNL     1       7.623 -10.968  24.585  1.00  0.00    -0.363 N 
ATOM     42  H12 UNL     1       8.397 -11.420  24.099  1.00  0.00     0.162 HD
BRANCH  41  43
HETATM   43  C11 UNL     1       7.846  -9.771  25.445  1.00  0.00     0.212 C 
BRANCH  43  44
HETATM   44  C12 UNL     1       8.377 -10.201  26.755  1.00  0.00     0.242 C 
HETATM   45  O2  UNL     1       8.404 -11.410  27.101  1.00  0.00    -0.284 OA
BRANCH  44  46
HETATM   46  C13 UNL     1       8.881  -9.208  27.676  1.00  0.00     0.248 C 
HETATM   47  O3  UNL     1       8.210  -8.174  27.901  1.00  0.00    -0.642 OA
HETATM   48  O4  UNL     1      10.088  -9.365  28.318  1.00  0.00    -0.642 OA
ENDBRANCH  44  46
ENDBRANCH  43  44
ENDBRANCH  41  43
ENDBRANCH  38  41
ENDBRANCH  34  38
ENDBRANCH  17  26
BRANCH  21  49
HETATM   49  C15 UNL     1       5.229 -13.321  30.291  1.00  0.00     0.184 C 
BRANCH  49  50
HETATM   50  N15 UNL     1       5.782 -14.667  30.335  1.00  0.00    -0.286 N 
HETATM   51  C16 UNL     1       5.796 -15.544  29.318  1.00  0.00     0.130 A 
HETATM   52  C17 UNL     1       6.413 -16.718  29.763  1.00  0.00     0.127 A 
HETATM   53  N16 UNL     1       6.735 -16.461  31.049  1.00  0.00    -0.296 N 
HETATM   54  N17 UNL     1       6.352 -15.229  31.382  1.00  0.00    -0.241 N 
ATOM     55  H16 UNL     1       7.205 -17.116  31.675  1.00  0.00     0.187 HD
ATOM     56  H17 UNL     1       6.479 -14.794  32.296  1.00  0.00     0.208 HD
ENDBRANCH  49  50
ENDBRANCH  21  49
ENDBRANCH   9  11
TORSDOF 12
ENDMDL
MODEL 3
REMARK VINA RESULT: -8.563657625      1.808      7.517
REMARK  12 active torsions:
REMARK  status: ('A' for Active; 'I' for Inactive)
REMARK       I    between atoms: N2_3  and  C2_5 
REMARK       I    between atoms: C2_5  and  N4_9 
REMARK    1  A    between atoms: N4_9  and  C3_11 
REMARK    2  A    between atoms: C3_11  and  N5_12 
REMARK    3  A    between atoms: C5_21  and  C6_22 
REMARK    4  A    between atoms: C7_25  and  N9_26 
REMARK    5  A    between atoms: C9_33  and  C10_34 
REMARK    6  A    between atoms: C10_34  and  O1_35 
REMARK    7  A    between atoms: C10_34  and  N12_37 
REMARK    8  A    between atoms: N12_37  and  C11_39 
REMARK    9  A    between atoms: C11_39  and  C12_40 
REMARK   10  A    between atoms: C12_40  and  C13_42 
REMARK   11  A    between atoms: C14_48  and  C15_49 
REMARK   12  A    between atoms: C15_49  and  N15_50 
ROOT
HETATM    1  N1  UNL     1       2.643 -10.101  20.574  1.00  0.00    -0.171 NA
HETATM    2  C1  UNL     1       2.698  -9.348  21.447  1.00  0.00     0.196 C 
HETATM    3  N2  UNL     1       2.765  -8.428  22.501  1.00  0.00    -0.126 N 
ATOM      4  H2  UNL     1       3.605  -7.862  22.615  1.00  0.00     0.197 HD
HETATM    5  C2  UNL     1       1.703  -8.268  23.405  1.00  0.00     0.684 C 
HETATM    6  N3  UNL     1       0.519  -8.619  23.097  1.00  0.00    -0.234 N 
ATOM      7  H31 UNL     1      -0.252  -8.503  23.754  1.00  0.00     0.174 HD
ATOM      8  H32 UNL     1       0.337  -9.023  22.178  1.00  0.00     0.174 HD
HETATM    9  N4  UNL     1       1.957  -7.705  24.684  1.00  0.00    -0.171 N 
ATOM     10  H4  UNL     1       1.784  -6.708  24.812  1.00  0.00     0.182 HD
ENDROOT
BRANCH   9  11
HETATM   11  C3  UNL     1       2.436  -8.446  25.794  1.00  0.00     0.325 C 
HETATM   12  N6  UNL     1       3.283  -7.676  26.716  1.00  0.00    -0.170 N 
HETATM   13  C4  UNL     1       3.893  -8.724  27.507  1.00  0.00     0.700 A 
ATOM     14  H6  UNL     1       3.409  -6.666  26.782  1.00  0.00     0.182 HD
HETATM   15  N7  UNL     1       4.425  -9.058  28.685  1.00  0.00    -0.172 N 
HETATM   16  N14 UNL     1       3.960  -9.837  26.758  1.00  0.00    -0.109 N 
HETATM   17  C5  UNL     1       4.814 -10.292  28.722  1.00  0.00     0.164 A 
ATOM     18  H7  UNL     1       4.514  -8.413  29.469  1.00  0.00     0.186 HD
HETATM   19  N13 UNL     1       4.504 -10.776  27.464  1.00  0.00    -0.266 N 
ATOM     20  H13 UNL     1       4.678 -11.729  27.141  1.00  0.00     0.189 HD
HETATM   21  C14 UNL     1       3.389  -9.556  25.435  1.00  0.00     0.226 C 
BRANCH  11  22
HETATM   22  N5  UNL     1       1.352  -8.947  26.638  1.00  0.00    -0.030 N 
ATOM     23  H53 UNL     1       0.452  -8.565  26.346  1.00  0.00     0.279 HD
ATOM     24  H52 UNL     1       1.174  -9.936  26.460  1.00  0.00     0.279 HD
ATOM     25  H51 UNL     1       1.521  -8.776  27.629  1.00  0.00     0.279 HD
ENDBRANCH  11  22
BRANCH  17  26
HETATM   26  C6  UNL     1       5.411 -11.203  29.687  1.00  0.00     0.113 A 
HETATM   27  N8  UNL     1       4.867 -12.476  29.718  1.00  0.00    -0.187 N 
HETATM   28  C7  UNL     1       5.199 -13.385  30.614  1.00  0.00     0.677 A 
ATOM     29  H8  UNL     1       4.175 -12.724  29.011  1.00  0.00     0.184 HD
HETATM   30  N10 UNL     1       6.103 -13.063  31.539  1.00  0.00    -0.178 N 
HETATM   31  C8  UNL     1       6.676 -11.874  31.584  1.00  0.00     0.148 A 
ATOM     32  H10 UNL     1       6.362 -13.760  32.237  1.00  0.00     0.185 HD
HETATM   33  N11 UNL     1       7.652 -11.603  32.605  1.00  0.00    -0.081 NA
HETATM   34  C9  UNL     1       6.339 -10.877  30.628  1.00  0.00     0.087 A 
BRANCH  28  35
HETATM   35  N9  UNL     1       4.683 -14.558  30.624  1.00  0.00    -0.234 N 
ATOM     36  H92 UNL     1       3.856 -14.735  31.194  1.00  0.00     0.174 HD
ATOM     37  H91 UNL     1       5.071 -15.329  30.079  1.00  0.00     0.174 HD
ENDBRANCH  28  35
BRANCH  34  38
HETATM   38  C10 UNL     1       6.985  -9.612  30.815  1.00  0.00     0.152 C 
BRANCH  38  39
HETATM   39  O1  UNL     1       6.398  -8.853  31.762  1.00  0.00    -0.346 OA
ATOM     40  H1  UNL     1       6.401  -7.927  31.553  1.00  0.00     0.219 HD
ENDBRANCH  38  39
BRANCH  38  41
HETATM   41  N12 UNL     1       8.063  -8.929  30.315  1.00  0.00    -0.363 N 
ATOM     42  H12 UNL     1       8.842  -8.661  30.916  1.00  0.00     0.162 HD
BRANCH  41  43
HETATM   43  C11 UNL     1       8.058  -8.591  28.863  1.00  0.00     0.212 C 
BRANCH  43  44
HETATM   44  C12 UNL     1       9.046  -9.436  28.161  1.00  0.00     0.242 C 
HETATM   45  O2  UNL     1      10.280  -9.351  28.387  1.00  0.00    -0.284 OA
BRANCH  44  46
HETATM   46  C13 UNL     1       8.589 -10.393  27.178  1.00  0.00     0.248 C 
HETATM   47  O3  UNL     1       7.362 -10.516  26.958  1.00  0.00    -0.642 OA
HETATM   48  O4  UNL     1       9.470 -11.180  26.472  1.00  0.00    -0.642 OA
ENDBRANCH  44  46
ENDBRANCH  43  44
ENDBRANCH  41  43
ENDBRANCH  38  41
ENDBRANCH  34  38
ENDBRANCH  17  26
BRANCH  21  49
HETATM   49  C15 UNL     1       4.458  -9.076  24.508  1.00  0.00     0.184 C 
BRANCH  49  50
HETATM   50  N15 UNL     1       5.433 -10.116  24.216  1.00  0.00    -0.286 N 
HETATM   51  C16 UNL     1       5.150 -11.378  23.852  1.00  0.00     0.130 A 
HETATM   52  C17 UNL     1       6.358 -12.059  23.665  1.00  0.00     0.127 A 
HETATM   53  N16 UNL     1       7.308 -11.138  23.936  1.00  0.00    -0.296 N 
HETATM   54  N17 UNL     1       6.742  -9.978  24.266  1.00  0.00    -0.241 N 
ATOM     55  H16 UNL     1       8.313 -11.307  23.895  1.00  0.00     0.187 HD
ATOM     56  H17 UNL     1       7.241  -9.123  24.515  1.00  0.00     0.208 HD
ENDBRANCH  49  50
ENDBRANCH  21  49
ENDBRANCH   9  11
TORSDOF 12
ENDMDL
MODEL 4
REMARK VINA RESULT: -8.303171141      2.202      4.421
REMARK  12 active torsions:
REMARK  status: ('A' for Active; 'I' for Inactive)
REMARK       I    between atoms: N2_3  and  C2_5 
REMARK       I    between atoms: C2_5  and  N4_9 
REMARK    1  A    between atoms: N4_9  and  C3_11 
REMARK    2  A    between atoms: C3_11  and  N5_12 
REMARK    3  A    between atoms: C5_21  and  C6_22 
REMARK    4  A    between atoms: C7_25  and  N9_26 
REMARK    5  A    between atoms: C9_33  and  C10_34 
REMARK    6  A    between atoms: C10_34  and  O1_35 
REMARK    7  A    between atoms: C10_34  and  N12_37 
REMARK    8  A    between atoms: N12_37  and  C11_39 
REMARK    9  A    between atoms: C11_39  and  C12_40 
REMARK   10  A    between atoms: C12_40  and  C13_42 
REMARK   11  A    between atoms: C14_48  and  C15_49 
REMARK   12  A    between atoms: C15_49  and  N15_50 
ROOT
HETATM    1  N1  UNL     1       3.709 -17.234  34.081  1.00  0.00    -0.171 NA
HETATM    2  C1  UNL     1       4.235 -16.223  33.899  1.00  0.00     0.196 C 
HETATM    3  N2  UNL     1       4.875 -14.996  33.686  1.00  0.00    -0.126 N 
ATOM      4  H2  UNL     1       4.505 -14.157  34.132  1.00  0.00     0.197 HD
HETATM    5  C2  UNL     1       6.014 -14.893  32.872  1.00  0.00     0.684 C 
HETATM    6  N3  UNL     1       6.744 -15.907  32.631  1.00  0.00    -0.234 N 
ATOM      7  H31 UNL     1       7.571 -15.833  32.040  1.00  0.00     0.174 HD
ATOM      8  H32 UNL     1       6.499 -16.811  33.036  1.00  0.00     0.174 HD
HETATM    9  N4  UNL     1       6.355 -13.635  32.308  1.00  0.00    -0.171 N 
ATOM     10  H4  UNL     1       7.051 -13.066  32.791  1.00  0.00     0.182 HD
ENDROOT
BRANCH   9  11
HETATM   11  C3  UNL     1       5.787 -13.121  31.115  1.00  0.00     0.325 C 
HETATM   12  N6  UNL     1       6.616 -13.314  29.916  1.00  0.00    -0.170 N 
HETATM   13  C4  UNL     1       5.989 -12.415  28.971  1.00  0.00     0.700 A 
ATOM     14  H6  UNL     1       7.423 -13.924  29.784  1.00  0.00     0.182 HD
HETATM   15  N7  UNL     1       5.735 -12.155  27.687  1.00  0.00    -0.172 N 
HETATM   16  N14 UNL     1       5.415 -11.412  29.657  1.00  0.00    -0.109 N 
HETATM   17  C5  UNL     1       5.047 -11.071  27.525  1.00  0.00     0.164 A 
ATOM     18  H7  UNL     1       6.047 -12.747  26.918  1.00  0.00     0.186 HD
HETATM   19  N13 UNL     1       4.852 -10.606  28.813  1.00  0.00    -0.266 N 
ATOM     20  H13 UNL     1       4.343  -9.757  29.061  1.00  0.00     0.189 HD
HETATM   21  C14 UNL     1       5.646 -11.621  31.091  1.00  0.00     0.226 C 
BRANCH  11  22
HETATM   22  N5  UNL     1       4.518 -13.765  30.781  1.00  0.00    -0.030 N 
ATOM     23  H53 UNL     1       3.726 -13.199  31.087  1.00  0.00     0.279 HD
ATOM     24  H52 UNL     1       4.350 -13.750  29.775  1.00  0.00     0.279 HD
ATOM     25  H51 UNL     1       4.456 -14.715  31.150  1.00  0.00     0.279 HD
ENDBRANCH  11  22
BRANCH  17  26
HETATM   26  C6  UNL     1       4.465 -10.321  26.423  1.00  0.00     0.113 A 
HETATM   27  N8  UNL     1       3.298  -9.638  26.718  1.00  0.00    -0.187 N 
HETATM   28  C7  UNL     1       2.571  -9.015  25.811  1.00  0.00     0.677 A 
ATOM     29  H8  UNL     1       2.983  -9.615  27.689  1.00  0.00     0.184 HD
HETATM   30  N10 UNL     1       2.981  -9.044  24.543  1.00  0.00    -0.178 N 
HETATM   31  C8  UNL     1       4.082  -9.669  24.170  1.00  0.00     0.148 A 
ATOM     32  H10 UNL     1       2.422  -8.567  23.835  1.00  0.00     0.185 HD
HETATM   33  N11 UNL     1       4.467  -9.648  22.783  1.00  0.00    -0.081 NA
HETATM   34  C9  UNL     1       4.886 -10.345  25.128  1.00  0.00     0.087 A 
BRANCH  28  35
HETATM   35  N9  UNL     1       1.494  -8.388  26.108  1.00  0.00    -0.234 N 
ATOM     36  H92 UNL     1       0.762  -8.292  25.404  1.00  0.00     0.174 HD
ATOM     37  H91 UNL     1       1.338  -7.977  27.028  1.00  0.00     0.174 HD
ENDBRANCH  28  35
BRANCH  34  38
HETATM   38  C10 UNL     1       6.024 -11.031  24.592  1.00  0.00     0.152 C 
BRANCH  38  39
HETATM   39  O1  UNL     1       5.691 -12.068  23.798  1.00  0.00    -0.346 OA
ATOM     40  H1  UNL     1       5.903 -11.922  22.884  1.00  0.00     0.219 HD
ENDBRANCH  38  39
BRANCH  38  41
HETATM   41  N12 UNL     1       7.390 -10.935  24.635  1.00  0.00    -0.363 N 
ATOM     42  H12 UNL     1       7.981 -11.624  24.171  1.00  0.00     0.162 HD
BRANCH  41  43
HETATM   43  C11 UNL     1       7.983  -9.789  25.383  1.00  0.00     0.212 C 
BRANCH  43  44
HETATM   44  C12 UNL     1       8.461 -10.260  26.700  1.00  0.00     0.242 C 
HETATM   45  O2  UNL     1       8.563 -11.483  26.976  1.00  0.00    -0.284 OA
BRANCH  44  46
HETATM   46  C13 UNL     1       8.824  -9.291  27.709  1.00  0.00     0.248 C 
HETATM   47  O3  UNL     1       9.859  -9.467  28.393  1.00  0.00    -0.642 OA
HETATM   48  O4  UNL     1       8.058  -8.173  27.946  1.00  0.00    -0.642 OA
ENDBRANCH  44  46
ENDBRANCH  43  44
ENDBRANCH  41  43
ENDBRANCH  38  41
ENDBRANCH  34  38
ENDBRANCH  17  26
BRANCH  21  49
HETATM   49  C15 UNL     1       6.913 -10.949  31.508  1.00  0.00     0.184 C 
BRANCH  49  50
HETATM   50  N15 UNL     1       6.847  -9.505  31.337  1.00  0.00    -0.286 N 
HETATM   51  C16 UNL     1       5.781  -8.731  31.605  1.00  0.00     0.130 A 
HETATM   52  C17 UNL     1       6.121  -7.406  31.308  1.00  0.00     0.127 A 
HETATM   53  N16 UNL     1       7.396  -7.476  30.871  1.00  0.00    -0.296 N 
HETATM   54  N17 UNL     1       7.821  -8.738  30.892  1.00  0.00    -0.241 N 
ATOM     55  H16 UNL     1       7.954  -6.677  30.568  1.00  0.00     0.187 HD
ATOM     56  H17 UNL     1       8.749  -9.058  30.610  1.00  0.00     0.208 HD
ENDBRANCH  49  50
ENDBRANCH  21  49
ENDBRANCH   9  11
TORSDOF 12
ENDMDL
MODEL 5
REMARK VINA RESULT: -8.172079572      1.905      3.942
REMARK  12 active torsions:
REMARK  status: ('A' for Active; 'I' for Inactive)
REMARK       I    between atoms: N2_3  and  C2_5 
REMARK       I    between atoms: C2_5  and  N4_9 
REMARK    1  A    between atoms: N4_9  and  C3_11 
REMARK    2  A    between atoms: C3_11  and  N5_12 
REMARK    3  A    between atoms: C5_21  and  C6_22 
REMARK    4  A    between atoms: C7_25  and  N9_26 
REMARK    5  A    between atoms: C9_33  and  C10_34 
REMARK    6  A    between atoms: C10_34  and  O1_35 
REMARK    7  A    between atoms: C10_34  and  N12_37 
REMARK    8  A    between atoms: N12_37  and  C11_39 
REMARK    9  A    between atoms: C11_39  and  C12_40 
REMARK   10  A    between atoms: C12_40  and  C13_42 
REMARK   11  A    between atoms: C14_48  and  C15_49 
REMARK   12  A    between atoms: C15_49  and  N15_50 
ROOT
HETATM    1  N1  UNL     1       4.685 -10.497  36.665  1.00  0.00    -0.171 NA
HETATM    2  C1  UNL     1       5.414 -10.729  35.800  1.00  0.00     0.196 C 
HETATM    3  N2  UNL     1       6.304 -11.010  34.757  1.00  0.00    -0.126 N 
ATOM      4  H2  UNL     1       6.969 -10.295  34.464  1.00  0.00     0.197 HD
HETATM    5  C2  UNL     1       6.301 -12.253  34.104  1.00  0.00     0.684 C 
HETATM    6  N3  UNL     1       5.812 -13.287  34.660  1.00  0.00    -0.234 N 
ATOM      7  H31 UNL     1       5.809 -14.189  34.185  1.00  0.00     0.174 HD
ATOM      8  H32 UNL     1       5.414 -13.214  35.597  1.00  0.00     0.174 HD
HETATM    9  N4  UNL     1       6.855 -12.354  32.800  1.00  0.00    -0.171 N 
ATOM     10  H4  UNL     1       7.818 -12.679  32.712  1.00  0.00     0.182 HD
ENDROOT
BRANCH   9  11
HETATM   11  C3  UNL     1       6.151 -12.031  31.612  1.00  0.00     0.325 C 
HETATM   12  N6  UNL     1       6.693 -12.655  30.397  1.00  0.00    -0.170 N 
HETATM   13  C4  UNL     1       6.038 -11.895  29.353  1.00  0.00     0.700 A 
ATOM     14  H6  UNL     1       7.359 -13.423  30.310  1.00  0.00     0.182 HD
HETATM   15  N7  UNL     1       5.582 -11.897  28.099  1.00  0.00    -0.172 N 
HETATM   16  N14 UNL     1       5.764 -10.669  29.829  1.00  0.00    -0.109 N 
HETATM   17  C5  UNL     1       5.047 -10.768  27.762  1.00  0.00     0.164 A 
ATOM     18  H7  UNL     1       5.647 -12.701  27.474  1.00  0.00     0.186 HD
HETATM   19  N13 UNL     1       5.176  -9.988  28.897  1.00  0.00    -0.266 N 
ATOM     20  H13 UNL     1       4.858  -9.023  28.986  1.00  0.00     0.189 HD
HETATM   21  C14 UNL     1       6.235 -10.580  31.216  1.00  0.00     0.226 C 
BRANCH  11  22
HETATM   22  N5  UNL     1       4.759 -12.477  31.653  1.00  0.00    -0.030 N 
ATOM     23  H53 UNL     1       4.421 -12.541  32.614  1.00  0.00     0.279 HD
ATOM     24  H52 UNL     1       4.129 -11.752  31.308  1.00  0.00     0.279 HD
ATOM     25  H51 UNL     1       4.617 -13.355  31.153  1.00  0.00     0.279 HD
ENDBRANCH  11  22
BRANCH  17  26
HETATM   26  C6  UNL     1       4.381 -10.197  26.602  1.00  0.00     0.113 A 
HETATM   27  N8  UNL     1       3.232  -9.474  26.870  1.00  0.00    -0.187 N 
HETATM   28  C7  UNL     1       2.437  -8.997  25.931  1.00  0.00     0.677 A 
ATOM     29  H8  UNL     1       2.987  -9.300  27.846  1.00  0.00     0.184 HD
HETATM   30  N10 UNL     1       2.756  -9.223  24.657  1.00  0.00    -0.178 N 
HETATM   31  C8  UNL     1       3.834  -9.900  24.308  1.00  0.00     0.148 A 
ATOM     32  H10 UNL     1       2.145  -8.860  23.926  1.00  0.00     0.185 HD
HETATM   33  N11 UNL     1       4.120 -10.095  22.911  1.00  0.00    -0.081 NA
HETATM   34  C9  UNL     1       4.709 -10.422  25.299  1.00  0.00     0.087 A 
BRANCH  28  35
HETATM   35  N9  UNL     1       1.378  -8.329  26.204  1.00  0.00    -0.234 N 
ATOM     36  H92 UNL     1       0.553  -8.820  26.549  1.00  0.00     0.174 HD
ATOM     37  H91 UNL     1       1.327  -7.317  26.088  1.00  0.00     0.174 HD
ENDBRANCH  28  35
BRANCH  34  38
HETATM   38  C10 UNL     1       5.813 -11.185  24.796  1.00  0.00     0.152 C 
BRANCH  38  39
HETATM   39  O1  UNL     1       5.430 -12.295  24.134  1.00  0.00    -0.346 OA
ATOM     40  H1  UNL     1       6.112 -12.955  24.087  1.00  0.00     0.219 HD
ENDBRANCH  38  39
BRANCH  38  41
HETATM   41  N12 UNL     1       7.181 -11.113  24.774  1.00  0.00    -0.363 N 
ATOM     42  H12 UNL     1       7.739 -11.831  24.311  1.00  0.00     0.162 HD
BRANCH  41  43
HETATM   43  C11 UNL     1       7.827  -9.950  25.449  1.00  0.00     0.212 C 
BRANCH  43  44
HETATM   44  C12 UNL     1       8.372 -10.382  26.753  1.00  0.00     0.242 C 
HETATM   45  O2  UNL     1       8.549 -11.595  27.034  1.00  0.00    -0.284 OA
BRANCH  44  46
HETATM   46  C13 UNL     1       8.712  -9.386  27.743  1.00  0.00     0.248 C 
HETATM   47  O3  UNL     1       9.806  -9.463  28.349  1.00  0.00    -0.642 OA
HETATM   48  O4  UNL     1       7.861  -8.347  28.045  1.00  0.00    -0.642 OA
ENDBRANCH  44  46
ENDBRANCH  43  44
ENDBRANCH  41  43
ENDBRANCH  38  41
ENDBRANCH  34  38
ENDBRANCH  17  26
BRANCH  21  49
HETATM   49  C15 UNL     1       7.645 -10.088  31.248  1.00  0.00     0.184 C 
BRANCH  49  50
HETATM   50  N15 UNL     1       7.878  -9.173  32.355  1.00  0.00    -0.286 N 
HETATM   51  C16 UNL     1       8.946  -9.184  33.171  1.00  0.00     0.130 A 
HETATM   52  C17 UNL     1       8.793  -8.149  34.101  1.00  0.00     0.127 A 
HETATM   53  N16 UNL     1       7.617  -7.574  33.773  1.00  0.00    -0.296 N 
HETATM   54  N17 UNL     1       7.077  -8.195  32.726  1.00  0.00    -0.241 N 
ATOM     55  H16 UNL     1       7.202  -6.777  34.258  1.00  0.00     0.187 HD
ATOM     56  H17 UNL     1       6.189  -7.954  32.284  1.00  0.00     0.208 HD
ENDBRANCH  49  50
ENDBRANCH  21  49
ENDBRANCH   9  11
TORSDOF 12
ENDMDL
