MODEL 1
REMARK VINA RESULT: -8.294736514      0.000      0.000
REMARK  20 active torsions:
REMARK  status: ('A' for Active; 'I' for Inactive)
REMARK    1  A    between atoms: C2_2  and  O1_3 
REMARK    2  A    between atoms: C2_2  and  C17_41 
REMARK    3  A    between atoms: O1_3  and  N1_4 
REMARK    4  A    between atoms: C3_6  and  N2_7 
REMARK    5  A    between atoms: C3_6  and  C5_11 
REMARK    6  A    between atoms: C5_11  and  O2_12 
REMARK    7  A    between atoms: N4_14  and  C6_16 
REMARK    8  A    between atoms: C10_21  and  N6_22 
REMARK    9  A    between atoms: N6_22  and  O3_23 
REMARK   10  A    between atoms: N6_22  and  C11_25 
REMARK   11  A    between atoms: C12_27  and  N7_28 
REMARK   12  A    between atoms: C14_33  and  O5_34 
REMARK   13  A    between atoms: C15_36  and  O6_37 
REMARK   14  A    between atoms: C17_41  and  O7_42 
REMARK   15  A    between atoms: C17_41  and  C18_44 
REMARK   16  A    between atoms: C18_44  and  O8_45 
REMARK   17  A    between atoms: C18_44  and  C19_47 
REMARK   18  A    between atoms: C19_47  and  O9_48 
REMARK   19  A    between atoms: C19_47  and  C20_50 
REMARK   20  A    between atoms: C20_50  and  O10_51 
ROOT
HETATM    1  N2  UNL     1       4.255 -11.130  24.985  1.00  0.00    -0.274 N 
ATOM      2  H2  UNL     1       3.539 -11.780  24.660  1.00  0.00     0.180 HD
HETATM    3  C4  UNL     1       3.959 -10.136  25.929  1.00  0.00     0.183 C 
HETATM    4  N3  UNL     1       3.722  -9.310  26.702  1.00  0.00    -0.172 NA
ENDROOT
BRANCH   1   5
HETATM    5  C3  UNL     1       5.563 -11.198  24.505  1.00  0.00     0.186 C 
HETATM    6  N1  UNL     1       5.937 -10.293  23.636  1.00  0.00    -0.246 N 
ATOM      7  H1  UNL     1       6.885 -10.307  23.260  1.00  0.00     0.196 HD
BRANCH   6   8
HETATM    8  O1  UNL     1       5.058  -9.329  23.231  1.00  0.00    -0.271 OA
BRANCH   8   9
HETATM    9  C2  UNL     1       4.592  -9.323  21.901  1.00  0.00     0.179 C 
HETATM   10  C1  UNL     1       5.042 -10.556  21.185  1.00  0.00     0.045 C 
BRANCH   9  11
HETATM   11  C17 UNL     1       3.087  -9.162  21.957  1.00  0.00     0.180 C 
BRANCH  11  12
HETATM   12  O7  UNL     1       2.591 -10.157  22.803  1.00  0.00    -0.390 OA
ATOM     13  H7  UNL     1       2.047  -9.731  23.455  1.00  0.00     0.210 HD
ENDBRANCH  11  12
BRANCH  11  14
HETATM   14  C18 UNL     1       2.774  -7.792  22.468  1.00  0.00     0.180 C 
BRANCH  14  15
HETATM   15  O8  UNL     1       3.919  -7.025  22.556  1.00  0.00    -0.390 OA
ATOM     16  H8  UNL     1       4.472  -7.153  21.794  1.00  0.00     0.210 HD
ENDBRANCH  14  15
BRANCH  14  17
HETATM   17  C19 UNL     1       2.114  -7.812  23.827  1.00  0.00     0.173 C 
BRANCH  17  18
HETATM   18  O9  UNL     1       0.760  -8.138  23.721  1.00  0.00    -0.391 OA
ATOM     19  H9  UNL     1       0.533  -8.849  24.310  1.00  0.00     0.210 HD
ENDBRANCH  17  18
BRANCH  17  20
HETATM   20  C20 UNL     1       2.208  -6.492  24.533  1.00  0.00     0.198 C 
BRANCH  20  21
HETATM   21  O10 UNL     1       3.231  -6.523  25.482  1.00  0.00    -0.398 OA
ATOM     22  H10 UNL     1       3.560  -5.646  25.640  1.00  0.00     0.209 HD
ENDBRANCH  20  21
ENDBRANCH  17  20
ENDBRANCH  14  17
ENDBRANCH  11  14
ENDBRANCH   9  11
ENDBRANCH   8   9
ENDBRANCH   6   8
BRANCH   5  23
HETATM   23  C5  UNL     1       6.506 -12.199  24.913  1.00  0.00     0.188 C 
HETATM   24  N4  UNL     1       7.180 -12.192  25.940  1.00  0.00    -0.331 N 
ATOM     25  H4  UNL     1       7.777 -13.017  26.004  1.00  0.00     0.168 HD
BRANCH  23  26
HETATM   26  O2  UNL     1       6.716 -13.344  24.064  1.00  0.00    -0.343 OA
ATOM     27  H2  UNL     1       7.510 -13.856  24.171  1.00  0.00     0.219 HD
ENDBRANCH  23  26
BRANCH  24  28
HETATM   28  C6  UNL     1       7.344 -11.350  27.047  1.00  0.00     0.077 A 
HETATM   29  C7  UNL     1       6.398 -11.208  27.956  1.00  0.00     0.122 A 
HETATM   30  N5  UNL     1       6.516 -10.351  29.116  1.00  0.00    -0.355 N 
HETATM   31  C8  UNL     1       5.401 -10.284  30.045  1.00  0.00     0.156 C 
HETATM   32  C9  UNL     1       7.682  -9.602  29.336  1.00  0.00     0.087 A 
HETATM   33  C10 UNL     1       7.911  -8.804  30.337  1.00  0.00     0.152 C 
HETATM   34  C15 UNL     1       8.739  -9.775  28.295  1.00  0.00     0.120 A 
HETATM   35  C16 UNL     1       8.557 -10.573  27.271  1.00  0.00     0.110 A 
HETATM   36  N8  UNL     1       9.618 -10.670  26.325  1.00  0.00    -0.097 NA
BRANCH  33  37
HETATM   37  N6  UNL     1       7.166  -8.427  31.457  1.00  0.00    -0.237 N 
BRANCH  37  38
HETATM   38  O3  UNL     1       6.239  -7.469  31.391  1.00  0.00    -0.285 OA
ATOM     39  H3  UNL     1       6.374  -6.616  31.788  1.00  0.00     0.245 HD
ENDBRANCH  37  38
BRANCH  37  40
HETATM   40  C11 UNL     1       7.339  -9.113  32.748  1.00  0.00     0.280 C 
HETATM   41  O4  UNL     1       6.750  -8.439  33.784  1.00  0.00    -0.329 OA
HETATM   42  C12 UNL     1       7.703  -7.799  34.524  1.00  0.00     0.323 C 
HETATM   43  C13 UNL     1       9.056  -8.261  34.093  1.00  0.00     0.097 C 
HETATM   44  C14 UNL     1       8.781  -9.337  33.064  1.00  0.00     0.173 C 
BRANCH  42  45
HETATM   45  N7  UNL     1       7.566  -8.120  35.944  1.00  0.00    -0.053 N 
ATOM     46  H73 UNL     1       6.603  -8.015  36.263  1.00  0.00     0.277 HD
ATOM     47  H72 UNL     1       7.677  -9.119  36.116  1.00  0.00     0.277 HD
ATOM     48  H71 UNL     1       8.212  -7.567  36.508  1.00  0.00     0.277 HD
ENDBRANCH  42  45
BRANCH  44  49
HETATM   49  O5  UNL     1       8.934 -10.566  33.703  1.00  0.00    -0.391 OA
ATOM     50  H5  UNL     1       9.835 -10.854  33.628  1.00  0.00     0.210 HD
ENDBRANCH  44  49
ENDBRANCH  37  40
ENDBRANCH  33  37
BRANCH  34  51
HETATM   51  O6  UNL     1       9.917  -9.053  28.466  1.00  0.00    -0.357 OA
ATOM     52  H6  UNL     1       9.831  -8.143  28.728  1.00  0.00     0.218 HD
ENDBRANCH  34  51
ENDBRANCH  24  28
ENDBRANCH   5  23
ENDBRANCH   1   5
TORSDOF 20
ENDMDL
MODEL 2
REMARK VINA RESULT: -8.287995648      0.974      2.411
REMARK  20 active torsions:
REMARK  status: ('A' for Active; 'I' for Inactive)
REMARK    1  A    between atoms: C2_2  and  O1_3 
REMARK    2  A    between atoms: C2_2  and  C17_41 
REMARK    3  A    between atoms: O1_3  and  N1_4 
REMARK    4  A    between atoms: C3_6  and  N2_7 
REMARK    5  A    between atoms: C3_6  and  C5_11 
REMARK    6  A    between atoms: C5_11  and  O2_12 
REMARK    7  A    between atoms: N4_14  and  C6_16 
REMARK    8  A    between atoms: C10_21  and  N6_22 
REMARK    9  A    between atoms: N6_22  and  O3_23 
REMARK   10  A    between atoms: N6_22  and  C11_25 
REMARK   11  A    between atoms: C12_27  and  N7_28 
REMARK   12  A    between atoms: C14_33  and  O5_34 
REMARK   13  A    between atoms: C15_36  and  O6_37 
REMARK   14  A    between atoms: C17_41  and  O7_42 
REMARK   15  A    between atoms: C17_41  and  C18_44 
REMARK   16  A    between atoms: C18_44  and  O8_45 
REMARK   17  A    between atoms: C18_44  and  C19_47 
REMARK   18  A    between atoms: C19_47  and  O9_48 
REMARK   19  A    between atoms: C19_47  and  C20_50 
REMARK   20  A    between atoms: C20_50  and  O10_51 
ROOT
HETATM    1  N2  UNL     1       5.935 -10.426  23.362  1.00  0.00    -0.274 N 
ATOM      2  H2  UNL     1       6.535  -9.614  23.509  1.00  0.00     0.180 HD
HETATM    3  C4  UNL     1       5.388 -10.706  22.101  1.00  0.00     0.183 C 
HETATM    4  N3  UNL     1       4.927 -10.940  21.067  1.00  0.00    -0.172 NA
ENDROOT
BRANCH   1   5
HETATM    5  C3  UNL     1       5.629 -11.296  24.408  1.00  0.00     0.186 C 
HETATM    6  N1  UNL     1       4.441 -11.199  24.949  1.00  0.00    -0.246 N 
ATOM      7  H1  UNL     1       4.177 -11.817  25.717  1.00  0.00     0.196 HD
BRANCH   6   8
HETATM    8  O1  UNL     1       3.553 -10.270  24.487  1.00  0.00    -0.271 OA
BRANCH   8   9
HETATM    9  C2  UNL     1       2.960  -9.363  25.388  1.00  0.00     0.179 C 
HETATM   10  C1  UNL     1       3.348  -9.693  26.793  1.00  0.00     0.045 C 
BRANCH   9  11
HETATM   11  C17 UNL     1       3.368  -7.971  24.951  1.00  0.00     0.180 C 
BRANCH  11  12
HETATM   12  O7  UNL     1       4.745  -7.993  24.714  1.00  0.00    -0.390 OA
ATOM     13  H7  UNL     1       4.912  -7.440  23.960  1.00  0.00     0.210 HD
ENDBRANCH  11  12
BRANCH  11  14
HETATM   14  C18 UNL     1       2.598  -7.614  23.719  1.00  0.00     0.180 C 
BRANCH  14  15
HETATM   15  O8  UNL     1       1.404  -8.306  23.666  1.00  0.00    -0.390 OA
ATOM     16  H8  UNL     1       0.665  -7.710  23.699  1.00  0.00     0.210 HD
ENDBRANCH  14  15
BRANCH  14  17
HETATM   17  C19 UNL     1       3.364  -7.898  22.449  1.00  0.00     0.173 C 
BRANCH  17  18
HETATM   18  O9  UNL     1       4.184  -6.819  22.107  1.00  0.00    -0.391 OA
ATOM     19  H9  UNL     1       5.097  -7.081  22.078  1.00  0.00     0.210 HD
ENDBRANCH  17  18
BRANCH  17  20
HETATM   20  C20 UNL     1       2.463  -8.169  21.281  1.00  0.00     0.198 C 
BRANCH  20  21
HETATM   21  O10 UNL     1       2.193  -9.536  21.187  1.00  0.00    -0.398 OA
ATOM     22  H10 UNL     1       1.539  -9.696  20.515  1.00  0.00     0.209 HD
ENDBRANCH  20  21
ENDBRANCH  17  20
ENDBRANCH  14  17
ENDBRANCH  11  14
ENDBRANCH   9  11
ENDBRANCH   8   9
ENDBRANCH   6   8
BRANCH   5  23
HETATM   23  C5  UNL     1       6.543 -12.281  24.913  1.00  0.00     0.188 C 
HETATM   24  N4  UNL     1       7.189 -12.211  25.955  1.00  0.00    -0.331 N 
ATOM     25  H4  UNL     1       7.768 -13.039  26.094  1.00  0.00     0.168 HD
BRANCH  23  26
HETATM   26  O2  UNL     1       6.753 -13.488  24.154  1.00  0.00    -0.343 OA
ATOM     27  H2  UNL     1       6.605 -14.326  24.576  1.00  0.00     0.219 HD
ENDBRANCH  23  26
BRANCH  24  28
HETATM   28  C6  UNL     1       7.340 -11.293  27.001  1.00  0.00     0.077 A 
HETATM   29  C7  UNL     1       6.361 -11.041  27.849  1.00  0.00     0.122 A 
HETATM   30  N5  UNL     1       6.464 -10.102  28.945  1.00  0.00    -0.355 N 
HETATM   31  C8  UNL     1       5.310  -9.916  29.810  1.00  0.00     0.156 C 
HETATM   32  C9  UNL     1       7.652  -9.389  29.167  1.00  0.00     0.087 A 
HETATM   33  C10 UNL     1       7.871  -8.527  30.116  1.00  0.00     0.152 C 
HETATM   34  C15 UNL     1       8.747  -9.688  28.197  1.00  0.00     0.120 A 
HETATM   35  C16 UNL     1       8.576 -10.554  27.228  1.00  0.00     0.110 A 
HETATM   36  N8  UNL     1       9.675 -10.769  26.346  1.00  0.00    -0.097 NA
BRANCH  33  37
HETATM   37  N6  UNL     1       7.092  -8.033  31.165  1.00  0.00    -0.237 N 
BRANCH  37  38
HETATM   38  O3  UNL     1       6.335  -6.943  31.021  1.00  0.00    -0.285 OA
ATOM     39  H3  UNL     1       6.057  -6.427  31.769  1.00  0.00     0.245 HD
ENDBRANCH  37  38
BRANCH  37  40
HETATM   40  C11 UNL     1       7.037  -8.729  32.460  1.00  0.00     0.280 C 
HETATM   41  O4  UNL     1       7.076  -7.867  33.522  1.00  0.00    -0.329 OA
HETATM   42  C12 UNL     1       8.317  -7.885  34.092  1.00  0.00     0.323 C 
HETATM   43  C13 UNL     1       9.108  -9.013  33.515  1.00  0.00     0.097 C 
HETATM   44  C14 UNL     1       8.139  -9.728  32.596  1.00  0.00     0.173 C 
BRANCH  42  45
HETATM   45  N7  UNL     1       8.229  -8.110  35.534  1.00  0.00    -0.053 N 
ATOM     46  H73 UNL     1       7.265  -8.061  35.864  1.00  0.00     0.277 HD
ATOM     47  H72 UNL     1       8.426  -9.080  35.776  1.00  0.00     0.277 HD
ATOM     48  H71 UNL     1       8.834  -7.465  36.042  1.00  0.00     0.277 HD
ENDBRANCH  42  45
BRANCH  44  49
HETATM   49  O5  UNL     1       7.673 -10.847  33.283  1.00  0.00    -0.391 OA
ATOM     50  H5  UNL     1       8.140 -11.619  32.987  1.00  0.00     0.210 HD
ENDBRANCH  44  49
ENDBRANCH  37  40
ENDBRANCH  33  37
BRANCH  34  51
HETATM   51  O6  UNL     1       9.949  -9.006  28.372  1.00  0.00    -0.357 OA
ATOM     52  H6  UNL     1      10.683  -9.282  27.836  1.00  0.00     0.218 HD
ENDBRANCH  34  51
ENDBRANCH  24  28
ENDBRANCH   5  23
ENDBRANCH   1   5
TORSDOF 20
ENDMDL
MODEL 3
REMARK VINA RESULT: -8.170450441      1.096      1.146
REMARK  20 active torsions:
REMARK  status: ('A' for Active; 'I' for Inactive)
REMARK    1  A    between atoms: C2_2  and  O1_3 
REMARK    2  A    between atoms: C2_2  and  C17_41 
REMARK    3  A    between atoms: O1_3  and  N1_4 
REMARK    4  A    between atoms: C3_6  and  N2_7 
REMARK    5  A    between atoms: C3_6  and  C5_11 
REMARK    6  A    between atoms: C5_11  and  O2_12 
REMARK    7  A    between atoms: N4_14  and  C6_16 
REMARK    8  A    between atoms: C10_21  and  N6_22 
REMARK    9  A    between atoms: N6_22  and  O3_23 
REMARK   10  A    between atoms: N6_22  and  C11_25 
REMARK   11  A    between atoms: C12_27  and  N7_28 
REMARK   12  A    between atoms: C14_33  and  O5_34 
REMARK   13  A    between atoms: C15_36  and  O6_37 
REMARK   14  A    between atoms: C17_41  and  O7_42 
REMARK   15  A    between atoms: C17_41  and  C18_44 
REMARK   16  A    between atoms: C18_44  and  O8_45 
REMARK   17  A    between atoms: C18_44  and  C19_47 
REMARK   18  A    between atoms: C19_47  and  O9_48 
REMARK   19  A    between atoms: C19_47  and  C20_50 
REMARK   20  A    between atoms: C20_50  and  O10_51 
ROOT
HETATM    1  N2  UNL     1       4.439 -11.379  24.764  1.00  0.00    -0.274 N 
ATOM      2  H2  UNL     1       3.691 -11.971  24.404  1.00  0.00     0.180 HD
HETATM    3  C4  UNL     1       4.219 -10.502  25.837  1.00  0.00     0.183 C 
HETATM    4  N3  UNL     1       4.044  -9.772  26.716  1.00  0.00    -0.172 NA
ENDROOT
BRANCH   1   5
HETATM    5  C3  UNL     1       5.717 -11.410  24.206  1.00  0.00     0.186 C 
HETATM    6  N1  UNL     1       6.012 -10.497  23.315  1.00  0.00    -0.246 N 
ATOM      7  H1  UNL     1       6.936 -10.485  22.883  1.00  0.00     0.196 HD
BRANCH   6   8
HETATM    8  O1  UNL     1       5.083  -9.560  22.964  1.00  0.00    -0.271 OA
BRANCH   8   9
HETATM    9  C2  UNL     1       4.491  -9.609  21.686  1.00  0.00     0.179 C 
HETATM   10  C1  UNL     1       4.921 -10.842  20.959  1.00  0.00     0.045 C 
BRANCH   9  11
HETATM   11  C17 UNL     1       2.993  -9.506  21.885  1.00  0.00     0.180 C 
BRANCH  11  12
HETATM   12  O7  UNL     1       2.618 -10.515  22.776  1.00  0.00    -0.390 OA
ATOM     13  H7  UNL     1       2.764 -10.187  23.655  1.00  0.00     0.210 HD
ENDBRANCH  11  12
BRANCH  11  14
HETATM   14  C18 UNL     1       2.676  -8.146  22.421  1.00  0.00     0.180 C 
BRANCH  14  15
HETATM   15  O8  UNL     1       3.792  -7.334  22.394  1.00  0.00    -0.390 OA
ATOM     16  H8  UNL     1       4.581  -7.846  22.264  1.00  0.00     0.210 HD
ENDBRANCH  14  15
BRANCH  14  17
HETATM   17  C19 UNL     1       2.155  -8.185  23.839  1.00  0.00     0.173 C 
BRANCH  17  18
HETATM   18  O9  UNL     1       0.789  -8.477  23.862  1.00  0.00    -0.391 OA
ATOM     19  H9  UNL     1       0.451  -8.593  22.981  1.00  0.00     0.210 HD
ENDBRANCH  17  18
BRANCH  17  20
HETATM   20  C20 UNL     1       2.351  -6.884  24.560  1.00  0.00     0.198 C 
BRANCH  20  21
HETATM   21  O10 UNL     1       3.439  -6.973  25.430  1.00  0.00    -0.398 OA
ATOM     22  H10 UNL     1       4.197  -6.541  25.053  1.00  0.00     0.209 HD
ENDBRANCH  20  21
ENDBRANCH  17  20
ENDBRANCH  14  17
ENDBRANCH  11  14
ENDBRANCH   9  11
ENDBRANCH   8   9
ENDBRANCH   6   8
BRANCH   5  23
HETATM   23  C5  UNL     1       6.711 -12.383  24.557  1.00  0.00     0.188 C 
HETATM   24  N4  UNL     1       7.293 -12.475  25.635  1.00  0.00    -0.331 N 
ATOM     25  H4  UNL     1       7.957 -13.250  25.639  1.00  0.00     0.168 HD
BRANCH  23  26
HETATM   26  O2  UNL     1       7.096 -13.369  23.579  1.00  0.00    -0.343 OA
ATOM     27  H2  UNL     1       6.757 -14.252  23.661  1.00  0.00     0.219 HD
ENDBRANCH  23  26
BRANCH  24  28
HETATM   28  C6  UNL     1       7.286 -11.796  26.860  1.00  0.00     0.077 A 
HETATM   29  C7  UNL     1       6.850 -12.367  27.967  1.00  0.00     0.122 A 
HETATM   30  N5  UNL     1       6.820 -11.711  29.256  1.00  0.00    -0.355 N 
HETATM   31  C8  UNL     1       6.315 -12.452  30.400  1.00  0.00     0.156 C 
HETATM   32  C9  UNL     1       7.268 -10.389  29.395  1.00  0.00     0.087 A 
HETATM   33  C10 UNL     1       7.297  -9.694  30.495  1.00  0.00     0.152 C 
HETATM   34  C15 UNL     1       7.756  -9.761  28.132  1.00  0.00     0.120 A 
HETATM   35  C16 UNL     1       7.752 -10.422  27.000  1.00  0.00     0.110 A 
HETATM   36  N8  UNL     1       8.230  -9.739  25.845  1.00  0.00    -0.097 NA
BRANCH  33  37
HETATM   37  N6  UNL     1       6.933  -9.968  31.815  1.00  0.00    -0.237 N 
BRANCH  37  38
HETATM   38  O3  UNL     1       5.661 -10.175  32.162  1.00  0.00    -0.285 OA
ATOM     39  H3  UNL     1       5.403 -10.926  32.684  1.00  0.00     0.245 HD
ENDBRANCH  37  38
BRANCH  37  40
HETATM   40  C11 UNL     1       7.951 -10.090  32.871  1.00  0.00     0.280 C 
HETATM   41  O4  UNL     1       7.417 -10.466  34.074  1.00  0.00    -0.329 OA
HETATM   42  C12 UNL     1       7.348  -9.389  34.911  1.00  0.00     0.323 C 
HETATM   43  C13 UNL     1       8.103  -8.248  34.310  1.00  0.00     0.097 C 
HETATM   44  C14 UNL     1       8.716  -8.819  33.049  1.00  0.00     0.173 C 
BRANCH  42  45
HETATM   45  N7  UNL     1       7.967  -9.687  36.202  1.00  0.00    -0.053 N 
ATOM     46  H73 UNL     1       8.353 -10.631  36.225  1.00  0.00     0.277 HD
ATOM     47  H72 UNL     1       8.832  -9.164  36.334  1.00  0.00     0.277 HD
ATOM     48  H71 UNL     1       7.311  -9.530  36.967  1.00  0.00     0.277 HD
ENDBRANCH  42  45
BRANCH  44  49
HETATM   49  O5  UNL     1      10.048  -9.112  33.336  1.00  0.00    -0.391 OA
ATOM     50  H5  UNL     1      10.593  -8.369  33.109  1.00  0.00     0.210 HD
ENDBRANCH  44  49
ENDBRANCH  37  40
ENDBRANCH  33  37
BRANCH  34  51
HETATM   51  O6  UNL     1       8.212  -8.447  28.216  1.00  0.00    -0.357 OA
ATOM     52  H6  UNL     1       8.129  -7.911  27.435  1.00  0.00     0.218 HD
ENDBRANCH  34  51
ENDBRANCH  24  28
ENDBRANCH   5  23
ENDBRANCH   1   5
TORSDOF 20
ENDMDL
MODEL 4
REMARK VINA RESULT: -7.970944339      1.535      2.147
REMARK  20 active torsions:
REMARK  status: ('A' for Active; 'I' for Inactive)
REMARK    1  A    between atoms: C2_2  and  O1_3 
REMARK    2  A    between atoms: C2_2  and  C17_41 
REMARK    3  A    between atoms: O1_3  and  N1_4 
REMARK    4  A    between atoms: C3_6  and  N2_7 
REMARK    5  A    between atoms: C3_6  and  C5_11 
REMARK    6  A    between atoms: C5_11  and  O2_12 
REMARK    7  A    between atoms: N4_14  and  C6_16 
REMARK    8  A    between atoms: C10_21  and  N6_22 
REMARK    9  A    between atoms: N6_22  and  O3_23 
REMARK   10  A    between atoms: N6_22  and  C11_25 
REMARK   11  A    between atoms: C12_27  and  N7_28 
REMARK   12  A    between atoms: C14_33  and  O5_34 
REMARK   13  A    between atoms: C15_36  and  O6_37 
REMARK   14  A    between atoms: C17_41  and  O7_42 
REMARK   15  A    between atoms: C17_41  and  C18_44 
REMARK   16  A    between atoms: C18_44  and  O8_45 
REMARK   17  A    between atoms: C18_44  and  C19_47 
REMARK   18  A    between atoms: C19_47  and  O9_48 
REMARK   19  A    between atoms: C19_47  and  C20_50 
REMARK   20  A    between atoms: C20_50  and  O10_51 
ROOT
HETATM    1  N2  UNL     1       5.187 -11.230  25.293  1.00  0.00    -0.274 N 
ATOM      2  H2  UNL     1       4.892 -12.172  25.035  1.00  0.00     0.180 HD
HETATM    3  C4  UNL     1       4.338 -10.373  26.009  1.00  0.00     0.183 C 
HETATM    4  N3  UNL     1       3.642  -9.658  26.592  1.00  0.00    -0.172 NA
ENDROOT
BRANCH   1   5
HETATM    5  C3  UNL     1       6.449 -10.749  24.947  1.00  0.00     0.186 C 
HETATM    6  N1  UNL     1       6.506  -9.758  24.092  1.00  0.00    -0.246 N 
ATOM      7  H1  UNL     1       7.410  -9.377  23.812  1.00  0.00     0.196 HD
BRANCH   6   8
HETATM    8  O1  UNL     1       5.356  -9.235  23.575  1.00  0.00    -0.271 OA
BRANCH   8   9
HETATM    9  C2  UNL     1       5.190  -9.160  22.177  1.00  0.00     0.179 C 
HETATM   10  C1  UNL     1       4.911 -10.515  21.611  1.00  0.00     0.045 C 
BRANCH   9  11
HETATM   11  C17 UNL     1       4.094  -8.148  21.913  1.00  0.00     0.180 C 
BRANCH  11  12
HETATM   12  O7  UNL     1       3.715  -8.282  20.575  1.00  0.00    -0.390 OA
ATOM     13  H7  UNL     1       3.073  -7.607  20.392  1.00  0.00     0.210 HD
ENDBRANCH  11  12
BRANCH  11  14
HETATM   14  C18 UNL     1       2.956  -8.425  22.843  1.00  0.00     0.180 C 
BRANCH  14  15
HETATM   15  O8  UNL     1       1.792  -8.661  22.140  1.00  0.00    -0.390 OA
ATOM     16  H8  UNL     1       1.804  -9.523  21.741  1.00  0.00     0.210 HD
ENDBRANCH  14  15
BRANCH  14  17
HETATM   17  C19 UNL     1       2.703  -7.292  23.809  1.00  0.00     0.173 C 
BRANCH  17  18
HETATM   18  O9  UNL     1       3.728  -7.203  24.755  1.00  0.00    -0.391 OA
ATOM     19  H9  UNL     1       4.346  -6.518  24.524  1.00  0.00     0.210 HD
ENDBRANCH  17  18
BRANCH  17  20
HETATM   20  C20 UNL     1       1.412  -7.449  24.556  1.00  0.00     0.198 C 
BRANCH  20  21
HETATM   21  O10 UNL     1       1.661  -7.656  25.914  1.00  0.00    -0.398 OA
ATOM     22  H10 UNL     1       0.847  -7.646  26.403  1.00  0.00     0.209 HD
ENDBRANCH  20  21
ENDBRANCH  17  20
ENDBRANCH  14  17
ENDBRANCH  11  14
ENDBRANCH   9  11
ENDBRANCH   8   9
ENDBRANCH   6   8
BRANCH   5  23
HETATM   23  C5  UNL     1       7.673 -11.280  25.475  1.00  0.00     0.188 C 
HETATM   24  N4  UNL     1       8.014 -11.293  26.655  1.00  0.00    -0.331 N 
ATOM     25  H4  UNL     1       8.929 -11.726  26.777  1.00  0.00     0.168 HD
BRANCH  23  26
HETATM   26  O2  UNL     1       8.626 -11.866  24.567  1.00  0.00    -0.343 OA
ATOM     27  H2  UNL     1       9.319 -11.321  24.215  1.00  0.00     0.219 HD
ENDBRANCH  23  26
BRANCH  24  28
HETATM   28  C6  UNL     1       7.476 -10.869  27.877  1.00  0.00     0.077 A 
HETATM   29  C7  UNL     1       7.847  -9.736  28.442  1.00  0.00     0.122 A 
HETATM   30  N5  UNL     1       7.325  -9.254  29.703  1.00  0.00    -0.355 N 
HETATM   31  C8  UNL     1       7.816  -7.987  30.218  1.00  0.00     0.156 C 
HETATM   32  C9  UNL     1       6.365  -9.995  30.409  1.00  0.00     0.087 A 
HETATM   33  C10 UNL     1       5.817  -9.668  31.542  1.00  0.00     0.152 C 
HETATM   34  C15 UNL     1       5.959 -11.273  29.753  1.00  0.00     0.120 A 
HETATM   35  C16 UNL     1       6.479 -11.643  28.608  1.00  0.00     0.110 A 
HETATM   36  N8  UNL     1       6.037 -12.882  28.061  1.00  0.00    -0.097 NA
BRANCH  33  37
HETATM   37  N6  UNL     1       5.957  -8.573  32.398  1.00  0.00    -0.237 N 
BRANCH  37  38
HETATM   38  O3  UNL     1       5.419  -7.385  32.109  1.00  0.00    -0.285 OA
ATOM     39  H3  UNL     1       5.181  -6.767  32.791  1.00  0.00     0.245 HD
ENDBRANCH  37  38
BRANCH  37  40
HETATM   40  C11 UNL     1       6.662  -8.701  33.683  1.00  0.00     0.280 C 
HETATM   41  O4  UNL     1       7.295  -7.545  34.053  1.00  0.00    -0.329 OA
HETATM   42  C12 UNL     1       8.638  -7.659  33.835  1.00  0.00     0.323 C 
HETATM   43  C13 UNL     1       8.967  -9.079  33.508  1.00  0.00     0.097 C 
HETATM   44  C14 UNL     1       7.654  -9.818  33.657  1.00  0.00     0.173 C 
BRANCH  42  45
HETATM   45  N7  UNL     1       9.396  -7.303  35.034  1.00  0.00    -0.053 N 
ATOM     46  H73 UNL     1       9.962  -6.468  34.886  1.00  0.00     0.277 HD
ATOM     47  H72 UNL     1       8.788  -6.948  35.771  1.00  0.00     0.277 HD
ATOM     48  H71 UNL     1       9.960  -8.089  35.357  1.00  0.00     0.277 HD
ENDBRANCH  42  45
BRANCH  44  49
HETATM   49  O5  UNL     1       7.678 -10.450  34.900  1.00  0.00    -0.391 OA
ATOM     50  H5  UNL     1       6.805 -10.452  35.272  1.00  0.00     0.210 HD
ENDBRANCH  44  49
ENDBRANCH  37  40
ENDBRANCH  33  37
BRANCH  34  51
HETATM   51  O6  UNL     1       5.009 -12.048  30.414  1.00  0.00    -0.357 OA
ATOM     52  H6  UNL     1       4.422 -12.564  29.874  1.00  0.00     0.218 HD
ENDBRANCH  34  51
ENDBRANCH  24  28
ENDBRANCH   5  23
ENDBRANCH   1   5
TORSDOF 20
ENDMDL
MODEL 5
REMARK VINA RESULT: -7.941273404      1.292      1.427
REMARK  20 active torsions:
REMARK  status: ('A' for Active; 'I' for Inactive)
REMARK    1  A    between atoms: C2_2  and  O1_3 
REMARK    2  A    between atoms: C2_2  and  C17_41 
REMARK    3  A    between atoms: O1_3  and  N1_4 
REMARK    4  A    between atoms: C3_6  and  N2_7 
REMARK    5  A    between atoms: C3_6  and  C5_11 
REMARK    6  A    between atoms: C5_11  and  O2_12 
REMARK    7  A    between atoms: N4_14  and  C6_16 
REMARK    8  A    between atoms: C10_21  and  N6_22 
REMARK    9  A    between atoms: N6_22  and  O3_23 
REMARK   10  A    between atoms: N6_22  and  C11_25 
REMARK   11  A    between atoms: C12_27  and  N7_28 
REMARK   12  A    between atoms: C14_33  and  O5_34 
REMARK   13  A    between atoms: C15_36  and  O6_37 
REMARK   14  A    between atoms: C17_41  and  O7_42 
REMARK   15  A    between atoms: C17_41  and  C18_44 
REMARK   16  A    between atoms: C18_44  and  O8_45 
REMARK   17  A    between atoms: C18_44  and  C19_47 
REMARK   18  A    between atoms: C19_47  and  O9_48 
REMARK   19  A    between atoms: C19_47  and  C20_50 
REMARK   20  A    between atoms: C20_50  and  O10_51 
ROOT
HETATM    1  N2  UNL     1       4.438 -11.041  26.057  1.00  0.00    -0.274 N 
ATOM      2  H2  UNL     1       3.681 -11.692  25.843  1.00  0.00     0.180 HD
HETATM    3  C4  UNL     1       4.246  -9.969  26.940  1.00  0.00     0.183 C 
HETATM    4  N3  UNL     1       4.094  -9.078  27.661  1.00  0.00    -0.172 NA
ENDROOT
BRANCH   1   5
HETATM    5  C3  UNL     1       5.699 -11.187  25.480  1.00  0.00     0.186 C 
HETATM    6  N1  UNL     1       5.999 -10.403  24.475  1.00  0.00    -0.246 N 
ATOM      7  H1  UNL     1       6.912 -10.477  24.025  1.00  0.00     0.196 HD
BRANCH   6   8
HETATM    8  O1  UNL     1       5.091  -9.485  24.028  1.00  0.00    -0.271 OA
BRANCH   8   9
HETATM    9  C2  UNL     1       4.598  -9.576  22.712  1.00  0.00     0.179 C 
HETATM   10  C1  UNL     1       5.151 -10.786  22.029  1.00  0.00     0.045 C 
BRANCH   9  11
HETATM   11  C17 UNL     1       3.086  -9.560  22.801  1.00  0.00     0.180 C 
BRANCH  11  12
HETATM   12  O7  UNL     1       2.714 -10.493  23.772  1.00  0.00    -0.390 OA
ATOM     13  H7  UNL     1       1.815 -10.308  24.015  1.00  0.00     0.210 HD
ENDBRANCH  11  12
BRANCH  11  14
HETATM   14  C18 UNL     1       2.645  -8.177  23.162  1.00  0.00     0.180 C 
BRANCH  14  15
HETATM   15  O8  UNL     1       3.714  -7.303  23.161  1.00  0.00    -0.390 OA
ATOM     16  H8  UNL     1       3.415  -6.403  23.103  1.00  0.00     0.210 HD
ENDBRANCH  14  15
BRANCH  14  17
HETATM   17  C19 UNL     1       1.982  -8.111  24.518  1.00  0.00     0.173 C 
BRANCH  17  18
HETATM   18  O9  UNL     1       0.641  -8.494  24.438  1.00  0.00    -0.391 OA
ATOM     19  H9  UNL     1       0.142  -8.139  25.165  1.00  0.00     0.210 HD
ENDBRANCH  17  18
BRANCH  17  20
HETATM   20  C20 UNL     1       2.025  -6.735  25.114  1.00  0.00     0.198 C 
BRANCH  20  21
HETATM   21  O10 UNL     1       3.033  -6.657  26.077  1.00  0.00    -0.398 OA
ATOM     22  H10 UNL     1       2.668  -6.393  26.913  1.00  0.00     0.209 HD
ENDBRANCH  20  21
ENDBRANCH  17  20
ENDBRANCH  14  17
ENDBRANCH  11  14
ENDBRANCH   9  11
ENDBRANCH   8   9
ENDBRANCH   6   8
BRANCH   5  23
HETATM   23  C5  UNL     1       6.671 -12.142  25.929  1.00  0.00     0.188 C 
HETATM   24  N4  UNL     1       7.273 -12.122  27.000  1.00  0.00    -0.331 N 
ATOM     25  H4  UNL     1       7.913 -12.912  27.086  1.00  0.00     0.168 HD
BRANCH  23  26
HETATM   26  O2  UNL     1       7.005 -13.250  25.071  1.00  0.00    -0.343 OA
ATOM     27  H2  UNL     1       6.305 -13.714  24.628  1.00  0.00     0.219 HD
ENDBRANCH  23  26
BRANCH  24  28
HETATM   28  C6  UNL     1       7.313 -11.300  28.133  1.00  0.00     0.077 A 
HETATM   29  C7  UNL     1       6.918 -11.730  29.316  1.00  0.00     0.122 A 
HETATM   30  N5  UNL     1       6.936 -10.923  30.516  1.00  0.00    -0.355 N 
HETATM   31  C8  UNL     1       6.474 -11.518  31.759  1.00  0.00     0.156 C 
HETATM   32  C9  UNL     1       7.391  -9.596  30.478  1.00  0.00     0.087 A 
HETATM   33  C10 UNL     1       7.462  -8.774  31.484  1.00  0.00     0.152 C 
HETATM   34  C15 UNL     1       7.833  -9.128  29.131  1.00  0.00     0.120 A 
HETATM   35  C16 UNL     1       7.785  -9.921  28.089  1.00  0.00     0.110 A 
HETATM   36  N8  UNL     1       8.220  -9.386  26.842  1.00  0.00    -0.097 NA
BRANCH  33  37
HETATM   37  N6  UNL     1       7.148  -8.884  32.840  1.00  0.00    -0.237 N 
BRANCH  37  38
HETATM   38  O3  UNL     1       5.883  -8.927  33.264  1.00  0.00    -0.285 OA
ATOM     39  H3  UNL     1       5.663  -8.852  34.186  1.00  0.00     0.245 HD
ENDBRANCH  37  38
BRANCH  37  40
HETATM   40  C11 UNL     1       8.206  -9.010  33.855  1.00  0.00     0.280 C 
HETATM   41  O4  UNL     1       7.742  -9.517  35.039  1.00  0.00    -0.329 OA
HETATM   42  C12 UNL     1       7.622  -8.515  35.959  1.00  0.00     0.323 C 
HETATM   43  C13 UNL     1       8.271  -7.278  35.430  1.00  0.00     0.097 C 
HETATM   44  C14 UNL     1       8.882  -7.703  34.111  1.00  0.00     0.173 C 
BRANCH  42  45
HETATM   45  N7  UNL     1       8.304  -8.864  37.205  1.00  0.00    -0.053 N 
ATOM     46  H73 UNL     1       8.986  -9.609  37.065  1.00  0.00     0.277 HD
ATOM     47  H72 UNL     1       8.940  -8.126  37.504  1.00  0.00     0.277 HD
ATOM     48  H71 UNL     1       7.632  -9.100  37.935  1.00  0.00     0.277 HD
ENDBRANCH  42  45
BRANCH  44  49
HETATM   49  O5  UNL     1      10.240  -7.916  34.338  1.00  0.00    -0.391 OA
ATOM     50  H5  UNL     1      10.356  -8.405  35.144  1.00  0.00     0.210 HD
ENDBRANCH  44  49
ENDBRANCH  37  40
ENDBRANCH  33  37
BRANCH  34  51
HETATM   51  O6  UNL     1       8.293  -7.816  29.038  1.00  0.00    -0.357 OA
ATOM     52  H6  UNL     1       8.179  -7.265  29.804  1.00  0.00     0.218 HD
ENDBRANCH  34  51
ENDBRANCH  24  28
ENDBRANCH   5  23
ENDBRANCH   1   5
TORSDOF 20
ENDMDL
