MODEL 1
REMARK VINA RESULT: -7.747378363      0.000      0.000
REMARK  17 active torsions:
REMARK  status: ('A' for Active; 'I' for Inactive)
REMARK    1  A    between atoms: C2_2  and  O1_3 
REMARK    2  A    between atoms: C6_8  and  O2_9 
REMARK    3  A    between atoms: O2_9  and  C7_10 
REMARK    4  A    between atoms: C8_12  and  C9_13 
REMARK    5  A    between atoms: N1_14  and  O4_16 
REMARK    6  A    between atoms: C10_18  and  O5_19 
REMARK    7  A    between atoms: C11_21  and  C12_22 
REMARK    8  A    between atoms: C12_22  and  O6_23 
REMARK    9  A    between atoms: C13_26  and  O8_27 
REMARK   10  A    between atoms: O8_27  and  C14_28 
REMARK   11  A    between atoms: C14_28  and  O9_29 
REMARK   12  A    between atoms: C15_31  and  O10_32 
REMARK   13  A    between atoms: C16_34  and  O11_35 
REMARK   14  A    between atoms: C17_37  and  O12_38 
REMARK   15  A    between atoms: C18_40  and  C19_41 
REMARK   16  A    between atoms: C19_41  and  O13_42 
REMARK   17  A    between atoms: C20_44  and  O14_45 
ROOT
HETATM    1  C1  UNL     1       3.860 -13.521  33.049  1.00  0.00     0.078 C 
HETATM    2  C2  UNL     1       4.921 -13.550  31.937  1.00  0.00     0.161 C 
HETATM    3  C3  UNL     1       4.573 -14.782  31.091  1.00  0.00     0.068 C 
HETATM    4  C4  UNL     1       4.974 -14.475  29.681  1.00  0.00     0.008 C 
HETATM    5  C5  UNL     1       6.405 -14.036  29.611  1.00  0.00     0.037 C 
HETATM    6  C6  UNL     1       6.533 -12.531  29.534  1.00  0.00     0.182 C 
HETATM    7  C13 UNL     1       6.051 -11.855  30.791  1.00  0.00     0.296 C 
HETATM    8  O15 UNL     1       4.833 -12.399  31.223  1.00  0.00    -0.323 OA
ENDROOT
BRANCH   7   9
HETATM    9  O8  UNL     1       6.964 -11.742  31.798  1.00  0.00    -0.317 OA
BRANCH   9  10
HETATM   10  C14 UNL     1       6.903 -10.621  32.581  1.00  0.00     0.220 C 
HETATM   11  C15 UNL     1       7.512  -9.453  31.917  1.00  0.00     0.214 C 
HETATM   12  C16 UNL     1       7.421  -8.177  32.724  1.00  0.00     0.181 C 
HETATM   13  C17 UNL     1       7.802  -8.360  34.163  1.00  0.00     0.158 C 
HETATM   14  C18 UNL     1       7.343  -9.654  34.758  1.00  0.00     0.075 C 
HETATM   15  C20 UNL     1       7.681 -10.824  33.900  1.00  0.00     0.192 C 
BRANCH  10  16
HETATM   16  O9  UNL     1       5.599 -10.327  32.999  1.00  0.00    -0.361 OA
ATOM     17  H9  UNL     1       5.020 -10.125  32.274  1.00  0.00     0.213 HD
ENDBRANCH  10  16
BRANCH  11  18
HETATM   18  O10 UNL     1       8.859  -9.640  31.570  1.00  0.00    -0.387 OA
ATOM     19  H10 UNL     1       9.460  -9.097  32.066  1.00  0.00     0.210 HD
ENDBRANCH  11  18
BRANCH  12  20
HETATM   20  O11 UNL     1       6.150  -7.629  32.589  1.00  0.00    -0.390 OA
ATOM     21  H11 UNL     1       5.670  -8.098  31.916  1.00  0.00     0.210 HD
ENDBRANCH  12  20
BRANCH  13  22
HETATM   22  O12 UNL     1       7.214  -7.320  34.887  1.00  0.00    -0.392 OA
ATOM     23  H12 UNL     1       7.893  -6.927  35.424  1.00  0.00     0.210 HD
ENDBRANCH  13  22
BRANCH  14  24
HETATM   24  C19 UNL     1       7.904  -9.839  36.128  1.00  0.00     0.174 C 
BRANCH  24  25
HETATM   25  O13 UNL     1       8.344 -11.103  36.420  1.00  0.00    -0.400 OA
ATOM     26  H13 UNL     1       7.681 -11.783  36.396  1.00  0.00     0.209 HD
ENDBRANCH  24  25
ENDBRANCH  14  24
BRANCH  15  27
HETATM   27  O14 UNL     1       9.010 -11.064  33.707  1.00  0.00    -0.389 OA
ATOM     28  H14 UNL     1       9.179 -11.857  33.212  1.00  0.00     0.210 HD
ENDBRANCH  15  27
ENDBRANCH   9  10
ENDBRANCH   7   9
BRANCH   6  29
HETATM   29  O2  UNL     1       5.745 -12.132  28.436  1.00  0.00    -0.329 OA
BRANCH  29  30
HETATM   30  C7  UNL     1       6.522 -11.929  27.297  1.00  0.00     0.414 C 
HETATM   31  O3  UNL     1       5.822 -11.039  26.450  1.00  0.00    -0.326 OA
HETATM   32  C8  UNL     1       6.473 -11.146  25.208  1.00  0.00     0.198 C 
HETATM   33  C10 UNL     1       7.837 -10.528  25.385  1.00  0.00     0.183 C 
HETATM   34  C11 UNL     1       8.500 -10.900  26.666  1.00  0.00     0.182 C 
HETATM   35  O7  UNL     1       7.678 -11.303  27.669  1.00  0.00    -0.329 OA
BRANCH  32  36
HETATM   36  C9  UNL     1       5.654 -10.408  24.226  1.00  0.00     0.121 C 
HETATM   37  N1  UNL     1       6.092 -10.195  23.032  1.00  0.00    -0.282 N 
ATOM     38  H1  UNL     1       7.013 -10.541  22.763  1.00  0.00     0.193 HD
BRANCH  37  39
HETATM   39  O4  UNL     1       5.334  -9.512  22.124  1.00  0.00    -0.290 OA
ATOM     40  H4  UNL     1       5.035  -8.630  22.308  1.00  0.00     0.244 HD
ENDBRANCH  37  39
ENDBRANCH  32  36
BRANCH  33  41
HETATM   41  O5  UNL     1       7.659  -9.131  25.267  1.00  0.00    -0.390 OA
ATOM     42  H5  UNL     1       8.508  -8.739  25.432  1.00  0.00     0.210 HD
ENDBRANCH  33  41
BRANCH  34  43
HETATM   43  C12 UNL     1       9.246  -9.650  27.156  1.00  0.00     0.199 C 
BRANCH  43  44
HETATM   44  O6  UNL     1      10.419 -10.014  27.823  1.00  0.00    -0.398 OA
ATOM     45  H6  UNL     1      11.174  -9.621  27.402  1.00  0.00     0.209 HD
ENDBRANCH  43  44
ENDBRANCH  34  43
ENDBRANCH  29  30
ENDBRANCH   6  29
BRANCH   2  46
HETATM   46  O1  UNL     1       6.114 -13.820  32.552  1.00  0.00    -0.365 OA
ATOM     47  H1  UNL     1       6.729 -13.170  32.235  1.00  0.00     0.213 HD
ENDBRANCH   2  46
TORSDOF 17
ENDMDL
MODEL 2
REMARK VINA RESULT: -7.718139196      3.355      8.472
REMARK  17 active torsions:
REMARK  status: ('A' for Active; 'I' for Inactive)
REMARK    1  A    between atoms: C2_2  and  O1_3 
REMARK    2  A    between atoms: C6_8  and  O2_9 
REMARK    3  A    between atoms: O2_9  and  C7_10 
REMARK    4  A    between atoms: C8_12  and  C9_13 
REMARK    5  A    between atoms: N1_14  and  O4_16 
REMARK    6  A    between atoms: C10_18  and  O5_19 
REMARK    7  A    between atoms: C11_21  and  C12_22 
REMARK    8  A    between atoms: C12_22  and  O6_23 
REMARK    9  A    between atoms: C13_26  and  O8_27 
REMARK   10  A    between atoms: O8_27  and  C14_28 
REMARK   11  A    between atoms: C14_28  and  O9_29 
REMARK   12  A    between atoms: C15_31  and  O10_32 
REMARK   13  A    between atoms: C16_34  and  O11_35 
REMARK   14  A    between atoms: C17_37  and  O12_38 
REMARK   15  A    between atoms: C18_40  and  C19_41 
REMARK   16  A    between atoms: C19_41  and  O13_42 
REMARK   17  A    between atoms: C20_44  and  O14_45 
ROOT
HETATM    1  C1  UNL     1       5.802 -11.153  22.133  1.00  0.00     0.078 C 
HETATM    2  C2  UNL     1       5.820 -11.595  23.605  1.00  0.00     0.161 C 
HETATM    3  C3  UNL     1       6.781 -12.790  23.647  1.00  0.00     0.068 C 
HETATM    4  C4  UNL     1       7.442 -12.778  24.990  1.00  0.00     0.008 C 
HETATM    5  C5  UNL     1       6.426 -12.736  26.091  1.00  0.00     0.037 C 
HETATM    6  C6  UNL     1       6.235 -11.338  26.634  1.00  0.00     0.182 C 
HETATM    7  C13 UNL     1       5.638 -10.408  25.611  1.00  0.00     0.296 C 
HETATM    8  O15 UNL     1       6.261 -10.559  24.364  1.00  0.00    -0.323 OA
ENDROOT
BRANCH   7   9
HETATM    9  O8  UNL     1       4.277 -10.409  25.523  1.00  0.00    -0.317 OA
BRANCH   9  10
HETATM   10  C14 UNL     1       3.668  -9.242  25.148  1.00  0.00     0.220 C 
HETATM   11  C15 UNL     1       2.759  -8.736  26.194  1.00  0.00     0.214 C 
HETATM   12  C16 UNL     1       2.103  -7.419  25.846  1.00  0.00     0.181 C 
HETATM   13  C17 UNL     1       1.549  -7.384  24.452  1.00  0.00     0.158 C 
HETATM   14  C18 UNL     1       2.398  -8.086  23.439  1.00  0.00     0.075 C 
HETATM   15  C20 UNL     1       2.803  -9.449  23.886  1.00  0.00     0.192 C 
BRANCH  10  16
HETATM   16  O9  UNL     1       4.586  -8.254  24.771  1.00  0.00    -0.361 OA
ATOM     17  H9  UNL     1       4.527  -8.034  23.849  1.00  0.00     0.213 HD
ENDBRANCH  10  16
BRANCH  11  18
HETATM   18  O10 UNL     1       1.742  -9.637  26.541  1.00  0.00    -0.387 OA
ATOM     19  H10 UNL     1       0.885  -9.235  26.618  1.00  0.00     0.210 HD
ENDBRANCH  11  18
BRANCH  12  20
HETATM   20  O11 UNL     1       2.996  -6.377  26.075  1.00  0.00    -0.390 OA
ATOM     21  H11 UNL     1       2.910  -6.075  26.972  1.00  0.00     0.210 HD
ENDBRANCH  12  20
BRANCH  13  22
HETATM   22  O12 UNL     1       1.448  -6.043  24.075  1.00  0.00    -0.392 OA
ATOM     23  H12 UNL     1       2.135  -5.873  23.441  1.00  0.00     0.210 HD
ENDBRANCH  13  22
BRANCH  14  24
HETATM   24  C19 UNL     1       1.703  -8.160  22.121  1.00  0.00     0.174 C 
BRANCH  24  25
HETATM   25  O13 UNL     1       0.369  -8.466  22.173  1.00  0.00    -0.400 OA
ATOM     26  H13 UNL     1      -0.039  -8.662  21.338  1.00  0.00     0.209 HD
ENDBRANCH  24  25
ENDBRANCH  14  24
BRANCH  15  27
HETATM   27  O14 UNL     1       1.792 -10.346  24.070  1.00  0.00    -0.389 OA
ATOM     28  H14 UNL     1       0.951 -10.031  23.759  1.00  0.00     0.210 HD
ENDBRANCH  15  27
ENDBRANCH   9  10
ENDBRANCH   7   9
BRANCH   6  29
HETATM   29  O2  UNL     1       7.518 -10.890  27.006  1.00  0.00    -0.329 OA
BRANCH  29  30
HETATM   30  C7  UNL     1       7.573 -10.564  28.360  1.00  0.00     0.414 C 
HETATM   31  O3  UNL     1       6.640  -9.528  28.593  1.00  0.00    -0.326 OA
HETATM   32  C8  UNL     1       6.981  -9.022  29.861  1.00  0.00     0.198 C 
HETATM   33  C10 UNL     1       6.631 -10.097  30.859  1.00  0.00     0.183 C 
HETATM   34  C11 UNL     1       7.013 -11.468  30.419  1.00  0.00     0.182 C 
HETATM   35  O7  UNL     1       7.157 -11.648  29.082  1.00  0.00    -0.329 OA
BRANCH  32  36
HETATM   36  C9  UNL     1       6.184  -7.796  30.064  1.00  0.00     0.121 C 
HETATM   37  N1  UNL     1       6.034  -7.298  31.245  1.00  0.00    -0.282 N 
ATOM     38  H1  UNL     1       6.470  -7.756  32.045  1.00  0.00     0.193 HD
BRANCH  37  39
HETATM   39  O4  UNL     1       5.296  -6.164  31.434  1.00  0.00    -0.290 OA
ATOM     40  H4  UNL     1       5.306  -5.713  32.270  1.00  0.00     0.244 HD
ENDBRANCH  37  39
ENDBRANCH  32  36
BRANCH  33  41
HETATM   41  O5  UNL     1       5.242  -9.984  31.094  1.00  0.00    -0.390 OA
ATOM     42  H5  UNL     1       4.813 -10.431  30.374  1.00  0.00     0.210 HD
ENDBRANCH  33  41
BRANCH  34  43
HETATM   43  C12 UNL     1       5.897 -12.410  30.894  1.00  0.00     0.199 C 
BRANCH  43  44
HETATM   44  O6  UNL     1       4.843 -12.416  29.976  1.00  0.00    -0.398 OA
ATOM     45  H6  UNL     1       4.384 -13.247  30.006  1.00  0.00     0.209 HD
ENDBRANCH  43  44
ENDBRANCH  34  43
ENDBRANCH  29  30
ENDBRANCH   6  29
BRANCH   2  46
HETATM   46  O1  UNL     1       4.571 -12.085  23.874  1.00  0.00    -0.365 OA
ATOM     47  H1  UNL     1       4.601 -13.013  23.673  1.00  0.00     0.213 HD
ENDBRANCH   2  46
TORSDOF 17
ENDMDL
MODEL 3
REMARK VINA RESULT: -7.482255695      0.936      1.065
REMARK  17 active torsions:
REMARK  status: ('A' for Active; 'I' for Inactive)
REMARK    1  A    between atoms: C2_2  and  O1_3 
REMARK    2  A    between atoms: C6_8  and  O2_9 
REMARK    3  A    between atoms: O2_9  and  C7_10 
REMARK    4  A    between atoms: C8_12  and  C9_13 
REMARK    5  A    between atoms: N1_14  and  O4_16 
REMARK    6  A    between atoms: C10_18  and  O5_19 
REMARK    7  A    between atoms: C11_21  and  C12_22 
REMARK    8  A    between atoms: C12_22  and  O6_23 
REMARK    9  A    between atoms: C13_26  and  O8_27 
REMARK   10  A    between atoms: O8_27  and  C14_28 
REMARK   11  A    between atoms: C14_28  and  O9_29 
REMARK   12  A    between atoms: C15_31  and  O10_32 
REMARK   13  A    between atoms: C16_34  and  O11_35 
REMARK   14  A    between atoms: C17_37  and  O12_38 
REMARK   15  A    between atoms: C18_40  and  C19_41 
REMARK   16  A    between atoms: C19_41  and  O13_42 
REMARK   17  A    between atoms: C20_44  and  O14_45 
ROOT
HETATM    1  C1  UNL     1       3.644 -13.312  33.241  1.00  0.00     0.078 C 
HETATM    2  C2  UNL     1       4.746 -13.374  32.170  1.00  0.00     0.161 C 
HETATM    3  C3  UNL     1       4.398 -14.600  31.316  1.00  0.00     0.068 C 
HETATM    4  C4  UNL     1       4.861 -14.311  29.921  1.00  0.00     0.008 C 
HETATM    5  C5  UNL     1       6.304 -13.909  29.905  1.00  0.00     0.037 C 
HETATM    6  C6  UNL     1       6.475 -12.408  29.827  1.00  0.00     0.182 C 
HETATM    7  C13 UNL     1       5.963 -11.714  31.061  1.00  0.00     0.296 C 
HETATM    8  O15 UNL     1       4.716 -12.224  31.449  1.00  0.00    -0.323 OA
ENDROOT
BRANCH   7   9
HETATM    9  O8  UNL     1       6.839 -11.620  32.103  1.00  0.00    -0.317 OA
BRANCH   9  10
HETATM   10  C14 UNL     1       6.880 -10.435  32.787  1.00  0.00     0.220 C 
HETATM   11  C15 UNL     1       8.259  -9.935  32.936  1.00  0.00     0.214 C 
HETATM   12  C16 UNL     1       8.350  -8.600  33.642  1.00  0.00     0.181 C 
HETATM   13  C17 UNL     1       7.510  -8.529  34.883  1.00  0.00     0.158 C 
HETATM   14  C18 UNL     1       6.191  -9.226  34.769  1.00  0.00     0.075 C 
HETATM   15  C20 UNL     1       6.323 -10.603  34.218  1.00  0.00     0.192 C 
BRANCH  10  16
HETATM   16  O9  UNL     1       6.058  -9.456  32.216  1.00  0.00    -0.361 OA
ATOM     17  H9  UNL     1       6.521  -8.645  32.045  1.00  0.00     0.213 HD
ENDBRANCH  10  16
BRANCH  11  18
HETATM   18  O10 UNL     1       9.114 -10.825  33.604  1.00  0.00    -0.387 OA
ATOM     19  H10 UNL     1       9.974 -10.466  33.784  1.00  0.00     0.210 HD
ENDBRANCH  11  18
BRANCH  12  20
HETATM   20  O11 UNL     1       8.043  -7.578  32.748  1.00  0.00    -0.390 OA
ATOM     21  H11 UNL     1       7.467  -6.950  33.168  1.00  0.00     0.210 HD
ENDBRANCH  12  20
BRANCH  13  22
HETATM   22  O12 UNL     1       7.264  -7.179  35.145  1.00  0.00    -0.392 OA
ATOM     23  H12 UNL     1       6.690  -6.856  34.461  1.00  0.00     0.210 HD
ENDBRANCH  13  22
BRANCH  14  24
HETATM   24  C19 UNL     1       5.493  -9.262  36.087  1.00  0.00     0.174 C 
BRANCH  24  25
HETATM   25  O13 UNL     1       6.308  -9.340  37.185  1.00  0.00    -0.400 OA
ATOM     26  H13 UNL     1       6.505  -8.513  37.609  1.00  0.00     0.209 HD
ENDBRANCH  24  25
ENDBRANCH  14  24
BRANCH  15  27
HETATM   27  O14 UNL     1       7.039 -11.487  34.972  1.00  0.00    -0.389 OA
ATOM     28  H14 UNL     1       6.497 -12.145  35.392  1.00  0.00     0.210 HD
ENDBRANCH  15  27
ENDBRANCH   9  10
ENDBRANCH   7   9
BRANCH   6  29
HETATM   29  O2  UNL     1       5.740 -11.994  28.698  1.00  0.00    -0.329 OA
BRANCH  29  30
HETATM   30  C7  UNL     1       6.563 -11.832  27.585  1.00  0.00     0.414 C 
HETATM   31  O3  UNL     1       5.863 -11.043  26.642  1.00  0.00    -0.326 OA
HETATM   32  C8  UNL     1       6.582 -11.204  25.443  1.00  0.00     0.198 C 
HETATM   33  C10 UNL     1       7.902 -10.502  25.639  1.00  0.00     0.183 C 
HETATM   34  C11 UNL     1       8.517 -10.746  26.974  1.00  0.00     0.182 C 
HETATM   35  O7  UNL     1       7.666 -11.120  27.963  1.00  0.00    -0.329 OA
BRANCH  32  36
HETATM   36  C9  UNL     1       5.778 -10.582  24.373  1.00  0.00     0.121 C 
HETATM   37  N1  UNL     1       6.269 -10.419  23.191  1.00  0.00    -0.282 N 
ATOM     38  H1  UNL     1       7.223 -10.723  22.995  1.00  0.00     0.193 HD
BRANCH  37  39
HETATM   39  O4  UNL     1       5.526  -9.843  22.200  1.00  0.00    -0.290 OA
ATOM     40  H4  UNL     1       5.276 -10.341  21.431  1.00  0.00     0.244 HD
ENDBRANCH  37  39
ENDBRANCH  32  36
BRANCH  33  41
HETATM   41  O5  UNL     1       7.660  -9.129  25.410  1.00  0.00    -0.390 OA
ATOM     42  H5  UNL     1       8.188  -8.887  24.658  1.00  0.00     0.210 HD
ENDBRANCH  33  41
BRANCH  34  43
HETATM   43  C12 UNL     1       9.173  -9.426  27.404  1.00  0.00     0.199 C 
BRANCH  43  44
HETATM   44  O6  UNL     1      10.388  -9.676  28.050  1.00  0.00    -0.398 OA
ATOM     45  H6  UNL     1      11.108  -9.303  27.554  1.00  0.00     0.209 HD
ENDBRANCH  43  44
ENDBRANCH  34  43
ENDBRANCH  29  30
ENDBRANCH   6  29
BRANCH   2  46
HETATM   46  O1  UNL     1       5.906 -13.672  32.831  1.00  0.00    -0.365 OA
ATOM     47  H1  UNL     1       6.520 -13.968  32.170  1.00  0.00     0.213 HD
ENDBRANCH   2  46
TORSDOF 17
ENDMDL
MODEL 4
REMARK VINA RESULT: -7.454484905      1.996      6.919
REMARK  17 active torsions:
REMARK  status: ('A' for Active; 'I' for Inactive)
REMARK    1  A    between atoms: C2_2  and  O1_3 
REMARK    2  A    between atoms: C6_8  and  O2_9 
REMARK    3  A    between atoms: O2_9  and  C7_10 
REMARK    4  A    between atoms: C8_12  and  C9_13 
REMARK    5  A    between atoms: N1_14  and  O4_16 
REMARK    6  A    between atoms: C10_18  and  O5_19 
REMARK    7  A    between atoms: C11_21  and  C12_22 
REMARK    8  A    between atoms: C12_22  and  O6_23 
REMARK    9  A    between atoms: C13_26  and  O8_27 
REMARK   10  A    between atoms: O8_27  and  C14_28 
REMARK   11  A    between atoms: C14_28  and  O9_29 
REMARK   12  A    between atoms: C15_31  and  O10_32 
REMARK   13  A    between atoms: C16_34  and  O11_35 
REMARK   14  A    between atoms: C17_37  and  O12_38 
REMARK   15  A    between atoms: C18_40  and  C19_41 
REMARK   16  A    between atoms: C19_41  and  O13_42 
REMARK   17  A    between atoms: C20_44  and  O14_45 
ROOT
HETATM    1  C1  UNL     1       5.692 -15.956  29.065  1.00  0.00     0.078 C 
HETATM    2  C2  UNL     1       5.423 -14.699  29.908  1.00  0.00     0.161 C 
HETATM    3  C3  UNL     1       4.971 -15.228  31.275  1.00  0.00     0.068 C 
HETATM    4  C4  UNL     1       5.430 -14.241  32.304  1.00  0.00     0.008 C 
HETATM    5  C5  UNL     1       4.963 -12.857  31.968  1.00  0.00     0.037 C 
HETATM    6  C6  UNL     1       6.046 -12.038  31.303  1.00  0.00     0.182 C 
HETATM    7  C13 UNL     1       6.423 -12.586  29.952  1.00  0.00     0.296 C 
HETATM    8  O15 UNL     1       6.571 -13.979  29.993  1.00  0.00    -0.323 OA
ENDROOT
BRANCH   7   9
HETATM    9  O8  UNL     1       5.657 -12.169  28.902  1.00  0.00    -0.317 OA
BRANCH   9  10
HETATM   10  C14 UNL     1       6.300 -11.884  27.728  1.00  0.00     0.220 C 
HETATM   11  C15 UNL     1       7.324 -10.837  27.902  1.00  0.00     0.214 C 
HETATM   12  C16 UNL     1       8.097 -10.525  26.641  1.00  0.00     0.181 C 
HETATM   13  C17 UNL     1       7.220 -10.360  25.435  1.00  0.00     0.158 C 
HETATM   14  C18 UNL     1       6.063 -11.308  25.386  1.00  0.00     0.075 C 
HETATM   15  C20 UNL     1       5.309 -11.348  26.671  1.00  0.00     0.192 C 
BRANCH  10  16
HETATM   16  O9  UNL     1       6.853 -13.021  27.127  1.00  0.00    -0.361 OA
ATOM     17  H9  UNL     1       7.738 -13.197  27.424  1.00  0.00     0.213 HD
ENDBRANCH  10  16
BRANCH  11  18
HETATM   18  O10 UNL     1       6.815  -9.627  28.398  1.00  0.00    -0.387 OA
ATOM     19  H10 UNL     1       7.072  -8.868  27.889  1.00  0.00     0.210 HD
ENDBRANCH  11  18
BRANCH  12  20
HETATM   20  O11 UNL     1       9.077 -11.493  26.442  1.00  0.00    -0.390 OA
ATOM     21  H11 UNL     1       8.992 -12.172  27.100  1.00  0.00     0.210 HD
ENDBRANCH  12  20
BRANCH  13  22
HETATM   22  O12 UNL     1       8.012 -10.587  24.307  1.00  0.00    -0.392 OA
ATOM     23  H12 UNL     1       8.358  -9.748  24.028  1.00  0.00     0.210 HD
ENDBRANCH  13  22
BRANCH  14  24
HETATM   24  C19 UNL     1       5.146 -10.971  24.259  1.00  0.00     0.174 C 
BRANCH  24  25
HETATM   25  O13 UNL     1       3.843 -11.360  24.422  1.00  0.00    -0.400 OA
ATOM     26  H13 UNL     1       3.633 -12.232  24.109  1.00  0.00     0.209 HD
ENDBRANCH  24  25
ENDBRANCH  14  24
BRANCH  15  27
HETATM   27  O14 UNL     1       4.700 -10.187  27.047  1.00  0.00    -0.389 OA
ATOM     28  H14 UNL     1       4.089 -10.301  27.766  1.00  0.00     0.210 HD
ENDBRANCH  15  27
ENDBRANCH   9  10
ENDBRANCH   7   9
BRANCH   6  29
HETATM   29  O2  UNL     1       7.155 -12.086  32.172  1.00  0.00    -0.329 OA
BRANCH  29  30
HETATM   30  C7  UNL     1       7.732 -10.828  32.333  1.00  0.00     0.414 C 
HETATM   31  O3  UNL     1       6.781  -9.862  31.930  1.00  0.00    -0.326 OA
HETATM   32  C8  UNL     1       7.521  -8.674  31.789  1.00  0.00     0.198 C 
HETATM   33  C10 UNL     1       7.935  -8.261  33.180  1.00  0.00     0.183 C 
HETATM   34  C11 UNL     1       8.402  -9.394  34.026  1.00  0.00     0.182 C 
HETATM   35  O7  UNL     1       7.967 -10.628  33.664  1.00  0.00    -0.329 OA
BRANCH  32  36
HETATM   36  C9  UNL     1       6.628  -7.682  31.160  1.00  0.00     0.121 C 
HETATM   37  N1  UNL     1       5.407  -7.985  30.872  1.00  0.00    -0.282 N 
ATOM     38  H1  UNL     1       5.057  -8.919  31.082  1.00  0.00     0.193 HD
BRANCH  37  39
HETATM   39  O4  UNL     1       4.580  -7.067  30.290  1.00  0.00    -0.290 OA
ATOM     40  H4  UNL     1       3.659  -7.258  30.162  1.00  0.00     0.244 HD
ENDBRANCH  37  39
ENDBRANCH  32  36
BRANCH  33  41
HETATM   41  O5  UNL     1       6.821  -7.601  33.746  1.00  0.00    -0.390 OA
ATOM     42  H5  UNL     1       7.019  -7.487  34.668  1.00  0.00     0.210 HD
ENDBRANCH  33  41
BRANCH  34  43
HETATM   43  C12 UNL     1       7.890  -9.123  35.448  1.00  0.00     0.199 C 
BRANCH  43  44
HETATM   44  O6  UNL     1       8.775  -8.285  36.132  1.00  0.00    -0.398 OA
ATOM     45  H6  UNL     1       8.950  -8.628  37.001  1.00  0.00     0.209 HD
ENDBRANCH  43  44
ENDBRANCH  34  43
ENDBRANCH  29  30
ENDBRANCH   6  29
BRANCH   2  46
HETATM   46  O1  UNL     1       4.337 -14.085  29.345  1.00  0.00    -0.365 OA
ATOM     47  H1  UNL     1       3.837 -13.718  30.065  1.00  0.00     0.213 HD
ENDBRANCH   2  46
TORSDOF 17
ENDMDL
MODEL 5
REMARK VINA RESULT: -7.439941575      1.492      2.368
REMARK  17 active torsions:
REMARK  status: ('A' for Active; 'I' for Inactive)
REMARK    1  A    between atoms: C2_2  and  O1_3 
REMARK    2  A    between atoms: C6_8  and  O2_9 
REMARK    3  A    between atoms: O2_9  and  C7_10 
REMARK    4  A    between atoms: C8_12  and  C9_13 
REMARK    5  A    between atoms: N1_14  and  O4_16 
REMARK    6  A    between atoms: C10_18  and  O5_19 
REMARK    7  A    between atoms: C11_21  and  C12_22 
REMARK    8  A    between atoms: C12_22  and  O6_23 
REMARK    9  A    between atoms: C13_26  and  O8_27 
REMARK   10  A    between atoms: O8_27  and  C14_28 
REMARK   11  A    between atoms: C14_28  and  O9_29 
REMARK   12  A    between atoms: C15_31  and  O10_32 
REMARK   13  A    between atoms: C16_34  and  O11_35 
REMARK   14  A    between atoms: C17_37  and  O12_38 
REMARK   15  A    between atoms: C18_40  and  C19_41 
REMARK   16  A    between atoms: C19_41  and  O13_42 
REMARK   17  A    between atoms: C20_44  and  O14_45 
ROOT
HETATM    1  C1  UNL     1       4.021 -13.643  32.985  1.00  0.00     0.078 C 
HETATM    2  C2  UNL     1       5.003 -13.573  31.804  1.00  0.00     0.161 C 
HETATM    3  C3  UNL     1       4.687 -14.812  30.955  1.00  0.00     0.068 C 
HETATM    4  C4  UNL     1       4.967 -14.451  29.528  1.00  0.00     0.008 C 
HETATM    5  C5  UNL     1       6.354 -13.907  29.373  1.00  0.00     0.037 C 
HETATM    6  C6  UNL     1       6.367 -12.395  29.322  1.00  0.00     0.182 C 
HETATM    7  C13 UNL     1       5.925 -11.779  30.623  1.00  0.00     0.296 C 
HETATM    8  O15 UNL     1       4.783 -12.419  31.124  1.00  0.00    -0.323 OA
ENDROOT
BRANCH   7   9
HETATM    9  O8  UNL     1       6.895 -11.617  31.569  1.00  0.00    -0.317 OA
BRANCH   9  10
HETATM   10  C14 UNL     1       6.797 -10.527  32.391  1.00  0.00     0.220 C 
HETATM   11  C15 UNL     1       7.314  -9.305  31.746  1.00  0.00     0.214 C 
HETATM   12  C16 UNL     1       7.179  -8.063  32.598  1.00  0.00     0.181 C 
HETATM   13  C17 UNL     1       7.621  -8.268  34.017  1.00  0.00     0.158 C 
HETATM   14  C18 UNL     1       7.258  -9.605  34.583  1.00  0.00     0.075 C 
HETATM   15  C20 UNL     1       7.633 -10.725  33.675  1.00  0.00     0.192 C 
BRANCH  10  16
HETATM   16  O9  UNL     1       5.495 -10.324  32.862  1.00  0.00    -0.361 OA
ATOM     17  H9  UNL     1       5.240  -9.409  32.848  1.00  0.00     0.213 HD
ENDBRANCH  10  16
BRANCH  11  18
HETATM   18  O10 UNL     1       8.656  -9.402  31.348  1.00  0.00    -0.387 OA
ATOM     19  H10 UNL     1       9.202  -8.696  31.672  1.00  0.00     0.210 HD
ENDBRANCH  11  18
BRANCH  12  20
HETATM   20  O11 UNL     1       5.874  -7.586  32.525  1.00  0.00    -0.390 OA
ATOM     21  H11 UNL     1       5.764  -7.079  31.728  1.00  0.00     0.210 HD
ENDBRANCH  12  20
BRANCH  13  22
HETATM   22  O12 UNL     1       7.001  -7.288  34.794  1.00  0.00    -0.392 OA
ATOM     23  H12 UNL     1       7.448  -7.264  35.632  1.00  0.00     0.210 HD
ENDBRANCH  13  22
BRANCH  14  24
HETATM   24  C19 UNL     1       7.878  -9.800  35.926  1.00  0.00     0.174 C 
BRANCH  24  25
HETATM   25  O13 UNL     1       8.322 -11.068  36.193  1.00  0.00    -0.400 OA
ATOM     26  H13 UNL     1       8.417 -11.636  35.437  1.00  0.00     0.209 HD
ENDBRANCH  24  25
ENDBRANCH  14  24
BRANCH  15  27
HETATM   27  O14 UNL     1       8.965 -10.881  33.429  1.00  0.00    -0.389 OA
ATOM     28  H14 UNL     1       9.436 -10.057  33.386  1.00  0.00     0.210 HD
ENDBRANCH  15  27
ENDBRANCH   9  10
ENDBRANCH   7   9
BRANCH   6  29
HETATM   29  O2  UNL     1       5.479 -12.036  28.289  1.00  0.00    -0.329 OA
BRANCH  29  30
HETATM   30  C7  UNL     1       6.148 -11.431  27.226  1.00  0.00     0.414 C 
HETATM   31  O3  UNL     1       6.665 -12.457  26.402  1.00  0.00    -0.326 OA
HETATM   32  C8  UNL     1       7.595 -11.807  25.569  1.00  0.00     0.198 C 
HETATM   33  C10 UNL     1       6.796 -10.924  24.644  1.00  0.00     0.183 C 
HETATM   34  C11 UNL     1       5.689 -10.194  25.322  1.00  0.00     0.182 C 
HETATM   35  O7  UNL     1       5.238 -10.737  26.481  1.00  0.00    -0.329 OA
BRANCH  32  36
HETATM   36  C9  UNL     1       8.326 -12.860  24.836  1.00  0.00     0.121 C 
HETATM   37  N1  UNL     1       7.759 -13.987  24.565  1.00  0.00    -0.282 N 
ATOM     38  H1  UNL     1       6.797 -14.151  24.860  1.00  0.00     0.193 HD
BRANCH  37  39
HETATM   39  O4  UNL     1       8.435 -14.961  23.887  1.00  0.00    -0.290 OA
ATOM     40  H4  UNL     1       9.048 -14.736  23.198  1.00  0.00     0.244 HD
ENDBRANCH  37  39
ENDBRANCH  32  36
BRANCH  33  41
HETATM   41  O5  UNL     1       6.324 -11.759  23.607  1.00  0.00    -0.390 OA
ATOM     42  H5  UNL     1       5.398 -11.895  23.775  1.00  0.00     0.210 HD
ENDBRANCH  33  41
BRANCH  34  43
HETATM   43  C12 UNL     1       4.512 -10.165  24.336  1.00  0.00     0.199 C 
BRANCH  43  44
HETATM   44  O6  UNL     1       3.501 -11.034  24.761  1.00  0.00    -0.398 OA
ATOM     45  H6  UNL     1       2.928 -11.253  24.035  1.00  0.00     0.209 HD
ENDBRANCH  43  44
ENDBRANCH  34  43
ENDBRANCH  29  30
ENDBRANCH   6  29
BRANCH   2  46
HETATM   46  O1  UNL     1       6.251 -13.765  32.331  1.00  0.00    -0.365 OA
ATOM     47  H1  UNL     1       6.767 -14.177  31.648  1.00  0.00     0.213 HD
ENDBRANCH   2  46
TORSDOF 17
ENDMDL
