MODEL 1
REMARK VINA RESULT: -8.459189212      0.000      0.000
REMARK  16 active torsions:
REMARK  status: ('A' for Active; 'I' for Inactive)
REMARK    1  A    between atoms: N1_1  and  C1_4 
REMARK    2  A    between atoms: C5_10  and  N3_11 
REMARK    3  A    between atoms: N3_11  and  C6_13 
REMARK    4  A    between atoms: C8_15  and  N4_16 
REMARK    5  A    between atoms: C9_18  and  O1_19 
REMARK    6  A    between atoms: C9_18  and  N5_21 
REMARK    7  A    between atoms: N5_21  and  O2_23 
REMARK    8  A    between atoms: O2_23  and  C10_24 
REMARK    9  A    between atoms: C10_24  and  C11_25 
REMARK   10  A    between atoms: C11_25  and  N6_26 
REMARK   11  A    between atoms: N7_30  and  C12_31 
REMARK   12  A    between atoms: C12_31  and  O3_32 
REMARK   13  A    between atoms: C12_31  and  C13_34 
REMARK   14  A    between atoms: C14_36  and  O5_37 
REMARK   15  A    between atoms: O5_37  and  N8_38 
REMARK   16  A    between atoms: C17_47  and  N11_48 
ROOT
HETATM    1  C1  UNL     1       7.234 -13.285  24.410  1.00  0.00     0.678 A 
HETATM    2  N2  UNL     1       6.841 -12.617  25.476  1.00  0.00    -0.175 N 
ATOM      3  H2  UNL     1       7.286 -12.848  26.364  1.00  0.00     0.186 HD
HETATM    4  C2  UNL     1       5.904 -11.657  25.489  1.00  0.00     0.144 A 
HETATM    5  C3  UNL     1       5.336 -11.378  24.275  1.00  0.00     0.054 A 
HETATM    6  C4  UNL     1       4.433 -10.371  24.440  1.00  0.00     0.067 A 
HETATM    7  C5  UNL     1       4.429 -10.001  25.790  1.00  0.00     0.112 A 
HETATM    8  N7  UNL     1       5.355 -10.822  26.406  1.00  0.00    -0.262 N 
HETATM    9  C18 UNL     1       5.751 -12.085  23.151  1.00  0.00     0.146 A 
HETATM   10  N13 UNL     1       5.138 -11.770  21.916  1.00  0.00    -0.081 NA
HETATM   11  N14 UNL     1       6.690 -13.034  23.196  1.00  0.00    -0.178 N 
ATOM     12  H14 UNL     1       6.982 -13.541  22.362  1.00  0.00     0.185 HD
ENDROOT
BRANCH   8  13
HETATM   13  C12 UNL     1       5.599 -10.817  27.772  1.00  0.00     0.178 C 
BRANCH  13  14
HETATM   14  O3  UNL     1       4.649 -10.201  28.459  1.00  0.00    -0.345 OA
ATOM     15  H3  UNL     1       3.782 -10.349  28.099  1.00  0.00     0.219 HD
ENDBRANCH  13  14
BRANCH  13  16
HETATM   16  C13 UNL     1       6.645 -11.328  28.612  1.00  0.00     0.341 C 
HETATM   17  O4  UNL     1       7.922 -10.966  28.013  1.00  0.00    -0.323 OA
HETATM   18  C14 UNL     1       8.178  -9.627  28.112  1.00  0.00     0.310 C 
HETATM   19  C15 UNL     1       7.356  -8.832  29.090  1.00  0.00     0.218 C 
HETATM   20  N9  UNL     1       7.108  -9.681  30.233  1.00  0.00    -0.218 N 
HETATM   21  C16 UNL     1       7.211  -9.489  31.544  1.00  0.00     0.356 A 
HETATM   22  N12 UNL     1       6.785 -10.941  29.998  1.00  0.00    -0.080 N 
HETATM   23  O6  UNL     1       7.499  -8.422  32.178  1.00  0.00    -0.244 OA
HETATM   24  N10 UNL     1       6.955 -10.653  32.146  1.00  0.00    -0.139 N 
HETATM   25  C17 UNL     1       6.696 -11.544  31.193  1.00  0.00     0.699 A 
ATOM     26  H10 UNL     1       6.957 -10.826  33.150  1.00  0.00     0.189 HD
BRANCH  18  27
HETATM   27  O5  UNL     1       9.526  -9.470  28.585  1.00  0.00    -0.253 OA
BRANCH  27  28
HETATM   28  N8  UNL     1      10.412  -9.671  27.611  1.00  0.00    -0.308 N 
ATOM     29  H82 UNL     1      10.269  -9.362  26.649  1.00  0.00     0.184 HD
ATOM     30  H81 UNL     1      11.236 -10.166  27.951  1.00  0.00     0.184 HD
ENDBRANCH  27  28
ENDBRANCH  18  27
BRANCH  25  31
HETATM   31  N11 UNL     1       6.458 -12.815  31.441  1.00  0.00    -0.233 N 
ATOM     32 2H11 UNL     1       6.911 -13.413  32.132  1.00  0.00     0.174 HD
ATOM     33 1H11 UNL     1       5.723 -13.347  30.974  1.00  0.00     0.174 HD
ENDBRANCH  25  31
ENDBRANCH  13  16
ENDBRANCH   8  13
BRANCH   7  34
HETATM   34  N3  UNL     1       3.605  -8.984  26.307  1.00  0.00    -0.369 N 
ATOM     35  H3  UNL     1       3.193  -9.078  27.236  1.00  0.00     0.161 HD
BRANCH  34  36
HETATM   36  C6  UNL     1       3.346  -7.800  25.507  1.00  0.00     0.108 A 
HETATM   37  C7  UNL     1       2.205  -6.941  26.008  1.00  0.00     0.054 A 
HETATM   38  C8  UNL     1       2.138  -7.677  24.676  1.00  0.00     0.109 A 
BRANCH  38  39
HETATM   39  N4  UNL     1       1.194  -8.737  24.502  1.00  0.00    -0.348 N 
HETATM   40  C9  UNL     1       0.727  -9.025  23.337  1.00  0.00     0.237 C 
ATOM     41  H4  UNL     1       0.886  -9.273  25.314  1.00  0.00     0.163 HD
BRANCH  40  42
HETATM   42  O1  UNL     1      -0.187 -10.062  23.220  1.00  0.00    -0.331 OA
ATOM     43  H1  UNL     1      -0.765 -10.247  23.950  1.00  0.00     0.221 HD
ENDBRANCH  40  42
BRANCH  40  44
HETATM   44  N5  UNL     1       1.130  -8.302  22.185  1.00  0.00    -0.230 N 
ATOM     45  H5  UNL     1       1.224  -7.289  22.259  1.00  0.00     0.198 HD
BRANCH  44  46
HETATM   46  O2  UNL     1       1.393  -8.878  21.014  1.00  0.00    -0.276 OA
BRANCH  46  47
HETATM   47  C10 UNL     1       2.687  -9.402  20.951  1.00  0.00     0.228 C 
BRANCH  47  48
HETATM   48  C11 UNL     1       3.720  -8.293  21.096  1.00  0.00     0.258 C 
BRANCH  48  49
HETATM   49  N6  UNL     1       5.042  -8.843  20.880  1.00  0.00    -0.077 N 
ATOM     50  H63 UNL     1       5.085  -9.842  21.084  1.00  0.00     0.274 HD
ATOM     51  H62 UNL     1       5.286  -8.889  19.890  1.00  0.00     0.274 HD
ATOM     52  H61 UNL     1       5.721  -8.308  21.421  1.00  0.00     0.274 HD
ENDBRANCH  48  49
ENDBRANCH  47  48
ENDBRANCH  46  47
ENDBRANCH  44  46
ENDBRANCH  40  44
ENDBRANCH  38  39
ENDBRANCH  34  36
ENDBRANCH   7  34
BRANCH   1  53
HETATM   53  N1  UNL     1       8.145 -14.184  24.501  1.00  0.00    -0.234 N 
ATOM     54  H12 UNL     1       8.638 -14.292  25.387  1.00  0.00     0.174 HD
ATOM     55  H11 UNL     1       8.367 -14.780  23.703  1.00  0.00     0.174 HD
ENDBRANCH   1  53
TORSDOF 16
ENDMDL
MODEL 2
REMARK VINA RESULT: -7.947144898      1.818      7.258
REMARK  16 active torsions:
REMARK  status: ('A' for Active; 'I' for Inactive)
REMARK    1  A    between atoms: N1_1  and  C1_4 
REMARK    2  A    between atoms: C5_10  and  N3_11 
REMARK    3  A    between atoms: N3_11  and  C6_13 
REMARK    4  A    between atoms: C8_15  and  N4_16 
REMARK    5  A    between atoms: C9_18  and  O1_19 
REMARK    6  A    between atoms: C9_18  and  N5_21 
REMARK    7  A    between atoms: N5_21  and  O2_23 
REMARK    8  A    between atoms: O2_23  and  C10_24 
REMARK    9  A    between atoms: C10_24  and  C11_25 
REMARK   10  A    between atoms: C11_25  and  N6_26 
REMARK   11  A    between atoms: N7_30  and  C12_31 
REMARK   12  A    between atoms: C12_31  and  O3_32 
REMARK   13  A    between atoms: C12_31  and  C13_34 
REMARK   14  A    between atoms: C14_36  and  O5_37 
REMARK   15  A    between atoms: O5_37  and  N8_38 
REMARK   16  A    between atoms: C17_47  and  N11_48 
ROOT
HETATM    1  C1  UNL     1       5.349 -11.607  22.706  1.00  0.00     0.678 A 
HETATM    2  N2  UNL     1       4.736 -10.965  23.679  1.00  0.00    -0.175 N 
ATOM      3  H2  UNL     1       3.954 -10.362  23.424  1.00  0.00     0.186 HD
HETATM    4  C2  UNL     1       5.056 -11.038  24.980  1.00  0.00     0.144 A 
HETATM    5  C3  UNL     1       6.110 -11.860  25.277  1.00  0.00     0.054 A 
HETATM    6  C4  UNL     1       6.296 -11.856  26.626  1.00  0.00     0.067 A 
HETATM    7  C5  UNL     1       5.337 -11.013  27.200  1.00  0.00     0.112 A 
HETATM    8  N7  UNL     1       4.589 -10.526  26.145  1.00  0.00    -0.262 N 
HETATM    9  C18 UNL     1       6.756 -12.537  24.247  1.00  0.00     0.146 A 
HETATM   10  N13 UNL     1       7.842 -13.374  24.594  1.00  0.00    -0.081 NA
HETATM   11  N14 UNL     1       6.395 -12.425  22.966  1.00  0.00    -0.178 N 
ATOM     12  H14 UNL     1       6.880 -12.929  22.225  1.00  0.00     0.185 HD
ENDROOT
BRANCH   8  13
HETATM   13  C12 UNL     1       3.571  -9.593  26.290  1.00  0.00     0.178 C 
BRANCH  13  14
HETATM   14  O3  UNL     1       3.750  -8.799  27.335  1.00  0.00    -0.345 OA
ATOM     15  H3  UNL     1       3.317  -9.119  28.118  1.00  0.00     0.219 HD
ENDBRANCH  13  14
BRANCH  13  16
HETATM   16  C13 UNL     1       2.369  -9.290  25.566  1.00  0.00     0.341 C 
HETATM   17  O4  UNL     1       1.963  -7.936  25.914  1.00  0.00    -0.323 OA
HETATM   18  C14 UNL     1       2.797  -6.993  25.382  1.00  0.00     0.310 C 
HETATM   19  C15 UNL     1       3.722  -7.428  24.277  1.00  0.00     0.218 C 
HETATM   20  N9  UNL     1       3.013  -8.402  23.480  1.00  0.00    -0.218 N 
HETATM   21  C16 UNL     1       2.839  -8.550  22.171  1.00  0.00     0.356 A 
HETATM   22  N12 UNL     1       2.306  -9.316  24.122  1.00  0.00    -0.080 N 
HETATM   23  O6  UNL     1       3.344  -7.877  21.214  1.00  0.00    -0.244 OA
HETATM   24  N10 UNL     1       2.001  -9.572  21.985  1.00  0.00    -0.139 N 
HETATM   25  C17 UNL     1       1.673 -10.040  23.186  1.00  0.00     0.699 A 
ATOM     26  H10 UNL     1       1.674  -9.929  21.088  1.00  0.00     0.189 HD
BRANCH  18  27
HETATM   27  O5  UNL     1       1.983  -5.978  24.772  1.00  0.00    -0.253 OA
BRANCH  27  28
HETATM   28  N8  UNL     1       2.693  -5.223  23.933  1.00  0.00    -0.308 N 
ATOM     29  H82 UNL     1       3.145  -5.588  23.095  1.00  0.00     0.184 HD
ATOM     30  H81 UNL     1       2.721  -4.251  24.239  1.00  0.00     0.184 HD
ENDBRANCH  27  28
ENDBRANCH  18  27
BRANCH  25  31
HETATM   31  N11 UNL     1       0.811 -11.019  23.368  1.00  0.00    -0.233 N 
ATOM     32 2H11 UNL     1      -0.155 -11.069  23.045  1.00  0.00     0.174 HD
ATOM     33 1H11 UNL     1       1.050 -11.894  23.833  1.00  0.00     0.174 HD
ENDBRANCH  25  31
ENDBRANCH  13  16
ENDBRANCH   8  13
BRANCH   7  34
HETATM   34  N3  UNL     1       5.247 -10.780  28.585  1.00  0.00    -0.369 N 
ATOM     35  H3  UNL     1       4.493 -10.205  28.962  1.00  0.00     0.161 HD
BRANCH  34  36
HETATM   36  C6  UNL     1       6.236 -11.365  29.473  1.00  0.00     0.108 A 
HETATM   37  C7  UNL     1       5.688 -11.827  30.806  1.00  0.00     0.054 A 
HETATM   38  C8  UNL     1       6.682 -10.677  30.695  1.00  0.00     0.109 A 
BRANCH  38  39
HETATM   39  N4  UNL     1       6.270  -9.353  31.044  1.00  0.00    -0.348 N 
HETATM   40  C9  UNL     1       6.860  -8.322  30.545  1.00  0.00     0.237 C 
ATOM     41  H4  UNL     1       5.498  -9.223  31.698  1.00  0.00     0.163 HD
BRANCH  40  42
HETATM   42  O1  UNL     1       6.425  -7.058  30.915  1.00  0.00    -0.331 OA
ATOM     43  H1  UNL     1       6.880  -6.299  30.571  1.00  0.00     0.221 HD
ENDBRANCH  40  42
BRANCH  40  44
HETATM   44  N5  UNL     1       7.937  -8.463  29.633  1.00  0.00    -0.230 N 
ATOM     45  H5  UNL     1       8.759  -8.988  29.933  1.00  0.00     0.198 HD
BRANCH  44  46
HETATM   46  O2  UNL     1       7.932  -7.944  28.407  1.00  0.00    -0.276 OA
BRANCH  46  47
HETATM   47  C10 UNL     1       8.373  -8.850  27.438  1.00  0.00     0.228 C 
BRANCH  47  48
HETATM   48  C11 UNL     1       9.319  -9.871  28.054  1.00  0.00     0.258 C 
BRANCH  48  49
HETATM   49  N6  UNL     1      10.674  -9.581  27.630  1.00  0.00    -0.077 N 
ATOM     50  H63 UNL     1      10.752  -8.668  27.182  1.00  0.00     0.274 HD
ATOM     51  H62 UNL     1      11.298  -9.409  28.418  1.00  0.00     0.274 HD
ATOM     52  H61 UNL     1      11.006 -10.337  27.032  1.00  0.00     0.274 HD
ENDBRANCH  48  49
ENDBRANCH  47  48
ENDBRANCH  46  47
ENDBRANCH  44  46
ENDBRANCH  40  44
ENDBRANCH  38  39
ENDBRANCH  34  36
ENDBRANCH   7  34
BRANCH   1  53
HETATM   53  N1  UNL     1       4.962 -11.474  21.489  1.00  0.00    -0.234 N 
ATOM     54  H12 UNL     1       3.961 -11.425  21.297  1.00  0.00     0.174 HD
ATOM     55  H11 UNL     1       5.642 -11.414  20.731  1.00  0.00     0.174 HD
ENDBRANCH   1  53
TORSDOF 16
ENDMDL
MODEL 3
REMARK VINA RESULT: -7.809107939      2.267      8.109
REMARK  16 active torsions:
REMARK  status: ('A' for Active; 'I' for Inactive)
REMARK    1  A    between atoms: N1_1  and  C1_4 
REMARK    2  A    between atoms: C5_10  and  N3_11 
REMARK    3  A    between atoms: N3_11  and  C6_13 
REMARK    4  A    between atoms: C8_15  and  N4_16 
REMARK    5  A    between atoms: C9_18  and  O1_19 
REMARK    6  A    between atoms: C9_18  and  N5_21 
REMARK    7  A    between atoms: N5_21  and  O2_23 
REMARK    8  A    between atoms: O2_23  and  C10_24 
REMARK    9  A    between atoms: C10_24  and  C11_25 
REMARK   10  A    between atoms: C11_25  and  N6_26 
REMARK   11  A    between atoms: N7_30  and  C12_31 
REMARK   12  A    between atoms: C12_31  and  O3_32 
REMARK   13  A    between atoms: C12_31  and  C13_34 
REMARK   14  A    between atoms: C14_36  and  O5_37 
REMARK   15  A    between atoms: O5_37  and  N8_38 
REMARK   16  A    between atoms: C17_47  and  N11_48 
ROOT
HETATM    1  C1  UNL     1       5.326 -11.576  22.660  1.00  0.00     0.678 A 
HETATM    2  N2  UNL     1       4.724 -10.945  23.648  1.00  0.00    -0.175 N 
ATOM      3  H2  UNL     1       3.945 -10.333  23.407  1.00  0.00     0.186 HD
HETATM    4  C2  UNL     1       5.052 -11.043  24.945  1.00  0.00     0.144 A 
HETATM    5  C3  UNL     1       6.102 -11.877  25.222  1.00  0.00     0.054 A 
HETATM    6  C4  UNL     1       6.297 -11.897  26.570  1.00  0.00     0.067 A 
HETATM    7  C5  UNL     1       5.348 -11.056  27.164  1.00  0.00     0.112 A 
HETATM    8  N7  UNL     1       4.596 -10.546  26.122  1.00  0.00    -0.262 N 
HETATM    9  C18 UNL     1       6.737 -12.542  24.177  1.00  0.00     0.146 A 
HETATM   10  N13 UNL     1       7.818 -13.393  24.503  1.00  0.00    -0.081 NA
HETATM   11  N14 UNL     1       6.368 -12.406  22.900  1.00  0.00    -0.178 N 
ATOM     12  H14 UNL     1       6.844 -12.902  22.147  1.00  0.00     0.185 HD
ENDROOT
BRANCH   8  13
HETATM   13  C12 UNL     1       3.587  -9.609  26.288  1.00  0.00     0.178 C 
BRANCH  13  14
HETATM   14  O3  UNL     1       3.787  -8.822  27.335  1.00  0.00    -0.345 OA
ATOM     15  H3  UNL     1       3.580  -9.248  28.159  1.00  0.00     0.219 HD
ENDBRANCH  13  14
BRANCH  13  16
HETATM   16  C13 UNL     1       2.375  -9.294  25.585  1.00  0.00     0.341 C 
HETATM   17  O4  UNL     1       1.983  -7.939  25.947  1.00  0.00    -0.323 OA
HETATM   18  C14 UNL     1       2.815  -6.999  25.406  1.00  0.00     0.310 C 
HETATM   19  C15 UNL     1       3.719  -7.433  24.285  1.00  0.00     0.218 C 
HETATM   20  N9  UNL     1       2.991  -8.399  23.494  1.00  0.00    -0.218 N 
HETATM   21  C16 UNL     1       2.796  -8.538  22.187  1.00  0.00     0.356 A 
HETATM   22  N12 UNL     1       2.289  -9.312  24.143  1.00  0.00    -0.080 N 
HETATM   23  O6  UNL     1       3.290  -7.864  21.226  1.00  0.00    -0.244 OA
HETATM   24  N10 UNL     1       1.948  -9.555  22.010  1.00  0.00    -0.139 N 
HETATM   25  C17 UNL     1       1.637 -10.027  23.213  1.00  0.00     0.699 A 
ATOM     26  H10 UNL     1       1.604  -9.904  21.116  1.00  0.00     0.189 HD
BRANCH  18  27
HETATM   27  O5  UNL     1       1.999  -5.975  24.815  1.00  0.00    -0.253 OA
BRANCH  27  28
HETATM   28  N8  UNL     1       2.703  -5.210  23.982  1.00  0.00    -0.308 N 
ATOM     29  H82 UNL     1       3.718  -5.116  24.027  1.00  0.00     0.184 HD
ATOM     30  H81 UNL     1       2.101  -4.740  23.307  1.00  0.00     0.184 HD
ENDBRANCH  27  28
ENDBRANCH  18  27
BRANCH  25  31
HETATM   31  N11 UNL     1       0.771 -11.001  23.404  1.00  0.00    -0.233 N 
ATOM     32 2H11 UNL     1       0.548 -11.772  22.773  1.00  0.00     0.174 HD
ATOM     33 1H11 UNL     1       0.243 -11.117  24.268  1.00  0.00     0.174 HD
ENDBRANCH  25  31
ENDBRANCH  13  16
ENDBRANCH   8  13
BRANCH   7  34
HETATM   34  N3  UNL     1       5.268 -10.845  28.553  1.00  0.00    -0.369 N 
ATOM     35  H3  UNL     1       4.361 -10.724  29.003  1.00  0.00     0.161 HD
BRANCH  34  36
HETATM   36  C6  UNL     1       6.488 -10.801  29.339  1.00  0.00     0.108 A 
HETATM   37  C7  UNL     1       6.285 -11.002  30.825  1.00  0.00     0.054 A 
HETATM   38  C8  UNL     1       6.782  -9.683  30.249  1.00  0.00     0.109 A 
BRANCH  38  39
HETATM   39  N4  UNL     1       5.962  -8.516  30.348  1.00  0.00    -0.348 N 
HETATM   40  C9  UNL     1       6.275  -7.550  31.140  1.00  0.00     0.237 C 
ATOM     41  H4  UNL     1       5.116  -8.448  29.782  1.00  0.00     0.163 HD
BRANCH  40  42
HETATM   42  O1  UNL     1       5.447  -6.439  31.201  1.00  0.00    -0.331 OA
ATOM     43  H1  UNL     1       5.771  -5.607  30.877  1.00  0.00     0.221 HD
ENDBRANCH  40  42
BRANCH  40  44
HETATM   44  N5  UNL     1       7.443  -7.608  31.943  1.00  0.00    -0.230 N 
ATOM     45  H5  UNL     1       8.346  -7.450  31.495  1.00  0.00     0.198 HD
BRANCH  44  46
HETATM   46  O2  UNL     1       7.422  -7.859  33.250  1.00  0.00    -0.276 OA
BRANCH  46  47
HETATM   47  C10 UNL     1       8.690  -8.151  33.761  1.00  0.00     0.228 C 
BRANCH  47  48
HETATM   48  C11 UNL     1       9.054  -7.180  34.875  1.00  0.00     0.258 C 
BRANCH  48  49
HETATM   49  N6  UNL     1      10.145  -6.336  34.433  1.00  0.00    -0.077 N 
ATOM     50  H63 UNL     1       9.822  -5.550  33.868  1.00  0.00     0.274 HD
ATOM     51  H62 UNL     1      10.557  -5.803  35.199  1.00  0.00     0.274 HD
ATOM     52  H61 UNL     1      10.834  -6.907  33.945  1.00  0.00     0.274 HD
ENDBRANCH  48  49
ENDBRANCH  47  48
ENDBRANCH  46  47
ENDBRANCH  44  46
ENDBRANCH  40  44
ENDBRANCH  38  39
ENDBRANCH  34  36
ENDBRANCH   7  34
BRANCH   1  53
HETATM   53  N1  UNL     1       4.932 -11.420  21.448  1.00  0.00    -0.234 N 
ATOM     54  H12 UNL     1       4.196 -12.029  21.092  1.00  0.00     0.174 HD
ATOM     55  H11 UNL     1       5.346 -10.699  20.857  1.00  0.00     0.174 HD
ENDBRANCH   1  53
TORSDOF 16
ENDMDL
MODEL 4
REMARK VINA RESULT: -7.804519542      2.189      7.980
REMARK  16 active torsions:
REMARK  status: ('A' for Active; 'I' for Inactive)
REMARK    1  A    between atoms: N1_1  and  C1_4 
REMARK    2  A    between atoms: C5_10  and  N3_11 
REMARK    3  A    between atoms: N3_11  and  C6_13 
REMARK    4  A    between atoms: C8_15  and  N4_16 
REMARK    5  A    between atoms: C9_18  and  O1_19 
REMARK    6  A    between atoms: C9_18  and  N5_21 
REMARK    7  A    between atoms: N5_21  and  O2_23 
REMARK    8  A    between atoms: O2_23  and  C10_24 
REMARK    9  A    between atoms: C10_24  and  C11_25 
REMARK   10  A    between atoms: C11_25  and  N6_26 
REMARK   11  A    between atoms: N7_30  and  C12_31 
REMARK   12  A    between atoms: C12_31  and  O3_32 
REMARK   13  A    between atoms: C12_31  and  C13_34 
REMARK   14  A    between atoms: C14_36  and  O5_37 
REMARK   15  A    between atoms: O5_37  and  N8_38 
REMARK   16  A    between atoms: C17_47  and  N11_48 
ROOT
HETATM    1  C1  UNL     1       5.307 -11.539  22.611  1.00  0.00     0.678 A 
HETATM    2  N2  UNL     1       4.708 -10.915  23.606  1.00  0.00    -0.175 N 
ATOM      3  H2  UNL     1       3.931 -10.297  23.372  1.00  0.00     0.186 HD
HETATM    4  C2  UNL     1       5.037 -11.027  24.902  1.00  0.00     0.144 A 
HETATM    5  C3  UNL     1       6.084 -11.868  25.169  1.00  0.00     0.054 A 
HETATM    6  C4  UNL     1       6.279 -11.902  26.517  1.00  0.00     0.067 A 
HETATM    7  C5  UNL     1       5.334 -11.064  27.120  1.00  0.00     0.112 A 
HETATM    8  N7  UNL     1       4.584 -10.541  26.084  1.00  0.00    -0.262 N 
HETATM    9  C18 UNL     1       6.715 -12.524  24.117  1.00  0.00     0.146 A 
HETATM   10  N13 UNL     1       7.793 -13.383  24.434  1.00  0.00    -0.081 NA
HETATM   11  N14 UNL     1       6.346 -12.375  22.842  1.00  0.00    -0.178 N 
ATOM     12  H14 UNL     1       6.820 -12.864  22.084  1.00  0.00     0.185 HD
ENDROOT
BRANCH   8  13
HETATM   13  C12 UNL     1       3.578  -9.601  26.261  1.00  0.00     0.178 C 
BRANCH  13  14
HETATM   14  O3  UNL     1       3.788  -8.817  27.308  1.00  0.00    -0.345 OA
ATOM     15  H3  UNL     1       4.001  -7.925  27.061  1.00  0.00     0.219 HD
ENDBRANCH  13  14
BRANCH  13  16
HETATM   16  C13 UNL     1       2.361  -9.283  25.568  1.00  0.00     0.341 C 
HETATM   17  O4  UNL     1       1.981  -7.923  25.928  1.00  0.00    -0.323 OA
HETATM   18  C14 UNL     1       2.813  -6.991  25.374  1.00  0.00     0.310 C 
HETATM   19  C15 UNL     1       3.704  -7.436  24.245  1.00  0.00     0.218 C 
HETATM   20  N9  UNL     1       2.962  -8.401  23.467  1.00  0.00    -0.218 N 
HETATM   21  C16 UNL     1       2.752  -8.546  22.163  1.00  0.00     0.356 A 
HETATM   22  N12 UNL     1       2.260  -9.306  24.127  1.00  0.00    -0.080 N 
HETATM   23  O6  UNL     1       3.241  -7.878  21.193  1.00  0.00    -0.244 OA
HETATM   24  N10 UNL     1       1.897  -9.557  21.998  1.00  0.00    -0.139 N 
HETATM   25  C17 UNL     1       1.594 -10.022  23.207  1.00  0.00     0.699 A 
ATOM     26  H10 UNL     1       1.541  -9.909  21.110  1.00  0.00     0.189 HD
BRANCH  18  27
HETATM   27  O5  UNL     1       1.997  -5.965  24.786  1.00  0.00    -0.253 OA
BRANCH  27  28
HETATM   28  N8  UNL     1       2.701  -5.201  23.951  1.00  0.00    -0.308 N 
ATOM     29  H82 UNL     1       3.059  -5.530  23.054  1.00  0.00     0.184 HD
ATOM     30  H81 UNL     1       2.830  -4.261  24.324  1.00  0.00     0.184 HD
ENDBRANCH  27  28
ENDBRANCH  18  27
BRANCH  25  31
HETATM   31  N11 UNL     1       0.725 -10.990  23.411  1.00  0.00    -0.233 N 
ATOM     32 2H11 UNL     1       0.867 -11.993  23.294  1.00  0.00     0.174 HD
ATOM     33 1H11 UNL     1      -0.216 -10.829  23.772  1.00  0.00     0.174 HD
ENDBRANCH  25  31
ENDBRANCH  13  16
ENDBRANCH   8  13
BRANCH   7  34
HETATM   34  N3  UNL     1       5.256 -10.867  28.511  1.00  0.00    -0.369 N 
ATOM     35  H3  UNL     1       4.351 -10.735  28.962  1.00  0.00     0.161 HD
BRANCH  34  36
HETATM   36  C6  UNL     1       6.476 -10.853  29.299  1.00  0.00     0.108 A 
HETATM   37  C7  UNL     1       6.263 -11.024  30.788  1.00  0.00     0.054 A 
HETATM   38  C8  UNL     1       6.808  -9.731  30.192  1.00  0.00     0.109 A 
BRANCH  38  39
HETATM   39  N4  UNL     1       6.028  -8.535  30.271  1.00  0.00    -0.348 N 
HETATM   40  C9  UNL     1       6.309  -7.616  31.128  1.00  0.00     0.237 C 
ATOM     41  H4  UNL     1       5.238  -8.408  29.638  1.00  0.00     0.163 HD
BRANCH  40  42
HETATM   42  O1  UNL     1       5.523  -6.473  31.166  1.00  0.00    -0.331 OA
ATOM     43  H1  UNL     1       4.581  -6.568  31.234  1.00  0.00     0.221 HD
ENDBRANCH  40  42
BRANCH  40  44
HETATM   44  N5  UNL     1       7.400  -7.756  32.024  1.00  0.00    -0.230 N 
ATOM     45  H5  UNL     1       8.334  -7.875  31.634  1.00  0.00     0.198 HD
BRANCH  44  46
HETATM   46  O2  UNL     1       7.265  -7.742  33.349  1.00  0.00    -0.276 OA
BRANCH  46  47
HETATM   47  C10 UNL     1       6.241  -8.583  33.794  1.00  0.00     0.228 C 
BRANCH  47  48
HETATM   48  C11 UNL     1       5.365  -7.866  34.811  1.00  0.00     0.258 C 
BRANCH  48  49
HETATM   49  N6  UNL     1       4.741  -6.721  34.178  1.00  0.00    -0.077 N 
ATOM     50  H63 UNL     1       5.168  -6.496  33.279  1.00  0.00     0.274 HD
ATOM     51  H62 UNL     1       3.801  -6.929  33.843  1.00  0.00     0.274 HD
ATOM     52  H61 UNL     1       4.756  -5.932  34.823  1.00  0.00     0.274 HD
ENDBRANCH  48  49
ENDBRANCH  47  48
ENDBRANCH  46  47
ENDBRANCH  44  46
ENDBRANCH  40  44
ENDBRANCH  38  39
ENDBRANCH  34  36
ENDBRANCH   7  34
BRANCH   1  53
HETATM   53  N1  UNL     1       4.913 -11.369  21.401  1.00  0.00    -0.234 N 
ATOM     54  H12 UNL     1       4.336 -12.091  20.970  1.00  0.00     0.174 HD
ATOM     55  H11 UNL     1       5.169 -10.526  20.886  1.00  0.00     0.174 HD
ENDBRANCH   1  53
TORSDOF 16
ENDMDL
MODEL 5
REMARK VINA RESULT: -7.667798771      2.725      7.667
REMARK  16 active torsions:
REMARK  status: ('A' for Active; 'I' for Inactive)
REMARK    1  A    between atoms: N1_1  and  C1_4 
REMARK    2  A    between atoms: C5_10  and  N3_11 
REMARK    3  A    between atoms: N3_11  and  C6_13 
REMARK    4  A    between atoms: C8_15  and  N4_16 
REMARK    5  A    between atoms: C9_18  and  O1_19 
REMARK    6  A    between atoms: C9_18  and  N5_21 
REMARK    7  A    between atoms: N5_21  and  O2_23 
REMARK    8  A    between atoms: O2_23  and  C10_24 
REMARK    9  A    between atoms: C10_24  and  C11_25 
REMARK   10  A    between atoms: C11_25  and  N6_26 
REMARK   11  A    between atoms: N7_30  and  C12_31 
REMARK   12  A    between atoms: C12_31  and  O3_32 
REMARK   13  A    between atoms: C12_31  and  C13_34 
REMARK   14  A    between atoms: C14_36  and  O5_37 
REMARK   15  A    between atoms: O5_37  and  N8_38 
REMARK   16  A    between atoms: C17_47  and  N11_48 
ROOT
HETATM    1  C1  UNL     1       4.917  -6.843  31.038  1.00  0.00     0.678 A 
HETATM    2  N2  UNL     1       4.474  -7.375  29.916  1.00  0.00    -0.175 N 
ATOM      3  H2  UNL     1       3.806  -6.830  29.371  1.00  0.00     0.186 HD
HETATM    4  C2  UNL     1       4.831  -8.574  29.432  1.00  0.00     0.144 A 
HETATM    5  C3  UNL     1       5.731  -9.269  30.194  1.00  0.00     0.054 A 
HETATM    6  C4  UNL     1       6.017 -10.443  29.565  1.00  0.00     0.067 A 
HETATM    7  C5  UNL     1       5.283 -10.495  28.375  1.00  0.00     0.112 A 
HETATM    8  N7  UNL     1       4.560  -9.317  28.330  1.00  0.00    -0.262 N 
HETATM    9  C18 UNL     1       6.196  -8.706  31.379  1.00  0.00     0.146 A 
HETATM   10  N13 UNL     1       7.123  -9.455  32.140  1.00  0.00    -0.081 NA
HETATM   11  N14 UNL     1       5.806  -7.506  31.815  1.00  0.00    -0.178 N 
ATOM     12  H14 UNL     1       6.158  -7.109  32.685  1.00  0.00     0.185 HD
ENDROOT
BRANCH   8  13
HETATM   13  C12 UNL     1       3.646  -9.013  27.331  1.00  0.00     0.178 C 
BRANCH  13  14
HETATM   14  O3  UNL     1       2.479  -9.615  27.506  1.00  0.00    -0.345 OA
ATOM     15  H3  UNL     1       2.246 -10.182  26.780  1.00  0.00     0.219 HD
ENDBRANCH  13  14
BRANCH  13  16
HETATM   16  C13 UNL     1       3.674  -8.195  26.152  1.00  0.00     0.341 C 
HETATM   17  O4  UNL     1       4.811  -8.610  25.343  1.00  0.00    -0.323 OA
HETATM   18  C14 UNL     1       4.618  -9.835  24.769  1.00  0.00     0.310 C 
HETATM   19  C15 UNL     1       3.213 -10.374  24.738  1.00  0.00     0.218 C 
HETATM   20  N9  UNL     1       2.326  -9.252  24.534  1.00  0.00    -0.218 N 
HETATM   21  C16 UNL     1       1.303  -9.043  23.712  1.00  0.00     0.356 A 
HETATM   22  N12 UNL     1       2.574  -8.147  25.215  1.00  0.00    -0.080 N 
HETATM   23  O6  UNL     1       0.754  -9.850  22.893  1.00  0.00    -0.244 OA
HETATM   24  N10 UNL     1       0.904  -7.779  23.874  1.00  0.00    -0.139 N 
HETATM   25  C17 UNL     1       1.688  -7.230  24.796  1.00  0.00     0.699 A 
ATOM     26  H10 UNL     1       0.138  -7.320  23.381  1.00  0.00     0.189 HD
BRANCH  18  27
HETATM   27  O5  UNL     1       4.980  -9.736  23.382  1.00  0.00    -0.253 OA
BRANCH  27  28
HETATM   28  N8  UNL     1       5.543  -8.559  23.108  1.00  0.00    -0.308 N 
ATOM     29  H82 UNL     1       5.043  -7.671  23.162  1.00  0.00     0.184 HD
ATOM     30  H81 UNL     1       6.521  -8.666  22.843  1.00  0.00     0.184 HD
ENDBRANCH  27  28
ENDBRANCH  18  27
BRANCH  25  31
HETATM   31  N11 UNL     1       1.603  -5.966  25.156  1.00  0.00    -0.233 N 
ATOM     32 2H11 UNL     1       1.207  -5.190  24.626  1.00  0.00     0.174 HD
ATOM     33 1H11 UNL     1       1.898  -5.625  26.071  1.00  0.00     0.174 HD
ENDBRANCH  25  31
ENDBRANCH  13  16
ENDBRANCH   8  13
BRANCH   7  34
HETATM   34  N3  UNL     1       5.344 -11.578  27.479  1.00  0.00    -0.369 N 
ATOM     35  H3  UNL     1       4.508 -11.877  26.975  1.00  0.00     0.161 HD
BRANCH  34  36
HETATM   36  C6  UNL     1       6.605 -12.268  27.279  1.00  0.00     0.108 A 
HETATM   37  C7  UNL     1       7.741 -11.379  26.820  1.00  0.00     0.054 A 
HETATM   38  C8  UNL     1       7.167 -12.479  25.935  1.00  0.00     0.109 A 
BRANCH  38  39
HETATM   39  N4  UNL     1       6.477 -12.130  24.733  1.00  0.00    -0.348 N 
HETATM   40  C9  UNL     1       6.606 -12.837  23.664  1.00  0.00     0.237 C 
ATOM     41  H4  UNL     1       5.873 -11.308  24.722  1.00  0.00     0.163 HD
BRANCH  40  42
HETATM   42  O1  UNL     1       5.916 -12.457  22.523  1.00  0.00    -0.331 OA
ATOM     43  H1  UNL     1       4.967 -12.484  22.532  1.00  0.00     0.221 HD
ENDBRANCH  40  42
BRANCH  40  44
HETATM   44  N5  UNL     1       7.437 -13.986  23.641  1.00  0.00    -0.230 N 
ATOM     45  H5  UNL     1       7.740 -14.383  24.531  1.00  0.00     0.198 HD
BRANCH  44  46
HETATM   46  O2  UNL     1       7.843 -14.574  22.517  1.00  0.00    -0.276 OA
BRANCH  46  47
HETATM   47  C10 UNL     1       8.120 -15.933  22.692  1.00  0.00     0.228 C 
BRANCH  47  48
HETATM   48  C11 UNL     1       9.371 -16.327  21.919  1.00  0.00     0.258 C 
BRANCH  48  49
HETATM   49  N6  UNL     1      10.491 -16.407  22.834  1.00  0.00    -0.077 N 
ATOM     50  H63 UNL     1      11.353 -16.048  22.423  1.00  0.00     0.274 HD
ATOM     51  H62 UNL     1      10.411 -15.743  23.604  1.00  0.00     0.274 HD
ATOM     52  H61 UNL     1      10.588 -17.368  23.160  1.00  0.00     0.274 HD
ENDBRANCH  48  49
ENDBRANCH  47  48
ENDBRANCH  46  47
ENDBRANCH  44  46
ENDBRANCH  40  44
ENDBRANCH  38  39
ENDBRANCH  34  36
ENDBRANCH   7  34
BRANCH   1  53
HETATM   53  N1  UNL     1       4.518  -5.683  31.414  1.00  0.00    -0.234 N 
ATOM     54  H12 UNL     1       3.827  -5.623  32.161  1.00  0.00     0.174 HD
ATOM     55  H11 UNL     1       4.888  -4.839  30.975  1.00  0.00     0.174 HD
ENDBRANCH   1  53
TORSDOF 16
ENDMDL
