MODEL 1
REMARK VINA RESULT: -9.778619861      0.000      0.000
REMARK  13 active torsions:
REMARK  status: ('A' for Active; 'I' for Inactive)
REMARK    1  A    between atoms: C3_4  and  C4_5 
REMARK    2  A    between atoms: C6_9  and  O1_10 
REMARK    3  A    between atoms: N4_16  and  C9_17 
REMARK    4  A    between atoms: C9_17  and  O2_18 
REMARK    5  A    between atoms: O2_18  and  C10_19 
REMARK    6  A    between atoms: C10_19  and  O3_20 
REMARK    7  A    between atoms: C10_19  and  C11_22 
REMARK    8  A    between atoms: C11_22  and  O4_23 
REMARK    9  A    between atoms: C11_22  and  C12_25 
REMARK   10  A    between atoms: C12_25  and  O5_26 
REMARK   11  A    between atoms: C12_25  and  N5_28 
REMARK       I    between atoms: N5_28  and  C13_30 
REMARK       I    between atoms: C13_30  and  N6_32 
REMARK   12  A    between atoms: N9_41  and  N10_42 
REMARK   13  A    between atoms: C18_49  and  N12_50 
ROOT
HETATM    1  C9  UNL     1       7.892  -9.385  26.841  1.00  0.00     0.303 C 
ENDROOT
BRANCH   1   2
HETATM    2  N4  UNL     1       7.945 -10.588  26.049  1.00  0.00    -0.317 N 
HETATM    3  C8  UNL     1       8.833 -11.581  26.305  1.00  0.00     0.186 A 
HETATM    4  N3  UNL     1       8.632 -12.602  25.454  1.00  0.00    -0.348 N 
HETATM    5  C7  UNL     1       7.615 -12.290  24.634  1.00  0.00     0.098 A 
ATOM      6  H3  UNL     1       9.165 -13.472  25.435  1.00  0.00     0.167 HD
HETATM    7  C6  UNL     1       6.809 -12.738  23.503  1.00  0.00     0.124 A 
HETATM    8  C16 UNL     1       7.214 -11.034  25.032  1.00  0.00     0.096 A 
HETATM    9  C5  UNL     1       5.934 -11.764  23.220  1.00  0.00     0.099 A 
HETATM   10  N2  UNL     1       4.885 -11.363  22.379  1.00  0.00    -0.337 N 
HETATM   11  C17 UNL     1       6.128 -10.650  24.149  1.00  0.00     0.093 A 
HETATM   12  C4  UNL     1       4.508 -10.167  22.757  1.00  0.00     0.122 A 
ATOM     13  H2  UNL     1       4.488 -11.904  21.611  1.00  0.00     0.167 HD
HETATM   14  N11 UNL     1       5.293  -9.742  23.861  1.00  0.00    -0.338 N 
ATOM     15  H11 UNL     1       5.200  -8.849  24.344  1.00  0.00     0.167 HD
BRANCH   7  16
HETATM   16  O1  UNL     1       6.890 -13.933  22.810  1.00  0.00    -0.356 OA
ATOM     17  H1  UNL     1       7.702 -14.392  22.632  1.00  0.00     0.218 HD
ENDBRANCH   7  16
BRANCH  12  18
HETATM   18  C3  UNL     1       3.428  -9.474  22.068  1.00  0.00     0.070 A 
HETATM   19  C2  UNL     1       2.057  -9.645  22.263  1.00  0.00     0.128 A 
HETATM   20  N1  UNL     1       1.392  -8.822  21.430  1.00  0.00    -0.305 N 
HETATM   21  C1  UNL     1      -0.053  -8.651  21.277  1.00  0.00     0.177 C 
HETATM   22  N13 UNL     1       2.275  -8.138  20.716  1.00  0.00    -0.284 N 
HETATM   23  C18 UNL     1       3.535  -8.519  21.086  1.00  0.00     0.129 A 
ATOM     24  H13 UNL     1       2.050  -7.441  20.006  1.00  0.00     0.188 HD
BRANCH  23  25
HETATM   25  N12 UNL     1       4.602  -8.037  20.574  1.00  0.00    -0.384 N 
ATOM     26 2H12 UNL     1       5.341  -8.607  20.163  1.00  0.00     0.157 HD
ATOM     27 1H12 UNL     1       4.873  -7.056  20.500  1.00  0.00     0.157 HD
ENDBRANCH  23  25
ENDBRANCH  12  18
ENDBRANCH   1   2
BRANCH   1  28
HETATM   28  O2  UNL     1       7.554  -9.741  28.154  1.00  0.00    -0.339 OA
BRANCH  28  29
HETATM   29  C10 UNL     1       8.223  -8.979  29.076  1.00  0.00     0.291 C 
BRANCH  29  30
HETATM   30  O3  UNL     1       9.648  -9.326  28.811  1.00  0.00    -0.368 OA
ATOM     31  H3  UNL     1      10.071  -9.109  29.634  1.00  0.00     0.212 HD
ENDBRANCH  29  30
BRANCH  29  32
HETATM   32  C11 UNL     1       8.003  -9.195  30.505  1.00  0.00     0.221 C 
BRANCH  32  33
HETATM   33  O4  UNL     1       7.222 -10.372  30.745  1.00  0.00    -0.386 OA
ATOM     34  H4  UNL     1       7.238 -10.959  29.998  1.00  0.00     0.210 HD
ENDBRANCH  32  33
BRANCH  32  35
HETATM   35  C12 UNL     1       7.338  -8.135  31.310  1.00  0.00     0.255 C 
BRANCH  35  36
HETATM   36  O5  UNL     1       7.403  -6.939  30.534  1.00  0.00    -0.374 OA
ATOM     37  H5  UNL     1       6.641  -6.944  29.966  1.00  0.00     0.212 HD
ENDBRANCH  35  36
BRANCH  35  38
HETATM   38  N5  UNL     1       8.041  -7.785  32.539  1.00  0.00    -0.312 N 
HETATM   39  C13 UNL     1       7.654  -8.373  33.749  1.00  0.00     0.360 C 
HETATM   40  O6  UNL     1       6.679  -9.205  33.682  1.00  0.00    -0.244 OA
HETATM   41  N6  UNL     1       8.212  -8.148  35.015  1.00  0.00    -0.006 N 
HETATM   42  C14 UNL     1       7.813  -8.682  36.206  1.00  0.00     0.707 A 
HETATM   43  N9  UNL     1       9.250  -7.386  35.318  1.00  0.00    -0.122 N 
HETATM   44  N7  UNL     1       6.852  -9.458  36.420  1.00  0.00    -0.232 N 
HETATM   45  N8  UNL     1       8.613  -8.236  37.198  1.00  0.00    -0.137 N 
ATOM     46  H72 UNL     1       6.248  -9.795  35.670  1.00  0.00     0.174 HD
ATOM     47  H71 UNL     1       6.554  -9.857  37.310  1.00  0.00     0.174 HD
HETATM   48  C15 UNL     1       9.511  -7.428  36.655  1.00  0.00     0.375 A 
ATOM     49  H8  UNL     1       8.539  -8.478  38.186  1.00  0.00     0.189 HD
HETATM   50  O7  UNL     1      10.446  -6.799  37.244  1.00  0.00    -0.243 OA
ATOM     51  H5  UNL     1       8.810  -7.115  32.516  1.00  0.00     0.167 HD
BRANCH  43  52
HETATM   52  N10 UNL     1      10.044  -6.607  34.472  1.00  0.00    -0.319 N 
ATOM     53 2H10 UNL     1      10.174  -6.879  33.497  1.00  0.00     0.179 HD
ATOM     54 1H10 UNL     1      10.551  -5.747  34.681  1.00  0.00     0.179 HD
ENDBRANCH  43  52
ENDBRANCH  35  38
ENDBRANCH  32  35
ENDBRANCH  29  32
ENDBRANCH  28  29
ENDBRANCH   1  28
TORSDOF 13
ENDMDL
MODEL 2
REMARK VINA RESULT: -9.687168559      1.580      1.984
REMARK  13 active torsions:
REMARK  status: ('A' for Active; 'I' for Inactive)
REMARK    1  A    between atoms: C3_4  and  C4_5 
REMARK    2  A    between atoms: C6_9  and  O1_10 
REMARK    3  A    between atoms: N4_16  and  C9_17 
REMARK    4  A    between atoms: C9_17  and  O2_18 
REMARK    5  A    between atoms: O2_18  and  C10_19 
REMARK    6  A    between atoms: C10_19  and  O3_20 
REMARK    7  A    between atoms: C10_19  and  C11_22 
REMARK    8  A    between atoms: C11_22  and  O4_23 
REMARK    9  A    between atoms: C11_22  and  C12_25 
REMARK   10  A    between atoms: C12_25  and  O5_26 
REMARK   11  A    between atoms: C12_25  and  N5_28 
REMARK       I    between atoms: N5_28  and  C13_30 
REMARK       I    between atoms: C13_30  and  N6_32 
REMARK   12  A    between atoms: N9_41  and  N10_42 
REMARK   13  A    between atoms: C18_49  and  N12_50 
ROOT
HETATM    1  C9  UNL     1       5.276 -10.111  28.768  1.00  0.00     0.303 C 
ENDROOT
BRANCH   1   2
HETATM    2  N4  UNL     1       6.016 -10.987  27.894  1.00  0.00    -0.317 N 
HETATM    3  C8  UNL     1       6.983 -11.818  28.356  1.00  0.00     0.186 A 
HETATM    4  N3  UNL     1       7.472 -12.555  27.344  1.00  0.00    -0.348 N 
HETATM    5  C7  UNL     1       6.833 -12.216  26.212  1.00  0.00     0.098 A 
ATOM      6  H3  UNL     1       8.207 -13.258  27.424  1.00  0.00     0.167 HD
HETATM    7  C6  UNL     1       6.739 -12.452  24.775  1.00  0.00     0.124 A 
HETATM    8  C16 UNL     1       5.938 -11.241  26.591  1.00  0.00     0.096 A 
HETATM    9  C5  UNL     1       5.799 -11.629  24.292  1.00  0.00     0.099 A 
HETATM   10  N2  UNL     1       5.114 -11.205  23.143  1.00  0.00    -0.337 N 
HETATM   11  C17 UNL     1       5.244 -10.829  25.385  1.00  0.00     0.093 A 
HETATM   12  C4  UNL     1       4.266 -10.276  23.505  1.00  0.00     0.122 A 
ATOM     13  H2  UNL     1       5.252 -11.558  22.196  1.00  0.00     0.167 HD
HETATM   14  N11 UNL     1       4.362 -10.057  24.905  1.00  0.00    -0.338 N 
ATOM     15  H11 UNL     1       3.809  -9.386  25.438  1.00  0.00     0.167 HD
BRANCH   7  16
HETATM   16  O1  UNL     1       7.460 -13.345  24.001  1.00  0.00    -0.356 OA
ATOM     17  H1  UNL     1       7.804 -14.170  24.322  1.00  0.00     0.218 HD
ENDBRANCH   7  16
BRANCH  12  18
HETATM   18  C3  UNL     1       3.403  -9.632  22.524  1.00  0.00     0.070 A 
HETATM   19  C2  UNL     1       2.008  -9.594  22.526  1.00  0.00     0.128 A 
HETATM   20  N1  UNL     1       1.590  -8.906  21.447  1.00  0.00    -0.305 N 
HETATM   21  C1  UNL     1       0.219  -8.605  21.031  1.00  0.00     0.177 C 
HETATM   22  N13 UNL     1       2.651  -8.505  20.762  1.00  0.00    -0.284 N 
HETATM   23  C18 UNL     1       3.780  -8.938  21.400  1.00  0.00     0.129 A 
ATOM     24  H13 UNL     1       2.629  -7.962  19.898  1.00  0.00     0.188 HD
BRANCH  23  25
HETATM   25  N12 UNL     1       4.965  -8.710  20.981  1.00  0.00    -0.384 N 
ATOM     26 2H12 UNL     1       5.808  -9.014  21.469  1.00  0.00     0.157 HD
ATOM     27 1H12 UNL     1       5.245  -8.213  20.135  1.00  0.00     0.157 HD
ENDBRANCH  23  25
ENDBRANCH  12  18
ENDBRANCH   1   2
BRANCH   1  28
HETATM   28  O2  UNL     1       6.126  -9.072  29.168  1.00  0.00    -0.339 OA
BRANCH  28  29
HETATM   29  C10 UNL     1       5.993  -8.792  30.503  1.00  0.00     0.291 C 
BRANCH  29  30
HETATM   30  O3  UNL     1       5.041  -7.645  30.501  1.00  0.00    -0.368 OA
ATOM     31  H3  UNL     1       4.268  -8.017  30.092  1.00  0.00     0.212 HD
ENDBRANCH  29  30
BRANCH  29  32
HETATM   32  C11 UNL     1       7.155  -8.365  31.282  1.00  0.00     0.221 C 
BRANCH  32  33
HETATM   33  O4  UNL     1       8.340  -9.067  30.887  1.00  0.00    -0.386 OA
ATOM     34  H4  UNL     1       8.883  -9.283  31.635  1.00  0.00     0.210 HD
ENDBRANCH  32  33
BRANCH  32  35
HETATM   35  C12 UNL     1       7.124  -8.487  32.764  1.00  0.00     0.255 C 
BRANCH  35  36
HETATM   36  O5  UNL     1       5.862  -7.972  33.186  1.00  0.00    -0.374 OA
ATOM     37  H5  UNL     1       5.868  -7.988  34.137  1.00  0.00     0.212 HD
ENDBRANCH  35  36
BRANCH  35  38
HETATM   38  N5  UNL     1       8.089  -7.640  33.456  1.00  0.00    -0.312 N 
HETATM   39  C13 UNL     1       8.411  -7.906  34.792  1.00  0.00     0.360 C 
HETATM   40  O6  UNL     1       7.814  -8.910  35.324  1.00  0.00    -0.244 OA
HETATM   41  N6  UNL     1       9.306  -7.196  35.604  1.00  0.00    -0.006 N 
HETATM   42  C14 UNL     1       9.594  -7.420  36.920  1.00  0.00     0.707 A 
HETATM   43  N9  UNL     1      10.071  -6.172  35.263  1.00  0.00    -0.122 N 
HETATM   44  N7  UNL     1       9.098  -8.285  37.680  1.00  0.00    -0.232 N 
HETATM   45  N8  UNL     1      10.520  -6.535  37.344  1.00  0.00    -0.137 N 
ATOM     46  H72 UNL     1       8.398  -8.955  37.360  1.00  0.00     0.174 HD
ATOM     47  H71 UNL     1       9.313  -8.453  38.663  1.00  0.00     0.174 HD
HETATM   48  C15 UNL     1      10.823  -5.752  36.318  1.00  0.00     0.375 A 
ATOM     49  H8  UNL     1      10.914  -6.478  38.283  1.00  0.00     0.189 HD
HETATM   50  O7  UNL     1      11.653  -4.788  36.296  1.00  0.00    -0.243 OA
ATOM     51  H5  UNL     1       8.527  -6.858  32.969  1.00  0.00     0.167 HD
BRANCH  43  52
HETATM   52  N10 UNL     1      10.178  -5.530  34.025  1.00  0.00    -0.319 N 
ATOM     53 2H10 UNL     1       9.461  -5.670  33.312  1.00  0.00     0.179 HD
ATOM     54 1H10 UNL     1      10.905  -4.898  33.692  1.00  0.00     0.179 HD
ENDBRANCH  43  52
ENDBRANCH  35  38
ENDBRANCH  32  35
ENDBRANCH  29  32
ENDBRANCH  28  29
ENDBRANCH   1  28
TORSDOF 13
ENDMDL
MODEL 3
REMARK VINA RESULT: -9.537214656      4.102     10.135
REMARK  13 active torsions:
REMARK  status: ('A' for Active; 'I' for Inactive)
REMARK    1  A    between atoms: C3_4  and  C4_5 
REMARK    2  A    between atoms: C6_9  and  O1_10 
REMARK    3  A    between atoms: N4_16  and  C9_17 
REMARK    4  A    between atoms: C9_17  and  O2_18 
REMARK    5  A    between atoms: O2_18  and  C10_19 
REMARK    6  A    between atoms: C10_19  and  O3_20 
REMARK    7  A    between atoms: C10_19  and  C11_22 
REMARK    8  A    between atoms: C11_22  and  O4_23 
REMARK    9  A    between atoms: C11_22  and  C12_25 
REMARK   10  A    between atoms: C12_25  and  O5_26 
REMARK   11  A    between atoms: C12_25  and  N5_28 
REMARK       I    between atoms: N5_28  and  C13_30 
REMARK       I    between atoms: C13_30  and  N6_32 
REMARK   12  A    between atoms: N9_41  and  N10_42 
REMARK   13  A    between atoms: C18_49  and  N12_50 
ROOT
HETATM    1  C9  UNL     1       8.276 -10.037  27.450  1.00  0.00     0.303 C 
ENDROOT
BRANCH   1   2
HETATM    2  N4  UNL     1       7.805  -9.761  28.785  1.00  0.00    -0.317 N 
HETATM    3  C8  UNL     1       8.002  -8.560  29.385  1.00  0.00     0.186 A 
HETATM    4  N3  UNL     1       7.419  -8.556  30.596  1.00  0.00    -0.348 N 
HETATM    5  C7  UNL     1       6.838  -9.749  30.803  1.00  0.00     0.098 A 
ATOM      6  H3  UNL     1       7.419  -7.773  31.251  1.00  0.00     0.167 HD
HETATM    7  C6  UNL     1       6.083 -10.564  31.749  1.00  0.00     0.124 A 
HETATM    8  C16 UNL     1       7.098 -10.470  29.659  1.00  0.00     0.096 A 
HETATM    9  C5  UNL     1       5.890 -11.763  31.184  1.00  0.00     0.099 A 
HETATM   10  N2  UNL     1       5.332 -13.040  31.347  1.00  0.00    -0.337 N 
HETATM   11  C17 UNL     1       6.505 -11.780  29.856  1.00  0.00     0.093 A 
HETATM   12  C4  UNL     1       5.583 -13.725  30.260  1.00  0.00     0.122 A 
ATOM     13  H2  UNL     1       4.822 -13.375  32.164  1.00  0.00     0.167 HD
HETATM   14  N11 UNL     1       6.313 -12.923  29.343  1.00  0.00    -0.338 N 
ATOM     15  H11 UNL     1       6.632 -13.219  28.421  1.00  0.00     0.167 HD
BRANCH   7  16
HETATM   16  O1  UNL     1       5.626 -10.217  33.008  1.00  0.00    -0.356 OA
ATOM     17  H1  UNL     1       5.402  -9.332  33.268  1.00  0.00     0.218 HD
ENDBRANCH   7  16
BRANCH  12  18
HETATM   18  C3  UNL     1       5.128 -15.102  30.126  1.00  0.00     0.070 A 
HETATM   19  C2  UNL     1       3.820 -15.543  29.922  1.00  0.00     0.128 A 
HETATM   20  N1  UNL     1       3.817 -16.887  29.856  1.00  0.00    -0.305 N 
HETATM   21  C1  UNL     1       2.682 -17.789  29.653  1.00  0.00     0.177 C 
HETATM   22  N13 UNL     1       5.060 -17.321  30.007  1.00  0.00    -0.284 N 
HETATM   23  C18 UNL     1       5.888 -16.246  30.175  1.00  0.00     0.129 A 
ATOM     24  H13 UNL     1       5.351 -18.299  29.999  1.00  0.00     0.188 HD
BRANCH  23  25
HETATM   25  N12 UNL     1       7.150 -16.341  30.348  1.00  0.00    -0.384 N 
ATOM     26 2H12 UNL     1       7.653 -15.899  31.117  1.00  0.00     0.157 HD
ATOM     27 1H12 UNL     1       7.824 -16.848  29.773  1.00  0.00     0.157 HD
ENDBRANCH  23  25
ENDBRANCH  12  18
ENDBRANCH   1   2
BRANCH   1  28
HETATM   28  O2  UNL     1       7.343 -10.874  26.823  1.00  0.00    -0.339 OA
BRANCH  28  29
HETATM   29  C10 UNL     1       7.920 -12.033  26.375  1.00  0.00     0.291 C 
BRANCH  29  30
HETATM   30  O3  UNL     1       9.308 -11.600  26.045  1.00  0.00    -0.368 OA
ATOM     31  H3  UNL     1       9.617 -11.247  26.872  1.00  0.00     0.212 HD
ENDBRANCH  29  30
BRANCH  29  32
HETATM   32  C11 UNL     1       7.399 -12.700  25.182  1.00  0.00     0.221 C 
BRANCH  32  33
HETATM   33  O4  UNL     1       8.366 -13.592  24.614  1.00  0.00    -0.386 OA
ATOM     34  H4  UNL     1       7.959 -14.221  24.030  1.00  0.00     0.210 HD
ENDBRANCH  32  33
BRANCH  32  35
HETATM   35  C12 UNL     1       6.928 -11.878  24.035  1.00  0.00     0.255 C 
BRANCH  35  36
HETATM   36  O5  UNL     1       7.837 -10.784  23.921  1.00  0.00    -0.374 OA
ATOM     37  H5  UNL     1       8.706 -11.140  24.063  1.00  0.00     0.212 HD
ENDBRANCH  35  36
BRANCH  35  38
HETATM   38  N5  UNL     1       5.638 -11.232  24.251  1.00  0.00    -0.312 N 
HETATM   39  C13 UNL     1       4.965 -10.652  23.169  1.00  0.00     0.360 C 
HETATM   40  O6  UNL     1       5.552 -10.739  22.031  1.00  0.00    -0.244 OA
HETATM   41  N6  UNL     1       3.729  -9.991  23.198  1.00  0.00    -0.006 N 
HETATM   42  C14 UNL     1       3.086  -9.385  22.158  1.00  0.00     0.707 A 
HETATM   43  N9  UNL     1       2.921  -9.830  24.233  1.00  0.00    -0.122 N 
HETATM   44  N7  UNL     1       3.477  -9.268  20.972  1.00  0.00    -0.232 N 
HETATM   45  N8  UNL     1       1.910  -8.874  22.581  1.00  0.00    -0.137 N 
ATOM     46  H72 UNL     1       4.365  -9.654  20.652  1.00  0.00     0.174 HD
ATOM     47  H71 UNL     1       2.996  -8.816  20.195  1.00  0.00     0.174 HD
HETATM   48  C15 UNL     1       1.799  -9.146  23.873  1.00  0.00     0.375 A 
ATOM     49  H8  UNL     1       1.232  -8.370  22.010  1.00  0.00     0.189 HD
HETATM   50  O7  UNL     1       0.841  -8.839  24.652  1.00  0.00    -0.243 OA
ATOM     51  H5  UNL     1       5.230 -11.202  25.185  1.00  0.00     0.167 HD
BRANCH  43  52
HETATM   52  N10 UNL     1       3.089 -10.259  25.553  1.00  0.00    -0.319 N 
ATOM     53 2H10 UNL     1       3.953 -10.049  26.054  1.00  0.00     0.179 HD
ATOM     54 1H10 UNL     1       2.444 -10.785  26.143  1.00  0.00     0.179 HD
ENDBRANCH  43  52
ENDBRANCH  35  38
ENDBRANCH  32  35
ENDBRANCH  29  32
ENDBRANCH  28  29
ENDBRANCH   1  28
TORSDOF 13
ENDMDL
MODEL 4
REMARK VINA RESULT: -9.492399161      3.820     10.354
REMARK  13 active torsions:
REMARK  status: ('A' for Active; 'I' for Inactive)
REMARK    1  A    between atoms: C3_4  and  C4_5 
REMARK    2  A    between atoms: C6_9  and  O1_10 
REMARK    3  A    between atoms: N4_16  and  C9_17 
REMARK    4  A    between atoms: C9_17  and  O2_18 
REMARK    5  A    between atoms: O2_18  and  C10_19 
REMARK    6  A    between atoms: C10_19  and  O3_20 
REMARK    7  A    between atoms: C10_19  and  C11_22 
REMARK    8  A    between atoms: C11_22  and  O4_23 
REMARK    9  A    between atoms: C11_22  and  C12_25 
REMARK   10  A    between atoms: C12_25  and  O5_26 
REMARK   11  A    between atoms: C12_25  and  N5_28 
REMARK       I    between atoms: N5_28  and  C13_30 
REMARK       I    between atoms: C13_30  and  N6_32 
REMARK   12  A    between atoms: N9_41  and  N10_42 
REMARK   13  A    between atoms: C18_49  and  N12_50 
ROOT
HETATM    1  C9  UNL     1       8.085  -8.750  28.949  1.00  0.00     0.303 C 
ENDROOT
BRANCH   1   2
HETATM    2  N4  UNL     1       7.508  -8.734  30.271  1.00  0.00    -0.317 N 
HETATM    3  C8  UNL     1       7.500  -7.617  31.040  1.00  0.00     0.186 A 
HETATM    4  N3  UNL     1       6.858  -7.864  32.194  1.00  0.00    -0.348 N 
HETATM    5  C7  UNL     1       6.441  -9.142  32.195  1.00  0.00     0.098 A 
ATOM      6  H3  UNL     1       6.711  -7.192  32.947  1.00  0.00     0.167 HD
HETATM    7  C6  UNL     1       5.759 -10.177  32.964  1.00  0.00     0.124 A 
HETATM    8  C16 UNL     1       6.862  -9.649  30.987  1.00  0.00     0.096 A 
HETATM    9  C5  UNL     1       5.770 -11.297  32.229  1.00  0.00     0.099 A 
HETATM   10  N2  UNL     1       5.390 -12.647  32.176  1.00  0.00    -0.337 N 
HETATM   11  C17 UNL     1       6.451 -11.041  30.960  1.00  0.00     0.093 A 
HETATM   12  C4  UNL     1       5.794 -13.129  31.028  1.00  0.00     0.122 A 
ATOM     13  H2  UNL     1       4.889 -13.161  32.902  1.00  0.00     0.167 HD
HETATM   14  N11 UNL     1       6.451 -12.113  30.285  1.00  0.00    -0.338 N 
ATOM     15  H11 UNL     1       6.858 -12.228  29.357  1.00  0.00     0.167 HD
BRANCH   7  16
HETATM   16  O1  UNL     1       5.190 -10.080  34.221  1.00  0.00    -0.356 OA
ATOM     17  H1  UNL     1       4.754  -9.302  34.550  1.00  0.00     0.218 HD
ENDBRANCH   7  16
BRANCH  12  18
HETATM   18  C3  UNL     1       5.547 -14.520  30.676  1.00  0.00     0.070 A 
HETATM   19  C2  UNL     1       4.787 -14.998  29.607  1.00  0.00     0.128 A 
HETATM   20  N1  UNL     1       4.802 -16.344  29.629  1.00  0.00    -0.305 N 
HETATM   21  C1  UNL     1       4.149 -17.278  28.711  1.00  0.00     0.177 C 
HETATM   22  N13 UNL     1       5.534 -16.744  30.658  1.00  0.00    -0.284 N 
HETATM   23  C18 UNL     1       6.005 -15.644  31.320  1.00  0.00     0.129 A 
ATOM     24  H13 UNL     1       5.717 -17.714  30.914  1.00  0.00     0.188 HD
BRANCH  23  25
HETATM   25  N12 UNL     1       6.743 -15.704  32.362  1.00  0.00    -0.384 N 
ATOM     26 2H12 UNL     1       6.593 -15.138  33.197  1.00  0.00     0.157 HD
ATOM     27 1H12 UNL     1       7.560 -16.295  32.516  1.00  0.00     0.157 HD
ENDBRANCH  23  25
ENDBRANCH  12  18
ENDBRANCH   1   2
BRANCH   1  28
HETATM   28  O2  UNL     1       8.610 -10.028  28.717  1.00  0.00    -0.339 OA
BRANCH  28  29
HETATM   29  C10 UNL     1       8.493 -10.395  27.401  1.00  0.00     0.291 C 
BRANCH  29  30
HETATM   30  O3  UNL     1       8.219  -9.095  26.725  1.00  0.00    -0.368 OA
ATOM     31  H3  UNL     1       9.070  -8.671  26.739  1.00  0.00     0.212 HD
ENDBRANCH  29  30
BRANCH  29  32
HETATM   32  C11 UNL     1       7.431 -11.310  26.986  1.00  0.00     0.221 C 
BRANCH  32  33
HETATM   33  O4  UNL     1       7.593 -12.606  27.577  1.00  0.00    -0.386 OA
ATOM     34  H4  UNL     1       6.822 -12.865  28.067  1.00  0.00     0.210 HD
ENDBRANCH  32  33
BRANCH  32  35
HETATM   35  C12 UNL     1       7.226 -11.581  25.538  1.00  0.00     0.255 C 
BRANCH  35  36
HETATM   36  O5  UNL     1       8.498 -11.420  24.913  1.00  0.00    -0.374 OA
ATOM     37  H5  UNL     1       8.484 -11.958  24.129  1.00  0.00     0.212 HD
ENDBRANCH  35  36
BRANCH  35  38
HETATM   38  N5  UNL     1       6.383 -10.604  24.859  1.00  0.00    -0.312 N 
HETATM   39  C13 UNL     1       5.887 -10.887  23.581  1.00  0.00     0.360 C 
HETATM   40  O6  UNL     1       6.220 -12.024  23.089  1.00  0.00    -0.244 OA
HETATM   41  N6  UNL     1       5.073 -10.065  22.788  1.00  0.00    -0.006 N 
HETATM   42  C14 UNL     1       4.621 -10.313  21.525  1.00  0.00     0.707 A 
HETATM   43  N9  UNL     1       4.561  -8.887  23.104  1.00  0.00    -0.122 N 
HETATM   44  N7  UNL     1       4.860 -11.309  20.802  1.00  0.00    -0.232 N 
HETATM   45  N8  UNL     1       3.850  -9.288  21.105  1.00  0.00    -0.137 N 
ATOM     46  H72 UNL     1       5.443 -12.084  21.119  1.00  0.00     0.174 HD
ATOM     47  H71 UNL     1       4.522 -11.495  19.858  1.00  0.00     0.174 HD
HETATM   48  C15 UNL     1       3.807  -8.394  22.082  1.00  0.00     0.375 A 
ATOM     49  H8  UNL     1       3.385  -9.215  20.200  1.00  0.00     0.189 HD
HETATM   50  O7  UNL     1       3.189  -7.282  22.090  1.00  0.00    -0.243 OA
ATOM     51  H5  UNL     1       6.157  -9.719  25.313  1.00  0.00     0.167 HD
BRANCH  43  52
HETATM   52  N10 UNL     1       4.704  -8.156  24.287  1.00  0.00    -0.319 N 
ATOM     53 2H10 UNL     1       4.851  -8.640  25.173  1.00  0.00     0.179 HD
ATOM     54 1H10 UNL     1       4.686  -7.145  24.422  1.00  0.00     0.179 HD
ENDBRANCH  43  52
ENDBRANCH  35  38
ENDBRANCH  32  35
ENDBRANCH  29  32
ENDBRANCH  28  29
ENDBRANCH   1  28
TORSDOF 13
ENDMDL
MODEL 5
REMARK VINA RESULT: -9.455780010      2.229     11.796
REMARK  13 active torsions:
REMARK  status: ('A' for Active; 'I' for Inactive)
REMARK    1  A    between atoms: C3_4  and  C4_5 
REMARK    2  A    between atoms: C6_9  and  O1_10 
REMARK    3  A    between atoms: N4_16  and  C9_17 
REMARK    4  A    between atoms: C9_17  and  O2_18 
REMARK    5  A    between atoms: O2_18  and  C10_19 
REMARK    6  A    between atoms: C10_19  and  O3_20 
REMARK    7  A    between atoms: C10_19  and  C11_22 
REMARK    8  A    between atoms: C11_22  and  O4_23 
REMARK    9  A    between atoms: C11_22  and  C12_25 
REMARK   10  A    between atoms: C12_25  and  O5_26 
REMARK   11  A    between atoms: C12_25  and  N5_28 
REMARK       I    between atoms: N5_28  and  C13_30 
REMARK       I    between atoms: C13_30  and  N6_32 
REMARK   12  A    between atoms: N9_41  and  N10_42 
REMARK   13  A    between atoms: C18_49  and  N12_50 
ROOT
HETATM    1  C9  UNL     1       7.920  -8.716  29.159  1.00  0.00     0.303 C 
ENDROOT
BRANCH   1   2
HETATM    2  N4  UNL     1       6.967  -9.217  30.118  1.00  0.00    -0.317 N 
HETATM    3  C8  UNL     1       5.882  -9.941  29.745  1.00  0.00     0.186 A 
HETATM    4  N3  UNL     1       5.195 -10.324  30.835  1.00  0.00    -0.348 N 
HETATM    5  C7  UNL     1       5.818  -9.856  31.929  1.00  0.00     0.098 A 
ATOM      6  H3  UNL     1       4.339 -10.880  30.831  1.00  0.00     0.167 HD
HETATM    7  C6  UNL     1       5.776  -9.768  33.385  1.00  0.00     0.124 A 
HETATM    8  C16 UNL     1       6.912  -9.174  31.445  1.00  0.00     0.096 A 
HETATM    9  C5  UNL     1       6.831  -9.042  33.776  1.00  0.00     0.099 A 
HETATM   10  N2  UNL     1       7.516  -8.498  34.873  1.00  0.00    -0.337 N 
HETATM   11  C17 UNL     1       7.601  -8.630  32.601  1.00  0.00     0.093 A 
HETATM   12  C4  UNL     1       8.554  -7.847  34.411  1.00  0.00     0.122 A 
ATOM     13  H2  UNL     1       7.253  -8.592  35.854  1.00  0.00     0.167 HD
HETATM   14  N11 UNL     1       8.590  -7.942  32.995  1.00  0.00    -0.338 N 
ATOM     15  H11 UNL     1       9.298  -7.525  32.391  1.00  0.00     0.167 HD
BRANCH   7  16
HETATM   16  O1  UNL     1       4.844 -10.312  34.252  1.00  0.00    -0.356 OA
ATOM     17  H1  UNL     1       4.740 -11.243  34.405  1.00  0.00     0.218 HD
ENDBRANCH   7  16
BRANCH  12  18
HETATM   18  C3  UNL     1       9.468  -7.164  35.316  1.00  0.00     0.070 A 
HETATM   19  C2  UNL     1       9.811  -7.545  36.614  1.00  0.00     0.128 A 
HETATM   20  N1  UNL     1      10.681  -6.649  37.116  1.00  0.00    -0.305 N 
HETATM   21  C1  UNL     1      11.315  -6.632  38.435  1.00  0.00     0.177 C 
HETATM   22  N13 UNL     1      10.908  -5.719  36.199  1.00  0.00    -0.284 N 
HETATM   23  C18 UNL     1      10.176  -6.010  35.082  1.00  0.00     0.129 A 
ATOM     24  H13 UNL     1      11.529  -4.917  36.310  1.00  0.00     0.188 HD
BRANCH  23  25
HETATM   25  N12 UNL     1      10.181  -5.295  34.023  1.00  0.00    -0.384 N 
ATOM     26 2H12 UNL     1      10.692  -5.540  33.175  1.00  0.00     0.157 HD
ATOM     27 1H12 UNL     1       9.700  -4.410  33.863  1.00  0.00     0.157 HD
ENDBRANCH  23  25
ENDBRANCH  12  18
ENDBRANCH   1   2
BRANCH   1  28
HETATM   28  O2  UNL     1       8.773  -9.768  28.800  1.00  0.00    -0.339 OA
BRANCH  28  29
HETATM   29  C10 UNL     1       8.606 -10.135  27.490  1.00  0.00     0.291 C 
BRANCH  29  30
HETATM   30  O3  UNL     1       8.276  -8.840  26.830  1.00  0.00    -0.368 OA
ATOM     31  H3  UNL     1       8.341  -9.056  25.907  1.00  0.00     0.212 HD
ENDBRANCH  29  30
BRANCH  29  32
HETATM   32  C11 UNL     1       7.544 -11.071  27.120  1.00  0.00     0.221 C 
BRANCH  32  33
HETATM   33  O4  UNL     1       7.716 -12.340  27.761  1.00  0.00    -0.386 OA
ATOM     34  H4  UNL     1       6.949 -12.891  27.656  1.00  0.00     0.210 HD
ENDBRANCH  32  33
BRANCH  32  35
HETATM   35  C12 UNL     1       7.331 -11.401  25.685  1.00  0.00     0.255 C 
BRANCH  35  36
HETATM   36  O5  UNL     1       8.589 -11.219  25.037  1.00  0.00    -0.374 OA
ATOM     37  H5  UNL     1       9.148 -11.931  25.328  1.00  0.00     0.212 HD
ENDBRANCH  35  36
BRANCH  35  38
HETATM   38  N5  UNL     1       6.446 -10.479  24.983  1.00  0.00    -0.312 N 
HETATM   39  C13 UNL     1       5.962 -10.816  23.713  1.00  0.00     0.360 C 
HETATM   40  O6  UNL     1       6.344 -11.951  23.250  1.00  0.00    -0.244 OA
HETATM   41  N6  UNL     1       5.113 -10.051  22.901  1.00  0.00    -0.006 N 
HETATM   42  C14 UNL     1       4.671 -10.351  21.645  1.00  0.00     0.707 A 
HETATM   43  N9  UNL     1       4.551  -8.889  23.187  1.00  0.00    -0.122 N 
HETATM   44  N7  UNL     1       4.953 -11.354  20.947  1.00  0.00    -0.232 N 
HETATM   45  N8  UNL     1       3.856  -9.372  21.200  1.00  0.00    -0.137 N 
ATOM     46  H72 UNL     1       5.569 -12.095  21.283  1.00  0.00     0.174 HD
ATOM     47  H71 UNL     1       4.623 -11.579  20.009  1.00  0.00     0.174 HD
HETATM   48  C15 UNL     1       3.775  -8.456  22.154  1.00  0.00     0.375 A 
ATOM     49  H8  UNL     1       3.387  -9.342  20.294  1.00  0.00     0.189 HD
HETATM   50  O7  UNL     1       3.109  -7.372  22.135  1.00  0.00    -0.243 OA
ATOM     51  H5  UNL     1       6.182  -9.593  25.414  1.00  0.00     0.167 HD
BRANCH  43  52
HETATM   52  N10 UNL     1       4.662  -8.122  24.351  1.00  0.00    -0.319 N 
ATOM     53 2H10 UNL     1       5.228  -8.455  25.132  1.00  0.00     0.179 HD
ATOM     54 1H10 UNL     1       4.242  -7.218  24.565  1.00  0.00     0.179 HD
ENDBRANCH  43  52
ENDBRANCH  35  38
ENDBRANCH  32  35
ENDBRANCH  29  32
ENDBRANCH  28  29
ENDBRANCH   1  28
TORSDOF 13
ENDMDL
