MODEL 1
REMARK VINA RESULT: -9.194862574      0.000      0.000
REMARK  17 active torsions:
REMARK  status: ('A' for Active; 'I' for Inactive)
REMARK    1  A    between atoms: C3_3  and  O1_4 
REMARK    2  A    between atoms: C4_6  and  O2_7 
REMARK    3  A    between atoms: C5_9  and  O3_10 
REMARK    4  A    between atoms: C6_12  and  C7_13 
REMARK    5  A    between atoms: C7_13  and  O4_14 
REMARK    6  A    between atoms: C7_13  and  C8_16 
REMARK    7  A    between atoms: C9_18  and  O6_19 
REMARK    8  A    between atoms: C10_21  and  S1_22 
REMARK    9  A    between atoms: S1_22  and  C11_23 
REMARK   10  A    between atoms: N1_24  and  C12_26 
REMARK   11  A    between atoms: C12_26  and  C13_27 
REMARK   12  A    between atoms: C13_27  and  O7_28 
REMARK   13  A    between atoms: C14_31  and  O9_32 
REMARK   14  A    between atoms: C15_35  and  C16_36 
REMARK   15  A    between atoms: C16_36  and  O11_37 
REMARK   16  A    between atoms: N2_40  and  O12_42 
REMARK   17  A    between atoms: C19_45  and  O13_46 
ROOT
HETATM    1  C1  UNL     1       4.516  -7.861  20.942  1.00  0.00     0.016 C 
HETATM    2  C2  UNL     1       3.739  -8.226  22.233  1.00  0.00     0.053 C 
HETATM    3  C3  UNL     1       2.542  -8.959  21.728  1.00  0.00     0.156 C 
HETATM    4  C4  UNL     1       1.720  -9.612  22.780  1.00  0.00     0.176 C 
HETATM    5  C5  UNL     1       2.014  -9.083  24.172  1.00  0.00     0.161 C 
HETATM    6  C6  UNL     1       3.088  -9.836  24.863  1.00  0.00     0.116 C 
HETATM    7  C14 UNL     1       4.443  -9.261  24.446  1.00  0.00     0.203 C 
HETATM    8  O10 UNL     1       5.507  -9.822  25.100  1.00  0.00    -0.339 OA
HETATM    9  C15 UNL     1       6.136 -10.894  24.531  1.00  0.00     0.196 C 
HETATM   10  C17 UNL     1       5.643 -11.300  23.233  1.00  0.00     0.044 C 
HETATM   11  N2  UNL     1       5.795 -12.497  22.786  1.00  0.00    -0.275 N 
ATOM     12  H2  UNL     1       5.412 -12.676  21.858  1.00  0.00     0.193 HD
HETATM   13  C18 UNL     1       4.901 -10.396  22.315  1.00  0.00     0.101 C 
HETATM   14  C19 UNL     1       4.682  -9.111  23.011  1.00  0.00     0.125 C 
ENDROOT
BRANCH   6  15
HETATM   15  C7  UNL     1       3.027  -9.744  26.361  1.00  0.00     0.185 C 
BRANCH  15  16
HETATM   16  O4  UNL     1       2.283  -8.592  26.740  1.00  0.00    -0.390 OA
ATOM     17  H4  UNL     1       2.443  -8.396  27.656  1.00  0.00     0.210 HD
ENDBRANCH  15  16
BRANCH  15  18
HETATM   18  C8  UNL     1       4.368  -9.477  27.042  1.00  0.00     0.294 C 
HETATM   19  O5  UNL     1       4.265  -8.387  27.900  1.00  0.00    -0.326 OA
HETATM   20  C9  UNL     1       4.961  -8.734  29.054  1.00  0.00     0.299 C 
HETATM   21  C10 UNL     1       4.711 -10.208  29.102  1.00  0.00     0.246 C 
HETATM   22  O8  UNL     1       4.746 -10.581  27.793  1.00  0.00    -0.338 OA
BRANCH  20  23
HETATM   23  O6  UNL     1       4.569  -8.048  30.176  1.00  0.00    -0.368 OA
ATOM     24  H6  UNL     1       5.288  -7.727  30.707  1.00  0.00     0.212 HD
ENDBRANCH  20  23
BRANCH  21  25
HETATM   25  S1  UNL     1       5.944 -11.075  30.115  1.00  0.00    -0.088 SA
BRANCH  25  26
HETATM   26  C11 UNL     1       7.176  -9.970  30.746  1.00  0.00     0.131 C 
HETATM   27  N1  UNL     1       8.129  -9.602  29.986  1.00  0.00    -0.392 N 
ATOM     28  H1  UNL     1       8.839  -8.965  30.348  1.00  0.00     0.159 HD
BRANCH  27  29
HETATM   29  C12 UNL     1       8.222 -10.057  28.651  1.00  0.00     0.145 C 
BRANCH  29  30
HETATM   30  C13 UNL     1       9.163  -9.189  27.811  1.00  0.00     0.183 C 
BRANCH  30  31
HETATM   31  O7  UNL     1      10.452  -9.556  28.161  1.00  0.00    -0.399 OA
ATOM     32  H7  UNL     1      10.885  -9.813  27.356  1.00  0.00     0.209 HD
ENDBRANCH  30  31
ENDBRANCH  29  30
ENDBRANCH  27  29
ENDBRANCH  25  26
ENDBRANCH  21  25
ENDBRANCH  15  18
ENDBRANCH   6  15
BRANCH   5  33
HETATM   33  O3  UNL     1       0.791  -8.969  24.784  1.00  0.00    -0.392 OA
ATOM     34  H3  UNL     1       0.915  -9.309  25.663  1.00  0.00     0.210 HD
ENDBRANCH   5  33
BRANCH   7  35
HETATM   35  O9  UNL     1       4.380  -7.928  24.962  1.00  0.00    -0.362 OA
ATOM     36  H9  UNL     1       4.706  -8.039  25.848  1.00  0.00     0.213 HD
ENDBRANCH   7  35
BRANCH   4  37
HETATM   37  O2  UNL     1       0.378  -9.337  22.466  1.00  0.00    -0.390 OA
ATOM     38  H2  UNL     1       0.006  -8.904  23.225  1.00  0.00     0.210 HD
ENDBRANCH   4  37
BRANCH  14  39
HETATM   39  O13 UNL     1       5.943  -8.423  22.915  1.00  0.00    -0.383 OA
ATOM     40  H13 UNL     1       6.422  -8.930  22.270  1.00  0.00     0.210 HD
ENDBRANCH  14  39
BRANCH   3  41
HETATM   41  O1  UNL     1       1.785  -7.997  21.002  1.00  0.00    -0.392 OA
ATOM     42  H1  UNL     1       1.122  -7.688  21.606  1.00  0.00     0.210 HD
ENDBRANCH   3  41
BRANCH   9  43
HETATM   43  C16 UNL     1       7.621 -10.686  24.670  1.00  0.00     0.202 C 
BRANCH  43  44
HETATM   44  O11 UNL     1       8.395 -11.782  24.318  1.00  0.00    -0.398 OA
ATOM     45  H11 UNL     1       9.332 -11.626  24.333  1.00  0.00     0.209 HD
ENDBRANCH  43  44
ENDBRANCH   9  43
BRANCH  11  46
HETATM   46  O12 UNL     1       6.393 -13.542  23.381  1.00  0.00    -0.290 OA
ATOM     47  H12 UNL     1       6.365 -14.459  23.133  1.00  0.00     0.244 HD
ENDBRANCH  11  46
TORSDOF 17
ENDMDL
MODEL 2
REMARK VINA RESULT: -8.738103418      1.306      1.478
REMARK  17 active torsions:
REMARK  status: ('A' for Active; 'I' for Inactive)
REMARK    1  A    between atoms: C3_3  and  O1_4 
REMARK    2  A    between atoms: C4_6  and  O2_7 
REMARK    3  A    between atoms: C5_9  and  O3_10 
REMARK    4  A    between atoms: C6_12  and  C7_13 
REMARK    5  A    between atoms: C7_13  and  O4_14 
REMARK    6  A    between atoms: C7_13  and  C8_16 
REMARK    7  A    between atoms: C9_18  and  O6_19 
REMARK    8  A    between atoms: C10_21  and  S1_22 
REMARK    9  A    between atoms: S1_22  and  C11_23 
REMARK   10  A    between atoms: N1_24  and  C12_26 
REMARK   11  A    between atoms: C12_26  and  C13_27 
REMARK   12  A    between atoms: C13_27  and  O7_28 
REMARK   13  A    between atoms: C14_31  and  O9_32 
REMARK   14  A    between atoms: C15_35  and  C16_36 
REMARK   15  A    between atoms: C16_36  and  O11_37 
REMARK   16  A    between atoms: N2_40  and  O12_42 
REMARK   17  A    between atoms: C19_45  and  O13_46 
ROOT
HETATM    1  C1  UNL     1       4.533  -7.869  20.997  1.00  0.00     0.016 C 
HETATM    2  C2  UNL     1       3.775  -8.255  22.293  1.00  0.00     0.053 C 
HETATM    3  C3  UNL     1       2.577  -8.993  21.795  1.00  0.00     0.156 C 
HETATM    4  C4  UNL     1       1.773  -9.664  22.849  1.00  0.00     0.176 C 
HETATM    5  C5  UNL     1       2.080  -9.148  24.243  1.00  0.00     0.161 C 
HETATM    6  C6  UNL     1       3.168  -9.899  24.913  1.00  0.00     0.116 C 
HETATM    7  C14 UNL     1       4.513  -9.308  24.486  1.00  0.00     0.203 C 
HETATM    8  O10 UNL     1       5.590  -9.868  25.122  1.00  0.00    -0.339 OA
HETATM    9  C15 UNL     1       6.221 -10.927  24.534  1.00  0.00     0.196 C 
HETATM   10  C17 UNL     1       5.716 -11.323  23.237  1.00  0.00     0.044 C 
HETATM   11  N2  UNL     1       5.873 -12.515  22.775  1.00  0.00    -0.275 N 
ATOM     12  H2  UNL     1       5.480 -12.686  21.850  1.00  0.00     0.193 HD
HETATM   13  C18 UNL     1       4.955 -10.416  22.338  1.00  0.00     0.101 C 
HETATM   14  C19 UNL     1       4.734  -9.140  23.051  1.00  0.00     0.125 C 
ENDROOT
BRANCH   6  15
HETATM   15  C7  UNL     1       3.124  -9.824  26.412  1.00  0.00     0.185 C 
BRANCH  15  16
HETATM   16  O4  UNL     1       2.525  -8.597  26.813  1.00  0.00    -0.390 OA
ATOM     17  H4  UNL     1       3.202  -7.968  27.031  1.00  0.00     0.210 HD
ENDBRANCH  15  16
BRANCH  15  18
HETATM   18  C8  UNL     1       4.490  -9.730  27.090  1.00  0.00     0.294 C 
HETATM   19  O5  UNL     1       4.533  -8.628  27.938  1.00  0.00    -0.326 OA
HETATM   20  C9  UNL     1       5.180  -9.053  29.094  1.00  0.00     0.299 C 
HETATM   21  C10 UNL     1       4.739 -10.481  29.156  1.00  0.00     0.246 C 
HETATM   22  O8  UNL     1       4.722 -10.867  27.850  1.00  0.00    -0.338 OA
BRANCH  20  23
HETATM   23  O6  UNL     1       4.885  -8.312  30.211  1.00  0.00    -0.368 OA
ATOM     24  H6  UNL     1       4.896  -8.807  31.022  1.00  0.00     0.212 HD
ENDBRANCH  20  23
BRANCH  21  25
HETATM   25  S1  UNL     1       5.849 -11.493  30.176  1.00  0.00    -0.088 SA
BRANCH  25  26
HETATM   26  C11 UNL     1       5.603 -11.204  31.906  1.00  0.00     0.131 C 
HETATM   27  N1  UNL     1       6.393 -10.419  32.524  1.00  0.00    -0.392 N 
ATOM     28  H1  UNL     1       6.253 -10.252  33.520  1.00  0.00     0.159 HD
BRANCH  27  29
HETATM   29  C12 UNL     1       7.460  -9.775  31.856  1.00  0.00     0.145 C 
BRANCH  29  30
HETATM   30  C13 UNL     1       7.767  -8.400  32.456  1.00  0.00     0.183 C 
BRANCH  30  31
HETATM   31  O7  UNL     1       7.419  -7.466  31.494  1.00  0.00    -0.399 OA
ATOM     32  H7  UNL     1       7.008  -7.949  30.787  1.00  0.00     0.209 HD
ENDBRANCH  30  31
ENDBRANCH  29  30
ENDBRANCH  27  29
ENDBRANCH  25  26
ENDBRANCH  21  25
ENDBRANCH  15  18
ENDBRANCH   6  15
BRANCH   5  33
HETATM   33  O3  UNL     1       0.863  -9.050  24.871  1.00  0.00    -0.392 OA
ATOM     34  H3  UNL     1       1.033  -8.578  25.678  1.00  0.00     0.210 HD
ENDBRANCH   5  33
BRANCH   7  35
HETATM   35  O9  UNL     1       4.446  -7.982  25.018  1.00  0.00    -0.362 OA
ATOM     36  H9  UNL     1       4.978  -7.490  24.404  1.00  0.00     0.213 HD
ENDBRANCH   7  35
BRANCH   4  37
HETATM   37  O2  UNL     1       0.426  -9.397  22.554  1.00  0.00    -0.390 OA
ATOM     38  H2  UNL     1       0.162  -8.683  23.122  1.00  0.00     0.210 HD
ENDBRANCH   4  37
BRANCH  14  39
HETATM   39  O13 UNL     1       5.988  -8.441  22.947  1.00  0.00    -0.383 OA
ATOM     40  H13 UNL     1       6.428  -8.656  23.761  1.00  0.00     0.210 HD
ENDBRANCH  14  39
BRANCH   3  41
HETATM   41  O1  UNL     1       1.804  -8.029  21.088  1.00  0.00    -0.392 OA
ATOM     42  H1  UNL     1       1.199  -8.531  20.556  1.00  0.00     0.210 HD
ENDBRANCH   3  41
BRANCH   9  43
HETATM   43  C16 UNL     1       7.705 -10.708  24.657  1.00  0.00     0.202 C 
BRANCH  43  44
HETATM   44  O11 UNL     1       8.471 -11.860  24.557  1.00  0.00    -0.398 OA
ATOM     45  H11 UNL     1       8.458 -12.414  25.330  1.00  0.00     0.209 HD
ENDBRANCH  43  44
ENDBRANCH   9  43
BRANCH  11  46
HETATM   46  O12 UNL     1       6.486 -13.561  23.351  1.00  0.00    -0.290 OA
ATOM     47  H12 UNL     1       6.508 -13.801  24.270  1.00  0.00     0.244 HD
ENDBRANCH  11  46
TORSDOF 17
ENDMDL
MODEL 3
REMARK VINA RESULT: -8.680950512      1.865      2.627
REMARK  17 active torsions:
REMARK  status: ('A' for Active; 'I' for Inactive)
REMARK    1  A    between atoms: C3_3  and  O1_4 
REMARK    2  A    between atoms: C4_6  and  O2_7 
REMARK    3  A    between atoms: C5_9  and  O3_10 
REMARK    4  A    between atoms: C6_12  and  C7_13 
REMARK    5  A    between atoms: C7_13  and  O4_14 
REMARK    6  A    between atoms: C7_13  and  C8_16 
REMARK    7  A    between atoms: C9_18  and  O6_19 
REMARK    8  A    between atoms: C10_21  and  S1_22 
REMARK    9  A    between atoms: S1_22  and  C11_23 
REMARK   10  A    between atoms: N1_24  and  C12_26 
REMARK   11  A    between atoms: C12_26  and  C13_27 
REMARK   12  A    between atoms: C13_27  and  O7_28 
REMARK   13  A    between atoms: C14_31  and  O9_32 
REMARK   14  A    between atoms: C15_35  and  C16_36 
REMARK   15  A    between atoms: C16_36  and  O11_37 
REMARK   16  A    between atoms: N2_40  and  O12_42 
REMARK   17  A    between atoms: C19_45  and  O13_46 
ROOT
HETATM    1  C1  UNL     1       4.551  -7.859  21.014  1.00  0.00     0.016 C 
HETATM    2  C2  UNL     1       3.800  -8.250  22.313  1.00  0.00     0.053 C 
HETATM    3  C3  UNL     1       2.596  -8.980  21.819  1.00  0.00     0.156 C 
HETATM    4  C4  UNL     1       1.797  -9.653  22.874  1.00  0.00     0.176 C 
HETATM    5  C5  UNL     1       2.115  -9.146  24.269  1.00  0.00     0.161 C 
HETATM    6  C6  UNL     1       3.204  -9.905  24.928  1.00  0.00     0.116 C 
HETATM    7  C14 UNL     1       4.549  -9.317  24.495  1.00  0.00     0.203 C 
HETATM    8  O10 UNL     1       5.628  -9.885  25.121  1.00  0.00    -0.339 OA
HETATM    9  C15 UNL     1       6.250 -10.943  24.523  1.00  0.00     0.196 C 
HETATM   10  C17 UNL     1       5.735 -11.330  23.228  1.00  0.00     0.044 C 
HETATM   11  N2  UNL     1       5.885 -12.520  22.758  1.00  0.00    -0.275 N 
ATOM     12  H2  UNL     1       5.485 -12.685  21.834  1.00  0.00     0.193 HD
HETATM   13  C18 UNL     1       4.972 -10.415  22.339  1.00  0.00     0.101 C 
HETATM   14  C19 UNL     1       4.761  -9.143  23.059  1.00  0.00     0.125 C 
ENDROOT
BRANCH   6  15
HETATM   15  C7  UNL     1       3.171  -9.839  26.428  1.00  0.00     0.185 C 
BRANCH  15  16
HETATM   16  O4  UNL     1       2.607  -8.598  26.839  1.00  0.00    -0.390 OA
ATOM     17  H4  UNL     1       2.553  -8.571  27.788  1.00  0.00     0.210 HD
ENDBRANCH  15  16
BRANCH  15  18
HETATM   18  C8  UNL     1       4.543  -9.785  27.098  1.00  0.00     0.294 C 
HETATM   19  O5  UNL     1       4.601  -8.724  27.996  1.00  0.00    -0.326 OA
HETATM   20  C9  UNL     1       5.253  -9.206  29.126  1.00  0.00     0.299 C 
HETATM   21  C10 UNL     1       4.801 -10.632  29.126  1.00  0.00     0.246 C 
HETATM   22  O8  UNL     1       4.771 -10.958  27.804  1.00  0.00    -0.338 OA
BRANCH  20  23
HETATM   23  O6  UNL     1       4.971  -8.515  30.278  1.00  0.00    -0.368 OA
ATOM     24  H6  UNL     1       5.566  -7.795  30.456  1.00  0.00     0.212 HD
ENDBRANCH  20  23
BRANCH  21  25
HETATM   25  S1  UNL     1       5.910 -11.698  30.090  1.00  0.00    -0.088 SA
BRANCH  25  26
HETATM   26  C11 UNL     1       6.514 -13.061  29.134  1.00  0.00     0.131 C 
HETATM   27  N1  UNL     1       5.876 -14.163  29.149  1.00  0.00    -0.392 N 
ATOM     28  H1  UNL     1       6.222 -14.948  28.599  1.00  0.00     0.159 HD
BRANCH  27  29
HETATM   29  C12 UNL     1       4.697 -14.319  29.914  1.00  0.00     0.145 C 
BRANCH  29  30
HETATM   30  C13 UNL     1       4.196 -15.766  29.910  1.00  0.00     0.183 C 
BRANCH  30  31
HETATM   31  O7  UNL     1       2.978 -15.757  29.251  1.00  0.00    -0.399 OA
ATOM     32  H7  UNL     1       2.459 -16.451  29.638  1.00  0.00     0.209 HD
ENDBRANCH  30  31
ENDBRANCH  29  30
ENDBRANCH  27  29
ENDBRANCH  25  26
ENDBRANCH  21  25
ENDBRANCH  15  18
ENDBRANCH   6  15
BRANCH   5  33
HETATM   33  O3  UNL     1       0.902  -9.047  24.906  1.00  0.00    -0.392 OA
ATOM     34  H3  UNL     1       0.969  -8.276  25.458  1.00  0.00     0.210 HD
ENDBRANCH   5  33
BRANCH   7  35
HETATM   35  O9  UNL     1       4.490  -7.994  25.035  1.00  0.00    -0.362 OA
ATOM     36  H9  UNL     1       3.924  -8.107  25.790  1.00  0.00     0.213 HD
ENDBRANCH   7  35
BRANCH   4  37
HETATM   37  O2  UNL     1       0.448  -9.380  22.590  1.00  0.00    -0.390 OA
ATOM     38  H2  UNL     1      -0.051 -10.123  22.907  1.00  0.00     0.210 HD
ENDBRANCH   4  37
BRANCH  14  39
HETATM   39  O13 UNL     1       6.016  -8.447  22.951  1.00  0.00    -0.383 OA
ATOM     40  H13 UNL     1       6.587  -9.085  22.538  1.00  0.00     0.210 HD
ENDBRANCH  14  39
BRANCH   3  41
HETATM   41  O1  UNL     1       1.823  -8.009  21.122  1.00  0.00    -0.392 OA
ATOM     42  H1  UNL     1       1.405  -7.487  21.797  1.00  0.00     0.210 HD
ENDBRANCH   3  41
BRANCH   9  43
HETATM   43  C16 UNL     1       7.737 -10.731  24.637  1.00  0.00     0.202 C 
BRANCH  43  44
HETATM   44  O11 UNL     1       8.493 -11.893  24.600  1.00  0.00    -0.398 OA
ATOM     45  H11 UNL     1       9.399 -11.769  24.341  1.00  0.00     0.209 HD
ENDBRANCH  43  44
ENDBRANCH   9  43
BRANCH  11  46
HETATM   46  O12 UNL     1       6.497 -13.571  23.324  1.00  0.00    -0.290 OA
ATOM     47  H12 UNL     1       6.247 -14.488  23.296  1.00  0.00     0.244 HD
ENDBRANCH  11  46
TORSDOF 17
ENDMDL
MODEL 4
REMARK VINA RESULT: -8.475590156      3.205      8.088
REMARK  17 active torsions:
REMARK  status: ('A' for Active; 'I' for Inactive)
REMARK    1  A    between atoms: C3_3  and  O1_4 
REMARK    2  A    between atoms: C4_6  and  O2_7 
REMARK    3  A    between atoms: C5_9  and  O3_10 
REMARK    4  A    between atoms: C6_12  and  C7_13 
REMARK    5  A    between atoms: C7_13  and  O4_14 
REMARK    6  A    between atoms: C7_13  and  C8_16 
REMARK    7  A    between atoms: C9_18  and  O6_19 
REMARK    8  A    between atoms: C10_21  and  S1_22 
REMARK    9  A    between atoms: S1_22  and  C11_23 
REMARK   10  A    between atoms: N1_24  and  C12_26 
REMARK   11  A    between atoms: C12_26  and  C13_27 
REMARK   12  A    between atoms: C13_27  and  O7_28 
REMARK   13  A    between atoms: C14_31  and  O9_32 
REMARK   14  A    between atoms: C15_35  and  C16_36 
REMARK   15  A    between atoms: C16_36  and  O11_37 
REMARK   16  A    between atoms: N2_40  and  O12_42 
REMARK   17  A    between atoms: C19_45  and  O13_46 
ROOT
HETATM    1  C1  UNL     1       5.570  -8.612  32.923  1.00  0.00     0.016 C 
HETATM    2  C2  UNL     1       5.940  -9.172  31.525  1.00  0.00     0.053 C 
HETATM    3  C3  UNL     1       7.401  -8.890  31.408  1.00  0.00     0.156 C 
HETATM    4  C4  UNL     1       8.066  -9.515  30.235  1.00  0.00     0.176 C 
HETATM    5  C5  UNL     1       7.082  -9.976  29.175  1.00  0.00     0.161 C 
HETATM    6  C6  UNL     1       6.626 -11.372  29.375  1.00  0.00     0.116 C 
HETATM    7  C14 UNL     1       5.449 -11.373  30.352  1.00  0.00     0.203 C 
HETATM    8  O10 UNL     1       4.885 -12.608  30.538  1.00  0.00    -0.339 OA
HETATM    9  C15 UNL     1       5.337 -13.388  31.564  1.00  0.00     0.196 C 
HETATM   10  C17 UNL     1       6.347 -12.794  32.412  1.00  0.00     0.044 C 
HETATM   11  N2  UNL     1       7.170 -13.506  33.100  1.00  0.00    -0.275 N 
ATOM     12  H2  UNL     1       7.839 -12.986  33.667  1.00  0.00     0.193 HD
HETATM   13  C18 UNL     1       6.547 -11.327  32.550  1.00  0.00     0.101 C 
HETATM   14  C19 UNL     1       5.634 -10.647  31.608  1.00  0.00     0.125 C 
ENDROOT
BRANCH   6  15
HETATM   15  C7  UNL     1       6.141 -12.038  28.120  1.00  0.00     0.185 C 
BRANCH  15  16
HETATM   16  O4  UNL     1       6.490 -13.417  28.144  1.00  0.00    -0.390 OA
ATOM     17  H4  UNL     1       6.950 -13.645  27.344  1.00  0.00     0.210 HD
ENDBRANCH  15  16
BRANCH  15  18
HETATM   18  C8  UNL     1       6.832 -11.573  26.839  1.00  0.00     0.294 C 
HETATM   19  O5  UNL     1       7.261 -12.669  26.097  1.00  0.00    -0.326 OA
HETATM   20  C9  UNL     1       6.960 -12.381  24.769  1.00  0.00     0.299 C 
HETATM   21  C10 UNL     1       5.711 -11.574  24.931  1.00  0.00     0.246 C 
HETATM   22  O8  UNL     1       5.944 -10.846  26.058  1.00  0.00    -0.338 OA
BRANCH  20  23
HETATM   23  O6  UNL     1       6.830 -13.487  23.967  1.00  0.00    -0.368 OA
ATOM     24  H6  UNL     1       7.408 -13.493  23.213  1.00  0.00     0.212 HD
ENDBRANCH  20  23
BRANCH  21  25
HETATM   25  S1  UNL     1       5.377 -10.537  23.479  1.00  0.00    -0.088 SA
BRANCH  25  26
HETATM   26  C11 UNL     1       5.550  -8.812  23.844  1.00  0.00     0.131 C 
HETATM   27  N1  UNL     1       4.587  -8.197  24.405  1.00  0.00    -0.392 N 
ATOM     28  H1  UNL     1       4.684  -7.204  24.617  1.00  0.00     0.159 HD
BRANCH  27  29
HETATM   29  C12 UNL     1       3.385  -8.862  24.741  1.00  0.00     0.145 C 
BRANCH  29  30
HETATM   30  C13 UNL     1       2.977  -8.612  26.196  1.00  0.00     0.183 C 
BRANCH  30  31
HETATM   31  O7  UNL     1       3.693  -9.514  26.965  1.00  0.00    -0.399 OA
ATOM     32  H7  UNL     1       3.069 -10.159  27.274  1.00  0.00     0.209 HD
ENDBRANCH  30  31
ENDBRANCH  29  30
ENDBRANCH  27  29
ENDBRANCH  25  26
ENDBRANCH  21  25
ENDBRANCH  15  18
ENDBRANCH   6  15
BRANCH   5  33
HETATM   33  O3  UNL     1       7.654  -9.634  27.975  1.00  0.00    -0.392 OA
ATOM     34  H3  UNL     1       7.021  -9.889  27.312  1.00  0.00     0.210 HD
ENDBRANCH   5  33
BRANCH   7  35
HETATM   35  O9  UNL     1       4.454 -10.640  29.632  1.00  0.00    -0.362 OA
ATOM     36  H9  UNL     1       4.280 -11.210  28.892  1.00  0.00     0.213 HD
ENDBRANCH   7  35
BRANCH   4  37
HETATM   37  O2  UNL     1       8.902  -8.532  29.680  1.00  0.00    -0.390 OA
ATOM     38  H2  UNL     1       8.443  -8.182  28.925  1.00  0.00     0.210 HD
ENDBRANCH   4  37
BRANCH  14  39
HETATM   39  O13 UNL     1       4.347 -10.686  32.252  1.00  0.00    -0.383 OA
ATOM     40  H13 UNL     1       4.533 -11.092  33.091  1.00  0.00     0.210 HD
ENDBRANCH  14  39
BRANCH   3  41
HETATM   41  O1  UNL     1       7.512  -7.471  31.372  1.00  0.00    -0.392 OA
ATOM     42  H1  UNL     1       7.185  -7.170  32.211  1.00  0.00     0.210 HD
ENDBRANCH   3  41
BRANCH   9  43
HETATM   43  C16 UNL     1       4.139 -13.998  32.243  1.00  0.00     0.202 C 
BRANCH  43  44
HETATM   44  O11 UNL     1       3.481 -13.154  33.125  1.00  0.00    -0.398 OA
ATOM     45  H11 UNL     1       3.110 -13.587  33.886  1.00  0.00     0.209 HD
ENDBRANCH  43  44
ENDBRANCH   9  43
BRANCH  11  46
HETATM   46  O12 UNL     1       7.263 -14.843  33.169  1.00  0.00    -0.290 OA
ATOM     47  H12 UNL     1       7.600 -15.447  32.518  1.00  0.00     0.244 HD
ENDBRANCH  11  46
TORSDOF 17
ENDMDL
MODEL 5
REMARK VINA RESULT: -8.297229798      2.672      4.857
REMARK  17 active torsions:
REMARK  status: ('A' for Active; 'I' for Inactive)
REMARK    1  A    between atoms: C3_3  and  O1_4 
REMARK    2  A    between atoms: C4_6  and  O2_7 
REMARK    3  A    between atoms: C5_9  and  O3_10 
REMARK    4  A    between atoms: C6_12  and  C7_13 
REMARK    5  A    between atoms: C7_13  and  O4_14 
REMARK    6  A    between atoms: C7_13  and  C8_16 
REMARK    7  A    between atoms: C9_18  and  O6_19 
REMARK    8  A    between atoms: C10_21  and  S1_22 
REMARK    9  A    between atoms: S1_22  and  C11_23 
REMARK   10  A    between atoms: N1_24  and  C12_26 
REMARK   11  A    between atoms: C12_26  and  C13_27 
REMARK   12  A    between atoms: C13_27  and  O7_28 
REMARK   13  A    between atoms: C14_31  and  O9_32 
REMARK   14  A    between atoms: C15_35  and  C16_36 
REMARK   15  A    between atoms: C16_36  and  O11_37 
REMARK   16  A    between atoms: N2_40  and  O12_42 
REMARK   17  A    between atoms: C19_45  and  O13_46 
ROOT
HETATM    1  C1  UNL     1       4.142 -11.806  22.360  1.00  0.00     0.016 C 
HETATM    2  C2  UNL     1       4.715 -11.511  23.771  1.00  0.00     0.053 C 
HETATM    3  C3  UNL     1       6.109 -11.054  23.497  1.00  0.00     0.156 C 
HETATM    4  C4  UNL     1       6.827 -10.502  24.674  1.00  0.00     0.176 C 
HETATM    5  C5  UNL     1       6.172 -10.872  25.993  1.00  0.00     0.161 C 
HETATM    6  C6  UNL     1       5.158  -9.886  26.434  1.00  0.00     0.116 C 
HETATM    7  C14 UNL     1       3.822 -10.219  25.769  1.00  0.00     0.203 C 
HETATM    8  O10 UNL     1       2.785  -9.423  26.181  1.00  0.00    -0.339 OA
HETATM    9  C15 UNL     1       2.504  -8.291  25.469  1.00  0.00     0.196 C 
HETATM   10  C17 UNL     1       3.307  -8.073  24.286  1.00  0.00     0.044 C 
HETATM   11  N2  UNL     1       3.485  -6.900  23.786  1.00  0.00    -0.275 N 
ATOM     12  H2  UNL     1       4.066  -6.859  22.949  1.00  0.00     0.193 HD
HETATM   13  C18 UNL     1       4.016  -9.160  23.561  1.00  0.00     0.101 C 
HETATM   14  C19 UNL     1       3.837 -10.414  24.320  1.00  0.00     0.125 C 
ENDROOT
BRANCH   6  15
HETATM   15  C7  UNL     1       4.912  -9.888  27.915  1.00  0.00     0.185 C 
BRANCH  15  16
HETATM   16  O4  UNL     1       4.347  -8.643  28.309  1.00  0.00    -0.390 OA
ATOM     17  H4  UNL     1       4.115  -8.674  29.229  1.00  0.00     0.210 HD
ENDBRANCH  15  16
BRANCH  15  18
HETATM   18  C8  UNL     1       6.174  -9.933  28.775  1.00  0.00     0.294 C 
HETATM   19  O5  UNL     1       6.800  -8.691  28.779  1.00  0.00    -0.326 OA
HETATM   20  C9  UNL     1       7.203  -8.463  30.091  1.00  0.00     0.299 C 
HETATM   21  C10 UNL     1       6.113  -9.156  30.846  1.00  0.00     0.246 C 
HETATM   22  O8  UNL     1       5.844 -10.252  30.085  1.00  0.00    -0.338 OA
BRANCH  20  23
HETATM   23  O6  UNL     1       7.370  -7.138  30.408  1.00  0.00    -0.368 OA
ATOM     24  H6  UNL     1       8.228  -6.791  30.196  1.00  0.00     0.212 HD
ENDBRANCH  20  23
BRANCH  21  25
HETATM   25  S1  UNL     1       6.619  -9.578  32.538  1.00  0.00    -0.088 SA
BRANCH  25  26
HETATM   26  C11 UNL     1       6.290  -8.260  33.674  1.00  0.00     0.131 C 
HETATM   27  N1  UNL     1       7.267  -7.626  34.190  1.00  0.00    -0.392 N 
ATOM     28  H1  UNL     1       7.080  -6.866  34.844  1.00  0.00     0.159 HD
BRANCH  27  29
HETATM   29  C12 UNL     1       8.605  -7.953  33.872  1.00  0.00     0.145 C 
BRANCH  29  30
HETATM   30  C13 UNL     1       9.607  -7.083  34.638  1.00  0.00     0.183 C 
BRANCH  30  31
HETATM   31  O7  UNL     1      10.865  -7.579  34.340  1.00  0.00    -0.399 OA
ATOM     32  H7  UNL     1      11.483  -7.069  34.850  1.00  0.00     0.209 HD
ENDBRANCH  30  31
ENDBRANCH  29  30
ENDBRANCH  27  29
ENDBRANCH  25  26
ENDBRANCH  21  25
ENDBRANCH  15  18
ENDBRANCH   6  15
BRANCH   5  33
HETATM   33  O3  UNL     1       7.208 -11.177  26.841  1.00  0.00    -0.392 OA
ATOM     34  H3  UNL     1       7.200 -12.125  26.918  1.00  0.00     0.210 HD
ENDBRANCH   5  33
BRANCH   7  35
HETATM   35  O9  UNL     1       3.517 -11.502  26.323  1.00  0.00    -0.362 OA
ATOM     36  H9  UNL     1       2.902 -11.283  27.014  1.00  0.00     0.213 HD
ENDBRANCH   7  35
BRANCH   4  37
HETATM   37  O2  UNL     1       8.122 -11.048  24.644  1.00  0.00    -0.390 OA
ATOM     38  H2  UNL     1       8.408 -11.116  25.547  1.00  0.00     0.210 HD
ENDBRANCH   4  37
BRANCH  14  39
HETATM   39  O13 UNL     1       2.506 -10.855  23.991  1.00  0.00    -0.383 OA
ATOM     40  H13 UNL     1       2.082 -10.927  24.839  1.00  0.00     0.210 HD
ENDBRANCH  14  39
BRANCH   3  41
HETATM   41  O1  UNL     1       6.782 -12.188  22.963  1.00  0.00    -0.392 OA
ATOM     42  H1  UNL     1       7.678 -12.120  23.273  1.00  0.00     0.210 HD
ENDBRANCH   3  41
BRANCH   9  43
HETATM   43  C16 UNL     1       1.009  -8.204  25.313  1.00  0.00     0.202 C 
BRANCH  43  44
HETATM   44  O11 UNL     1       0.540  -8.513  24.044  1.00  0.00    -0.398 OA
ATOM     45  H11 UNL     1      -0.128  -9.189  24.022  1.00  0.00     0.209 HD
ENDBRANCH  43  44
ENDBRANCH   9  43
BRANCH  11  46
HETATM   46  O12 UNL     1       3.006  -5.724  24.220  1.00  0.00    -0.290 OA
ATOM     47  H12 UNL     1       3.397  -5.117  24.838  1.00  0.00     0.244 HD
ENDBRANCH  11  46
TORSDOF 17
ENDMDL
