MODEL 1
REMARK VINA RESULT: -5.505858596      0.000      0.000
REMARK  10 active torsions:
REMARK  status: ('A' for Active; 'I' for Inactive)
REMARK    1  A    between atoms: C2_2  and  O1_3 
REMARK    2  A    between atoms: O1_3  and  C3_4 
REMARK    3  A    between atoms: C3_4  and  C4_6 
REMARK    4  A    between atoms: C4_6  and  C6_8 
REMARK    5  A    between atoms: C4_6  and  N3_19 
REMARK    6  A    between atoms: C8_10  and  O3_11 
REMARK    7  A    between atoms: O3_11  and  C9_12 
REMARK    8  A    between atoms: N3_19  and  O4_20 
REMARK       I    between atoms: N3_19  and  C13_22 
REMARK    9  A    between atoms: C13_22  and  O6_24 
REMARK   10  A    between atoms: O6_24  and  C14_25 
ROOT
HETATM    1  C4  UNL     1     -33.551  76.695   9.423  1.00  0.00     0.192 C 
HETATM    2  C5  UNL     1     -33.426  78.162   9.812  1.00  0.00     0.059 C 
ENDROOT
BRANCH   1   3
HETATM    3  C3  UNL     1     -33.135  75.823  10.534  1.00  0.00     0.296 C 
HETATM    4  O2  UNL     1     -33.135  74.565  10.433  1.00  0.00    -0.262 OA
BRANCH   3   5
HETATM    5  O1  UNL     1     -32.726  76.367  11.746  1.00  0.00    -0.320 OA
BRANCH   5   6
HETATM    6  C2  UNL     1     -32.434  75.515  12.843  1.00  0.00     0.174 C 
HETATM    7  C1  UNL     1     -31.121  75.943  13.441  1.00  0.00     0.034 C 
ENDBRANCH   5   6
ENDBRANCH   3   5
ENDBRANCH   1   3
BRANCH   1   8
HETATM    8  C6  UNL     1     -32.665  76.484   8.222  1.00  0.00     0.072 A 
HETATM    9  C7  UNL     1     -32.772  75.395   7.351  1.00  0.00     0.087 A 
HETATM   10  C8  UNL     1     -31.818  75.584   6.369  1.00  0.00     0.159 A 
HETATM   11  N1  UNL     1     -31.214  76.704   6.664  1.00  0.00    -0.278 N 
HETATM   12  N2  UNL     1     -31.695  77.282   7.780  1.00  0.00    -0.296 N 
ATOM     13  H1  UNL     1     -30.456  77.098   6.107  1.00  0.00     0.189 HD
HETATM   14  C12 UNL     1     -31.175  78.558   8.300  1.00  0.00     0.177 C 
BRANCH  10  15
HETATM   15  O3  UNL     1     -31.618  74.688   5.302  1.00  0.00    -0.330 OA
BRANCH  15  16
HETATM   16  C9  UNL     1     -30.557  73.764   5.324  1.00  0.00     0.122 C 
HETATM   17  C10 UNL     1     -30.136  73.509   3.894  1.00  0.00     0.040 C 
HETATM   18  C11 UNL     1     -30.888  72.493   6.057  1.00  0.00     0.040 C 
ENDBRANCH  15  16
ENDBRANCH  10  15
ENDBRANCH   1   8
BRANCH   1  19
HETATM   19  N3  UNL     1     -34.909  76.385   9.057  1.00  0.00    -0.178 N 
HETATM   20  C13 UNL     1     -35.612  77.063   8.007  1.00  0.00     0.389 C 
HETATM   21  O5  UNL     1     -36.775  76.747   7.709  1.00  0.00    -0.236 OA
BRANCH  19  22
HETATM   22  O4  UNL     1     -35.587  75.423   9.703  1.00  0.00    -0.281 OA
ATOM     23  H4  UNL     1     -36.534  75.458   9.765  1.00  0.00     0.245 HD
ENDBRANCH  19  22
BRANCH  20  24
HETATM   24  O6  UNL     1     -34.980  78.067   7.338  1.00  0.00    -0.292 OA
BRANCH  24  25
HETATM   25  C14 UNL     1     -35.505  79.370   7.166  1.00  0.00     0.061 C 
HETATM   26  C15 UNL     1     -34.323  80.292   6.945  1.00  0.00     0.046 C 
HETATM   27  C16 UNL     1     -36.427  79.490   5.996  1.00  0.00     0.046 C 
HETATM   28  C17 UNL     1     -36.224  79.861   8.401  1.00  0.00     0.046 C 
ENDBRANCH  24  25
ENDBRANCH  20  24
ENDBRANCH   1  19
TORSDOF 10
ENDMDL
MODEL 2
REMARK VINA RESULT: -5.395896314      2.688      5.652
REMARK  10 active torsions:
REMARK  status: ('A' for Active; 'I' for Inactive)
REMARK    1  A    between atoms: C2_2  and  O1_3 
REMARK    2  A    between atoms: O1_3  and  C3_4 
REMARK    3  A    between atoms: C3_4  and  C4_6 
REMARK    4  A    between atoms: C4_6  and  C6_8 
REMARK    5  A    between atoms: C4_6  and  N3_19 
REMARK    6  A    between atoms: C8_10  and  O3_11 
REMARK    7  A    between atoms: O3_11  and  C9_12 
REMARK    8  A    between atoms: N3_19  and  O4_20 
REMARK       I    between atoms: N3_19  and  C13_22 
REMARK    9  A    between atoms: C13_22  and  O6_24 
REMARK   10  A    between atoms: O6_24  and  C14_25 
ROOT
HETATM    1  C4  UNL     1     -32.076  78.814   8.466  1.00  0.00     0.192 C 
HETATM    2  C5  UNL     1     -32.055  78.402   9.932  1.00  0.00     0.059 C 
ENDROOT
BRANCH   1   3
HETATM    3  C3  UNL     1     -33.265  79.629   8.171  1.00  0.00     0.296 C 
HETATM    4  O2  UNL     1     -34.024  80.061   9.082  1.00  0.00    -0.262 OA
BRANCH   3   5
HETATM    5  O1  UNL     1     -33.594  79.952   6.859  1.00  0.00    -0.320 OA
BRANCH   5   6
HETATM    6  C2  UNL     1     -34.349  81.123   6.586  1.00  0.00     0.174 C 
HETATM    7  C1  UNL     1     -35.600  80.720   5.852  1.00  0.00     0.034 C 
ENDBRANCH   5   6
ENDBRANCH   3   5
ENDBRANCH   1   3
BRANCH   1   8
HETATM    8  C6  UNL     1     -32.088  77.544   7.654  1.00  0.00     0.072 A 
HETATM    9  C7  UNL     1     -31.018  77.108   6.866  1.00  0.00     0.087 A 
HETATM   10  C8  UNL     1     -31.403  75.898   6.320  1.00  0.00     0.159 A 
HETATM   11  N1  UNL     1     -32.607  75.666   6.770  1.00  0.00    -0.278 N 
HETATM   12  N2  UNL     1     -33.061  76.638   7.582  1.00  0.00    -0.296 N 
ATOM     13  H1  UNL     1     -33.147  74.834   6.530  1.00  0.00     0.189 HD
HETATM   14  C12 UNL     1     -34.389  76.587   8.216  1.00  0.00     0.177 C 
BRANCH  10  15
HETATM   15  O3  UNL     1     -30.584  75.142   5.460  1.00  0.00    -0.330 OA
BRANCH  15  16
HETATM   16  C9  UNL     1     -31.011  73.896   4.967  1.00  0.00     0.122 C 
HETATM   17  C10 UNL     1     -30.924  72.896   6.098  1.00  0.00     0.040 C 
HETATM   18  C11 UNL     1     -30.254  73.445   3.748  1.00  0.00     0.040 C 
ENDBRANCH  15  16
ENDBRANCH  10  15
ENDBRANCH   1   8
BRANCH   1  19
HETATM   19  N3  UNL     1     -30.890  79.563   8.136  1.00  0.00    -0.178 N 
HETATM   20  C13 UNL     1     -29.666  79.458   8.874  1.00  0.00     0.389 C 
HETATM   21  O5  UNL     1     -28.661  80.105   8.541  1.00  0.00    -0.236 OA
BRANCH  19  22
HETATM   22  O4  UNL     1     -30.888  80.412   7.096  1.00  0.00    -0.281 OA
ATOM     23  H4  UNL     1     -30.885  81.351   7.239  1.00  0.00     0.245 HD
ENDBRANCH  19  22
BRANCH  20  24
HETATM   24  O6  UNL     1     -29.623  78.632   9.957  1.00  0.00    -0.292 OA
BRANCH  24  25
HETATM   25  C14 UNL     1     -29.016  78.961  11.192  1.00  0.00     0.061 C 
HETATM   26  C15 UNL     1     -29.275  77.799  12.130  1.00  0.00     0.046 C 
HETATM   27  C16 UNL     1     -27.539  79.169  11.092  1.00  0.00     0.046 C 
HETATM   28  C17 UNL     1     -29.635  80.186  11.823  1.00  0.00     0.046 C 
ENDBRANCH  24  25
ENDBRANCH  20  24
ENDBRANCH   1  19
TORSDOF 10
ENDMDL
MODEL 3
REMARK VINA RESULT: -5.356993106      2.775      5.891
REMARK  10 active torsions:
REMARK  status: ('A' for Active; 'I' for Inactive)
REMARK    1  A    between atoms: C2_2  and  O1_3 
REMARK    2  A    between atoms: O1_3  and  C3_4 
REMARK    3  A    between atoms: C3_4  and  C4_6 
REMARK    4  A    between atoms: C4_6  and  C6_8 
REMARK    5  A    between atoms: C4_6  and  N3_19 
REMARK    6  A    between atoms: C8_10  and  O3_11 
REMARK    7  A    between atoms: O3_11  and  C9_12 
REMARK    8  A    between atoms: N3_19  and  O4_20 
REMARK       I    between atoms: N3_19  and  C13_22 
REMARK    9  A    between atoms: C13_22  and  O6_24 
REMARK   10  A    between atoms: O6_24  and  C14_25 
ROOT
HETATM    1  C4  UNL     1     -31.059  79.527   8.803  1.00  0.00     0.192 C 
HETATM    2  C5  UNL     1     -31.885  80.042   9.975  1.00  0.00     0.059 C 
ENDROOT
BRANCH   1   3
HETATM    3  C3  UNL     1     -30.954  80.550   7.750  1.00  0.00     0.296 C 
HETATM    4  O2  UNL     1     -30.436  81.681   7.964  1.00  0.00    -0.262 OA
BRANCH   3   5
HETATM    5  O1  UNL     1     -31.430  80.298   6.468  1.00  0.00    -0.320 OA
BRANCH   5   6
HETATM    6  C2  UNL     1     -32.344  81.199   5.862  1.00  0.00     0.174 C 
HETATM    7  C1  UNL     1     -33.713  80.944   6.435  1.00  0.00     0.034 C 
ENDBRANCH   5   6
ENDBRANCH   3   5
ENDBRANCH   1   3
BRANCH   1   8
HETATM    8  C6  UNL     1     -31.759  78.298   8.281  1.00  0.00     0.072 A 
HETATM    9  C7  UNL     1     -31.304  77.538   7.199  1.00  0.00     0.087 A 
HETATM   10  C8  UNL     1     -32.190  76.485   7.061  1.00  0.00     0.159 A 
HETATM   11  N1  UNL     1     -33.083  76.640   8.001  1.00  0.00    -0.278 N 
HETATM   12  N2  UNL     1     -32.860  77.726   8.764  1.00  0.00    -0.296 N 
ATOM     13  H1  UNL     1     -33.868  76.004   8.142  1.00  0.00     0.189 HD
HETATM   14  C12 UNL     1     -33.732  78.096   9.892  1.00  0.00     0.177 C 
BRANCH  10  15
HETATM   15  O3  UNL     1     -32.063  75.494   6.070  1.00  0.00    -0.330 OA
BRANCH  15  16
HETATM   16  C9  UNL     1     -31.198  74.399   6.251  1.00  0.00     0.122 C 
HETATM   17  C10 UNL     1     -30.814  73.882   4.883  1.00  0.00     0.040 C 
HETATM   18  C11 UNL     1     -31.776  73.321   7.126  1.00  0.00     0.040 C 
ENDBRANCH  15  16
ENDBRANCH  10  15
ENDBRANCH   1   8
BRANCH   1  19
HETATM   19  N3  UNL     1     -29.738  79.157   9.242  1.00  0.00    -0.178 N 
HETATM   20  C13 UNL     1     -29.483  78.486  10.483  1.00  0.00     0.389 C 
HETATM   21  O5  UNL     1     -28.330  78.165  10.811  1.00  0.00    -0.236 OA
BRANCH  19  22
HETATM   22  O4  UNL     1     -28.665  79.435   8.484  1.00  0.00    -0.281 OA
ATOM     23  H4  UNL     1     -27.792  79.420   8.859  1.00  0.00     0.245 HD
ENDBRANCH  19  22
BRANCH  20  24
HETATM   24  O6  UNL     1     -30.534  78.206  11.303  1.00  0.00    -0.292 OA
BRANCH  24  25
HETATM   25  C14 UNL     1     -30.473  78.218  12.716  1.00  0.00     0.061 C 
HETATM   26  C15 UNL     1     -31.900  78.133  13.217  1.00  0.00     0.046 C 
HETATM   27  C16 UNL     1     -29.701  77.073  13.288  1.00  0.00     0.046 C 
HETATM   28  C17 UNL     1     -29.893  79.507  13.250  1.00  0.00     0.046 C 
ENDBRANCH  24  25
ENDBRANCH  20  24
ENDBRANCH   1  19
TORSDOF 10
ENDMDL
MODEL 4
REMARK VINA RESULT: -5.307642877      2.263      4.813
REMARK  10 active torsions:
REMARK  status: ('A' for Active; 'I' for Inactive)
REMARK    1  A    between atoms: C2_2  and  O1_3 
REMARK    2  A    between atoms: O1_3  and  C3_4 
REMARK    3  A    between atoms: C3_4  and  C4_6 
REMARK    4  A    between atoms: C4_6  and  C6_8 
REMARK    5  A    between atoms: C4_6  and  N3_19 
REMARK    6  A    between atoms: C8_10  and  O3_11 
REMARK    7  A    between atoms: O3_11  and  C9_12 
REMARK    8  A    between atoms: N3_19  and  O4_20 
REMARK       I    between atoms: N3_19  and  C13_22 
REMARK    9  A    between atoms: C13_22  and  O6_24 
REMARK   10  A    between atoms: O6_24  and  C14_25 
ROOT
HETATM    1  C4  UNL     1     -32.802  77.737   8.838  1.00  0.00     0.192 C 
HETATM    2  C5  UNL     1     -32.110  77.573  10.185  1.00  0.00     0.059 C 
ENDROOT
BRANCH   1   3
HETATM    3  C3  UNL     1     -34.250  77.927   9.015  1.00  0.00     0.296 C 
HETATM    4  O2  UNL     1     -34.750  78.262  10.125  1.00  0.00    -0.262 OA
BRANCH   3   5
HETATM    5  O1  UNL     1     -35.125  77.740   7.951  1.00  0.00    -0.320 OA
BRANCH   5   6
HETATM    6  C2  UNL     1     -36.357  78.444   7.914  1.00  0.00     0.174 C 
HETATM    7  C1  UNL     1     -36.432  79.201   6.614  1.00  0.00     0.034 C 
ENDBRANCH   5   6
ENDBRANCH   3   5
ENDBRANCH   1   3
BRANCH   1   8
HETATM    8  C6  UNL     1     -32.524  76.483   8.048  1.00  0.00     0.072 A 
HETATM    9  C7  UNL     1     -31.948  76.472   6.774  1.00  0.00     0.087 A 
HETATM   10  C8  UNL     1     -31.826  75.143   6.412  1.00  0.00     0.159 A 
HETATM   11  N1  UNL     1     -32.299  74.452   7.414  1.00  0.00    -0.278 N 
HETATM   12  N2  UNL     1     -32.733  75.224   8.427  1.00  0.00    -0.296 N 
ATOM     13  H1  UNL     1     -32.336  73.433   7.427  1.00  0.00     0.189 HD
HETATM   14  C12 UNL     1     -33.298  74.664   9.666  1.00  0.00     0.177 C 
BRANCH  10  15
HETATM   15  O3  UNL     1     -31.282  74.724   5.183  1.00  0.00    -0.330 OA
BRANCH  15  16
HETATM   16  C9  UNL     1     -30.183  73.846   5.142  1.00  0.00     0.122 C 
HETATM   17  C10 UNL     1     -29.548  73.964   3.775  1.00  0.00     0.040 C 
HETATM   18  C11 UNL     1     -30.542  72.426   5.484  1.00  0.00     0.040 C 
ENDBRANCH  15  16
ENDBRANCH  10  15
ENDBRANCH   1   8
BRANCH   1  19
HETATM   19  N3  UNL     1     -32.257  78.864   8.125  1.00  0.00    -0.178 N 
HETATM   20  C13 UNL     1     -30.913  79.329   8.305  1.00  0.00     0.389 C 
HETATM   21  O5  UNL     1     -30.477  80.291   7.652  1.00  0.00    -0.236 OA
BRANCH  19  22
HETATM   22  O4  UNL     1     -33.008  79.540   7.241  1.00  0.00    -0.281 OA
ATOM     23  H4  UNL     1     -32.749  80.406   6.950  1.00  0.00     0.245 HD
ENDBRANCH  19  22
BRANCH  20  24
HETATM   24  O6  UNL     1     -30.116  78.697   9.211  1.00  0.00    -0.292 OA
BRANCH  24  25
HETATM   25  C14 UNL     1     -29.194  79.351  10.061  1.00  0.00     0.061 C 
HETATM   26  C15 UNL     1     -28.612  78.290  10.974  1.00  0.00     0.046 C 
HETATM   27  C16 UNL     1     -28.073  80.013   9.327  1.00  0.00     0.046 C 
HETATM   28  C17 UNL     1     -29.864  80.376  10.947  1.00  0.00     0.046 C 
ENDBRANCH  24  25
ENDBRANCH  20  24
ENDBRANCH   1  19
TORSDOF 10
ENDMDL
MODEL 5
REMARK VINA RESULT: -5.138756551      3.072      4.626
REMARK  10 active torsions:
REMARK  status: ('A' for Active; 'I' for Inactive)
REMARK    1  A    between atoms: C2_2  and  O1_3 
REMARK    2  A    between atoms: O1_3  and  C3_4 
REMARK    3  A    between atoms: C3_4  and  C4_6 
REMARK    4  A    between atoms: C4_6  and  C6_8 
REMARK    5  A    between atoms: C4_6  and  N3_19 
REMARK    6  A    between atoms: C8_10  and  O3_11 
REMARK    7  A    between atoms: O3_11  and  C9_12 
REMARK    8  A    between atoms: N3_19  and  O4_20 
REMARK       I    between atoms: N3_19  and  C13_22 
REMARK    9  A    between atoms: C13_22  and  O6_24 
REMARK   10  A    between atoms: O6_24  and  C14_25 
ROOT
HETATM    1  C4  UNL     1     -31.150  78.859   8.794  1.00  0.00     0.192 C 
HETATM    2  C5  UNL     1     -29.655  78.793   8.506  1.00  0.00     0.059 C 
ENDROOT
BRANCH   1   3
HETATM    3  C3  UNL     1     -31.403  78.836  10.243  1.00  0.00     0.296 C 
HETATM    4  O2  UNL     1     -32.202  79.641  10.796  1.00  0.00    -0.262 OA
BRANCH   3   5
HETATM    5  O1  UNL     1     -30.760  77.912  11.060  1.00  0.00    -0.320 OA
BRANCH   5   6
HETATM    6  C2  UNL     1     -30.072  78.352  12.221  1.00  0.00     0.174 C 
HETATM    7  C1  UNL     1     -28.599  78.117  12.016  1.00  0.00     0.034 C 
ENDBRANCH   5   6
ENDBRANCH   3   5
ENDBRANCH   1   3
BRANCH   1   8
HETATM    8  C6  UNL     1     -31.778  77.663   8.125  1.00  0.00     0.072 A 
HETATM    9  C7  UNL     1     -31.242  77.023   7.003  1.00  0.00     0.087 A 
HETATM   10  C8  UNL     1     -32.082  75.961   6.722  1.00  0.00     0.159 A 
HETATM   11  N1  UNL     1     -33.025  75.998   7.624  1.00  0.00    -0.278 N 
HETATM   12  N2  UNL     1     -32.880  77.014   8.494  1.00  0.00    -0.296 N 
ATOM     13  H1  UNL     1     -33.793  75.328   7.664  1.00  0.00     0.189 HD
HETATM   14  C12 UNL     1     -33.819  77.249   9.604  1.00  0.00     0.177 C 
BRANCH  10  15
HETATM   15  O3  UNL     1     -31.871  75.071   5.651  1.00  0.00    -0.330 OA
BRANCH  15  16
HETATM   16  C9  UNL     1     -30.917  74.041   5.746  1.00  0.00     0.122 C 
HETATM   17  C10 UNL     1     -30.580  73.592   4.342  1.00  0.00     0.040 C 
HETATM   18  C11 UNL     1     -31.357  72.899   6.620  1.00  0.00     0.040 C 
ENDBRANCH  15  16
ENDBRANCH  10  15
ENDBRANCH   1   8
BRANCH   1  19
HETATM   19  N3  UNL     1     -31.719  80.057   8.230  1.00  0.00    -0.178 N 
HETATM   20  C13 UNL     1     -30.984  81.278   8.079  1.00  0.00     0.389 C 
HETATM   21  O5  UNL     1     -31.508  82.280   7.567  1.00  0.00    -0.236 OA
BRANCH  19  22
HETATM   22  O4  UNL     1     -32.996  80.075   7.814  1.00  0.00    -0.281 OA
ATOM     23  H4  UNL     1     -33.639  80.618   8.253  1.00  0.00     0.245 HD
ENDBRANCH  19  22
BRANCH  20  24
HETATM   24  O6  UNL     1     -29.693  81.324   8.511  1.00  0.00    -0.292 OA
BRANCH  24  25
HETATM   25  C14 UNL     1     -29.210  82.210   9.502  1.00  0.00     0.061 C 
HETATM   26  C15 UNL     1     -28.074  81.499  10.209  1.00  0.00     0.046 C 
HETATM   27  C16 UNL     1     -28.692  83.498   8.948  1.00  0.00     0.046 C 
HETATM   28  C17 UNL     1     -30.256  82.520  10.548  1.00  0.00     0.046 C 
ENDBRANCH  24  25
ENDBRANCH  20  24
ENDBRANCH   1  19
TORSDOF 10
ENDMDL
