MODEL 1
REMARK VINA RESULT: -7.141791490      0.000      0.000
REMARK  5 active torsions:
REMARK  status: ('A' for Active; 'I' for Inactive)
REMARK    1  A    between atoms: C3_5  and  N2_6 
REMARK    2  A    between atoms: C6_10  and  O1_11 
REMARK    3  A    between atoms: O1_11  and  C7_12 
REMARK    4  A    between atoms: C12_19  and  C13_20 
REMARK    5  A    between atoms: C14_26  and  N6_27 
ROOT
HETATM    1  N1  UNL     1     -34.908  79.917  11.323  1.00  0.00    -0.191 NA
HETATM    2  C1  UNL     1     -34.151  79.426  10.602  1.00  0.00     0.111 C 
HETATM    3  C2  UNL     1     -33.215  78.804   9.674  1.00  0.00     0.132 A 
HETATM    4  S1  UNL     1     -33.474  78.191   8.102  1.00  0.00    -0.039 SA
HETATM    5  C3  UNL     1     -31.878  77.663   7.762  1.00  0.00     0.153 A 
HETATM    6  N5  UNL     1     -31.239  77.989   8.877  1.00  0.00    -0.321 N 
ATOM      7  H5  UNL     1     -30.242  77.790   8.969  1.00  0.00     0.169 HD
HETATM    8  C14 UNL     1     -31.876  78.557   9.846  1.00  0.00     0.133 A 
ENDROOT
BRANCH   8   9
HETATM    9  N6  UNL     1     -31.234  78.939  11.094  1.00  0.00    -0.366 N 
HETATM   10  C15 UNL     1     -30.643  80.208  11.408  1.00  0.00     0.124 C 
HETATM   11  C16 UNL     1     -29.689  79.918  12.540  1.00  0.00     0.021 C 
HETATM   12  C17 UNL     1     -29.659  78.396  12.675  1.00  0.00     0.021 C 
HETATM   13  C18 UNL     1     -31.092  78.061  12.241  1.00  0.00     0.124 C 
ENDBRANCH   8   9
BRANCH   5  14
HETATM   14  N2  UNL     1     -31.354  77.030   6.577  1.00  0.00    -0.322 N 
HETATM   15  C4  UNL     1     -31.431  75.734   6.553  1.00  0.00     0.112 A 
HETATM   16  C5  UNL     1     -30.944  75.040   5.437  1.00  0.00     0.104 A 
HETATM   17  N4  UNL     1     -31.964  75.042   7.570  1.00  0.00    -0.326 N 
HETATM   18  C6  UNL     1     -31.012  73.664   5.383  1.00  0.00     0.147 A 
HETATM   19  N3  UNL     1     -31.556  73.049   6.432  1.00  0.00    -0.321 N 
HETATM   20  C12 UNL     1     -32.025  73.698   7.507  1.00  0.00     0.147 A 
ATOM     21  H3  UNL     1     -31.618  72.031   6.417  1.00  0.00     0.169 HD
ATOM     22  H4  UNL     1     -32.321  75.532   8.390  1.00  0.00     0.169 HD
ATOM     23  H2  UNL     1     -30.949  77.564   5.809  1.00  0.00     0.169 HD
BRANCH  18  24
HETATM   24  O1  UNL     1     -30.518  73.040   4.262  1.00  0.00    -0.330 OA
BRANCH  24  25
HETATM   25  C7  UNL     1     -29.519  72.068   4.237  1.00  0.00     0.130 C 
HETATM   26  C8  UNL     1     -29.715  71.192   5.478  1.00  0.00     0.032 C 
HETATM   27  C9  UNL     1     -28.381  70.501   5.623  1.00  0.00     0.002 C 
HETATM   28  C10 UNL     1     -27.387  71.568   5.282  1.00  0.00     0.002 C 
HETATM   29  C11 UNL     1     -28.143  72.618   4.477  1.00  0.00     0.032 C 
ENDBRANCH  24  25
ENDBRANCH  18  24
BRANCH  20  30
HETATM   30  C13 UNL     1     -32.612  72.942   8.627  1.00  0.00     0.307 C 
HETATM   31  O2  UNL     1     -33.447  73.490   9.378  1.00  0.00    -0.298 OA
ENDBRANCH  20  30
ENDBRANCH   5  14
TORSDOF 5
ENDMDL
MODEL 2
REMARK VINA RESULT: -6.891310615      1.574      3.090
REMARK  5 active torsions:
REMARK  status: ('A' for Active; 'I' for Inactive)
REMARK    1  A    between atoms: C3_5  and  N2_6 
REMARK    2  A    between atoms: C6_10  and  O1_11 
REMARK    3  A    between atoms: O1_11  and  C7_12 
REMARK    4  A    between atoms: C12_19  and  C13_20 
REMARK    5  A    between atoms: C14_26  and  N6_27 
ROOT
HETATM    1  N1  UNL     1     -32.885  80.249  11.745  1.00  0.00    -0.191 NA
HETATM    2  C1  UNL     1     -32.800  79.630  10.774  1.00  0.00     0.111 C 
HETATM    3  C2  UNL     1     -32.666  78.851   9.549  1.00  0.00     0.132 A 
HETATM    4  S1  UNL     1     -31.264  78.404   8.682  1.00  0.00    -0.039 SA
HETATM    5  C3  UNL     1     -32.012  77.526   7.413  1.00  0.00     0.153 A 
HETATM    6  N5  UNL     1     -33.295  77.626   7.730  1.00  0.00    -0.321 N 
ATOM      7  H5  UNL     1     -34.002  77.188   7.138  1.00  0.00     0.169 HD
HETATM    8  C14 UNL     1     -33.652  78.279   8.786  1.00  0.00     0.133 A 
ENDROOT
BRANCH   8   9
HETATM    9  N6  UNL     1     -35.042  78.427   9.188  1.00  0.00    -0.366 N 
HETATM   10  C15 UNL     1     -35.764  77.606  10.119  1.00  0.00     0.124 C 
HETATM   11  C16 UNL     1     -37.217  77.826   9.777  1.00  0.00     0.021 C 
HETATM   12  C17 UNL     1     -37.218  78.651   8.490  1.00  0.00     0.021 C 
HETATM   13  C18 UNL     1     -35.931  79.460   8.690  1.00  0.00     0.124 C 
ENDBRANCH   8   9
BRANCH   5  14
HETATM   14  N2  UNL     1     -31.414  76.848   6.290  1.00  0.00    -0.322 N 
HETATM   15  C4  UNL     1     -31.428  75.551   6.345  1.00  0.00     0.112 A 
HETATM   16  C5  UNL     1     -30.866  74.815   5.292  1.00  0.00     0.104 A 
HETATM   17  N4  UNL     1     -31.964  74.897   7.385  1.00  0.00    -0.326 N 
HETATM   18  C6  UNL     1     -30.864  73.437   5.323  1.00  0.00     0.147 A 
HETATM   19  N3  UNL     1     -31.416  72.860   6.390  1.00  0.00    -0.321 N 
HETATM   20  C12 UNL     1     -31.957  73.550   7.404  1.00  0.00     0.147 A 
ATOM     21  H3  UNL     1     -31.428  71.842   6.437  1.00  0.00     0.169 HD
ATOM     22  H4  UNL     1     -32.375  75.417   8.159  1.00  0.00     0.169 HD
ATOM     23  H2  UNL     1     -31.007  77.354   5.503  1.00  0.00     0.169 HD
BRANCH  18  24
HETATM   24  O1  UNL     1     -30.299  72.771   4.261  1.00  0.00    -0.330 OA
BRANCH  24  25
HETATM   25  C7  UNL     1     -29.250  71.856   4.333  1.00  0.00     0.130 C 
HETATM   26  C8  UNL     1     -29.528  70.945   5.532  1.00  0.00     0.032 C 
HETATM   27  C9  UNL     1     -28.181  70.326   5.812  1.00  0.00     0.002 C 
HETATM   28  C10 UNL     1     -27.219  71.453   5.597  1.00  0.00     0.002 C 
HETATM   29  C11 UNL     1     -27.941  72.476   4.729  1.00  0.00     0.032 C 
ENDBRANCH  24  25
ENDBRANCH  18  24
BRANCH  20  30
HETATM   30  C13 UNL     1     -32.548  72.836   8.549  1.00  0.00     0.307 C 
HETATM   31  O2  UNL     1     -33.358  73.422   9.298  1.00  0.00    -0.298 OA
ENDBRANCH  20  30
ENDBRANCH   5  14
TORSDOF 5
ENDMDL
MODEL 3
REMARK VINA RESULT: -6.773734969      1.408      2.673
REMARK  5 active torsions:
REMARK  status: ('A' for Active; 'I' for Inactive)
REMARK    1  A    between atoms: C3_5  and  N2_6 
REMARK    2  A    between atoms: C6_10  and  O1_11 
REMARK    3  A    between atoms: O1_11  and  C7_12 
REMARK    4  A    between atoms: C12_19  and  C13_20 
REMARK    5  A    between atoms: C14_26  and  N6_27 
ROOT
HETATM    1  N1  UNL     1     -32.243  80.244  12.067  1.00  0.00    -0.191 NA
HETATM    2  C1  UNL     1     -32.227  79.719  11.038  1.00  0.00     0.111 C 
HETATM    3  C2  UNL     1     -32.182  79.051   9.743  1.00  0.00     0.132 A 
HETATM    4  S1  UNL     1     -30.875  78.297   8.944  1.00  0.00    -0.039 SA
HETATM    5  C3  UNL     1     -31.693  77.797   7.522  1.00  0.00     0.153 A 
HETATM    6  N5  UNL     1     -32.923  78.239   7.744  1.00  0.00    -0.321 N 
ATOM      7  H5  UNL     1     -33.654  78.082   7.049  1.00  0.00     0.169 HD
HETATM    8  C14 UNL     1     -33.197  78.867   8.840  1.00  0.00     0.133 A 
ENDROOT
BRANCH   8   9
HETATM    9  N6  UNL     1     -34.526  79.376   9.143  1.00  0.00    -0.366 N 
HETATM   10  C15 UNL     1     -35.042  80.679   8.836  1.00  0.00     0.124 C 
HETATM   11  C16 UNL     1     -36.190  80.873   9.795  1.00  0.00     0.021 C 
HETATM   12  C17 UNL     1     -36.128  79.688  10.758  1.00  0.00     0.021 C 
HETATM   13  C18 UNL     1     -35.556  78.614   9.823  1.00  0.00     0.124 C 
ENDBRANCH   8   9
BRANCH   5  14
HETATM   14  N2  UNL     1     -31.188  77.082   6.376  1.00  0.00    -0.322 N 
HETATM   15  C4  UNL     1     -31.321  75.791   6.418  1.00  0.00     0.112 A 
HETATM   16  C5  UNL     1     -30.856  75.019   5.343  1.00  0.00     0.104 A 
HETATM   17  N4  UNL     1     -31.891  75.176   7.464  1.00  0.00    -0.326 N 
HETATM   18  C6  UNL     1     -30.983  73.646   5.360  1.00  0.00     0.147 A 
HETATM   19  N3  UNL     1     -31.560  73.110   6.434  1.00  0.00    -0.321 N 
HETATM   20  C12 UNL     1     -32.009  73.834   7.469  1.00  0.00     0.147 A 
ATOM     21  H3  UNL     1     -31.666  72.097   6.471  1.00  0.00     0.169 HD
ATOM     22  H4  UNL     1     -32.233  75.722   8.254  1.00  0.00     0.169 HD
ATOM     23  H2  UNL     1     -30.755  77.558   5.585  1.00  0.00     0.169 HD
BRANCH  18  24
HETATM   24  O1  UNL     1     -30.507  72.945   4.277  1.00  0.00    -0.330 OA
BRANCH  24  25
HETATM   25  C7  UNL     1     -29.516  71.966   4.306  1.00  0.00     0.130 C 
HETATM   26  C8  UNL     1     -29.764  71.111   5.552  1.00  0.00     0.032 C 
HETATM   27  C9  UNL     1     -28.441  70.415   5.758  1.00  0.00     0.002 C 
HETATM   28  C10 UNL     1     -27.428  71.470   5.438  1.00  0.00     0.002 C 
HETATM   29  C11 UNL     1     -28.145  72.511   4.588  1.00  0.00     0.032 C 
ENDBRANCH  24  25
ENDBRANCH  18  24
BRANCH  20  30
HETATM   30  C13 UNL     1     -32.636  73.163   8.621  1.00  0.00     0.307 C 
HETATM   31  O2  UNL     1     -33.429  73.794   9.353  1.00  0.00    -0.298 OA
ENDBRANCH  20  30
ENDBRANCH   5  14
TORSDOF 5
ENDMDL
MODEL 4
REMARK VINA RESULT: -6.686191964      3.991      5.034
REMARK  5 active torsions:
REMARK  status: ('A' for Active; 'I' for Inactive)
REMARK    1  A    between atoms: C3_5  and  N2_6 
REMARK    2  A    between atoms: C6_10  and  O1_11 
REMARK    3  A    between atoms: O1_11  and  C7_12 
REMARK    4  A    between atoms: C12_19  and  C13_20 
REMARK    5  A    between atoms: C14_26  and  N6_27 
ROOT
HETATM    1  N1  UNL     1     -33.909  84.503  10.098  1.00  0.00    -0.191 NA
HETATM    2  C1  UNL     1     -33.427  83.653   9.482  1.00  0.00     0.111 C 
HETATM    3  C2  UNL     1     -32.814  82.566   8.729  1.00  0.00     0.132 A 
HETATM    4  S1  UNL     1     -32.192  81.072   9.270  1.00  0.00    -0.039 SA
HETATM    5  C3  UNL     1     -31.685  80.438   7.758  1.00  0.00     0.153 A 
HETATM    6  N5  UNL     1     -32.023  81.413   6.926  1.00  0.00    -0.321 N 
ATOM      7  H5  UNL     1     -31.839  81.316   5.927  1.00  0.00     0.169 HD
HETATM    8  C14 UNL     1     -32.587  82.484   7.378  1.00  0.00     0.133 A 
ENDROOT
BRANCH   8   9
HETATM    9  N6  UNL     1     -32.982  83.589   6.518  1.00  0.00    -0.366 N 
HETATM   10  C15 UNL     1     -34.288  83.839   5.980  1.00  0.00     0.124 C 
HETATM   11  C16 UNL     1     -34.046  84.730   4.786  1.00  0.00     0.021 C 
HETATM   12  C17 UNL     1     -32.529  84.775   4.604  1.00  0.00     0.021 C 
HETATM   13  C18 UNL     1     -32.082  84.632   6.064  1.00  0.00     0.124 C 
ENDBRANCH   8   9
BRANCH   5  14
HETATM   14  N2  UNL     1     -31.055  79.177   7.457  1.00  0.00    -0.322 N 
HETATM   15  C4  UNL     1     -31.854  78.157   7.373  1.00  0.00     0.112 A 
HETATM   16  C5  UNL     1     -31.322  76.892   7.083  1.00  0.00     0.104 A 
HETATM   17  N4  UNL     1     -33.176  78.281   7.558  1.00  0.00    -0.326 N 
HETATM   18  C6  UNL     1     -32.146  75.790   6.989  1.00  0.00     0.147 A 
HETATM   19  N3  UNL     1     -33.447  75.996   7.185  1.00  0.00    -0.321 N 
HETATM   20  C12 UNL     1     -33.970  77.198   7.463  1.00  0.00     0.147 A 
ATOM     21  H3  UNL     1     -34.078  75.197   7.120  1.00  0.00     0.169 HD
ATOM     22  H4  UNL     1     -33.578  79.194   7.771  1.00  0.00     0.169 HD
ATOM     23  H2  UNL     1     -30.048  79.091   7.320  1.00  0.00     0.169 HD
BRANCH  18  24
HETATM   24  O1  UNL     1     -31.565  74.578   6.702  1.00  0.00    -0.330 OA
BRANCH  24  25
HETATM   25  C7  UNL     1     -31.312  74.071   5.428  1.00  0.00     0.130 C 
HETATM   26  C8  UNL     1     -30.620  72.718   5.612  1.00  0.00     0.032 C 
HETATM   27  C9  UNL     1     -29.984  72.473   4.265  1.00  0.00     0.002 C 
HETATM   28  C10 UNL     1     -29.479  73.823   3.858  1.00  0.00     0.002 C 
HETATM   29  C11 UNL     1     -30.264  74.841   4.676  1.00  0.00     0.032 C 
ENDBRANCH  24  25
ENDBRANCH  18  24
BRANCH  20  30
HETATM   30  C13 UNL     1     -35.423  77.341   7.667  1.00  0.00     0.307 C 
HETATM   31  O2  UNL     1     -36.211  76.556   7.097  1.00  0.00    -0.298 OA
ENDBRANCH  20  30
ENDBRANCH   5  14
TORSDOF 5
ENDMDL
MODEL 5
REMARK VINA RESULT: -6.634449758      2.009      2.683
REMARK  5 active torsions:
REMARK  status: ('A' for Active; 'I' for Inactive)
REMARK    1  A    between atoms: C3_5  and  N2_6 
REMARK    2  A    between atoms: C6_10  and  O1_11 
REMARK    3  A    between atoms: O1_11  and  C7_12 
REMARK    4  A    between atoms: C12_19  and  C13_20 
REMARK    5  A    between atoms: C14_26  and  N6_27 
ROOT
HETATM    1  N1  UNL     1     -33.292  83.233  12.096  1.00  0.00    -0.191 NA
HETATM    2  C1  UNL     1     -32.749  82.440  11.455  1.00  0.00     0.111 C 
HETATM    3  C2  UNL     1     -32.082  81.443  10.627  1.00  0.00     0.132 A 
HETATM    4  S1  UNL     1     -32.480  80.868   9.070  1.00  0.00    -0.039 SA
HETATM    5  C3  UNL     1     -31.199  79.745   8.872  1.00  0.00     0.153 A 
HETATM    6  N5  UNL     1     -30.539  79.878  10.014  1.00  0.00    -0.321 N 
ATOM      7  H5  UNL     1     -29.703  79.319  10.187  1.00  0.00     0.169 HD
HETATM    8  C14 UNL     1     -30.955  80.714  10.907  1.00  0.00     0.133 A 
ENDROOT
BRANCH   8   9
HETATM    9  N6  UNL     1     -30.277  80.906  12.180  1.00  0.00    -0.366 N 
HETATM   10  C15 UNL     1     -29.246  81.860  12.474  1.00  0.00     0.124 C 
HETATM   11  C16 UNL     1     -28.545  81.305  13.690  1.00  0.00     0.021 C 
HETATM   12  C17 UNL     1     -29.132  79.910  13.903  1.00  0.00     0.021 C 
HETATM   13  C18 UNL     1     -30.555  80.136  13.377  1.00  0.00     0.124 C 
ENDBRANCH   8   9
BRANCH   5  14
HETATM   14  N2  UNL     1     -30.903  78.878   7.758  1.00  0.00    -0.322 N 
HETATM   15  C4  UNL     1     -31.526  77.739   7.754  1.00  0.00     0.112 A 
HETATM   16  C5  UNL     1     -31.295  76.837   6.705  1.00  0.00     0.104 A 
HETATM   17  N4  UNL     1     -32.384  77.403   8.727  1.00  0.00    -0.326 N 
HETATM   18  C6  UNL     1     -31.942  75.619   6.674  1.00  0.00     0.147 A 
HETATM   19  N3  UNL     1     -32.780  75.359   7.677  1.00  0.00    -0.321 N 
HETATM   20  C12 UNL     1     -33.011  76.211   8.685  1.00  0.00     0.147 A 
ATOM     21  H3  UNL     1     -33.271  74.465   7.676  1.00  0.00     0.169 HD
ATOM     22  H4  UNL     1     -32.562  78.048   9.496  1.00  0.00     0.169 HD
ATOM     23  H2  UNL     1     -30.247  79.141   7.023  1.00  0.00     0.169 HD
BRANCH  18  24
HETATM   24  O1  UNL     1     -31.674  74.778   5.620  1.00  0.00    -0.330 OA
BRANCH  24  25
HETATM   25  C7  UNL     1     -30.645  73.839   5.563  1.00  0.00     0.130 C 
HETATM   26  C8  UNL     1     -30.547  73.367   4.109  1.00  0.00     0.032 C 
HETATM   27  C9  UNL     1     -29.777  72.075   4.220  1.00  0.00     0.002 C 
HETATM   28  C10 UNL     1     -30.327  71.436   5.458  1.00  0.00     0.002 C 
HETATM   29  C11 UNL     1     -30.968  72.554   6.271  1.00  0.00     0.032 C 
ENDBRANCH  24  25
ENDBRANCH  18  24
BRANCH  20  30
HETATM   30  C13 UNL     1     -33.954  75.847   9.757  1.00  0.00     0.307 C 
HETATM   31  O2  UNL     1     -34.326  74.660   9.881  1.00  0.00    -0.298 OA
ENDBRANCH  20  30
ENDBRANCH   5  14
TORSDOF 5
ENDMDL
