MODEL 1
REMARK VINA RESULT: -7.146031779      0.000      0.000
REMARK  14 active torsions:
REMARK  status: ('A' for Active; 'I' for Inactive)
REMARK    1  A    between atoms: O1_2  and  C2_3 
REMARK    2  A    between atoms: C2_3  and  S1_5 
REMARK    3  A    between atoms: S1_5  and  C3_6 
REMARK    4  A    between atoms: C4_9  and  N2_10 
REMARK    5  A    between atoms: N2_10  and  N3_12 
REMARK    6  A    between atoms: N3_12  and  C5_14 
REMARK    7  A    between atoms: C7_18  and  C8_19 
REMARK    8  A    between atoms: C9_24  and  C10_25 
REMARK       I    between atoms: C10_25  and  N6_27 
REMARK    9  A    between atoms: N6_27  and  N7_29 
REMARK   10  A    between atoms: N7_29  and  C11_30 
REMARK   11  A    between atoms: C11_30  and  O6_31 
REMARK   12  A    between atoms: C11_30  and  C12_33 
REMARK   13  A    between atoms: C12_33  and  C15_36 
REMARK   14  A    between atoms: C15_36  and  O7_38 
ROOT
HETATM    1  C3  UNL     1       8.226  14.343  34.772  1.00  0.00     0.104 A 
HETATM    2  N1  UNL     1       8.160  13.038  34.646  1.00  0.00    -0.328 N 
ATOM      3  H1  UNL     1       7.795  12.626  33.787  1.00  0.00     0.168 HD
HETATM    4  C4  UNL     1       8.568  12.261  35.633  1.00  0.00     0.165 A 
HETATM    5  S2  UNL     1       9.070  13.377  36.808  1.00  0.00    -0.044 SA
HETATM    6  C9  UNL     1       8.718  14.850  35.938  1.00  0.00     0.111 A 
ENDROOT
BRANCH   6   7
HETATM    7  C10 UNL     1       8.948  16.192  36.454  1.00  0.00     0.277 C 
HETATM    8  O5  UNL     1       7.893  16.861  36.731  1.00  0.00    -0.266 OA
HETATM    9  N6  UNL     1      10.184  16.801  36.670  1.00  0.00    -0.267 N 
ATOM     10  H6  UNL     1      11.051  16.303  36.466  1.00  0.00     0.185 HD
BRANCH   9  11
HETATM   11  N7  UNL     1      10.213  18.106  37.172  1.00  0.00    -0.105 NA
BRANCH  11  12
HETATM   12  C11 UNL     1      11.406  18.346  37.927  1.00  0.00     0.241 C 
BRANCH  12  13
HETATM   13  O6  UNL     1      12.284  17.263  37.836  1.00  0.00    -0.377 OA
ATOM     14  H6  UNL     1      13.184  17.544  37.947  1.00  0.00     0.211 HD
ENDBRANCH  12  13
BRANCH  12  15
HETATM   15  C12 UNL     1      11.232  18.835  39.308  1.00  0.00     0.020 C 
HETATM   16  C13 UNL     1      11.134  17.815  40.388  1.00  0.00     0.021 C 
HETATM   17  C14 UNL     1       9.925  19.647  39.352  1.00  0.00     0.021 C 
BRANCH  15  18
HETATM   18  C15 UNL     1      12.399  19.757  39.632  1.00  0.00     0.125 C 
HETATM   19  C16 UNL     1      12.391  20.968  38.738  1.00  0.00     0.040 C 
BRANCH  18  20
HETATM   20  O7  UNL     1      13.569  19.054  39.400  1.00  0.00    -0.395 OA
ATOM     21  H7  UNL     1      13.472  18.193  39.791  1.00  0.00     0.210 HD
ENDBRANCH  18  20
ENDBRANCH  15  18
ENDBRANCH  12  15
ENDBRANCH  11  12
ENDBRANCH   9  11
ENDBRANCH   6   7
BRANCH   1  22
HETATM   22  S1  UNL     1       7.670  15.472  33.427  1.00  0.00    -0.002 SA
BRANCH  22  23
HETATM   23  C2  UNL     1       7.783  14.626  31.861  1.00  0.00     0.328 C 
HETATM   24  O2  UNL     1       7.965  13.410  31.722  1.00  0.00    -0.251 OA
BRANCH  23  25
HETATM   25  O1  UNL     1       7.654  15.410  30.729  1.00  0.00    -0.317 OA
HETATM   26  C1  UNL     1       8.067  16.754  30.650  1.00  0.00     0.214 C 
ENDBRANCH  23  25
ENDBRANCH  22  23
ENDBRANCH   1  22
BRANCH   4  27
HETATM   27  N2  UNL     1       8.581  10.945  35.683  1.00  0.00    -0.277 N 
ATOM     28  H2  UNL     1       9.405  10.440  36.011  1.00  0.00     0.189 HD
BRANCH  27  29
HETATM   29  N3  UNL     1       7.438  10.262  35.274  1.00  0.00    -0.263 N 
ATOM     30  H3  UNL     1       7.531   9.391  34.750  1.00  0.00     0.190 HD
BRANCH  29  31
HETATM   31  C5  UNL     1       6.132  10.769  35.581  1.00  0.00     0.235 C 
HETATM   32  N4  UNL     1       5.499  10.654  36.704  1.00  0.00    -0.352 N 
HETATM   33  C6  UNL     1       4.203  11.307  36.599  1.00  0.00     0.165 C 
ATOM     34  H4  UNL     1       5.853  10.179  37.535  1.00  0.00     0.163 HD
HETATM   35  C7  UNL     1       4.303  12.128  35.323  1.00  0.00     0.238 C 
HETATM   36  O4  UNL     1       5.371  11.472  34.655  1.00  0.00    -0.305 OA
BRANCH  35  37
HETATM   37  C8  UNL     1       3.046  12.055  34.562  1.00  0.00     0.262 C 
HETATM   38  N5  UNL     1       2.345  10.828  34.456  1.00  0.00    -0.060 NA
HETATM   39  O3  UNL     1       2.562  13.062  33.993  1.00  0.00    -0.274 OA
ENDBRANCH  35  37
ENDBRANCH  29  31
ENDBRANCH  27  29
ENDBRANCH   4  27
TORSDOF 14
ENDMDL
MODEL 2
REMARK VINA RESULT: -7.126309890      0.858      1.426
REMARK  14 active torsions:
REMARK  status: ('A' for Active; 'I' for Inactive)
REMARK    1  A    between atoms: O1_2  and  C2_3 
REMARK    2  A    between atoms: C2_3  and  S1_5 
REMARK    3  A    between atoms: S1_5  and  C3_6 
REMARK    4  A    between atoms: C4_9  and  N2_10 
REMARK    5  A    between atoms: N2_10  and  N3_12 
REMARK    6  A    between atoms: N3_12  and  C5_14 
REMARK    7  A    between atoms: C7_18  and  C8_19 
REMARK    8  A    between atoms: C9_24  and  C10_25 
REMARK       I    between atoms: C10_25  and  N6_27 
REMARK    9  A    between atoms: N6_27  and  N7_29 
REMARK   10  A    between atoms: N7_29  and  C11_30 
REMARK   11  A    between atoms: C11_30  and  O6_31 
REMARK   12  A    between atoms: C11_30  and  C12_33 
REMARK   13  A    between atoms: C12_33  and  C15_36 
REMARK   14  A    between atoms: C15_36  and  O7_38 
ROOT
HETATM    1  C3  UNL     1       8.175  14.275  34.736  1.00  0.00     0.104 A 
HETATM    2  N1  UNL     1       8.117  12.974  34.572  1.00  0.00    -0.328 N 
ATOM      3  H1  UNL     1       7.801  12.585  33.683  1.00  0.00     0.168 HD
HETATM    4  C4  UNL     1       8.468  12.170  35.560  1.00  0.00     0.165 A 
HETATM    5  S2  UNL     1       8.903  13.255  36.790  1.00  0.00    -0.044 SA
HETATM    6  C9  UNL     1       8.601  14.751  35.941  1.00  0.00     0.111 A 
ENDROOT
BRANCH   6   7
HETATM    7  C10 UNL     1       8.802  16.078  36.504  1.00  0.00     0.277 C 
HETATM    8  O5  UNL     1       7.818  16.541  37.179  1.00  0.00    -0.266 OA
HETATM    9  N6  UNL     1       9.942  16.872  36.381  1.00  0.00    -0.267 N 
ATOM     10  H6  UNL     1      10.750  16.541  35.855  1.00  0.00     0.185 HD
BRANCH   9  11
HETATM   11  N7  UNL     1       9.955  18.130  36.991  1.00  0.00    -0.105 NA
BRANCH  11  12
HETATM   12  C11 UNL     1      11.039  18.246  37.920  1.00  0.00     0.241 C 
BRANCH  12  13
HETATM   13  O6  UNL     1      11.837  17.099  37.904  1.00  0.00    -0.377 OA
ATOM     14  H6  UNL     1      12.480  17.122  38.603  1.00  0.00     0.211 HD
ENDBRANCH  12  13
BRANCH  12  15
HETATM   15  C12 UNL     1      10.702  18.698  39.283  1.00  0.00     0.020 C 
HETATM   16  C13 UNL     1       9.717  19.806  39.412  1.00  0.00     0.021 C 
HETATM   17  C14 UNL     1      12.002  19.186  39.945  1.00  0.00     0.021 C 
BRANCH  15  18
HETATM   18  C15 UNL     1      10.171  17.499  40.058  1.00  0.00     0.125 C 
HETATM   19  C16 UNL     1       8.700  17.649  40.339  1.00  0.00     0.040 C 
BRANCH  18  20
HETATM   20  O7  UNL     1      10.841  17.447  41.267  1.00  0.00    -0.395 OA
ATOM     21  H7  UNL     1      10.224  17.680  41.951  1.00  0.00     0.210 HD
ENDBRANCH  18  20
ENDBRANCH  15  18
ENDBRANCH  12  15
ENDBRANCH  11  12
ENDBRANCH   9  11
ENDBRANCH   6   7
BRANCH   1  22
HETATM   22  S1  UNL     1       7.696  15.440  33.392  1.00  0.00    -0.002 SA
BRANCH  22  23
HETATM   23  C2  UNL     1       7.803  14.604  31.820  1.00  0.00     0.328 C 
HETATM   24  O2  UNL     1       7.983  13.389  31.672  1.00  0.00    -0.251 OA
BRANCH  23  25
HETATM   25  O1  UNL     1       7.671  15.396  30.694  1.00  0.00    -0.317 OA
HETATM   26  C1  UNL     1       8.070  16.745  30.628  1.00  0.00     0.214 C 
ENDBRANCH  23  25
ENDBRANCH  22  23
ENDBRANCH   1  22
BRANCH   4  27
HETATM   27  N2  UNL     1       8.479  10.853  35.575  1.00  0.00    -0.277 N 
ATOM     28  H2  UNL     1       9.338  10.337  35.763  1.00  0.00     0.189 HD
BRANCH  27  29
HETATM   29  N3  UNL     1       7.282  10.185  35.328  1.00  0.00    -0.263 N 
ATOM     30  H3  UNL     1       7.302   9.238  34.949  1.00  0.00     0.190 HD
BRANCH  29  31
HETATM   31  C5  UNL     1       6.021  10.814  35.599  1.00  0.00     0.235 C 
HETATM   32  N4  UNL     1       5.333  10.733  36.693  1.00  0.00    -0.352 N 
HETATM   33  C6  UNL     1       4.115  11.517  36.558  1.00  0.00     0.165 C 
ATOM     34  H4  UNL     1       5.602  10.201  37.521  1.00  0.00     0.163 HD
HETATM   35  C7  UNL     1       4.352  12.360  35.314  1.00  0.00     0.238 C 
HETATM   36  O4  UNL     1       5.376  11.617  34.667  1.00  0.00    -0.305 OA
BRANCH  35  37
HETATM   37  C8  UNL     1       3.127  12.437  34.502  1.00  0.00     0.262 C 
HETATM   38  N5  UNL     1       2.251  11.326  34.424  1.00  0.00    -0.060 NA
HETATM   39  O3  UNL     1       2.824  13.473  33.864  1.00  0.00    -0.274 OA
ENDBRANCH  35  37
ENDBRANCH  29  31
ENDBRANCH  27  29
ENDBRANCH   4  27
TORSDOF 14
ENDMDL
MODEL 3
REMARK VINA RESULT: -7.082743872      1.583      1.810
REMARK  14 active torsions:
REMARK  status: ('A' for Active; 'I' for Inactive)
REMARK    1  A    between atoms: O1_2  and  C2_3 
REMARK    2  A    between atoms: C2_3  and  S1_5 
REMARK    3  A    between atoms: S1_5  and  C3_6 
REMARK    4  A    between atoms: C4_9  and  N2_10 
REMARK    5  A    between atoms: N2_10  and  N3_12 
REMARK    6  A    between atoms: N3_12  and  C5_14 
REMARK    7  A    between atoms: C7_18  and  C8_19 
REMARK    8  A    between atoms: C9_24  and  C10_25 
REMARK       I    between atoms: C10_25  and  N6_27 
REMARK    9  A    between atoms: N6_27  and  N7_29 
REMARK   10  A    between atoms: N7_29  and  C11_30 
REMARK   11  A    between atoms: C11_30  and  O6_31 
REMARK   12  A    between atoms: C11_30  and  C12_33 
REMARK   13  A    between atoms: C12_33  and  C15_36 
REMARK   14  A    between atoms: C15_36  and  O7_38 
ROOT
HETATM    1  C3  UNL     1       9.104  14.923  35.920  1.00  0.00     0.104 A 
HETATM    2  N1  UNL     1       9.221  13.623  35.781  1.00  0.00    -0.328 N 
ATOM      3  H1  UNL     1       8.708  13.140  35.043  1.00  0.00     0.168 HD
HETATM    4  C4  UNL     1      10.005  12.942  36.598  1.00  0.00     0.165 A 
HETATM    5  S2  UNL     1      10.620  14.149  37.621  1.00  0.00    -0.044 SA
HETATM    6  C9  UNL     1       9.806  15.527  36.920  1.00  0.00     0.111 A 
ENDROOT
BRANCH   6   7
HETATM    7  C10 UNL     1       9.946  16.897  37.390  1.00  0.00     0.277 C 
HETATM    8  O5  UNL     1       8.872  17.439  37.826  1.00  0.00    -0.266 OA
HETATM    9  N6  UNL     1      11.116  17.657  37.409  1.00  0.00    -0.267 N 
ATOM     10  H6  UNL     1      11.995  17.264  37.074  1.00  0.00     0.185 HD
BRANCH   9  11
HETATM   11  N7  UNL     1      11.060  18.966  37.897  1.00  0.00    -0.105 NA
BRANCH  11  12
HETATM   12  C11 UNL     1      11.776  19.092  39.131  1.00  0.00     0.241 C 
BRANCH  12  13
HETATM   13  O6  UNL     1      12.692  18.049  39.288  1.00  0.00    -0.377 OA
ATOM     14  H6  UNL     1      12.288  17.302  39.713  1.00  0.00     0.211 HD
ENDBRANCH  12  13
BRANCH  12  15
HETATM   15  C12 UNL     1      10.973  19.345  40.342  1.00  0.00     0.020 C 
HETATM   16  C13 UNL     1      10.542  18.162  41.137  1.00  0.00     0.021 C 
HETATM   17  C14 UNL     1       9.689  20.071  39.904  1.00  0.00     0.021 C 
BRANCH  15  18
HETATM   18  C15 UNL     1      11.775  20.262  41.255  1.00  0.00     0.125 C 
HETATM   19  C16 UNL     1      11.013  21.526  41.551  1.00  0.00     0.040 C 
BRANCH  18  20
HETATM   20  O7  UNL     1      12.941  20.603  40.593  1.00  0.00    -0.395 OA
ATOM     21  H7  UNL     1      13.660  20.513  41.207  1.00  0.00     0.210 HD
ENDBRANCH  18  20
ENDBRANCH  15  18
ENDBRANCH  12  15
ENDBRANCH  11  12
ENDBRANCH   9  11
ENDBRANCH   6   7
BRANCH   1  22
HETATM   22  S1  UNL     1       8.024  15.919  34.808  1.00  0.00    -0.002 SA
BRANCH  22  23
HETATM   23  C2  UNL     1       7.695  14.993  33.320  1.00  0.00     0.328 C 
HETATM   24  O2  UNL     1       7.967  13.798  33.151  1.00  0.00    -0.251 OA
BRANCH  23  25
HETATM   25  O1  UNL     1       7.087  15.686  32.289  1.00  0.00    -0.317 OA
HETATM   26  C1  UNL     1       7.789  16.384  31.287  1.00  0.00     0.214 C 
ENDBRANCH  23  25
ENDBRANCH  22  23
ENDBRANCH   1  22
BRANCH   4  27
HETATM   27  N2  UNL     1      10.247  11.648  36.607  1.00  0.00    -0.277 N 
ATOM     28  H2  UNL     1      11.037  11.265  37.125  1.00  0.00     0.189 HD
BRANCH  27  29
HETATM   29  N3  UNL     1       9.392  10.816  35.887  1.00  0.00    -0.263 N 
ATOM     30  H3  UNL     1       9.781  10.140  35.230  1.00  0.00     0.190 HD
BRANCH  29  31
HETATM   31  C5  UNL     1       7.970  10.901  36.059  1.00  0.00     0.235 C 
HETATM   32  N4  UNL     1       7.264  10.329  36.981  1.00  0.00    -0.352 N 
HETATM   33  C6  UNL     1       5.862  10.670  36.799  1.00  0.00     0.165 C 
ATOM     34  H4  UNL     1       7.634   9.732  37.721  1.00  0.00     0.163 HD
HETATM   35  C7  UNL     1       5.885  11.821  35.805  1.00  0.00     0.238 C 
HETATM   36  O4  UNL     1       7.162  11.645  35.208  1.00  0.00    -0.305 OA
BRANCH  35  37
HETATM   37  C8  UNL     1       4.793  11.681  34.829  1.00  0.00     0.262 C 
HETATM   38  N5  UNL     1       4.785  12.467  33.649  1.00  0.00    -0.060 NA
HETATM   39  O3  UNL     1       3.851  10.873  35.006  1.00  0.00    -0.274 OA
ENDBRANCH  35  37
ENDBRANCH  29  31
ENDBRANCH  27  29
ENDBRANCH   4  27
TORSDOF 14
ENDMDL
MODEL 4
REMARK VINA RESULT: -7.056173491      1.416      2.015
REMARK  14 active torsions:
REMARK  status: ('A' for Active; 'I' for Inactive)
REMARK    1  A    between atoms: O1_2  and  C2_3 
REMARK    2  A    between atoms: C2_3  and  S1_5 
REMARK    3  A    between atoms: S1_5  and  C3_6 
REMARK    4  A    between atoms: C4_9  and  N2_10 
REMARK    5  A    between atoms: N2_10  and  N3_12 
REMARK    6  A    between atoms: N3_12  and  C5_14 
REMARK    7  A    between atoms: C7_18  and  C8_19 
REMARK    8  A    between atoms: C9_24  and  C10_25 
REMARK       I    between atoms: C10_25  and  N6_27 
REMARK    9  A    between atoms: N6_27  and  N7_29 
REMARK   10  A    between atoms: N7_29  and  C11_30 
REMARK   11  A    between atoms: C11_30  and  O6_31 
REMARK   12  A    between atoms: C11_30  and  C12_33 
REMARK   13  A    between atoms: C12_33  and  C15_36 
REMARK   14  A    between atoms: C15_36  and  O7_38 
ROOT
HETATM    1  C3  UNL     1       8.637  14.545  35.900  1.00  0.00     0.104 A 
HETATM    2  N1  UNL     1       8.244  13.438  35.314  1.00  0.00    -0.328 N 
ATOM      3  H1  UNL     1       7.550  13.474  34.567  1.00  0.00     0.168 HD
HETATM    4  C4  UNL     1       8.749  12.278  35.695  1.00  0.00     0.165 A 
HETATM    5  S2  UNL     1       9.826  12.723  36.928  1.00  0.00    -0.044 SA
HETATM    6  C9  UNL     1       9.564  14.450  36.895  1.00  0.00     0.111 A 
ENDROOT
BRANCH   6   7
HETATM    7  C10 UNL     1      10.238  15.406  37.762  1.00  0.00     0.277 C 
HETATM    8  O5  UNL     1       9.575  15.771  38.793  1.00  0.00    -0.266 OA
HETATM    9  N6  UNL     1      11.510  15.947  37.577  1.00  0.00    -0.267 N 
ATOM     10  H6  UNL     1      12.074  15.681  36.770  1.00  0.00     0.185 HD
BRANCH   9  11
HETATM   11  N7  UNL     1      11.996  16.860  38.517  1.00  0.00    -0.105 NA
BRANCH  11  12
HETATM   12  C11 UNL     1      11.752  18.210  38.106  1.00  0.00     0.241 C 
BRANCH  12  13
HETATM   13  O6  UNL     1      12.827  18.712  37.369  1.00  0.00    -0.377 OA
ATOM     14  H6  UNL     1      12.621  18.739  36.442  1.00  0.00     0.211 HD
ENDBRANCH  12  13
BRANCH  12  15
HETATM   15  C12 UNL     1      11.274  19.144  39.143  1.00  0.00     0.020 C 
HETATM   16  C13 UNL     1      11.970  20.455  39.256  1.00  0.00     0.021 C 
HETATM   17  C14 UNL     1      11.430  18.445  40.505  1.00  0.00     0.021 C 
BRANCH  15  18
HETATM   18  C15 UNL     1       9.797  19.412  38.890  1.00  0.00     0.125 C 
HETATM   19  C16 UNL     1       8.968  19.030  40.087  1.00  0.00     0.040 C 
BRANCH  18  20
HETATM   20  O7  UNL     1       9.402  18.627  37.821  1.00  0.00    -0.395 OA
ATOM     21  H7  UNL     1       9.997  17.889  37.768  1.00  0.00     0.210 HD
ENDBRANCH  18  20
ENDBRANCH  15  18
ENDBRANCH  12  15
ENDBRANCH  11  12
ENDBRANCH   9  11
ENDBRANCH   6   7
BRANCH   1  22
HETATM   22  S1  UNL     1       7.964  16.188  35.409  1.00  0.00    -0.002 SA
BRANCH  22  23
HETATM   23  C2  UNL     1       8.031  16.347  33.634  1.00  0.00     0.328 C 
HETATM   24  O2  UNL     1       7.837  17.395  33.005  1.00  0.00    -0.251 OA
BRANCH  23  25
HETATM   25  O1  UNL     1       8.325  15.195  32.926  1.00  0.00    -0.317 OA
HETATM   26  C1  UNL     1       7.567  14.725  31.836  1.00  0.00     0.214 C 
ENDBRANCH  23  25
ENDBRANCH  22  23
ENDBRANCH   1  22
BRANCH   4  27
HETATM   27  N2  UNL     1       8.481  11.077  35.223  1.00  0.00    -0.277 N 
ATOM     28  H2  UNL     1       8.998  10.696  34.432  1.00  0.00     0.189 HD
BRANCH  27  29
HETATM   29  N3  UNL     1       7.469  10.343  35.838  1.00  0.00    -0.263 N 
ATOM     30  H3  UNL     1       7.675   9.417  36.214  1.00  0.00     0.190 HD
BRANCH  29  31
HETATM   31  C5  UNL     1       6.141  10.874  35.949  1.00  0.00     0.235 C 
HETATM   32  N4  UNL     1       5.314  10.698  36.930  1.00  0.00    -0.352 N 
HETATM   33  C6  UNL     1       4.074  11.406  36.650  1.00  0.00     0.165 C 
ATOM     34  H4  UNL     1       5.503  10.150  37.769  1.00  0.00     0.163 HD
HETATM   35  C7  UNL     1       4.421  12.317  35.482  1.00  0.00     0.238 C 
HETATM   36  O4  UNL     1       5.576  11.673  34.963  1.00  0.00    -0.305 OA
BRANCH  35  37
HETATM   37  C8  UNL     1       3.319  12.348  34.508  1.00  0.00     0.262 C 
HETATM   38  N5  UNL     1       2.467  11.226  34.356  1.00  0.00    -0.060 NA
HETATM   39  O3  UNL     1       3.102  13.355  33.792  1.00  0.00    -0.274 OA
ENDBRANCH  35  37
ENDBRANCH  29  31
ENDBRANCH  27  29
ENDBRANCH   4  27
TORSDOF 14
ENDMDL
MODEL 5
REMARK VINA RESULT: -7.043843481      2.010      9.083
REMARK  14 active torsions:
REMARK  status: ('A' for Active; 'I' for Inactive)
REMARK    1  A    between atoms: O1_2  and  C2_3 
REMARK    2  A    between atoms: C2_3  and  S1_5 
REMARK    3  A    between atoms: S1_5  and  C3_6 
REMARK    4  A    between atoms: C4_9  and  N2_10 
REMARK    5  A    between atoms: N2_10  and  N3_12 
REMARK    6  A    between atoms: N3_12  and  C5_14 
REMARK    7  A    between atoms: C7_18  and  C8_19 
REMARK    8  A    between atoms: C9_24  and  C10_25 
REMARK       I    between atoms: C10_25  and  N6_27 
REMARK    9  A    between atoms: N6_27  and  N7_29 
REMARK   10  A    between atoms: N7_29  and  C11_30 
REMARK   11  A    between atoms: C11_30  and  O6_31 
REMARK   12  A    between atoms: C11_30  and  C12_33 
REMARK   13  A    between atoms: C12_33  and  C15_36 
REMARK   14  A    between atoms: C15_36  and  O7_38 
ROOT
HETATM    1  C3  UNL     1       9.169  15.486  35.760  1.00  0.00     0.104 A 
HETATM    2  N1  UNL     1      10.156  15.892  36.523  1.00  0.00    -0.328 N 
ATOM      3  H1  UNL     1      10.452  16.868  36.500  1.00  0.00     0.168 HD
HETATM    4  C4  UNL     1      10.767  15.033  37.321  1.00  0.00     0.165 A 
HETATM    5  S2  UNL     1       9.945  13.582  37.010  1.00  0.00    -0.044 SA
HETATM    6  C9  UNL     1       8.809  14.172  35.822  1.00  0.00     0.111 A 
ENDROOT
BRANCH   6   7
HETATM    7  C10 UNL     1       7.801  13.355  35.163  1.00  0.00     0.277 C 
HETATM    8  O5  UNL     1       8.249  12.336  34.530  1.00  0.00    -0.266 OA
HETATM    9  N6  UNL     1       6.423  13.573  35.157  1.00  0.00    -0.267 N 
ATOM     10  H6  UNL     1       6.023  14.371  35.651  1.00  0.00     0.185 HD
BRANCH   9  11
HETATM   11  N7  UNL     1       5.602  12.679  34.464  1.00  0.00    -0.105 NA
BRANCH  11  12
HETATM   12  C11 UNL     1       4.861  11.848  35.364  1.00  0.00     0.241 C 
BRANCH  12  13
HETATM   13  O6  UNL     1       4.977  10.501  35.014  1.00  0.00    -0.377 OA
ATOM     14  H6  UNL     1       4.130  10.072  35.023  1.00  0.00     0.211 HD
ENDBRANCH  12  13
BRANCH  12  15
HETATM   15  C12 UNL     1       3.472  12.254  35.651  1.00  0.00     0.020 C 
HETATM   16  C13 UNL     1       3.218  13.700  35.902  1.00  0.00     0.021 C 
HETATM   17  C14 UNL     1       3.021  11.503  36.917  1.00  0.00     0.021 C 
BRANCH  15  18
HETATM   18  C15 UNL     1       2.603  11.818  34.480  1.00  0.00     0.125 C 
HETATM   19  C16 UNL     1       1.593  12.879  34.134  1.00  0.00     0.040 C 
BRANCH  18  20
HETATM   20  O7  UNL     1       1.920  10.677  34.862  1.00  0.00    -0.395 OA
ATOM     21  H7  UNL     1       1.179  10.572  34.277  1.00  0.00     0.210 HD
ENDBRANCH  18  20
ENDBRANCH  15  18
ENDBRANCH  12  15
ENDBRANCH  11  12
ENDBRANCH   9  11
ENDBRANCH   6   7
BRANCH   1  22
HETATM   22  S1  UNL     1       8.284  16.641  34.630  1.00  0.00    -0.002 SA
BRANCH  22  23
HETATM   23  C2  UNL     1       8.325  15.990  32.970  1.00  0.00     0.328 C 
HETATM   24  O2  UNL     1       9.279  16.089  32.189  1.00  0.00    -0.251 OA
BRANCH  23  25
HETATM   25  O1  UNL     1       7.188  15.325  32.545  1.00  0.00    -0.317 OA
HETATM   26  C1  UNL     1       7.191  14.300  31.579  1.00  0.00     0.214 C 
ENDBRANCH  23  25
ENDBRANCH  22  23
ENDBRANCH   1  22
BRANCH   4  27
HETATM   27  N2  UNL     1      11.764  15.258  38.151  1.00  0.00    -0.277 N 
ATOM     28  H2  UNL     1      11.915  14.661  38.964  1.00  0.00     0.189 HD
BRANCH  27  29
HETATM   29  N3  UNL     1      12.607  16.336  37.887  1.00  0.00    -0.263 N 
ATOM     30  H3  UNL     1      13.334  16.244  37.178  1.00  0.00     0.190 HD
BRANCH  29  31
HETATM   31  C5  UNL     1      12.462  17.572  38.600  1.00  0.00     0.235 C 
HETATM   32  N4  UNL     1      12.009  17.726  39.803  1.00  0.00    -0.352 N 
HETATM   33  C6  UNL     1      12.026  19.139  40.150  1.00  0.00     0.165 C 
ATOM     34  H4  UNL     1      11.689  16.973  40.413  1.00  0.00     0.163 HD
HETATM   35  C7  UNL     1      12.885  19.777  39.069  1.00  0.00     0.238 C 
HETATM   36  O4  UNL     1      12.813  18.796  38.044  1.00  0.00    -0.305 OA
BRANCH  35  37
HETATM   37  C8  UNL     1      12.311  21.063  38.646  1.00  0.00     0.262 C 
HETATM   38  N5  UNL     1      12.993  21.876  37.706  1.00  0.00    -0.060 NA
HETATM   39  O3  UNL     1      11.215  21.475  39.096  1.00  0.00    -0.274 OA
ENDBRANCH  35  37
ENDBRANCH  29  31
ENDBRANCH  27  29
ENDBRANCH   4  27
TORSDOF 14
ENDMDL
