MODEL 1
REMARK VINA RESULT: -7.961097112      0.000      0.000
REMARK  12 active torsions:
REMARK  status: ('A' for Active; 'I' for Inactive)
REMARK       I    between atoms: C1_4  and  N2_5 
REMARK       I    between atoms: C1_4  and  N11_42 
REMARK    1  A    between atoms: N2_5  and  N3_7 
REMARK       I    between atoms: N3_7  and  C2_9 
REMARK       I    between atoms: C2_9  and  N7_29 
REMARK    2  A    between atoms: N4_10  and  C3_12 
REMARK    3  A    between atoms: C5_14  and  N5_15 
REMARK    4  A    between atoms: C6_18  and  O3_19 
REMARK    5  A    between atoms: O3_19  and  C7_20 
REMARK    6  A    between atoms: C7_20  and  C8_21 
REMARK    7  A    between atoms: C8_21  and  O4_22 
REMARK    8  A    between atoms: C10_25  and  N6_26 
REMARK    9  A    between atoms: N7_29  and  N8_31 
REMARK   10  A    between atoms: C11_33  and  C12_34 
REMARK   11  A    between atoms: N10_39  and  O7_40 
REMARK   12  A    between atoms: N11_42  and  N12_44 
ROOT
HETATM    1  N3  UNL     1       8.368  11.048  37.354  1.00  0.00    -0.116 N 
ATOM      2  H3  UNL     1       8.984  10.759  38.114  1.00  0.00     0.206 HD
HETATM    3  C2  UNL     1       8.803  12.071  36.469  1.00  0.00     0.712 C 
HETATM    4  N4  UNL     1       7.979  12.859  35.993  1.00  0.00    -0.187 N 
ATOM      5  H4  UNL     1       7.029  12.669  36.313  1.00  0.00     0.184 HD
HETATM    6  N7  UNL     1      10.225  12.132  36.185  1.00  0.00    -0.131 N 
ATOM      7  H7  UNL     1      10.646  13.010  35.882  1.00  0.00     0.205 HD
ENDROOT
BRANCH   1   8
HETATM    8  N2  UNL     1       7.132  10.425  37.219  1.00  0.00    -0.117 N 
HETATM    9  C1  UNL     1       6.138  10.612  38.189  1.00  0.00     0.710 C 
HETATM   10  N1  UNL     1       5.304  11.574  38.066  1.00  0.00    -0.232 N 
HETATM   11  N11 UNL     1       6.049   9.748  39.294  1.00  0.00    -0.071 N 
ATOM     12  H12 UNL     1       5.369  12.201  37.265  1.00  0.00     0.174 HD
ATOM     13  H11 UNL     1       4.581  11.710  38.772  1.00  0.00     0.174 HD
ATOM     14  H11 UNL     1       6.657   9.889  40.100  1.00  0.00     0.212 HD
ATOM     15  H2  UNL     1       6.948   9.829  36.411  1.00  0.00     0.206 HD
BRANCH  11  16
HETATM   16  N12 UNL     1       5.133   8.701  39.291  1.00  0.00    -0.024 N 
HETATM   17  O8  UNL     1       3.960   8.959  39.662  1.00  0.00    -0.516 OA
HETATM   18  O9  UNL     1       5.436   7.417  38.909  1.00  0.00    -0.516 OA
ENDBRANCH  11  16
ENDBRANCH   1   8
BRANCH   4  19
HETATM   19  C3  UNL     1       8.039  13.939  35.127  1.00  0.00     0.085 A 
HETATM   20  C4  UNL     1       7.602  13.879  33.819  1.00  0.00     0.071 A 
HETATM   21  C5  UNL     1       7.653  14.951  32.968  1.00  0.00     0.138 A 
HETATM   22  C6  UNL     1       8.171  16.193  33.414  1.00  0.00     0.104 A 
HETATM   23  C9  UNL     1       8.607  16.265  34.712  1.00  0.00     0.077 A 
HETATM   24  C10 UNL     1       8.538  15.139  35.555  1.00  0.00     0.132 A 
BRANCH  21  25
HETATM   25  N5  UNL     1       7.189  14.837  31.628  1.00  0.00    -0.113 N 
HETATM   26  O1  UNL     1       5.965  15.003  31.407  1.00  0.00    -0.532 OA
HETATM   27  O2  UNL     1       8.020  14.557  30.596  1.00  0.00    -0.532 OA
ENDBRANCH  21  25
BRANCH  22  28
HETATM   28  O3  UNL     1       8.180  17.184  32.527  1.00  0.00    -0.346 OA
BRANCH  28  29
HETATM   29  C7  UNL     1       8.865  17.829  31.595  1.00  0.00     0.201 C 
BRANCH  29  30
HETATM   30  C8  UNL     1      10.267  17.365  31.302  1.00  0.00     0.190 C 
BRANCH  30  31
HETATM   31  O4  UNL     1      11.031  18.287  30.670  1.00  0.00    -0.399 OA
ATOM     32  H4  UNL     1      11.962  18.187  30.825  1.00  0.00     0.209 HD
ENDBRANCH  30  31
ENDBRANCH  29  30
ENDBRANCH  28  29
ENDBRANCH  22  28
BRANCH  24  33
HETATM   33  N6  UNL     1       8.996  15.277  36.881  1.00  0.00    -0.113 N 
HETATM   34  O5  UNL     1      10.227  15.129  37.090  1.00  0.00    -0.532 OA
HETATM   35  O6  UNL     1       8.110  15.562  37.881  1.00  0.00    -0.532 OA
ENDBRANCH  24  33
ENDBRANCH   4  19
BRANCH   6  36
HETATM   36  N8  UNL     1      10.984  11.037  36.320  1.00  0.00    -0.295 N 
HETATM   37  C11 UNL     1      12.147  10.638  36.320  1.00  0.00     0.141 C 
ATOM     38  H8  UNL     1      10.371  10.239  36.484  1.00  0.00     0.186 HD
BRANCH  37  39
HETATM   39  C12 UNL     1      13.369  11.387  36.130  1.00  0.00     0.095 A 
HETATM   40  C13 UNL     1      14.661  10.934  36.105  1.00  0.00     0.122 A 
HETATM   41  N9  UNL     1      15.456  12.023  35.882  1.00  0.00    -0.358 N 
HETATM   42  C14 UNL     1      14.688  13.102  35.775  1.00  0.00     0.213 A 
ATOM     43  H9  UNL     1      16.473  12.010  35.808  1.00  0.00     0.166 HD
HETATM   44  N10 UNL     1      13.413  12.733  35.923  1.00  0.00    -0.218 N 
BRANCH  44  45
HETATM   45  O7  UNL     1      12.341  13.622  35.866  1.00  0.00    -0.282 OA
ATOM     46  H7  UNL     1      11.625  13.630  35.242  1.00  0.00     0.245 HD
ENDBRANCH  44  45
ENDBRANCH  37  39
ENDBRANCH   6  36
TORSDOF 12
ENDMDL
MODEL 2
REMARK VINA RESULT: -7.926738296      4.137      5.655
REMARK  12 active torsions:
REMARK  status: ('A' for Active; 'I' for Inactive)
REMARK       I    between atoms: C1_4  and  N2_5 
REMARK       I    between atoms: C1_4  and  N11_42 
REMARK    1  A    between atoms: N2_5  and  N3_7 
REMARK       I    between atoms: N3_7  and  C2_9 
REMARK       I    between atoms: C2_9  and  N7_29 
REMARK    2  A    between atoms: N4_10  and  C3_12 
REMARK    3  A    between atoms: C5_14  and  N5_15 
REMARK    4  A    between atoms: C6_18  and  O3_19 
REMARK    5  A    between atoms: O3_19  and  C7_20 
REMARK    6  A    between atoms: C7_20  and  C8_21 
REMARK    7  A    between atoms: C8_21  and  O4_22 
REMARK    8  A    between atoms: C10_25  and  N6_26 
REMARK    9  A    between atoms: N7_29  and  N8_31 
REMARK   10  A    between atoms: C11_33  and  C12_34 
REMARK   11  A    between atoms: N10_39  and  O7_40 
REMARK   12  A    between atoms: N11_42  and  N12_44 
ROOT
HETATM    1  N3  UNL     1       9.057  17.894  38.098  1.00  0.00    -0.116 N 
ATOM      2  H3  UNL     1       9.854  18.341  38.553  1.00  0.00     0.206 HD
HETATM    3  C2  UNL     1       9.280  17.128  36.923  1.00  0.00     0.712 C 
HETATM    4  N4  UNL     1       8.422  17.106  36.035  1.00  0.00    -0.187 N 
ATOM      5  H4  UNL     1       7.609  17.677  36.266  1.00  0.00     0.184 HD
HETATM    6  N7  UNL     1      10.540  16.411  36.835  1.00  0.00    -0.131 N 
ATOM      7  H7  UNL     1      10.920  16.160  35.923  1.00  0.00     0.205 HD
ENDROOT
BRANCH   1   8
HETATM    8  N2  UNL     1       7.791  18.054  38.652  1.00  0.00    -0.117 N 
HETATM    9  C1  UNL     1       7.282  17.095  39.538  1.00  0.00     0.710 C 
HETATM   10  N1  UNL     1       7.493  17.216  40.793  1.00  0.00    -0.232 N 
HETATM   11  N11 UNL     1       6.540  16.003  39.056  1.00  0.00    -0.071 N 
ATOM     12  H12 UNL     1       8.032  18.008  41.143  1.00  0.00     0.174 HD
ATOM     13  H11 UNL     1       7.122  16.518  41.438  1.00  0.00     0.174 HD
ATOM     14  H11 UNL     1       7.021  15.188  38.680  1.00  0.00     0.212 HD
ATOM     15  H2  UNL     1       7.231  18.872  38.412  1.00  0.00     0.206 HD
BRANCH  11  16
HETATM   16  N12 UNL     1       5.149  16.033  39.093  1.00  0.00    -0.024 N 
HETATM   17  O8  UNL     1       4.599  17.153  39.251  1.00  0.00    -0.516 OA
HETATM   18  O9  UNL     1       4.354  14.921  38.966  1.00  0.00    -0.516 OA
ENDBRANCH  11  16
ENDBRANCH   1   8
BRANCH   4  19
HETATM   19  C3  UNL     1       8.301  16.490  34.799  1.00  0.00     0.085 A 
HETATM   20  C4  UNL     1       8.670  17.100  33.617  1.00  0.00     0.071 A 
HETATM   21  C5  UNL     1       8.559  16.484  32.398  1.00  0.00     0.138 A 
HETATM   22  C6  UNL     1       8.047  15.166  32.306  1.00  0.00     0.104 A 
HETATM   23  C9  UNL     1       7.678  14.550  33.475  1.00  0.00     0.077 A 
HETATM   24  C10 UNL     1       7.808  15.217  34.709  1.00  0.00     0.132 A 
BRANCH  21  25
HETATM   25  N5  UNL     1       8.954  17.156  31.208  1.00  0.00    -0.113 N 
HETATM   26  O1  UNL     1       8.056  17.601  30.451  1.00  0.00    -0.532 OA
HETATM   27  O2  UNL     1      10.255  17.327  30.870  1.00  0.00    -0.532 OA
ENDBRANCH  21  25
BRANCH  22  28
HETATM   28  O3  UNL     1       7.978  14.641  31.087  1.00  0.00    -0.346 OA
BRANCH  28  29
HETATM   29  C7  UNL     1       7.336  13.816  30.271  1.00  0.00     0.201 C 
BRANCH  29  30
HETATM   30  C8  UNL     1       7.925  12.450  30.045  1.00  0.00     0.190 C 
BRANCH  30  31
HETATM   31  O4  UNL     1       9.199  12.321  30.483  1.00  0.00    -0.399 OA
ATOM     32  H4  UNL     1       9.816  12.068  29.806  1.00  0.00     0.209 HD
ENDBRANCH  30  31
ENDBRANCH  29  30
ENDBRANCH  28  29
ENDBRANCH  22  28
BRANCH  24  33
HETATM   33  N6  UNL     1       7.418  14.530  35.876  1.00  0.00    -0.113 N 
HETATM   34  O5  UNL     1       6.202  14.566  36.194  1.00  0.00    -0.532 OA
HETATM   35  O6  UNL     1       8.350  13.858  36.614  1.00  0.00    -0.532 OA
ENDBRANCH  24  33
ENDBRANCH   4  19
BRANCH   6  36
HETATM   36  N8  UNL     1      11.202  16.080  37.951  1.00  0.00    -0.295 N 
HETATM   37  C11 UNL     1      11.841  16.546  38.893  1.00  0.00     0.141 C 
ATOM     38  H8  UNL     1      11.162  15.067  38.061  1.00  0.00     0.186 HD
BRANCH  37  39
HETATM   39  C12 UNL     1      12.168  17.924  39.181  1.00  0.00     0.095 A 
HETATM   40  C13 UNL     1      13.180  18.693  38.669  1.00  0.00     0.122 A 
HETATM   41  N9  UNL     1      13.062  19.930  39.240  1.00  0.00    -0.358 N 
HETATM   42  C14 UNL     1      12.025  19.923  40.070  1.00  0.00     0.213 A 
ATOM     43  H9  UNL     1      13.672  20.727  39.059  1.00  0.00     0.166 HD
HETATM   44  N10 UNL     1      11.467  18.710  40.046  1.00  0.00    -0.218 N 
BRANCH  44  45
HETATM   45  O7  UNL     1      10.351  18.358  40.803  1.00  0.00    -0.282 OA
ATOM     46  H7  UNL     1       9.756  18.937  41.264  1.00  0.00     0.245 HD
ENDBRANCH  44  45
ENDBRANCH  37  39
ENDBRANCH   6  36
TORSDOF 12
ENDMDL
MODEL 3
REMARK VINA RESULT: -7.865054817      2.970      7.979
REMARK  12 active torsions:
REMARK  status: ('A' for Active; 'I' for Inactive)
REMARK       I    between atoms: C1_4  and  N2_5 
REMARK       I    between atoms: C1_4  and  N11_42 
REMARK    1  A    between atoms: N2_5  and  N3_7 
REMARK       I    between atoms: N3_7  and  C2_9 
REMARK       I    between atoms: C2_9  and  N7_29 
REMARK    2  A    between atoms: N4_10  and  C3_12 
REMARK    3  A    between atoms: C5_14  and  N5_15 
REMARK    4  A    between atoms: C6_18  and  O3_19 
REMARK    5  A    between atoms: O3_19  and  C7_20 
REMARK    6  A    between atoms: C7_20  and  C8_21 
REMARK    7  A    between atoms: C8_21  and  O4_22 
REMARK    8  A    between atoms: C10_25  and  N6_26 
REMARK    9  A    between atoms: N7_29  and  N8_31 
REMARK   10  A    between atoms: C11_33  and  C12_34 
REMARK   11  A    between atoms: N10_39  and  O7_40 
REMARK   12  A    between atoms: N11_42  and  N12_44 
ROOT
HETATM    1  N3  UNL     1       8.273  15.875  34.992  1.00  0.00    -0.116 N 
ATOM      2  H3  UNL     1       9.143  16.389  35.134  1.00  0.00     0.206 HD
HETATM    3  C2  UNL     1       7.813  15.009  36.020  1.00  0.00     0.712 C 
HETATM    4  N4  UNL     1       7.214  13.971  35.723  1.00  0.00    -0.187 N 
ATOM      5  H4  UNL     1       7.118  13.852  34.714  1.00  0.00     0.184 HD
HETATM    6  N7  UNL     1       8.094  15.407  37.388  1.00  0.00    -0.131 N 
ATOM      7  H7  UNL     1       8.133  14.703  38.125  1.00  0.00     0.205 HD
ENDROOT
BRANCH   1   8
HETATM    8  N2  UNL     1       7.578  16.047  33.799  1.00  0.00    -0.117 N 
HETATM    9  C1  UNL     1       8.016  15.411  32.630  1.00  0.00     0.710 C 
HETATM   10  N1  UNL     1       7.580  14.245  32.340  1.00  0.00    -0.232 N 
HETATM   11  N11 UNL     1       8.930  16.048  31.772  1.00  0.00    -0.071 N 
ATOM     12  H12 UNL     1       6.917  13.782  32.963  1.00  0.00     0.174 HD
ATOM     13  H11 UNL     1       7.899  13.782  31.489  1.00  0.00     0.174 HD
ATOM     14  H11 UNL     1       9.927  16.025  31.983  1.00  0.00     0.212 HD
ATOM     15  H2  UNL     1       6.748  16.638  33.775  1.00  0.00     0.206 HD
BRANCH  11  16
HETATM   16  N12 UNL     1       8.476  16.708  30.634  1.00  0.00    -0.024 N 
HETATM   17  O8  UNL     1       8.501  17.965  30.648  1.00  0.00    -0.516 OA
HETATM   18  O9  UNL     1       8.011  16.070  29.511  1.00  0.00    -0.516 OA
ENDBRANCH  11  16
ENDBRANCH   1   8
BRANCH   4  19
HETATM   19  C3  UNL     1       6.642  12.928  36.434  1.00  0.00     0.085 A 
HETATM   20  C4  UNL     1       5.301  12.890  36.763  1.00  0.00     0.071 A 
HETATM   21  C5  UNL     1       4.736  11.853  37.457  1.00  0.00     0.138 A 
HETATM   22  C6  UNL     1       5.529  10.755  37.874  1.00  0.00     0.104 A 
HETATM   23  C9  UNL     1       6.862  10.782  37.553  1.00  0.00     0.077 A 
HETATM   24  C10 UNL     1       7.405  11.867  36.837  1.00  0.00     0.132 A 
BRANCH  21  25
HETATM   25  N5  UNL     1       3.348  11.861  37.771  1.00  0.00    -0.113 N 
HETATM   26  O1  UNL     1       2.976  12.473  38.802  1.00  0.00    -0.532 OA
HETATM   27  O2  UNL     1       2.427  11.235  37.000  1.00  0.00    -0.532 OA
ENDBRANCH  21  25
BRANCH  22  28
HETATM   28  O3  UNL     1       4.902   9.789  38.538  1.00  0.00    -0.346 OA
BRANCH  28  29
HETATM   29  C7  UNL     1       4.566   9.297  39.722  1.00  0.00     0.201 C 
BRANCH  29  30
HETATM   30  C8  UNL     1       4.696   7.812  39.930  1.00  0.00     0.190 C 
BRANCH  30  31
HETATM   31  O4  UNL     1       5.415   7.183  38.971  1.00  0.00    -0.399 OA
ATOM     32  H4  UNL     1       6.196   6.751  39.295  1.00  0.00     0.209 HD
ENDBRANCH  30  31
ENDBRANCH  29  30
ENDBRANCH  28  29
ENDBRANCH  22  28
BRANCH  24  33
HETATM   33  N6  UNL     1       8.781  11.835  36.530  1.00  0.00    -0.113 N 
HETATM   34  O5  UNL     1       9.134  11.197  35.506  1.00  0.00    -0.532 OA
HETATM   35  O6  UNL     1       9.673  12.484  37.335  1.00  0.00    -0.532 OA
ENDBRANCH  24  33
ENDBRANCH   4  19
BRANCH   6  36
HETATM   36  N8  UNL     1       8.304  16.696  37.682  1.00  0.00    -0.295 N 
HETATM   37  C11 UNL     1       9.181  17.519  37.937  1.00  0.00     0.141 C 
ATOM     38  H8  UNL     1       7.402  17.172  37.701  1.00  0.00     0.186 HD
BRANCH  37  39
HETATM   39  C12 UNL     1      10.611  17.330  38.026  1.00  0.00     0.095 A 
HETATM   40  C13 UNL     1      11.614  18.247  37.854  1.00  0.00     0.122 A 
HETATM   41  N9  UNL     1      12.793  17.585  38.056  1.00  0.00    -0.358 N 
HETATM   42  C14 UNL     1      12.529  16.314  38.339  1.00  0.00     0.213 A 
ATOM     43  H9  UNL     1      13.723  17.999  37.998  1.00  0.00     0.166 HD
HETATM   44  N10 UNL     1      11.205  16.140  38.327  1.00  0.00    -0.218 N 
BRANCH  44  45
HETATM   45  O7  UNL     1      10.584  14.919  38.586  1.00  0.00    -0.282 OA
ATOM     46  H7  UNL     1      10.459  14.193  37.988  1.00  0.00     0.245 HD
ENDBRANCH  44  45
ENDBRANCH  37  39
ENDBRANCH   6  36
TORSDOF 12
ENDMDL
MODEL 4
REMARK VINA RESULT: -7.758551757      2.840      8.427
REMARK  12 active torsions:
REMARK  status: ('A' for Active; 'I' for Inactive)
REMARK       I    between atoms: C1_4  and  N2_5 
REMARK       I    between atoms: C1_4  and  N11_42 
REMARK    1  A    between atoms: N2_5  and  N3_7 
REMARK       I    between atoms: N3_7  and  C2_9 
REMARK       I    between atoms: C2_9  and  N7_29 
REMARK    2  A    between atoms: N4_10  and  C3_12 
REMARK    3  A    between atoms: C5_14  and  N5_15 
REMARK    4  A    between atoms: C6_18  and  O3_19 
REMARK    5  A    between atoms: O3_19  and  C7_20 
REMARK    6  A    between atoms: C7_20  and  C8_21 
REMARK    7  A    between atoms: C8_21  and  O4_22 
REMARK    8  A    between atoms: C10_25  and  N6_26 
REMARK    9  A    between atoms: N7_29  and  N8_31 
REMARK   10  A    between atoms: C11_33  and  C12_34 
REMARK   11  A    between atoms: N10_39  and  O7_40 
REMARK   12  A    between atoms: N11_42  and  N12_44 
ROOT
HETATM    1  N3  UNL     1       8.037  13.372  34.255  1.00  0.00    -0.116 N 
ATOM      2  H3  UNL     1       8.957  13.086  33.919  1.00  0.00     0.206 HD
HETATM    3  C2  UNL     1       7.526  12.780  35.440  1.00  0.00     0.712 C 
HETATM    4  N4  UNL     1       6.312  12.580  35.550  1.00  0.00    -0.187 N 
ATOM      5  H4  UNL     1       5.792  12.881  34.726  1.00  0.00     0.184 HD
HETATM    6  N7  UNL     1       8.490  12.427  36.467  1.00  0.00    -0.131 N 
ATOM      7  H7  UNL     1       8.268  11.699  37.146  1.00  0.00     0.205 HD
ENDROOT
BRANCH   1   8
HETATM    8  N2  UNL     1       7.328  14.329  33.537  1.00  0.00    -0.117 N 
HETATM    9  C1  UNL     1       7.412  14.367  32.138  1.00  0.00     0.710 C 
HETATM   10  N1  UNL     1       6.584  13.693  31.434  1.00  0.00    -0.232 N 
HETATM   11  N11 UNL     1       8.398  15.143  31.504  1.00  0.00    -0.071 N 
ATOM     12  H12 UNL     1       5.869  13.129  31.894  1.00  0.00     0.174 HD
ATOM     13  H11 UNL     1       6.646  13.721  30.417  1.00  0.00     0.174 HD
ATOM     14  H11 UNL     1       9.345  14.780  31.406  1.00  0.00     0.212 HD
ATOM     15  H2  UNL     1       6.745  15.006  34.029  1.00  0.00     0.206 HD
BRANCH  11  16
HETATM   16  N12 UNL     1       8.083  16.405  31.011  1.00  0.00    -0.024 N 
HETATM   17  O8  UNL     1       6.898  16.801  31.151  1.00  0.00    -0.516 OA
HETATM   18  O9  UNL     1       8.986  17.232  30.388  1.00  0.00    -0.516 OA
ENDBRANCH  11  16
ENDBRANCH   1   8
BRANCH   4  19
HETATM   19  C3  UNL     1       5.488  12.044  36.527  1.00  0.00     0.085 A 
HETATM   20  C4  UNL     1       5.936  11.153  37.482  1.00  0.00     0.071 A 
HETATM   21  C5  UNL     1       5.121  10.633  38.453  1.00  0.00     0.138 A 
HETATM   22  C6  UNL     1       3.754  11.001  38.512  1.00  0.00     0.104 A 
HETATM   23  C9  UNL     1       3.298  11.886  37.568  1.00  0.00     0.077 A 
HETATM   24  C10 UNL     1       4.167  12.398  36.586  1.00  0.00     0.132 A 
BRANCH  21  25
HETATM   25  N5  UNL     1       5.632   9.718  39.415  1.00  0.00    -0.113 N 
HETATM   26  O1  UNL     1       5.843   8.534  39.055  1.00  0.00    -0.532 OA
HETATM   27  O2  UNL     1       5.894  10.082  40.693  1.00  0.00    -0.532 OA
ENDBRANCH  21  25
BRANCH  22  28
HETATM   28  O3  UNL     1       3.034  10.455  39.487  1.00  0.00    -0.346 OA
BRANCH  28  29
HETATM   29  C7  UNL     1       2.094   9.581  39.814  1.00  0.00     0.201 C 
BRANCH  29  30
HETATM   30  C8  UNL     1       2.496   8.391  40.644  1.00  0.00     0.190 C 
BRANCH  30  31
HETATM   31  O4  UNL     1       3.159   7.436  39.951  1.00  0.00    -0.399 OA
ATOM     32  H4  UNL     1       3.864   7.025  40.438  1.00  0.00     0.209 HD
ENDBRANCH  30  31
ENDBRANCH  29  30
ENDBRANCH  28  29
ENDBRANCH  22  28
BRANCH  24  33
HETATM   33  N6  UNL     1       3.642  13.309  35.648  1.00  0.00    -0.113 N 
HETATM   34  O5  UNL     1       3.106  14.357  36.091  1.00  0.00    -0.532 OA
HETATM   35  O6  UNL     1       3.729  13.037  34.312  1.00  0.00    -0.532 OA
ENDBRANCH  24  33
ENDBRANCH   4  19
BRANCH   6  36
HETATM   36  N8  UNL     1       9.670  13.058  36.523  1.00  0.00    -0.295 N 
HETATM   37  C11 UNL     1      10.191  14.168  36.613  1.00  0.00     0.141 C 
ATOM     38  H8  UNL     1      10.411  12.359  36.474  1.00  0.00     0.186 HD
BRANCH  37  39
HETATM   39  C12 UNL     1       9.562  15.466  36.710  1.00  0.00     0.095 A 
HETATM   40  C13 UNL     1       9.100  16.118  37.822  1.00  0.00     0.122 A 
HETATM   41  N9  UNL     1       8.603  17.319  37.398  1.00  0.00    -0.358 N 
HETATM   42  C14 UNL     1       8.751  17.403  36.080  1.00  0.00     0.213 A 
ATOM     43  H9  UNL     1       8.188  18.034  37.995  1.00  0.00     0.166 HD
HETATM   44  N10 UNL     1       9.333  16.284  35.644  1.00  0.00    -0.218 N 
BRANCH  44  45
HETATM   45  O7  UNL     1       9.637  16.043  34.304  1.00  0.00    -0.282 OA
ATOM     46  H7  UNL     1      10.119  16.603  33.708  1.00  0.00     0.245 HD
ENDBRANCH  44  45
ENDBRANCH  37  39
ENDBRANCH   6  36
TORSDOF 12
ENDMDL
MODEL 5
REMARK VINA RESULT: -7.718908823      3.274      4.653
REMARK  12 active torsions:
REMARK  status: ('A' for Active; 'I' for Inactive)
REMARK       I    between atoms: C1_4  and  N2_5 
REMARK       I    between atoms: C1_4  and  N11_42 
REMARK    1  A    between atoms: N2_5  and  N3_7 
REMARK       I    between atoms: N3_7  and  C2_9 
REMARK       I    between atoms: C2_9  and  N7_29 
REMARK    2  A    between atoms: N4_10  and  C3_12 
REMARK    3  A    between atoms: C5_14  and  N5_15 
REMARK    4  A    between atoms: C6_18  and  O3_19 
REMARK    5  A    between atoms: O3_19  and  C7_20 
REMARK    6  A    between atoms: C7_20  and  C8_21 
REMARK    7  A    between atoms: C8_21  and  O4_22 
REMARK    8  A    between atoms: C10_25  and  N6_26 
REMARK    9  A    between atoms: N7_29  and  N8_31 
REMARK   10  A    between atoms: C11_33  and  C12_34 
REMARK   11  A    between atoms: N10_39  and  O7_40 
REMARK   12  A    between atoms: N11_42  and  N12_44 
ROOT
HETATM    1  N3  UNL     1       8.919  17.989  37.992  1.00  0.00    -0.116 N 
ATOM      2  H3  UNL     1       9.687  18.503  38.423  1.00  0.00     0.206 HD
HETATM    3  C2  UNL     1       9.172  17.236  36.814  1.00  0.00     0.712 C 
HETATM    4  N4  UNL     1       8.295  17.138  35.950  1.00  0.00    -0.187 N 
ATOM      5  H4  UNL     1       7.444  17.641  36.201  1.00  0.00     0.184 HD
HETATM    6  N7  UNL     1      10.484  16.626  36.694  1.00  0.00    -0.131 N 
ATOM      7  H7  UNL     1      10.860  16.402  35.773  1.00  0.00     0.205 HD
ENDROOT
BRANCH   1   8
HETATM    8  N2  UNL     1       7.659  18.047  38.580  1.00  0.00    -0.117 N 
HETATM    9  C1  UNL     1       7.256  17.055  39.484  1.00  0.00     0.710 C 
HETATM   10  N1  UNL     1       7.490  17.202  40.732  1.00  0.00    -0.232 N 
HETATM   11  N11 UNL     1       6.594  15.902  39.028  1.00  0.00    -0.071 N 
ATOM     12  H12 UNL     1       7.970  18.038  41.063  1.00  0.00     0.174 HD
ATOM     13  H11 UNL     1       7.196  16.480  41.390  1.00  0.00     0.174 HD
ATOM     14  H11 UNL     1       7.131  15.126  38.642  1.00  0.00     0.212 HD
ATOM     15  H2  UNL     1       7.027  18.814  38.352  1.00  0.00     0.206 HD
BRANCH  11  16
HETATM   16  N12 UNL     1       5.208  15.816  39.102  1.00  0.00    -0.024 N 
HETATM   17  O8  UNL     1       4.578  16.870  39.375  1.00  0.00    -0.516 OA
HETATM   18  O9  UNL     1       4.498  14.659  38.896  1.00  0.00    -0.516 OA
ENDBRANCH  11  16
ENDBRANCH   1   8
BRANCH   4  19
HETATM   19  C3  UNL     1       8.193  16.507  34.720  1.00  0.00     0.085 A 
HETATM   20  C4  UNL     1       8.516  17.126  33.529  1.00  0.00     0.071 A 
HETATM   21  C5  UNL     1       8.424  16.496  32.316  1.00  0.00     0.138 A 
HETATM   22  C6  UNL     1       7.980  15.152  32.240  1.00  0.00     0.104 A 
HETATM   23  C9  UNL     1       7.656  14.527  33.418  1.00  0.00     0.077 A 
HETATM   24  C10 UNL     1       7.765  15.210  34.645  1.00  0.00     0.132 A 
BRANCH  21  25
HETATM   25  N5  UNL     1       8.770  17.177  31.116  1.00  0.00    -0.113 N 
HETATM   26  O1  UNL     1       7.842  17.570  30.367  1.00  0.00    -0.532 OA
HETATM   27  O2  UNL     1      10.056  17.412  30.762  1.00  0.00    -0.532 OA
ENDBRANCH  21  25
BRANCH  22  28
HETATM   28  O3  UNL     1       7.923  14.614  31.026  1.00  0.00    -0.346 OA
BRANCH  28  29
HETATM   29  C7  UNL     1       7.294  13.777  30.213  1.00  0.00     0.201 C 
BRANCH  29  30
HETATM   30  C8  UNL     1       7.886  12.407  30.016  1.00  0.00     0.190 C 
BRANCH  30  31
HETATM   31  O4  UNL     1       9.169  12.297  30.432  1.00  0.00    -0.399 OA
ATOM     32  H4  UNL     1       9.350  11.502  30.919  1.00  0.00     0.209 HD
ENDBRANCH  30  31
ENDBRANCH  29  30
ENDBRANCH  28  29
ENDBRANCH  22  28
BRANCH  24  33
HETATM   33  N6  UNL     1       7.424  14.513  35.822  1.00  0.00    -0.113 N 
HETATM   34  O5  UNL     1       6.207  14.450  36.129  1.00  0.00    -0.532 OA
HETATM   35  O6  UNL     1       8.404  13.937  36.579  1.00  0.00    -0.532 OA
ENDBRANCH  24  33
ENDBRANCH   4  19
BRANCH   6  36
HETATM   36  N8  UNL     1      11.202  16.358  37.793  1.00  0.00    -0.295 N 
HETATM   37  C11 UNL     1      12.173  15.727  38.206  1.00  0.00     0.141 C 
ATOM     38  H8  UNL     1      10.791  16.865  38.577  1.00  0.00     0.186 HD
BRANCH  37  39
HETATM   39  C12 UNL     1      13.075  14.863  37.480  1.00  0.00     0.095 A 
HETATM   40  C13 UNL     1      14.436  14.748  37.592  1.00  0.00     0.122 A 
HETATM   41  N9  UNL     1      14.826  13.787  36.702  1.00  0.00    -0.358 N 
HETATM   42  C14 UNL     1      13.753  13.329  36.066  1.00  0.00     0.213 A 
ATOM     43  H9  UNL     1      15.784  13.473  36.550  1.00  0.00     0.166 HD
HETATM   44  N10 UNL     1      12.677  13.973  36.527  1.00  0.00    -0.218 N 
BRANCH  44  45
HETATM   45  O7  UNL     1      11.381  13.733  36.074  1.00  0.00    -0.282 OA
ATOM     46  H7  UNL     1      10.636  14.321  36.105  1.00  0.00     0.245 HD
ENDBRANCH  44  45
ENDBRANCH  37  39
ENDBRANCH   6  36
TORSDOF 12
ENDMDL
