MODEL 1
REMARK VINA RESULT: -7.507655392      0.000      0.000
REMARK  10 active torsions:
REMARK  status: ('A' for Active; 'I' for Inactive)
REMARK    1  A    between atoms: C1_4  and  C2_5 
REMARK    2  A    between atoms: C1_4  and  N11_41 
REMARK    3  A    between atoms: C2_5  and  S1_6 
REMARK    4  A    between atoms: S1_6  and  C3_7 
REMARK    5  A    between atoms: C5_12  and  N4_13 
REMARK    6  A    between atoms: C6_16  and  N5_17 
REMARK       I    between atoms: N5_17  and  C7_19 
REMARK    7  A    between atoms: C7_19  and  C8_21 
REMARK    8  A    between atoms: C10_23  and  C11_24 
REMARK    9  A    between atoms: C11_24  and  N6_25 
REMARK       I    between atoms: N6_25  and  C12_27 
REMARK       I    between atoms: C12_27  and  N7_29 
REMARK   10  A    between atoms: N11_41  and  N12_43 
ROOT
HETATM    1  C3  UNL     1      13.750  13.902  36.442  1.00  0.00     0.147 A 
HETATM    2  N2  UNL     1      13.900  14.964  37.248  1.00  0.00    -0.323 N 
ATOM      3  H2  UNL     1      14.843  15.282  37.472  1.00  0.00     0.169 HD
HETATM    4  C4  UNL     1      12.837  15.634  37.779  1.00  0.00     0.155 A 
HETATM    5  N3  UNL     1      13.001  16.759  38.632  1.00  0.00    -0.080 NA
HETATM    6  C5  UNL     1      11.563  15.212  37.482  1.00  0.00     0.187 A 
HETATM    7  C6  UNL     1      11.406  14.122  36.655  1.00  0.00     0.147 A 
HETATM    8  N10 UNL     1      12.502  13.503  36.163  1.00  0.00    -0.321 N 
ATOM      9  H10 UNL     1      12.374  12.697  35.552  1.00  0.00     0.169 HD
ENDROOT
BRANCH   7  10
HETATM   10  N5  UNL     1      10.088  13.663  36.340  1.00  0.00    -0.305 N 
HETATM   11  C7  UNL     1       9.803  12.291  36.497  1.00  0.00     0.275 C 
HETATM   12  O3  UNL     1      10.674  11.490  36.897  1.00  0.00    -0.266 OA
ATOM     13  H5  UNL     1       9.374  14.312  36.010  1.00  0.00     0.170 HD
BRANCH  11  14
HETATM   14  C8  UNL     1       8.462  11.803  36.184  1.00  0.00     0.125 A 
HETATM   15  C9  UNL     1       7.278  12.275  36.689  1.00  0.00     0.073 A 
HETATM   16  C10 UNL     1       6.278  11.522  36.117  1.00  0.00     0.096 A 
HETATM   17  O5  UNL     1       6.867  10.670  35.331  1.00  0.00    -0.240 OA
HETATM   18  N9  UNL     1       8.154  10.805  35.344  1.00  0.00    -0.256 N 
ATOM     19  H9  UNL     1       8.820  10.248  34.807  1.00  0.00     0.195 HD
BRANCH  16  20
HETATM   20  C11 UNL     1       4.822  11.687  36.376  1.00  0.00     0.191 C 
BRANCH  20  21
HETATM   21  N6  UNL     1       4.391  11.016  37.579  1.00  0.00    -0.337 N 
HETATM   22  C12 UNL     1       4.257  11.682  38.821  1.00  0.00     0.318 C 
HETATM   23  O4  UNL     1       4.536  12.921  38.846  1.00  0.00    -0.247 OA
HETATM   24  N7  UNL     1       3.846  11.084  40.010  1.00  0.00    -0.331 N 
HETATM   25  C13 UNL     1       3.747  11.894  41.233  1.00  0.00     0.147 C 
HETATM   26  C16 UNL     1       3.501   9.707  40.168  1.00  0.00     0.147 C 
HETATM   27  C14 UNL     1       4.218  11.095  42.427  1.00  0.00     0.133 C 
HETATM   28  N8  UNL     1       5.050   9.983  42.055  1.00  0.00    -0.418 N 
HETATM   29  C15 UNL     1       4.515   9.085  41.098  1.00  0.00     0.133 C 
ATOM     30  H8  UNL     1       5.976   9.847  42.460  1.00  0.00     0.153 HD
ATOM     31  H6  UNL     1       4.174  10.021  37.532  1.00  0.00     0.164 HD
ENDBRANCH  20  21
ENDBRANCH  16  20
ENDBRANCH  11  14
ENDBRANCH   7  10
BRANCH   6  32
HETATM   32  N4  UNL     1      10.419  15.863  38.002  1.00  0.00    -0.108 N 
HETATM   33  O1  UNL     1       9.769  15.391  38.965  1.00  0.00    -0.532 OA
HETATM   34  O2  UNL     1      10.006  17.051  37.431  1.00  0.00    -0.532 OA
ENDBRANCH   6  32
BRANCH   1  35
HETATM   35  S1  UNL     1      15.183  13.049  35.770  1.00  0.00    -0.086 SA
BRANCH  35  36
HETATM   36  C2  UNL     1      15.031  11.305  36.318  1.00  0.00     0.159 C 
BRANCH  36  37
HETATM   37  C1  UNL     1      14.073  10.624  35.437  1.00  0.00     0.098 C 
HETATM   38  N1  UNL     1      14.370  10.375  34.206  1.00  0.00    -0.387 N 
ATOM     39  H12 UNL     1      15.279  10.653  33.835  1.00  0.00     0.157 HD
ATOM     40  H11 UNL     1      13.705   9.902  33.593  1.00  0.00     0.157 HD
BRANCH  37  41
HETATM   41  N11 UNL     1      12.812  10.238  35.950  1.00  0.00    -0.295 N 
ATOM     42  H11 UNL     1      12.295  10.870  36.561  1.00  0.00     0.187 HD
BRANCH  41  43
HETATM   43  N12 UNL     1      12.281   9.000  35.623  1.00  0.00    -0.344 N 
ATOM     44 2H12 UNL     1      12.872   8.316  35.150  1.00  0.00     0.176 HD
ATOM     45 1H12 UNL     1      11.311   8.785  35.855  1.00  0.00     0.176 HD
ENDBRANCH  41  43
ENDBRANCH  37  41
ENDBRANCH  36  37
ENDBRANCH  35  36
ENDBRANCH   1  35
TORSDOF 10
ENDMDL
MODEL 2
REMARK VINA RESULT: -7.503907919      2.513      3.722
REMARK  10 active torsions:
REMARK  status: ('A' for Active; 'I' for Inactive)
REMARK    1  A    between atoms: C1_4  and  C2_5 
REMARK    2  A    between atoms: C1_4  and  N11_41 
REMARK    3  A    between atoms: C2_5  and  S1_6 
REMARK    4  A    between atoms: S1_6  and  C3_7 
REMARK    5  A    between atoms: C5_12  and  N4_13 
REMARK    6  A    between atoms: C6_16  and  N5_17 
REMARK       I    between atoms: N5_17  and  C7_19 
REMARK    7  A    between atoms: C7_19  and  C8_21 
REMARK    8  A    between atoms: C10_23  and  C11_24 
REMARK    9  A    between atoms: C11_24  and  N6_25 
REMARK       I    between atoms: N6_25  and  C12_27 
REMARK       I    between atoms: C12_27  and  N7_29 
REMARK   10  A    between atoms: N11_41  and  N12_43 
ROOT
HETATM    1  C3  UNL     1      13.677  13.937  36.463  1.00  0.00     0.147 A 
HETATM    2  N2  UNL     1      13.798  14.992  37.284  1.00  0.00    -0.323 N 
ATOM      3  H2  UNL     1      14.733  15.316  37.532  1.00  0.00     0.169 HD
HETATM    4  C4  UNL     1      12.716  15.646  37.799  1.00  0.00     0.155 A 
HETATM    5  N3  UNL     1      12.851  16.762  38.667  1.00  0.00    -0.080 NA
HETATM    6  C5  UNL     1      11.454  15.214  37.469  1.00  0.00     0.187 A 
HETATM    7  C6  UNL     1      11.326  14.131  36.627  1.00  0.00     0.147 A 
HETATM    8  N10 UNL     1      12.439  13.529  36.152  1.00  0.00    -0.321 N 
ATOM      9  H10 UNL     1      12.333  12.729  35.530  1.00  0.00     0.169 HD
ENDROOT
BRANCH   7  10
HETATM   10  N5  UNL     1      10.020  13.664  36.278  1.00  0.00    -0.305 N 
HETATM   11  C7  UNL     1       9.710  12.308  36.516  1.00  0.00     0.275 C 
HETATM   12  O3  UNL     1      10.550  11.531  37.017  1.00  0.00    -0.266 OA
ATOM     13  H5  UNL     1       9.332  14.293  35.867  1.00  0.00     0.170 HD
BRANCH  11  14
HETATM   14  C8  UNL     1       8.381  11.811  36.171  1.00  0.00     0.125 A 
HETATM   15  C9  UNL     1       7.180  12.308  36.606  1.00  0.00     0.073 A 
HETATM   16  C10 UNL     1       6.200  11.534  36.027  1.00  0.00     0.096 A 
HETATM   17  O5  UNL     1       6.817  10.647  35.303  1.00  0.00    -0.240 OA
HETATM   18  N9  UNL     1       8.103  10.780  35.362  1.00  0.00    -0.256 N 
ATOM     19  H9  UNL     1       8.787  10.198  34.877  1.00  0.00     0.195 HD
BRANCH  16  20
HETATM   20  C11 UNL     1       4.736  11.714  36.220  1.00  0.00     0.191 C 
BRANCH  20  21
HETATM   21  N6  UNL     1       4.368  13.092  36.437  1.00  0.00    -0.337 N 
HETATM   22  C12 UNL     1       3.229  13.684  35.840  1.00  0.00     0.318 C 
HETATM   23  O4  UNL     1       2.522  12.945  35.086  1.00  0.00    -0.247 OA
HETATM   24  N7  UNL     1       2.829  15.006  36.015  1.00  0.00    -0.331 N 
HETATM   25  C13 UNL     1       1.620  15.495  35.336  1.00  0.00     0.147 C 
HETATM   26  C16 UNL     1       3.504  15.976  36.818  1.00  0.00     0.147 C 
HETATM   27  C14 UNL     1       1.831  16.910  34.851  1.00  0.00     0.133 C 
HETATM   28  N8  UNL     1       3.222  17.256  34.740  1.00  0.00    -0.418 N 
HETATM   29  C15 UNL     1       4.018  17.055  35.895  1.00  0.00     0.133 C 
ATOM     30  H8  UNL     1       3.615  17.628  33.875  1.00  0.00     0.153 HD
ATOM     31  H6  UNL     1       4.953  13.664  37.047  1.00  0.00     0.164 HD
ENDBRANCH  20  21
ENDBRANCH  16  20
ENDBRANCH  11  14
ENDBRANCH   7  10
BRANCH   6  32
HETATM   32  N4  UNL     1      10.292  15.848  37.970  1.00  0.00    -0.108 N 
HETATM   33  O1  UNL     1       9.755  15.492  39.047  1.00  0.00    -0.532 OA
HETATM   34  O2  UNL     1       9.732  16.887  37.252  1.00  0.00    -0.532 OA
ENDBRANCH   6  32
BRANCH   1  35
HETATM   35  S1  UNL     1      15.133  13.106  35.815  1.00  0.00    -0.086 SA
BRANCH  35  36
HETATM   36  C2  UNL     1      15.003  11.362  36.368  1.00  0.00     0.159 C 
BRANCH  36  37
HETATM   37  C1  UNL     1      14.066  10.662  35.479  1.00  0.00     0.098 C 
HETATM   38  N1  UNL     1      14.414  10.333  34.281  1.00  0.00    -0.387 N 
ATOM     39  H12 UNL     1      15.349  10.560  33.942  1.00  0.00     0.157 HD
ATOM     40  H11 UNL     1      13.764   9.847  33.663  1.00  0.00     0.157 HD
BRANCH  37  41
HETATM   41  N11 UNL     1      12.770  10.346  35.949  1.00  0.00    -0.295 N 
ATOM     42  H11 UNL     1      12.234  11.039  36.473  1.00  0.00     0.187 HD
BRANCH  41  43
HETATM   43  N12 UNL     1      12.227   9.095  35.697  1.00  0.00    -0.344 N 
ATOM     44 2H12 UNL     1      11.694   8.950  34.839  1.00  0.00     0.176 HD
ATOM     45 1H12 UNL     1      12.364   8.337  36.366  1.00  0.00     0.176 HD
ENDBRANCH  41  43
ENDBRANCH  37  41
ENDBRANCH  36  37
ENDBRANCH  35  36
ENDBRANCH   1  35
TORSDOF 10
ENDMDL
MODEL 3
REMARK VINA RESULT: -7.431026765      4.892      9.648
REMARK  10 active torsions:
REMARK  status: ('A' for Active; 'I' for Inactive)
REMARK    1  A    between atoms: C1_4  and  C2_5 
REMARK    2  A    between atoms: C1_4  and  N11_41 
REMARK    3  A    between atoms: C2_5  and  S1_6 
REMARK    4  A    between atoms: S1_6  and  C3_7 
REMARK    5  A    between atoms: C5_12  and  N4_13 
REMARK    6  A    between atoms: C6_16  and  N5_17 
REMARK       I    between atoms: N5_17  and  C7_19 
REMARK    7  A    between atoms: C7_19  and  C8_21 
REMARK    8  A    between atoms: C10_23  and  C11_24 
REMARK    9  A    between atoms: C11_24  and  N6_25 
REMARK       I    between atoms: N6_25  and  C12_27 
REMARK       I    between atoms: C12_27  and  N7_29 
REMARK   10  A    between atoms: N11_41  and  N12_43 
ROOT
HETATM    1  C3  UNL     1       8.323  13.793  35.200  1.00  0.00     0.147 A 
HETATM    2  N2  UNL     1       7.624  14.211  34.134  1.00  0.00    -0.323 N 
ATOM      3  H2  UNL     1       7.091  13.527  33.596  1.00  0.00     0.169 HD
HETATM    4  C4  UNL     1       7.599  15.519  33.743  1.00  0.00     0.155 A 
HETATM    5  N3  UNL     1       6.857  15.956  32.613  1.00  0.00    -0.080 NA
HETATM    6  C5  UNL     1       8.315  16.446  34.462  1.00  0.00     0.187 A 
HETATM    7  C6  UNL     1       9.034  16.020  35.557  1.00  0.00     0.147 A 
HETATM    8  N10 UNL     1       9.015  14.710  35.889  1.00  0.00    -0.321 N 
ATOM      9  H10 UNL     1       9.551  14.406  36.701  1.00  0.00     0.169 HD
ENDROOT
BRANCH   7  10
HETATM   10  N5  UNL     1       9.789  16.970  36.313  1.00  0.00    -0.305 N 
HETATM   11  C7  UNL     1      10.651  16.488  37.321  1.00  0.00     0.275 C 
HETATM   12  O3  UNL     1      10.755  15.265  37.553  1.00  0.00    -0.266 OA
ATOM     13  H5  UNL     1       9.707  17.969  36.129  1.00  0.00     0.170 HD
BRANCH  11  14
HETATM   14  C8  UNL     1      11.435  17.441  38.103  1.00  0.00     0.125 A 
HETATM   15  C9  UNL     1      10.962  18.312  39.048  1.00  0.00     0.073 A 
HETATM   16  C10 UNL     1      12.050  19.008  39.523  1.00  0.00     0.096 A 
HETATM   17  O5  UNL     1      13.083  18.553  38.878  1.00  0.00    -0.240 OA
HETATM   18  N9  UNL     1      12.760  17.628  38.033  1.00  0.00    -0.256 N 
ATOM     19  H9  UNL     1      13.403  17.127  37.419  1.00  0.00     0.195 HD
BRANCH  16  20
HETATM   20  C11 UNL     1      12.006  20.065  40.569  1.00  0.00     0.191 C 
BRANCH  20  21
HETATM   21  N6  UNL     1      12.576  21.314  40.124  1.00  0.00    -0.337 N 
HETATM   22  C12 UNL     1      11.856  22.250  39.343  1.00  0.00     0.318 C 
HETATM   23  O4  UNL     1      10.660  21.949  39.037  1.00  0.00    -0.247 OA
HETATM   24  N7  UNL     1      12.356  23.467  38.888  1.00  0.00    -0.331 N 
HETATM   25  C13 UNL     1      11.498  24.350  38.085  1.00  0.00     0.147 C 
HETATM   26  C16 UNL     1      13.675  23.962  39.131  1.00  0.00     0.147 C 
HETATM   27  C14 UNL     1      12.307  25.007  36.990  1.00  0.00     0.133 C 
HETATM   28  N8  UNL     1      13.525  24.300  36.701  1.00  0.00    -0.418 N 
HETATM   29  C15 UNL     1      14.383  24.044  37.799  1.00  0.00     0.133 C 
ATOM     30  H8  UNL     1      13.760  24.000  35.755  1.00  0.00     0.153 HD
ATOM     31  H6  UNL     1      13.538  21.531  40.384  1.00  0.00     0.164 HD
ENDBRANCH  20  21
ENDBRANCH  16  20
ENDBRANCH  11  14
ENDBRANCH   7  10
BRANCH   6  32
HETATM   32  N4  UNL     1       8.331  17.816  34.107  1.00  0.00    -0.108 N 
HETATM   33  O1  UNL     1       8.917  18.227  33.077  1.00  0.00    -0.532 OA
HETATM   34  O2  UNL     1       7.685  18.727  34.920  1.00  0.00    -0.532 OA
ENDBRANCH   6  32
BRANCH   1  35
HETATM   35  S1  UNL     1       8.328  12.059  35.673  1.00  0.00    -0.086 SA
BRANCH  35  36
HETATM   36  C2  UNL     1       9.506  11.924  37.073  1.00  0.00     0.159 C 
BRANCH  36  37
HETATM   37  C1  UNL     1      10.819  11.537  36.538  1.00  0.00     0.098 C 
HETATM   38  N1  UNL     1      11.702  12.431  36.245  1.00  0.00    -0.387 N 
ATOM     39  H12 UNL     1      11.490  13.419  36.382  1.00  0.00     0.157 HD
ATOM     40  H11 UNL     1      12.613  12.162  35.873  1.00  0.00     0.157 HD
BRANCH  37  41
HETATM   41  N11 UNL     1      11.112  10.166  36.347  1.00  0.00    -0.295 N 
ATOM     42  H11 UNL     1      10.384   9.464  36.482  1.00  0.00     0.187 HD
BRANCH  41  43
HETATM   43  N12 UNL     1      12.390   9.776  35.978  1.00  0.00    -0.344 N 
ATOM     44 2H12 UNL     1      12.992   9.331  36.671  1.00  0.00     0.176 HD
ATOM     45 1H12 UNL     1      12.716   9.936  35.024  1.00  0.00     0.176 HD
ENDBRANCH  41  43
ENDBRANCH  37  41
ENDBRANCH  36  37
ENDBRANCH  35  36
ENDBRANCH   1  35
TORSDOF 10
ENDMDL
MODEL 4
REMARK VINA RESULT: -7.356732826      3.240      4.903
REMARK  10 active torsions:
REMARK  status: ('A' for Active; 'I' for Inactive)
REMARK    1  A    between atoms: C1_4  and  C2_5 
REMARK    2  A    between atoms: C1_4  and  N11_41 
REMARK    3  A    between atoms: C2_5  and  S1_6 
REMARK    4  A    between atoms: S1_6  and  C3_7 
REMARK    5  A    between atoms: C5_12  and  N4_13 
REMARK    6  A    between atoms: C6_16  and  N5_17 
REMARK       I    between atoms: N5_17  and  C7_19 
REMARK    7  A    between atoms: C7_19  and  C8_21 
REMARK    8  A    between atoms: C10_23  and  C11_24 
REMARK    9  A    between atoms: C11_24  and  N6_25 
REMARK       I    between atoms: N6_25  and  C12_27 
REMARK       I    between atoms: C12_27  and  N7_29 
REMARK   10  A    between atoms: N11_41  and  N12_43 
ROOT
HETATM    1  C3  UNL     1       8.850  16.787  35.199  1.00  0.00     0.147 A 
HETATM    2  N2  UNL     1       9.015  17.061  33.896  1.00  0.00    -0.323 N 
ATOM      3  H2  UNL     1       9.496  17.921  33.632  1.00  0.00     0.169 HD
HETATM    4  C4  UNL     1       8.564  16.231  32.911  1.00  0.00     0.155 A 
HETATM    5  N3  UNL     1       8.742  16.526  31.533  1.00  0.00    -0.080 NA
HETATM    6  C5  UNL     1       7.916  15.070  33.259  1.00  0.00     0.187 A 
HETATM    7  C6  UNL     1       7.744  14.785  34.596  1.00  0.00     0.147 A 
HETATM    8  N10 UNL     1       8.216  15.651  35.521  1.00  0.00    -0.321 N 
ATOM      9  H10 UNL     1       8.083  15.431  36.507  1.00  0.00     0.169 HD
ENDROOT
BRANCH   7  10
HETATM   10  N5  UNL     1       7.066  13.585  34.977  1.00  0.00    -0.305 N 
HETATM   11  C7  UNL     1       7.673  12.752  35.940  1.00  0.00     0.275 C 
HETATM   12  O3  UNL     1       8.776  13.047  36.448  1.00  0.00    -0.266 OA
ATOM     13  H5  UNL     1       6.167  13.339  34.564  1.00  0.00     0.170 HD
BRANCH  11  14
HETATM   14  C8  UNL     1       6.996  11.523  36.346  1.00  0.00     0.125 A 
HETATM   15  C9  UNL     1       6.419  11.268  37.562  1.00  0.00     0.073 A 
HETATM   16  C10 UNL     1       5.902   9.994  37.494  1.00  0.00     0.096 A 
HETATM   17  O5  UNL     1       6.174   9.554  36.301  1.00  0.00    -0.240 OA
HETATM   18  N9  UNL     1       6.818  10.427  35.596  1.00  0.00    -0.256 N 
ATOM     19  H9  UNL     1       7.135  10.303  34.633  1.00  0.00     0.195 HD
BRANCH  16  20
HETATM   20  C11 UNL     1       5.181   9.298  38.594  1.00  0.00     0.191 C 
BRANCH  20  21
HETATM   21  N6  UNL     1       4.269  10.166  39.299  1.00  0.00    -0.337 N 
HETATM   22  C12 UNL     1       4.485  10.584  40.634  1.00  0.00     0.318 C 
HETATM   23  O4  UNL     1       5.537  10.160  41.209  1.00  0.00    -0.247 OA
HETATM   24  N7  UNL     1       3.639  11.418  41.359  1.00  0.00    -0.331 N 
HETATM   25  C13 UNL     1       3.985  11.778  42.742  1.00  0.00     0.147 C 
HETATM   26  C16 UNL     1       2.417  11.980  40.877  1.00  0.00     0.147 C 
HETATM   27  C14 UNL     1       2.740  11.811  43.599  1.00  0.00     0.133 C 
HETATM   28  N8  UNL     1       1.653  11.064  43.026  1.00  0.00    -0.418 N 
HETATM   29  C15 UNL     1       1.291  11.395  41.696  1.00  0.00     0.133 C 
ATOM     30  H8  UNL     1       1.168  10.335  43.549  1.00  0.00     0.153 HD
ATOM     31  H6  UNL     1       3.432  10.491  38.814  1.00  0.00     0.164 HD
ENDBRANCH  20  21
ENDBRANCH  16  20
ENDBRANCH  11  14
ENDBRANCH   7  10
BRANCH   6  32
HETATM   32  N4  UNL     1       7.423  14.168  32.286  1.00  0.00    -0.108 N 
HETATM   33  O1  UNL     1       8.113  13.212  31.859  1.00  0.00    -0.532 OA
HETATM   34  O2  UNL     1       6.146  14.348  31.791  1.00  0.00    -0.532 OA
ENDBRANCH   6  32
BRANCH   1  35
HETATM   35  S1  UNL     1       9.458  17.915  36.460  1.00  0.00    -0.086 SA
BRANCH  35  36
HETATM   36  C2  UNL     1       9.566  16.931  38.004  1.00  0.00     0.159 C 
BRANCH  36  37
HETATM   37  C1  UNL     1      10.838  16.195  37.997  1.00  0.00     0.098 C 
HETATM   38  N1  UNL     1      11.959  16.814  38.156  1.00  0.00    -0.387 N 
ATOM     39  H12 UNL     1      11.968  17.826  38.287  1.00  0.00     0.157 HD
ATOM     40  H11 UNL     1      12.843  16.304  38.151  1.00  0.00     0.157 HD
BRANCH  37  41
HETATM   41  N11 UNL     1      10.826  14.792  37.815  1.00  0.00    -0.295 N 
ATOM     42  H11 UNL     1      10.381  14.191  38.509  1.00  0.00     0.187 HD
BRANCH  41  43
HETATM   43  N12 UNL     1      11.419  14.234  36.692  1.00  0.00    -0.344 N 
ATOM     44 2H12 UNL     1      11.915  13.348  36.783  1.00  0.00     0.176 HD
ATOM     45 1H12 UNL     1      11.355  14.711  35.792  1.00  0.00     0.176 HD
ENDBRANCH  41  43
ENDBRANCH  37  41
ENDBRANCH  36  37
ENDBRANCH  35  36
ENDBRANCH   1  35
TORSDOF 10
ENDMDL
MODEL 5
REMARK VINA RESULT: -7.296215206      3.998      6.510
REMARK  10 active torsions:
REMARK  status: ('A' for Active; 'I' for Inactive)
REMARK    1  A    between atoms: C1_4  and  C2_5 
REMARK    2  A    between atoms: C1_4  and  N11_41 
REMARK    3  A    between atoms: C2_5  and  S1_6 
REMARK    4  A    between atoms: S1_6  and  C3_7 
REMARK    5  A    between atoms: C5_12  and  N4_13 
REMARK    6  A    between atoms: C6_16  and  N5_17 
REMARK       I    between atoms: N5_17  and  C7_19 
REMARK    7  A    between atoms: C7_19  and  C8_21 
REMARK    8  A    between atoms: C10_23  and  C11_24 
REMARK    9  A    between atoms: C11_24  and  N6_25 
REMARK       I    between atoms: N6_25  and  C12_27 
REMARK       I    between atoms: C12_27  and  N7_29 
REMARK   10  A    between atoms: N11_41  and  N12_43 
ROOT
HETATM    1  C3  UNL     1       7.919  19.552  38.730  1.00  0.00     0.147 A 
HETATM    2  N2  UNL     1       7.316  20.334  37.822  1.00  0.00    -0.323 N 
ATOM      3  H2  UNL     1       7.070  21.289  38.082  1.00  0.00     0.169 HD
HETATM    4  C4  UNL     1       7.019  19.898  36.563  1.00  0.00     0.155 A 
HETATM    5  N3  UNL     1       6.380  20.731  35.605  1.00  0.00    -0.080 NA
HETATM    6  C5  UNL     1       7.347  18.612  36.205  1.00  0.00     0.187 A 
HETATM    7  C6  UNL     1       7.966  17.806  37.135  1.00  0.00     0.147 A 
HETATM    8  N10 UNL     1       8.231  18.301  38.365  1.00  0.00    -0.321 N 
ATOM      9  H10 UNL     1       8.689  17.695  39.045  1.00  0.00     0.169 HD
ENDROOT
BRANCH   7  10
HETATM   10  N5  UNL     1       8.309  16.463  36.784  1.00  0.00    -0.305 N 
HETATM   11  C7  UNL     1       9.617  16.013  37.060  1.00  0.00     0.275 C 
HETATM   12  O3  UNL     1      10.460  16.764  37.595  1.00  0.00    -0.266 OA
ATOM     13  H5  UNL     1       7.626  15.847  36.344  1.00  0.00     0.170 HD
BRANCH  11  14
HETATM   14  C8  UNL     1       9.987  14.643  36.712  1.00  0.00     0.125 A 
HETATM   15  C9  UNL     1       9.143  13.570  36.597  1.00  0.00     0.073 A 
HETATM   16  C10 UNL     1       9.925  12.490  36.252  1.00  0.00     0.096 A 
HETATM   17  O5  UNL     1      11.145  12.933  36.177  1.00  0.00    -0.240 OA
HETATM   18  N9  UNL     1      11.221  14.197  36.441  1.00  0.00    -0.256 N 
ATOM     19  H9  UNL     1      12.074  14.758  36.443  1.00  0.00     0.195 HD
BRANCH  16  20
HETATM   20  C11 UNL     1       9.427  11.107  36.021  1.00  0.00     0.191 C 
BRANCH  20  21
HETATM   21  N6  UNL     1       8.219  10.820  36.756  1.00  0.00    -0.337 N 
HETATM   22  C12 UNL     1       6.926  10.998  36.206  1.00  0.00     0.318 C 
HETATM   23  O4  UNL     1       6.861  11.430  35.013  1.00  0.00    -0.247 OA
HETATM   24  N7  UNL     1       5.730  10.737  36.869  1.00  0.00    -0.331 N 
HETATM   25  C13 UNL     1       4.453  10.963  36.178  1.00  0.00     0.147 C 
HETATM   26  C16 UNL     1       5.615  10.255  38.210  1.00  0.00     0.147 C 
HETATM   27  C14 UNL     1       3.436  11.537  37.138  1.00  0.00     0.133 C 
HETATM   28  N8  UNL     1       4.044  12.142  38.292  1.00  0.00    -0.418 N 
HETATM   29  C15 UNL     1       4.947  11.334  39.027  1.00  0.00     0.133 C 
ATOM     30  H8  UNL     1       3.835  13.102  38.568  1.00  0.00     0.153 HD
ATOM     31  H6  UNL     1       8.299  10.474  37.712  1.00  0.00     0.164 HD
ENDBRANCH  20  21
ENDBRANCH  16  20
ENDBRANCH  11  14
ENDBRANCH   7  10
BRANCH   6  32
HETATM   32  N4  UNL     1       7.065  18.099  34.916  1.00  0.00    -0.108 N 
HETATM   33  O1  UNL     1       6.075  17.361  34.699  1.00  0.00    -0.532 OA
HETATM   34  O2  UNL     1       7.907  18.420  33.869  1.00  0.00    -0.532 OA
ENDBRANCH   6  32
BRANCH   1  35
HETATM   35  S1  UNL     1       8.284  20.170  40.378  1.00  0.00    -0.086 SA
BRANCH  35  36
HETATM   36  C2  UNL     1      10.082  19.908  40.626  1.00  0.00     0.159 C 
BRANCH  36  37
HETATM   37  C1  UNL     1      10.269  18.658  41.376  1.00  0.00     0.098 C 
HETATM   38  N1  UNL     1      10.022  18.606  42.642  1.00  0.00    -0.387 N 
ATOM     39  H12 UNL     1       9.696  19.439  43.132  1.00  0.00     0.157 HD
ATOM     40  H11 UNL     1      10.151  17.738  43.163  1.00  0.00     0.157 HD
BRANCH  37  41
HETATM   41  N11 UNL     1      10.721  17.503  40.697  1.00  0.00    -0.295 N 
ATOM     42  H11 UNL     1      10.157  16.653  40.703  1.00  0.00     0.187 HD
BRANCH  41  43
HETATM   43  N12 UNL     1      11.931  17.526  40.021  1.00  0.00    -0.344 N 
ATOM     44 2H12 UNL     1      11.988  18.010  39.124  1.00  0.00     0.176 HD
ATOM     45 1H12 UNL     1      12.748  17.064  40.421  1.00  0.00     0.176 HD
ENDBRANCH  41  43
ENDBRANCH  37  41
ENDBRANCH  36  37
ENDBRANCH  35  36
ENDBRANCH   1  35
TORSDOF 10
ENDMDL
