MODEL 1
REMARK VINA RESULT: -6.744321241      0.000      0.000
REMARK  10 active torsions:
REMARK  status: ('A' for Active; 'I' for Inactive)
REMARK    1  A    between atoms: C2_2  and  C3_3 
REMARK    2  A    between atoms: C3_3  and  C4_4 
REMARK    3  A    between atoms: C4_4  and  C5_5 
REMARK    4  A    between atoms: C5_5  and  C6_6 
REMARK    5  A    between atoms: C6_6  and  C7_7 
REMARK    6  A    between atoms: C7_7  and  C8_8 
REMARK    7  A    between atoms: C8_8  and  O1_9 
REMARK    8  A    between atoms: C8_8  and  C9_11 
REMARK    9  A    between atoms: C12_14  and  N1_15 
REMARK   10  A    between atoms: C14_20  and  N2_21 
ROOT
HETATM    1  C8  UNL     1      25.657 -41.889 -55.853  1.00  0.00     0.189 C 
ENDROOT
BRANCH   1   2
HETATM    2  C7  UNL     1      26.023 -41.152 -54.656  1.00  0.00     0.312 C 
HETATM    3  N3  UNL     1      27.562 -41.094 -54.632  1.00  0.00    -0.036 N 
HETATM    4  C15 UNL     1      27.927 -42.497 -54.672  1.00  0.00     0.263 C 
ATOM      5  H32 UNL     1      27.981 -40.519 -55.362  1.00  0.00     0.280 HD
ATOM      6  H31 UNL     1      27.960 -40.569 -53.853  1.00  0.00     0.280 HD
HETATM    7  C16 UNL     1      26.915 -43.113 -53.763  1.00  0.00     0.263 C 
HETATM    8  N4  UNL     1      25.950 -42.015 -53.475  1.00  0.00    -0.036 N 
ATOM      9  H42 UNL     1      26.120 -41.530 -52.593  1.00  0.00     0.280 HD
ATOM     10  H41 UNL     1      25.009 -42.335 -53.248  1.00  0.00     0.280 HD
BRANCH   2  11
HETATM   11  C6  UNL     1      25.660 -39.747 -54.488  1.00  0.00     0.072 C 
BRANCH  11  12
HETATM   12  C5  UNL     1      26.672 -38.752 -54.061  1.00  0.00     0.004 C 
BRANCH  12  13
HETATM   13  C4  UNL     1      26.861 -37.540 -54.911  1.00  0.00     0.000 C 
BRANCH  13  14
HETATM   14  C3  UNL     1      27.483 -36.462 -53.983  1.00  0.00    -0.000 C 
BRANCH  14  15
HETATM   15  C2  UNL     1      26.386 -36.093 -53.001  1.00  0.00    -0.005 C 
HETATM   16  C1  UNL     1      25.328 -35.331 -53.807  1.00  0.00     0.005 C 
ENDBRANCH  14  15
ENDBRANCH  13  14
ENDBRANCH  12  13
ENDBRANCH  11  12
ENDBRANCH   2  11
ENDBRANCH   1   2
BRANCH   1  17
HETATM   17  O1  UNL     1      24.236 -41.658 -56.046  1.00  0.00    -0.391 OA
ATOM     18  H1  UNL     1      24.100 -40.730 -55.897  1.00  0.00     0.210 HD
ENDBRANCH   1  17
BRANCH   1  19
HETATM   19  C9  UNL     1      26.241 -41.842 -57.187  1.00  0.00     0.049 C 
HETATM   20  C10 UNL     1      25.643 -43.146 -57.920  1.00  0.00     0.011 C 
HETATM   21  C11 UNL     1      25.888 -43.064 -59.383  1.00  0.00     0.033 C 
HETATM   22  C12 UNL     1      24.926 -42.091 -60.057  1.00  0.00     0.185 C 
HETATM   23  C13 UNL     1      24.614 -41.061 -58.971  1.00  0.00     0.066 C 
HETATM   24  C14 UNL     1      25.916 -40.821 -58.201  1.00  0.00     0.192 C 
BRANCH  22  25
HETATM   25  N1  UNL     1      23.738 -42.727 -60.554  1.00  0.00    -0.075 N 
ATOM     26  H13 UNL     1      23.527 -42.414 -61.502  1.00  0.00     0.274 HD
ATOM     27  H12 UNL     1      23.904 -43.716 -60.737  1.00  0.00     0.274 HD
ATOM     28  H11 UNL     1      22.931 -42.600 -59.942  1.00  0.00     0.274 HD
ENDBRANCH  22  25
BRANCH  24  29
HETATM   29  N2  UNL     1      26.032 -39.441 -57.957  1.00  0.00    -0.074 N 
ATOM     30  H23 UNL     1      25.324 -38.971 -58.519  1.00  0.00     0.274 HD
ATOM     31  H22 UNL     1      25.706 -39.270 -57.006  1.00  0.00     0.274 HD
ATOM     32  H21 UNL     1      26.907 -38.931 -58.078  1.00  0.00     0.274 HD
ENDBRANCH  24  29
ENDBRANCH   1  19
TORSDOF 10
ENDMDL
MODEL 2
REMARK VINA RESULT: -5.640761153      1.835      4.420
REMARK  10 active torsions:
REMARK  status: ('A' for Active; 'I' for Inactive)
REMARK    1  A    between atoms: C2_2  and  C3_3 
REMARK    2  A    between atoms: C3_3  and  C4_4 
REMARK    3  A    between atoms: C4_4  and  C5_5 
REMARK    4  A    between atoms: C5_5  and  C6_6 
REMARK    5  A    between atoms: C6_6  and  C7_7 
REMARK    6  A    between atoms: C7_7  and  C8_8 
REMARK    7  A    between atoms: C8_8  and  O1_9 
REMARK    8  A    between atoms: C8_8  and  C9_11 
REMARK    9  A    between atoms: C12_14  and  N1_15 
REMARK   10  A    between atoms: C14_20  and  N2_21 
ROOT
HETATM    1  C8  UNL     1      25.812 -42.531 -57.526  1.00  0.00     0.189 C 
ENDROOT
BRANCH   1   2
HETATM    2  C7  UNL     1      26.200 -41.513 -58.485  1.00  0.00     0.312 C 
HETATM    3  N3  UNL     1      25.013 -41.347 -59.452  1.00  0.00    -0.036 N 
HETATM    4  C15 UNL     1      24.837 -42.693 -59.964  1.00  0.00     0.263 C 
ATOM      5  H32 UNL     1      24.178 -40.932 -59.040  1.00  0.00     0.280 HD
ATOM      6  H31 UNL     1      25.137 -40.629 -60.167  1.00  0.00     0.280 HD
HETATM    7  C16 UNL     1      26.248 -43.146 -60.150  1.00  0.00     0.263 C 
HETATM    8  N4  UNL     1      27.073 -42.078 -59.517  1.00  0.00    -0.036 N 
ATOM      9  H42 UNL     1      27.442 -41.391 -60.174  1.00  0.00     0.280 HD
ATOM     10  H41 UNL     1      27.976 -42.400 -59.170  1.00  0.00     0.280 HD
BRANCH   2  11
HETATM   11  C6  UNL     1      26.453 -40.135 -58.070  1.00  0.00     0.072 C 
BRANCH  11  12
HETATM   12  C5  UNL     1      27.797 -39.722 -57.600  1.00  0.00     0.004 C 
BRANCH  12  13
HETATM   13  C4  UNL     1      27.916 -39.186 -56.213  1.00  0.00     0.000 C 
BRANCH  13  14
HETATM   14  C3  UNL     1      27.174 -37.822 -56.219  1.00  0.00    -0.000 C 
BRANCH  14  15
HETATM   15  C2  UNL     1      27.845 -36.994 -55.139  1.00  0.00    -0.005 C 
HETATM   16  C1  UNL     1      26.719 -36.274 -54.389  1.00  0.00     0.005 C 
ENDBRANCH  14  15
ENDBRANCH  13  14
ENDBRANCH  12  13
ENDBRANCH  11  12
ENDBRANCH   2  11
ENDBRANCH   1   2
BRANCH   1  17
HETATM   17  O1  UNL     1      27.049 -43.109 -57.033  1.00  0.00    -0.391 OA
ATOM     18  H1  UNL     1      27.589 -43.262 -57.799  1.00  0.00     0.210 HD
ENDBRANCH   1  17
BRANCH   1  19
HETATM   19  C9  UNL     1      24.943 -42.427 -56.361  1.00  0.00     0.049 C 
HETATM   20  C10 UNL     1      25.966 -42.299 -55.123  1.00  0.00     0.011 C 
HETATM   21  C11 UNL     1      25.237 -41.863 -53.904  1.00  0.00     0.033 C 
HETATM   22  C12 UNL     1      24.912 -40.373 -53.951  1.00  0.00     0.185 C 
HETATM   23  C13 UNL     1      24.770 -40.069 -55.442  1.00  0.00     0.066 C 
HETATM   24  C14 UNL     1      24.069 -41.274 -56.077  1.00  0.00     0.192 C 
BRANCH  22  25
HETATM   25  N1  UNL     1      25.916 -39.558 -53.327  1.00  0.00    -0.075 N 
ATOM     26  H13 UNL     1      26.034 -39.813 -52.347  1.00  0.00     0.274 HD
ATOM     27  H12 UNL     1      26.845 -39.795 -53.675  1.00  0.00     0.274 HD
ATOM     28  H11 UNL     1      25.736 -38.558 -53.423  1.00  0.00     0.274 HD
ENDBRANCH  22  25
BRANCH  24  29
HETATM   29  N2  UNL     1      23.118 -40.794 -56.994  1.00  0.00    -0.074 N 
ATOM     30  H23 UNL     1      23.347 -39.821 -57.191  1.00  0.00     0.274 HD
ATOM     31  H22 UNL     1      23.301 -41.246 -57.890  1.00  0.00     0.274 HD
ATOM     32  H21 UNL     1      22.113 -40.844 -56.825  1.00  0.00     0.274 HD
ENDBRANCH  24  29
ENDBRANCH   1  19
TORSDOF 10
ENDMDL
MODEL 3
REMARK VINA RESULT: -5.527306628      2.555      4.786
REMARK  10 active torsions:
REMARK  status: ('A' for Active; 'I' for Inactive)
REMARK    1  A    between atoms: C2_2  and  C3_3 
REMARK    2  A    between atoms: C3_3  and  C4_4 
REMARK    3  A    between atoms: C4_4  and  C5_5 
REMARK    4  A    between atoms: C5_5  and  C6_6 
REMARK    5  A    between atoms: C6_6  and  C7_7 
REMARK    6  A    between atoms: C7_7  and  C8_8 
REMARK    7  A    between atoms: C8_8  and  O1_9 
REMARK    8  A    between atoms: C8_8  and  C9_11 
REMARK    9  A    between atoms: C12_14  and  N1_15 
REMARK   10  A    between atoms: C14_20  and  N2_21 
ROOT
HETATM    1  C8  UNL     1      26.428 -38.207 -54.184  1.00  0.00     0.189 C 
ENDROOT
BRANCH   1   2
HETATM    2  C7  UNL     1      26.282 -36.762 -54.181  1.00  0.00     0.312 C 
HETATM    3  N3  UNL     1      26.854 -36.261 -55.520  1.00  0.00    -0.036 N 
HETATM    4  C15 UNL     1      28.208 -36.780 -55.495  1.00  0.00     0.263 C 
ATOM      5  H32 UNL     1      26.310 -36.520 -56.343  1.00  0.00     0.280 HD
ATOM      6  H31 UNL     1      26.783 -35.254 -55.668  1.00  0.00     0.280 HD
HETATM    7  C16 UNL     1      28.603 -36.560 -54.071  1.00  0.00     0.263 C 
HETATM    8  N4  UNL     1      27.346 -36.136 -53.393  1.00  0.00    -0.036 N 
ATOM      9  H42 UNL     1      27.249 -35.125 -53.289  1.00  0.00     0.280 HD
ATOM     10  H41 UNL     1      27.314 -36.356 -52.398  1.00  0.00     0.280 HD
BRANCH   2  11
HETATM   11  C6  UNL     1      24.965 -36.132 -54.155  1.00  0.00     0.072 C 
BRANCH  11  12
HETATM   12  C5  UNL     1      24.756 -34.848 -53.444  1.00  0.00     0.004 C 
BRANCH  12  13
HETATM   13  C4  UNL     1      23.565 -34.030 -53.817  1.00  0.00     0.000 C 
BRANCH  13  14
HETATM   14  C3  UNL     1      22.649 -34.015 -52.563  1.00  0.00    -0.000 C 
BRANCH  14  15
HETATM   15  C2  UNL     1      23.588 -34.130 -51.376  1.00  0.00    -0.005 C 
HETATM   16  C1  UNL     1      22.719 -34.530 -50.179  1.00  0.00     0.005 C 
ENDBRANCH  14  15
ENDBRANCH  13  14
ENDBRANCH  12  13
ENDBRANCH  11  12
ENDBRANCH   2  11
ENDBRANCH   1   2
BRANCH   1  17
HETATM   17  O1  UNL     1      26.370 -38.618 -52.793  1.00  0.00    -0.391 OA
ATOM     18  H1  UNL     1      26.222 -39.556 -52.804  1.00  0.00     0.210 HD
ENDBRANCH   1  17
BRANCH   1  19
HETATM   19  C9  UNL     1      25.674 -39.215 -54.918  1.00  0.00     0.049 C 
HETATM   20  C10 UNL     1      26.610 -39.558 -56.183  1.00  0.00     0.011 C 
HETATM   21  C11 UNL     1      26.130 -40.796 -56.850  1.00  0.00     0.033 C 
HETATM   22  C12 UNL     1      26.522 -42.043 -56.063  1.00  0.00     0.185 C 
HETATM   23  C13 UNL     1      26.573 -41.567 -54.611  1.00  0.00     0.066 C 
HETATM   24  C14 UNL     1      25.416 -40.581 -54.426  1.00  0.00     0.192 C 
BRANCH  22  25
HETATM   25  N1  UNL     1      27.772 -42.607 -56.490  1.00  0.00    -0.075 N 
ATOM     26  H13 UNL     1      27.619 -43.444 -57.053  1.00  0.00     0.274 HD
ATOM     27  H12 UNL     1      28.220 -42.014 -57.188  1.00  0.00     0.274 HD
ATOM     28  H11 UNL     1      28.407 -42.802 -55.716  1.00  0.00     0.274 HD
ENDBRANCH  22  25
BRANCH  24  29
HETATM   29  N2  UNL     1      24.812 -40.842 -53.184  1.00  0.00    -0.074 N 
ATOM     30  H23 UNL     1      25.456 -40.528 -52.459  1.00  0.00     0.274 HD
ATOM     31  H22 UNL     1      24.033 -40.192 -53.079  1.00  0.00     0.274 HD
ATOM     32  H21 UNL     1      24.478 -41.768 -52.916  1.00  0.00     0.274 HD
ENDBRANCH  24  29
ENDBRANCH   1  19
TORSDOF 10
ENDMDL
MODEL 4
REMARK VINA RESULT: -5.340729558      1.549      1.990
REMARK  10 active torsions:
REMARK  status: ('A' for Active; 'I' for Inactive)
REMARK    1  A    between atoms: C2_2  and  C3_3 
REMARK    2  A    between atoms: C3_3  and  C4_4 
REMARK    3  A    between atoms: C4_4  and  C5_5 
REMARK    4  A    between atoms: C5_5  and  C6_6 
REMARK    5  A    between atoms: C6_6  and  C7_7 
REMARK    6  A    between atoms: C7_7  and  C8_8 
REMARK    7  A    between atoms: C8_8  and  O1_9 
REMARK    8  A    between atoms: C8_8  and  C9_11 
REMARK    9  A    between atoms: C12_14  and  N1_15 
REMARK   10  A    between atoms: C14_20  and  N2_21 
ROOT
HETATM    1  C8  UNL     1      25.053 -40.276 -55.817  1.00  0.00     0.189 C 
ENDROOT
BRANCH   1   2
HETATM    2  C7  UNL     1      25.680 -39.755 -54.615  1.00  0.00     0.312 C 
HETATM    3  N3  UNL     1      27.095 -40.360 -54.563  1.00  0.00    -0.036 N 
HETATM    4  C15 UNL     1      26.827 -41.785 -54.594  1.00  0.00     0.263 C 
ATOM      5  H32 UNL     1      27.732 -40.027 -55.287  1.00  0.00     0.280 HD
ATOM      6  H31 UNL     1      27.667 -40.048 -53.778  1.00  0.00     0.280 HD
HETATM    7  C16 UNL     1      25.635 -41.900 -53.702  1.00  0.00     0.263 C 
HETATM    8  N4  UNL     1      25.227 -40.492 -53.434  1.00  0.00    -0.036 N 
ATOM      9  H42 UNL     1      25.574 -40.118 -52.550  1.00  0.00     0.280 HD
ATOM     10  H41 UNL     1      24.236 -40.378 -53.224  1.00  0.00     0.280 HD
BRANCH   2  11
HETATM   11  C6  UNL     1      25.950 -38.328 -54.457  1.00  0.00     0.072 C 
BRANCH  11  12
HETATM   12  C5  UNL     1      26.825 -37.842 -53.363  1.00  0.00     0.004 C 
BRANCH  12  13
HETATM   13  C4  UNL     1      26.792 -36.387 -53.039  1.00  0.00     0.000 C 
BRANCH  13  14
HETATM   14  C3  UNL     1      25.691 -35.773 -53.946  1.00  0.00    -0.000 C 
BRANCH  14  15
HETATM   15  C2  UNL     1      24.881 -34.865 -53.039  1.00  0.00    -0.005 C 
HETATM   16  C1  UNL     1      23.661 -34.423 -53.854  1.00  0.00     0.005 C 
ENDBRANCH  14  15
ENDBRANCH  13  14
ENDBRANCH  12  13
ENDBRANCH  11  12
ENDBRANCH   2  11
ENDBRANCH   1   2
BRANCH   1  17
HETATM   17  O1  UNL     1      23.636 -39.992 -55.685  1.00  0.00    -0.391 OA
ATOM     18  H1  UNL     1      23.276 -40.041 -56.562  1.00  0.00     0.210 HD
ENDBRANCH   1  17
BRANCH   1  19
HETATM   19  C9  UNL     1      25.370 -40.019 -57.216  1.00  0.00     0.049 C 
HETATM   20  C10 UNL     1      26.835 -40.661 -57.408  1.00  0.00     0.011 C 
HETATM   21  C11 UNL     1      27.160 -40.765 -58.854  1.00  0.00     0.033 C 
HETATM   22  C12 UNL     1      26.426 -41.931 -59.509  1.00  0.00     0.185 C 
HETATM   23  C13 UNL     1      25.140 -42.068 -58.694  1.00  0.00     0.066 C 
HETATM   24  C14 UNL     1      24.676 -40.648 -58.355  1.00  0.00     0.192 C 
BRANCH  22  25
HETATM   25  N1  UNL     1      27.193 -43.146 -59.515  1.00  0.00    -0.075 N 
ATOM     26  H13 UNL     1      26.605 -43.945 -59.753  1.00  0.00     0.274 HD
ATOM     27  H12 UNL     1      27.833 -43.167 -60.308  1.00  0.00     0.274 HD
ATOM     28  H11 UNL     1      27.691 -43.308 -58.640  1.00  0.00     0.274 HD
ENDBRANCH  22  25
BRANCH  24  29
HETATM   29  N2  UNL     1      23.282 -40.592 -58.523  1.00  0.00    -0.074 N 
ATOM     30  H23 UNL     1      23.050 -39.653 -58.845  1.00  0.00     0.274 HD
ATOM     31  H22 UNL     1      23.047 -41.164 -59.335  1.00  0.00     0.274 HD
ATOM     32  H21 UNL     1      22.625 -40.831 -57.780  1.00  0.00     0.274 HD
ENDBRANCH  24  29
ENDBRANCH   1  19
TORSDOF 10
ENDMDL
MODEL 5
REMARK VINA RESULT: -5.266719754      1.949      4.433
REMARK  10 active torsions:
REMARK  status: ('A' for Active; 'I' for Inactive)
REMARK    1  A    between atoms: C2_2  and  C3_3 
REMARK    2  A    between atoms: C3_3  and  C4_4 
REMARK    3  A    between atoms: C4_4  and  C5_5 
REMARK    4  A    between atoms: C5_5  and  C6_6 
REMARK    5  A    between atoms: C6_6  and  C7_7 
REMARK    6  A    between atoms: C7_7  and  C8_8 
REMARK    7  A    between atoms: C8_8  and  O1_9 
REMARK    8  A    between atoms: C8_8  and  C9_11 
REMARK    9  A    between atoms: C12_14  and  N1_15 
REMARK   10  A    between atoms: C14_20  and  N2_21 
ROOT
HETATM    1  C8  UNL     1      25.678 -40.288 -58.688  1.00  0.00     0.189 C 
ENDROOT
BRANCH   1   2
HETATM    2  C7  UNL     1      24.501 -40.798 -58.009  1.00  0.00     0.312 C 
HETATM    3  N3  UNL     1      24.148 -42.134 -58.690  1.00  0.00    -0.036 N 
HETATM    4  C15 UNL     1      23.983 -41.743 -60.077  1.00  0.00     0.263 C 
ATOM      5  H32 UNL     1      24.817 -42.887 -58.532  1.00  0.00     0.280 HD
ATOM      6  H31 UNL     1      23.350 -42.626 -58.285  1.00  0.00     0.280 HD
HETATM    7  C16 UNL     1      23.264 -40.439 -59.953  1.00  0.00     0.263 C 
HETATM    8  N4  UNL     1      23.292 -40.131 -58.496  1.00  0.00    -0.036 N 
ATOM      9  H42 UNL     1      22.441 -40.393 -57.997  1.00  0.00     0.280 HD
ATOM     10  H41 UNL     1      23.248 -39.136 -58.279  1.00  0.00     0.280 HD
BRANCH   2  11
HETATM   11  C6  UNL     1      24.541 -41.175 -56.598  1.00  0.00     0.072 C 
BRANCH  11  12
HETATM   12  C5  UNL     1      24.269 -40.171 -55.541  1.00  0.00     0.004 C 
BRANCH  12  13
HETATM   13  C4  UNL     1      25.317 -39.951 -54.502  1.00  0.00     0.000 C 
BRANCH  13  14
HETATM   14  C3  UNL     1      25.766 -38.473 -54.657  1.00  0.00    -0.000 C 
BRANCH  14  15
HETATM   15  C2  UNL     1      26.744 -38.227 -53.523  1.00  0.00    -0.005 C 
HETATM   16  C1  UNL     1      26.911 -36.708 -53.422  1.00  0.00     0.005 C 
ENDBRANCH  14  15
ENDBRANCH  13  14
ENDBRANCH  12  13
ENDBRANCH  11  12
ENDBRANCH   2  11
ENDBRANCH   1   2
BRANCH   1  17
HETATM   17  O1  UNL     1      25.675 -38.852 -58.470  1.00  0.00    -0.391 OA
ATOM     18  H1  UNL     1      25.433 -38.463 -59.301  1.00  0.00     0.210 HD
ENDBRANCH   1  17
BRANCH   1  19
HETATM   19  C9  UNL     1      27.072 -40.694 -58.563  1.00  0.00     0.049 C 
HETATM   20  C10 UNL     1      27.546 -40.037 -57.171  1.00  0.00     0.011 C 
HETATM   21  C11 UNL     1      28.842 -40.625 -56.746  1.00  0.00     0.033 C 
HETATM   22  C12 UNL     1      28.657 -42.025 -56.166  1.00  0.00     0.185 C 
HETATM   23  C13 UNL     1      27.428 -42.570 -56.893  1.00  0.00     0.066 C 
HETATM   24  C14 UNL     1      27.516 -42.083 -58.342  1.00  0.00     0.192 C 
BRANCH  22  25
HETATM   25  N1  UNL     1      28.486 -42.025 -54.740  1.00  0.00    -0.075 N 
ATOM     26  H13 UNL     1      29.282 -41.586 -54.278  1.00  0.00     0.274 HD
ATOM     27  H12 UNL     1      27.751 -41.375 -54.462  1.00  0.00     0.274 HD
ATOM     28  H11 UNL     1      28.312 -42.955 -54.359  1.00  0.00     0.274 HD
ENDBRANCH  22  25
BRANCH  24  29
HETATM   29  N2  UNL     1      27.144 -43.145 -59.184  1.00  0.00    -0.074 N 
ATOM     30  H23 UNL     1      26.132 -43.246 -59.120  1.00  0.00     0.274 HD
ATOM     31  H22 UNL     1      27.270 -42.831 -60.147  1.00  0.00     0.274 HD
ATOM     32  H21 UNL     1      27.551 -44.077 -59.110  1.00  0.00     0.274 HD
ENDBRANCH  24  29
ENDBRANCH   1  19
TORSDOF 10
ENDMDL
