MODEL 1
REMARK VINA RESULT: -7.482196738      0.000      0.000
REMARK  11 active torsions:
REMARK  status: ('A' for Active; 'I' for Inactive)
REMARK    1  A    between atoms: O1_1  and  C1_3 
REMARK    2  A    between atoms: C1_3  and  C2_4 
REMARK    3  A    between atoms: C2_4  and  O2_5 
REMARK    4  A    between atoms: C3_7  and  C4_8 
REMARK    5  A    between atoms: C4_8  and  C5_9 
REMARK    6  A    between atoms: C5_9  and  C6_10 
REMARK    7  A    between atoms: C6_10  and  C7_11 
REMARK    8  A    between atoms: C7_11  and  C8_12 
REMARK    9  A    between atoms: C8_12  and  C9_13 
REMARK   10  A    between atoms: C14_22  and  O4_23 
REMARK   11  A    between atoms: C15_25  and  O5_26 
ROOT
HETATM    1  C2  UNL     1      25.865 -40.702 -56.806  1.00  0.00     0.135 C 
HETATM    2  C3  UNL     1      26.640 -40.175 -55.673  1.00  0.00     0.164 C 
HETATM    3  O3  UNL     1      27.587 -39.294 -56.241  1.00  0.00    -0.350 OA
HETATM    4  C14 UNL     1      27.960 -39.875 -57.427  1.00  0.00     0.289 C 
HETATM    5  C15 UNL     1      26.665 -40.335 -58.070  1.00  0.00     0.212 C 
ENDROOT
BRANCH   2   6
HETATM    6  C4  UNL     1      25.823 -39.466 -54.636  1.00  0.00     0.035 C 
BRANCH   6   7
HETATM    7  C5  UNL     1      26.120 -38.020 -54.568  1.00  0.00     0.002 C 
BRANCH   7   8
HETATM    8  C6  UNL     1      26.780 -37.578 -53.246  1.00  0.00     0.000 C 
BRANCH   8   9
HETATM    9  C7  UNL     1      26.613 -36.134 -53.027  1.00  0.00     0.000 C 
BRANCH   9  10
HETATM   10  C8  UNL     1      25.571 -35.479 -53.846  1.00  0.00     0.005 C 
BRANCH  10  11
HETATM   11  C9  UNL     1      24.672 -34.506 -53.199  1.00  0.00    -0.011 C 
HETATM   12  C10 UNL     1      24.375 -34.639 -51.754  1.00  0.00     0.032 C 
HETATM   13  C11 UNL     1      22.874 -34.451 -51.517  1.00  0.00     0.232 C 
HETATM   14  N1  UNL     1      22.369 -33.259 -52.176  1.00  0.00    -0.075 N 
HETATM   15  C12 UNL     1      22.456 -33.391 -53.622  1.00  0.00     0.232 C 
ATOM     16  H12 UNL     1      21.420 -33.035 -51.874  1.00  0.00     0.277 HD
ATOM     17  H11 UNL     1      22.839 -32.418 -51.844  1.00  0.00     0.277 HD
HETATM   18  C13 UNL     1      23.365 -34.515 -53.999  1.00  0.00     0.032 C 
ENDBRANCH  10  11
ENDBRANCH   9  10
ENDBRANCH   8   9
ENDBRANCH   7   8
ENDBRANCH   6   7
ENDBRANCH   2   6
BRANCH   1  19
HETATM   19  C1  UNL     1      25.694 -42.208 -56.756  1.00  0.00     0.207 C 
BRANCH  19  20
HETATM   20  O1  UNL     1      26.781 -42.867 -56.227  1.00  0.00    -0.398 OA
ATOM     21  H1  UNL     1      26.584 -43.751 -55.939  1.00  0.00     0.209 HD
ENDBRANCH  19  20
ENDBRANCH   1  19
BRANCH   1  22
HETATM   22  O2  UNL     1      24.602 -40.138 -56.958  1.00  0.00    -0.382 OA
ATOM     23  H2  UNL     1      24.323 -39.823 -56.106  1.00  0.00     0.210 HD
ENDBRANCH   1  22
BRANCH   5  24
HETATM   24  O5  UNL     1      26.088 -39.210 -58.652  1.00  0.00    -0.387 OA
ATOM     25  H5  UNL     1      26.769 -38.566 -58.811  1.00  0.00     0.210 HD
ENDBRANCH   5  24
BRANCH   4  26
HETATM   26  O4  UNL     1      28.854 -40.913 -57.313  1.00  0.00    -0.368 OA
ATOM     27  H4  UNL     1      28.620 -41.700 -57.790  1.00  0.00     0.212 HD
ENDBRANCH   4  26
TORSDOF 11
ENDMDL
MODEL 2
REMARK VINA RESULT: -7.394282038      0.986      2.113
REMARK  11 active torsions:
REMARK  status: ('A' for Active; 'I' for Inactive)
REMARK    1  A    between atoms: O1_1  and  C1_3 
REMARK    2  A    between atoms: C1_3  and  C2_4 
REMARK    3  A    between atoms: C2_4  and  O2_5 
REMARK    4  A    between atoms: C3_7  and  C4_8 
REMARK    5  A    between atoms: C4_8  and  C5_9 
REMARK    6  A    between atoms: C5_9  and  C6_10 
REMARK    7  A    between atoms: C6_10  and  C7_11 
REMARK    8  A    between atoms: C7_11  and  C8_12 
REMARK    9  A    between atoms: C8_12  and  C9_13 
REMARK   10  A    between atoms: C14_22  and  O4_23 
REMARK   11  A    between atoms: C15_25  and  O5_26 
ROOT
HETATM    1  C2  UNL     1      27.327 -40.235 -57.330  1.00  0.00     0.135 C 
HETATM    2  C3  UNL     1      26.889 -39.979 -55.950  1.00  0.00     0.164 C 
HETATM    3  O3  UNL     1      27.569 -40.930 -55.157  1.00  0.00    -0.350 OA
HETATM    4  C14 UNL     1      27.615 -42.072 -55.916  1.00  0.00     0.289 C 
HETATM    5  C15 UNL     1      28.017 -41.611 -57.305  1.00  0.00     0.212 C 
ENDROOT
BRANCH   2   6
HETATM    6  C4  UNL     1      27.168 -38.592 -55.456  1.00  0.00     0.035 C 
BRANCH   6   7
HETATM    7  C5  UNL     1      26.187 -38.138 -54.449  1.00  0.00     0.002 C 
BRANCH   7   8
HETATM    8  C6  UNL     1      26.824 -37.548 -53.174  1.00  0.00     0.000 C 
BRANCH   8   9
HETATM    9  C7  UNL     1      26.682 -36.086 -53.140  1.00  0.00     0.000 C 
BRANCH   9  10
HETATM   10  C8  UNL     1      25.542 -35.534 -53.900  1.00  0.00     0.005 C 
BRANCH  10  11
HETATM   11  C9  UNL     1      24.662 -34.551 -53.242  1.00  0.00    -0.011 C 
HETATM   12  C10 UNL     1      24.448 -34.632 -51.779  1.00  0.00     0.032 C 
HETATM   13  C11 UNL     1      22.959 -34.459 -51.466  1.00  0.00     0.232 C 
HETATM   14  N1  UNL     1      22.397 -33.302 -52.140  1.00  0.00    -0.075 N 
HETATM   15  C12 UNL     1      22.406 -33.488 -53.583  1.00  0.00     0.232 C 
ATOM     16  H12 UNL     1      21.463 -33.081 -51.795  1.00  0.00     0.277 HD
ATOM     17  H11 UNL     1      22.870 -32.440 -51.868  1.00  0.00     0.277 HD
HETATM   18  C13 UNL     1      23.313 -34.612 -53.967  1.00  0.00     0.032 C 
ENDBRANCH  10  11
ENDBRANCH   9  10
ENDBRANCH   8   9
ENDBRANCH   7   8
ENDBRANCH   6   7
ENDBRANCH   2   6
BRANCH   1  19
HETATM   19  C1  UNL     1      26.176 -40.284 -58.316  1.00  0.00     0.207 C 
BRANCH  19  20
HETATM   20  O1  UNL     1      25.932 -39.079 -58.936  1.00  0.00    -0.398 OA
ATOM     21  H1  UNL     1      25.078 -38.714 -58.734  1.00  0.00     0.209 HD
ENDBRANCH  19  20
ENDBRANCH   1  19
BRANCH   1  22
HETATM   22  O2  UNL     1      28.263 -39.329 -57.820  1.00  0.00    -0.382 OA
ATOM     23  H2  UNL     1      29.121 -39.729 -57.736  1.00  0.00     0.210 HD
ENDBRANCH   1  22
BRANCH   5  24
HETATM   24  O5  UNL     1      29.396 -41.418 -57.276  1.00  0.00    -0.387 OA
ATOM     25  H5  UNL     1      29.714 -41.359 -58.169  1.00  0.00     0.210 HD
ENDBRANCH   5  24
BRANCH   4  26
HETATM   26  O4  UNL     1      26.448 -42.796 -55.953  1.00  0.00    -0.368 OA
ATOM     27  H4  UNL     1      26.559 -43.738 -56.005  1.00  0.00     0.212 HD
ENDBRANCH   4  26
TORSDOF 11
ENDMDL
MODEL 3
REMARK VINA RESULT: -7.176192440      0.918      2.420
REMARK  11 active torsions:
REMARK  status: ('A' for Active; 'I' for Inactive)
REMARK    1  A    between atoms: O1_1  and  C1_3 
REMARK    2  A    between atoms: C1_3  and  C2_4 
REMARK    3  A    between atoms: C2_4  and  O2_5 
REMARK    4  A    between atoms: C3_7  and  C4_8 
REMARK    5  A    between atoms: C4_8  and  C5_9 
REMARK    6  A    between atoms: C5_9  and  C6_10 
REMARK    7  A    between atoms: C6_10  and  C7_11 
REMARK    8  A    between atoms: C7_11  and  C8_12 
REMARK    9  A    between atoms: C8_12  and  C9_13 
REMARK   10  A    between atoms: C14_22  and  O4_23 
REMARK   11  A    between atoms: C15_25  and  O5_26 
ROOT
HETATM    1  C2  UNL     1      26.268 -40.690 -56.976  1.00  0.00     0.135 C 
HETATM    2  C3  UNL     1      25.649 -39.691 -56.092  1.00  0.00     0.164 C 
HETATM    3  O3  UNL     1      24.405 -40.243 -55.714  1.00  0.00    -0.350 OA
HETATM    4  C14 UNL     1      23.947 -40.906 -56.826  1.00  0.00     0.289 C 
HETATM    5  C15 UNL     1      25.145 -41.674 -57.353  1.00  0.00     0.212 C 
ENDROOT
BRANCH   2   6
HETATM    6  C4  UNL     1      26.458 -39.348 -54.879  1.00  0.00     0.035 C 
BRANCH   6   7
HETATM    7  C5  UNL     1      26.533 -37.892 -54.637  1.00  0.00     0.002 C 
BRANCH   7   8
HETATM    8  C6  UNL     1      26.913 -37.515 -53.191  1.00  0.00     0.000 C 
BRANCH   8   9
HETATM    9  C7  UNL     1      26.568 -36.117 -52.899  1.00  0.00     0.000 C 
BRANCH   9  10
HETATM   10  C8  UNL     1      25.546 -35.513 -53.780  1.00  0.00     0.005 C 
BRANCH  10  11
HETATM   11  C9  UNL     1      24.637 -34.499 -53.216  1.00  0.00    -0.011 C 
HETATM   12  C10 UNL     1      24.328 -34.524 -51.767  1.00  0.00     0.032 C 
HETATM   13  C11 UNL     1      22.824 -34.326 -51.558  1.00  0.00     0.232 C 
HETATM   14  N1  UNL     1      22.320 -33.189 -52.308  1.00  0.00    -0.075 N 
HETATM   15  C12 UNL     1      22.421 -33.428 -53.740  1.00  0.00     0.232 C 
ATOM     16  H12 UNL     1      21.368 -32.948 -52.032  1.00  0.00     0.277 HD
ATOM     17  H11 UNL     1      22.784 -32.323 -52.036  1.00  0.00     0.277 HD
HETATM   18  C13 UNL     1      23.337 -34.573 -54.024  1.00  0.00     0.032 C 
ENDBRANCH  10  11
ENDBRANCH   9  10
ENDBRANCH   8   9
ENDBRANCH   7   8
ENDBRANCH   6   7
ENDBRANCH   2   6
BRANCH   1  19
HETATM   19  C1  UNL     1      26.834 -40.085 -58.247  1.00  0.00     0.207 C 
BRANCH  19  20
HETATM   20  O1  UNL     1      26.047 -39.087 -58.777  1.00  0.00    -0.398 OA
ATOM     21  H1  UNL     1      25.659 -38.521 -58.120  1.00  0.00     0.209 HD
ENDBRANCH  19  20
ENDBRANCH   1  19
BRANCH   1  22
HETATM   22  O2  UNL     1      27.276 -41.445 -56.384  1.00  0.00    -0.382 OA
ATOM     23  H2  UNL     1      27.804 -41.816 -57.082  1.00  0.00     0.210 HD
ENDBRANCH   1  22
BRANCH   5  24
HETATM   24  O5  UNL     1      25.266 -42.813 -56.562  1.00  0.00    -0.387 OA
ATOM     25  H5  UNL     1      24.520 -43.378 -56.726  1.00  0.00     0.210 HD
ENDBRANCH   5  24
BRANCH   4  26
HETATM   26  O4  UNL     1      23.403 -40.104 -57.800  1.00  0.00    -0.368 OA
ATOM     27  H4  UNL     1      23.388 -39.176 -57.597  1.00  0.00     0.212 HD
ENDBRANCH   4  26
TORSDOF 11
ENDMDL
MODEL 4
REMARK VINA RESULT: -7.127642068      0.863      2.121
REMARK  11 active torsions:
REMARK  status: ('A' for Active; 'I' for Inactive)
REMARK    1  A    between atoms: O1_1  and  C1_3 
REMARK    2  A    between atoms: C1_3  and  C2_4 
REMARK    3  A    between atoms: C2_4  and  O2_5 
REMARK    4  A    between atoms: C3_7  and  C4_8 
REMARK    5  A    between atoms: C4_8  and  C5_9 
REMARK    6  A    between atoms: C5_9  and  C6_10 
REMARK    7  A    between atoms: C6_10  and  C7_11 
REMARK    8  A    between atoms: C7_11  and  C8_12 
REMARK    9  A    between atoms: C8_12  and  C9_13 
REMARK   10  A    between atoms: C14_22  and  O4_23 
REMARK   11  A    between atoms: C15_25  and  O5_26 
ROOT
HETATM    1  C2  UNL     1      26.978 -40.946 -56.396  1.00  0.00     0.135 C 
HETATM    2  C3  UNL     1      26.136 -39.764 -56.154  1.00  0.00     0.164 C 
HETATM    3  O3  UNL     1      24.851 -40.116 -56.622  1.00  0.00    -0.350 OA
HETATM    4  C14 UNL     1      25.067 -40.886 -57.738  1.00  0.00     0.289 C 
HETATM    5  C15 UNL     1      26.174 -41.848 -57.350  1.00  0.00     0.212 C 
ENDROOT
BRANCH   2   6
HETATM    6  C4  UNL     1      26.070 -39.331 -54.721  1.00  0.00     0.035 C 
BRANCH   6   7
HETATM    7  C5  UNL     1      26.406 -37.904 -54.542  1.00  0.00     0.002 C 
BRANCH   7   8
HETATM    8  C6  UNL     1      26.924 -37.554 -53.133  1.00  0.00     0.000 C 
BRANCH   8   9
HETATM    9  C7  UNL     1      26.505 -36.203 -52.734  1.00  0.00     0.000 C 
BRANCH   9  10
HETATM   10  C8  UNL     1      25.586 -35.516 -53.664  1.00  0.00     0.005 C 
BRANCH  10  11
HETATM   11  C9  UNL     1      24.660 -34.504 -53.125  1.00  0.00    -0.011 C 
HETATM   12  C10 UNL     1      24.306 -34.534 -51.688  1.00  0.00     0.032 C 
HETATM   13  C11 UNL     1      22.796 -34.336 -51.524  1.00  0.00     0.232 C 
HETATM   14  N1  UNL     1      22.316 -33.196 -52.286  1.00  0.00    -0.075 N 
HETATM   15  C12 UNL     1      22.461 -33.430 -53.715  1.00  0.00     0.232 C 
ATOM     16  H12 UNL     1      21.356 -32.955 -52.039  1.00  0.00     0.277 HD
ATOM     17  H11 UNL     1      22.772 -32.331 -51.997  1.00  0.00     0.277 HD
HETATM   18  C13 UNL     1      23.386 -34.575 -53.974  1.00  0.00     0.032 C 
ENDBRANCH  10  11
ENDBRANCH   9  10
ENDBRANCH   8   9
ENDBRANCH   7   8
ENDBRANCH   6   7
ENDBRANCH   2   6
BRANCH   1  19
HETATM   19  C1  UNL     1      28.304 -40.603 -57.050  1.00  0.00     0.207 C 
BRANCH  19  20
HETATM   20  O1  UNL     1      28.294 -39.395 -57.711  1.00  0.00    -0.398 OA
ATOM     21  H1  UNL     1      28.696 -39.431 -58.571  1.00  0.00     0.209 HD
ENDBRANCH  19  20
ENDBRANCH   1  19
BRANCH   1  22
HETATM   22  O2  UNL     1      27.251 -41.707 -55.264  1.00  0.00    -0.382 OA
ATOM     23  H2  UNL     1      26.874 -41.256 -54.517  1.00  0.00     0.210 HD
ENDBRANCH   1  22
BRANCH   5  24
HETATM   24  O5  UNL     1      25.576 -42.862 -56.606  1.00  0.00    -0.387 OA
ATOM     25  H5  UNL     1      24.871 -42.487 -56.091  1.00  0.00     0.210 HD
ENDBRANCH   5  24
BRANCH   4  26
HETATM   26  O4  UNL     1      25.394 -40.186 -58.875  1.00  0.00    -0.368 OA
ATOM     27  H4  UNL     1      26.059 -39.518 -58.760  1.00  0.00     0.212 HD
ENDBRANCH   4  26
TORSDOF 11
ENDMDL
MODEL 5
REMARK VINA RESULT: -7.122719685      1.069      1.758
REMARK  11 active torsions:
REMARK  status: ('A' for Active; 'I' for Inactive)
REMARK    1  A    between atoms: O1_1  and  C1_3 
REMARK    2  A    between atoms: C1_3  and  C2_4 
REMARK    3  A    between atoms: C2_4  and  O2_5 
REMARK    4  A    between atoms: C3_7  and  C4_8 
REMARK    5  A    between atoms: C4_8  and  C5_9 
REMARK    6  A    between atoms: C5_9  and  C6_10 
REMARK    7  A    between atoms: C6_10  and  C7_11 
REMARK    8  A    between atoms: C7_11  and  C8_12 
REMARK    9  A    between atoms: C8_12  and  C9_13 
REMARK   10  A    between atoms: C14_22  and  O4_23 
REMARK   11  A    between atoms: C15_25  and  O5_26 
ROOT
HETATM    1  C2  UNL     1      26.553 -39.992 -56.985  1.00  0.00     0.135 C 
HETATM    2  C3  UNL     1      26.270 -40.277 -55.570  1.00  0.00     0.164 C 
HETATM    3  O3  UNL     1      27.498 -40.706 -55.020  1.00  0.00    -0.350 OA
HETATM    4  C14 UNL     1      28.104 -41.441 -56.009  1.00  0.00     0.289 C 
HETATM    5  C15 UNL     1      27.926 -40.625 -57.276  1.00  0.00     0.212 C 
ENDROOT
BRANCH   2   6
HETATM    6  C4  UNL     1      25.730 -39.113 -54.797  1.00  0.00     0.035 C 
BRANCH   6   7
HETATM    7  C5  UNL     1      26.715 -38.552 -53.849  1.00  0.00     0.002 C 
BRANCH   7   8
HETATM    8  C6  UNL     1      27.180 -37.124 -54.198  1.00  0.00     0.000 C 
BRANCH   8   9
HETATM    9  C7  UNL     1      26.086 -36.156 -54.037  1.00  0.00     0.000 C 
BRANCH   9  10
HETATM   10  C8  UNL     1      25.838 -35.695 -52.655  1.00  0.00     0.005 C 
BRANCH  10  11
HETATM   11  C9  UNL     1      24.823 -34.649 -52.430  1.00  0.00    -0.011 C 
HETATM   12  C10 UNL     1      24.114 -34.592 -51.131  1.00  0.00     0.032 C 
HETATM   13  C11 UNL     1      22.616 -34.381 -51.370  1.00  0.00     0.232 C 
HETATM   14  N1  UNL     1      22.367 -33.287 -52.294  1.00  0.00    -0.075 N 
HETATM   15  C12 UNL     1      22.867 -33.607 -53.622  1.00  0.00     0.232 C 
ATOM     16  H12 UNL     1      21.380 -33.030 -52.315  1.00  0.00     0.277 HD
ATOM     17  H11 UNL     1      22.749 -32.408 -51.948  1.00  0.00     0.277 HD
HETATM   18  C13 UNL     1      23.806 -34.768 -53.570  1.00  0.00     0.032 C 
ENDBRANCH  10  11
ENDBRANCH   9  10
ENDBRANCH   8   9
ENDBRANCH   7   8
ENDBRANCH   6   7
ENDBRANCH   2   6
BRANCH   1  19
HETATM   19  C1  UNL     1      25.528 -40.595 -57.926  1.00  0.00     0.207 C 
BRANCH  19  20
HETATM   20  O1  UNL     1      25.271 -39.814 -59.031  1.00  0.00    -0.398 OA
ATOM     21  H1  UNL     1      25.231 -40.308 -59.842  1.00  0.00     0.209 HD
ENDBRANCH  19  20
ENDBRANCH   1  19
BRANCH   1  22
HETATM   22  O2  UNL     1      26.666 -38.640 -57.294  1.00  0.00    -0.382 OA
ATOM     23  H2  UNL     1      26.727 -38.566 -58.240  1.00  0.00     0.210 HD
ENDBRANCH   1  22
BRANCH   5  24
HETATM   24  O5  UNL     1      28.894 -39.625 -57.244  1.00  0.00    -0.387 OA
ATOM     25  H5  UNL     1      29.115 -39.386 -58.137  1.00  0.00     0.210 HD
ENDBRANCH   5  24
BRANCH   4  26
HETATM   26  O4  UNL     1      27.620 -42.717 -56.168  1.00  0.00    -0.368 OA
ATOM     27  H4  UNL     1      26.679 -42.807 -56.068  1.00  0.00     0.212 HD
ENDBRANCH   4  26
TORSDOF 11
ENDMDL
