MODEL 1
REMARK VINA RESULT: -8.008503999      0.000      0.000
REMARK  12 active torsions:
REMARK  status: ('A' for Active; 'I' for Inactive)
REMARK    1  A    between atoms: N1_1  and  N2_4 
REMARK    2  A    between atoms: N2_4  and  N3_5 
REMARK    3  A    between atoms: N3_5  and  C1_7 
REMARK    4  A    between atoms: C1_7  and  C2_8 
REMARK    5  A    between atoms: C2_8  and  C3_9 
REMARK    6  A    between atoms: C3_9  and  C4_10 
REMARK    7  A    between atoms: C4_10  and  C5_11 
REMARK    8  A    between atoms: C5_11  and  O1_12 
REMARK    9  A    between atoms: O1_12  and  C6_13 
REMARK   10  A    between atoms: C8_18  and  O2_19 
REMARK   11  A    between atoms: C9_21  and  O3_22 
REMARK   12  A    between atoms: C10_24  and  O4_25 
ROOT
HETATM    1  C6  UNL     1      26.788 -37.441 -53.307  1.00  0.00     0.469 C 
HETATM    2  N4  UNL     1      26.425 -38.865 -53.360  1.00  0.00    -0.018 N 
ATOM      3  H41 UNL     1      25.534 -39.028 -52.890  1.00  0.00     0.283 HD
ATOM      4  H42 UNL     1      27.037 -39.416 -52.758  1.00  0.00     0.283 HD
HETATM    5  C7  UNL     1      26.404 -39.392 -54.669  1.00  0.00     0.231 C 
HETATM    6  C8  UNL     1      27.368 -40.550 -54.886  1.00  0.00     0.180 C 
HETATM    7  C9  UNL     1      27.172 -40.769 -56.386  1.00  0.00     0.178 C 
HETATM    8  C10 UNL     1      27.243 -39.346 -56.899  1.00  0.00     0.157 C 
HETATM    9  C11 UNL     1      26.774 -38.458 -55.763  1.00  0.00     0.074 C 
HETATM   10  C12 UNL     1      27.812 -37.438 -55.382  1.00  0.00     0.182 C 
HETATM   11  O5  UNL     1      27.983 -37.323 -54.014  1.00  0.00    -0.339 OA
ENDROOT
BRANCH   1  12
HETATM   12  O1  UNL     1      25.801 -36.634 -53.724  1.00  0.00    -0.339 OA
BRANCH  12  13
HETATM   13  C5  UNL     1      25.613 -35.392 -53.227  1.00  0.00     0.172 C 
BRANCH  13  14
HETATM   14  C4  UNL     1      24.443 -34.580 -53.610  1.00  0.00     0.026 C 
BRANCH  14  15
HETATM   15  C3  UNL     1      23.517 -34.086 -52.566  1.00  0.00     0.004 C 
BRANCH  15  16
HETATM   16  C2  UNL     1      23.978 -34.551 -51.184  1.00  0.00     0.022 C 
BRANCH  16  17
HETATM   17  C1  UNL     1      22.982 -34.301 -50.102  1.00  0.00     0.155 C 
BRANCH  17  18
HETATM   18  N3  UNL     1      22.295 -33.049 -50.468  1.00  0.00    -0.253 N 
ATOM     19  H3  UNL     1      22.197 -32.798 -51.451  1.00  0.00     0.196 HD
BRANCH  18  20
HETATM   20  N2  UNL     1      21.834 -32.299 -49.598  1.00  0.00    -0.249 NA
BRANCH  20  21
HETATM   21  N1  UNL     1      21.200 -31.477 -48.958  1.00  0.00    -0.261 N 
ATOM     22  H12 UNL     1      20.563 -32.188 -48.601  1.00  0.00     0.193 HD
ATOM     23  H11 UNL     1      20.832 -30.633 -48.519  1.00  0.00     0.193 HD
ENDBRANCH  20  21
ENDBRANCH  18  20
ENDBRANCH  17  18
ENDBRANCH  16  17
ENDBRANCH  15  16
ENDBRANCH  14  15
ENDBRANCH  13  14
ENDBRANCH  12  13
ENDBRANCH   1  12
BRANCH   6  24
HETATM   24  O2  UNL     1      27.029 -41.662 -54.152  1.00  0.00    -0.391 OA
ATOM     25  H2  UNL     1      26.299 -42.139 -54.531  1.00  0.00     0.210 HD
ENDBRANCH   6  24
BRANCH   7  26
HETATM   26  O3  UNL     1      28.139 -41.583 -56.915  1.00  0.00    -0.390 OA
ATOM     27  H3  UNL     1      28.195 -41.498 -57.859  1.00  0.00     0.210 HD
ENDBRANCH   7  26
BRANCH   8  28
HETATM   28  O4  UNL     1      28.559 -39.103 -57.257  1.00  0.00    -0.392 OA
ATOM     29  H4  UNL     1      28.567 -38.307 -57.775  1.00  0.00     0.210 HD
ENDBRANCH   8  28
TORSDOF 12
ENDMDL
MODEL 2
REMARK VINA RESULT: -7.378958414      1.518      2.614
REMARK  12 active torsions:
REMARK  status: ('A' for Active; 'I' for Inactive)
REMARK    1  A    between atoms: N1_1  and  N2_4 
REMARK    2  A    between atoms: N2_4  and  N3_5 
REMARK    3  A    between atoms: N3_5  and  C1_7 
REMARK    4  A    between atoms: C1_7  and  C2_8 
REMARK    5  A    between atoms: C2_8  and  C3_9 
REMARK    6  A    between atoms: C3_9  and  C4_10 
REMARK    7  A    between atoms: C4_10  and  C5_11 
REMARK    8  A    between atoms: C5_11  and  O1_12 
REMARK    9  A    between atoms: O1_12  and  C6_13 
REMARK   10  A    between atoms: C8_18  and  O2_19 
REMARK   11  A    between atoms: C9_21  and  O3_22 
REMARK   12  A    between atoms: C10_24  and  O4_25 
ROOT
HETATM    1  C6  UNL     1      26.050 -38.299 -54.925  1.00  0.00     0.469 C 
HETATM    2  N4  UNL     1      26.841 -38.298 -56.164  1.00  0.00    -0.018 N 
ATOM      3  H41 UNL     1      27.537 -37.553 -56.148  1.00  0.00     0.283 HD
ATOM      4  H42 UNL     1      26.276 -37.985 -56.953  1.00  0.00     0.283 HD
HETATM    5  C7  UNL     1      27.447 -39.542 -56.446  1.00  0.00     0.231 C 
HETATM    6  C8  UNL     1      27.020 -40.150 -57.775  1.00  0.00     0.180 C 
HETATM    7  C9  UNL     1      27.745 -41.494 -57.686  1.00  0.00     0.178 C 
HETATM    8  C10 UNL     1      27.397 -41.918 -56.275  1.00  0.00     0.157 C 
HETATM    9  C11 UNL     1      27.171 -40.642 -55.488  1.00  0.00     0.074 C 
HETATM   10  C12 UNL     1      25.800 -40.599 -54.870  1.00  0.00     0.182 C 
HETATM   11  O5  UNL     1      25.172 -39.376 -55.029  1.00  0.00    -0.339 OA
ENDROOT
BRANCH   1  12
HETATM   12  O1  UNL     1      26.810 -38.293 -53.819  1.00  0.00    -0.339 OA
BRANCH  12  13
HETATM   13  C5  UNL     1      27.116 -37.161 -53.148  1.00  0.00     0.172 C 
BRANCH  13  14
HETATM   14  C4  UNL     1      26.149 -36.055 -53.026  1.00  0.00     0.026 C 
BRANCH  14  15
HETATM   15  C3  UNL     1      25.691 -35.621 -51.687  1.00  0.00     0.004 C 
BRANCH  15  16
HETATM   16  C2  UNL     1      24.510 -34.658 -51.815  1.00  0.00     0.022 C 
BRANCH  16  17
HETATM   17  C1  UNL     1      23.875 -34.308 -50.511  1.00  0.00     0.155 C 
BRANCH  17  18
HETATM   18  N3  UNL     1      22.704 -33.477 -50.844  1.00  0.00    -0.253 N 
ATOM     19  H3  UNL     1      22.385 -33.422 -51.811  1.00  0.00     0.196 HD
BRANCH  18  20
HETATM   20  N2  UNL     1      22.103 -32.845 -49.966  1.00  0.00    -0.249 NA
BRANCH  20  21
HETATM   21  N1  UNL     1      21.477 -32.025 -49.316  1.00  0.00    -0.261 N 
ATOM     22  H12 UNL     1      21.866 -32.367 -48.437  1.00  0.00     0.193 HD
ATOM     23  H11 UNL     1      20.870 -31.271 -48.992  1.00  0.00     0.193 HD
ENDBRANCH  20  21
ENDBRANCH  18  20
ENDBRANCH  17  18
ENDBRANCH  16  17
ENDBRANCH  15  16
ENDBRANCH  14  15
ENDBRANCH  13  14
ENDBRANCH  12  13
ENDBRANCH   1  12
BRANCH   6  24
HETATM   24  O2  UNL     1      27.439 -39.408 -58.853  1.00  0.00    -0.391 OA
ATOM     25  H2  UNL     1      28.308 -39.653 -59.149  1.00  0.00     0.210 HD
ENDBRANCH   6  24
BRANCH   7  26
HETATM   26  O3  UNL     1      27.309 -42.375 -58.639  1.00  0.00    -0.390 OA
ATOM     27  H3  UNL     1      27.854 -42.355 -59.416  1.00  0.00     0.210 HD
ENDBRANCH   7  26
BRANCH   8  28
HETATM   28  O4  UNL     1      26.260 -42.706 -56.351  1.00  0.00    -0.392 OA
ATOM     29  H4  UNL     1      26.490 -43.564 -56.016  1.00  0.00     0.210 HD
ENDBRANCH   8  28
TORSDOF 12
ENDMDL
MODEL 3
REMARK VINA RESULT: -7.351007583      1.754      2.967
REMARK  12 active torsions:
REMARK  status: ('A' for Active; 'I' for Inactive)
REMARK    1  A    between atoms: N1_1  and  N2_4 
REMARK    2  A    between atoms: N2_4  and  N3_5 
REMARK    3  A    between atoms: N3_5  and  C1_7 
REMARK    4  A    between atoms: C1_7  and  C2_8 
REMARK    5  A    between atoms: C2_8  and  C3_9 
REMARK    6  A    between atoms: C3_9  and  C4_10 
REMARK    7  A    between atoms: C4_10  and  C5_11 
REMARK    8  A    between atoms: C5_11  and  O1_12 
REMARK    9  A    between atoms: O1_12  and  C6_13 
REMARK   10  A    between atoms: C8_18  and  O2_19 
REMARK   11  A    between atoms: C9_21  and  O3_22 
REMARK   12  A    between atoms: C10_24  and  O4_25 
ROOT
HETATM    1  C6  UNL     1      26.073 -38.443 -54.962  1.00  0.00     0.469 C 
HETATM    2  N4  UNL     1      26.931 -38.441 -56.155  1.00  0.00    -0.018 N 
ATOM      3  H41 UNL     1      27.697 -37.776 -56.049  1.00  0.00     0.283 HD
ATOM      4  H42 UNL     1      26.448 -38.018 -56.947  1.00  0.00     0.283 HD
HETATM    5  C7  UNL     1      27.423 -39.720 -56.496  1.00  0.00     0.231 C 
HETATM    6  C8  UNL     1      27.016 -40.190 -57.886  1.00  0.00     0.180 C 
HETATM    7  C9  UNL     1      27.595 -41.605 -57.857  1.00  0.00     0.178 C 
HETATM    8  C10 UNL     1      27.124 -42.084 -56.501  1.00  0.00     0.157 C 
HETATM    9  C11 UNL     1      26.982 -40.848 -55.636  1.00  0.00     0.074 C 
HETATM   10  C12 UNL     1      25.588 -40.702 -55.087  1.00  0.00     0.182 C 
HETATM   11  O5  UNL     1      25.099 -39.412 -55.189  1.00  0.00    -0.339 OA
ENDROOT
BRANCH   1  12
HETATM   12  O1  UNL     1      26.764 -38.591 -53.821  1.00  0.00    -0.339 OA
BRANCH  12  13
HETATM   13  C5  UNL     1      27.104 -37.549 -53.031  1.00  0.00     0.172 C 
BRANCH  13  14
HETATM   14  C4  UNL     1      26.762 -36.162 -53.398  1.00  0.00     0.026 C 
BRANCH  14  15
HETATM   15  C3  UNL     1      25.605 -35.496 -52.759  1.00  0.00     0.004 C 
BRANCH  15  16
HETATM   16  C2  UNL     1      24.715 -34.845 -53.818  1.00  0.00     0.022 C 
BRANCH  16  17
HETATM   17  C1  UNL     1      23.575 -34.067 -53.251  1.00  0.00     0.155 C 
BRANCH  17  18
HETATM   18  N3  UNL     1      23.757 -34.095 -51.789  1.00  0.00    -0.253 N 
ATOM     19  H3  UNL     1      24.481 -34.687 -51.383  1.00  0.00     0.196 HD
BRANCH  18  20
HETATM   20  N2  UNL     1      23.043 -33.409 -51.046  1.00  0.00    -0.249 NA
BRANCH  20  21
HETATM   21  N1  UNL     1      22.219 -32.993 -50.248  1.00  0.00    -0.261 N 
ATOM     22  H12 UNL     1      21.541 -33.706 -50.516  1.00  0.00     0.193 HD
ATOM     23  H11 UNL     1      21.706 -32.481 -49.530  1.00  0.00     0.193 HD
ENDBRANCH  20  21
ENDBRANCH  18  20
ENDBRANCH  17  18
ENDBRANCH  16  17
ENDBRANCH  15  16
ENDBRANCH  14  15
ENDBRANCH  13  14
ENDBRANCH  12  13
ENDBRANCH   1  12
BRANCH   6  24
HETATM   24  O2  UNL     1      27.570 -39.425 -58.884  1.00  0.00    -0.391 OA
ATOM     25  H2  UNL     1      26.915 -39.047 -59.460  1.00  0.00     0.210 HD
ENDBRANCH   6  24
BRANCH   7  26
HETATM   26  O3  UNL     1      27.128 -42.369 -58.893  1.00  0.00    -0.390 OA
ATOM     27  H3  UNL     1      27.688 -42.309 -59.658  1.00  0.00     0.210 HD
ENDBRANCH   7  26
BRANCH   8  28
HETATM   28  O4  UNL     1      25.920 -42.741 -56.693  1.00  0.00    -0.392 OA
ATOM     29  H4  UNL     1      25.688 -43.152 -55.868  1.00  0.00     0.210 HD
ENDBRANCH   8  28
TORSDOF 12
ENDMDL
MODEL 4
REMARK VINA RESULT: -7.246956886      2.389      3.366
REMARK  12 active torsions:
REMARK  status: ('A' for Active; 'I' for Inactive)
REMARK    1  A    between atoms: N1_1  and  N2_4 
REMARK    2  A    between atoms: N2_4  and  N3_5 
REMARK    3  A    between atoms: N3_5  and  C1_7 
REMARK    4  A    between atoms: C1_7  and  C2_8 
REMARK    5  A    between atoms: C2_8  and  C3_9 
REMARK    6  A    between atoms: C3_9  and  C4_10 
REMARK    7  A    between atoms: C4_10  and  C5_11 
REMARK    8  A    between atoms: C5_11  and  O1_12 
REMARK    9  A    between atoms: O1_12  and  C6_13 
REMARK   10  A    between atoms: C8_18  and  O2_19 
REMARK   11  A    between atoms: C9_21  and  O3_22 
REMARK   12  A    between atoms: C10_24  and  O4_25 
ROOT
HETATM    1  C6  UNL     1      26.074 -38.486 -55.007  1.00  0.00     0.469 C 
HETATM    2  N4  UNL     1      26.889 -38.460 -56.230  1.00  0.00    -0.018 N 
ATOM      3  H41 UNL     1      27.629 -37.762 -56.156  1.00  0.00     0.283 HD
ATOM      4  H42 UNL     1      26.361 -38.066 -57.008  1.00  0.00     0.283 HD
HETATM    5  C7  UNL     1      27.424 -39.721 -56.576  1.00  0.00     0.231 C 
HETATM    6  C8  UNL     1      26.990 -40.221 -57.947  1.00  0.00     0.180 C 
HETATM    7  C9  UNL     1      27.630 -41.610 -57.926  1.00  0.00     0.178 C 
HETATM    8  C10 UNL     1      27.227 -42.095 -56.550  1.00  0.00     0.157 C 
HETATM    9  C11 UNL     1      27.062 -40.857 -55.691  1.00  0.00     0.074 C 
HETATM   10  C12 UNL     1      25.683 -40.765 -55.096  1.00  0.00     0.182 C 
HETATM   11  O5  UNL     1      25.135 -39.499 -55.192  1.00  0.00    -0.339 OA
ENDROOT
BRANCH   1  12
HETATM   12  O1  UNL     1      26.810 -38.593 -53.890  1.00  0.00    -0.339 OA
BRANCH  12  13
HETATM   13  C5  UNL     1      27.103 -37.534 -53.103  1.00  0.00     0.172 C 
BRANCH  13  14
HETATM   14  C4  UNL     1      26.677 -36.169 -53.462  1.00  0.00     0.026 C 
BRANCH  14  15
HETATM   15  C3  UNL     1      25.614 -35.500 -52.679  1.00  0.00     0.004 C 
BRANCH  15  16
HETATM   16  C2  UNL     1      24.659 -34.753 -53.610  1.00  0.00     0.022 C 
BRANCH  16  17
HETATM   17  C1  UNL     1      23.586 -34.003 -52.895  1.00  0.00     0.155 C 
BRANCH  17  18
HETATM   18  N3  UNL     1      22.442 -33.954 -53.823  1.00  0.00    -0.253 N 
ATOM     19  H3  UNL     1      21.917 -34.806 -54.020  1.00  0.00     0.196 HD
BRANCH  18  20
HETATM   20  N2  UNL     1      22.109 -32.893 -54.367  1.00  0.00    -0.249 NA
BRANCH  20  21
HETATM   21  N1  UNL     1      21.535 -31.886 -54.745  1.00  0.00    -0.261 N 
ATOM     22  H12 UNL     1      21.726 -32.098 -55.725  1.00  0.00     0.193 HD
ATOM     23  H11 UNL     1      21.020 -31.008 -54.822  1.00  0.00     0.193 HD
ENDBRANCH  20  21
ENDBRANCH  18  20
ENDBRANCH  17  18
ENDBRANCH  16  17
ENDBRANCH  15  16
ENDBRANCH  14  15
ENDBRANCH  13  14
ENDBRANCH  12  13
ENDBRANCH   1  12
BRANCH   6  24
HETATM   24  O2  UNL     1      27.476 -39.443 -58.970  1.00  0.00    -0.391 OA
ATOM     25  H2  UNL     1      26.787 -38.996 -59.447  1.00  0.00     0.210 HD
ENDBRANCH   6  24
BRANCH   7  26
HETATM   26  O3  UNL     1      27.161 -42.404 -58.939  1.00  0.00    -0.390 OA
ATOM     27  H3  UNL     1      27.077 -41.925 -59.755  1.00  0.00     0.210 HD
ENDBRANCH   7  26
BRANCH   8  28
HETATM   28  O4  UNL     1      26.046 -42.804 -56.694  1.00  0.00    -0.392 OA
ATOM     29  H4  UNL     1      26.196 -43.469 -57.356  1.00  0.00     0.210 HD
ENDBRANCH   8  28
TORSDOF 12
ENDMDL
MODEL 5
REMARK VINA RESULT: -7.245698798      2.059      2.267
REMARK  12 active torsions:
REMARK  status: ('A' for Active; 'I' for Inactive)
REMARK    1  A    between atoms: N1_1  and  N2_4 
REMARK    2  A    between atoms: N2_4  and  N3_5 
REMARK    3  A    between atoms: N3_5  and  C1_7 
REMARK    4  A    between atoms: C1_7  and  C2_8 
REMARK    5  A    between atoms: C2_8  and  C3_9 
REMARK    6  A    between atoms: C3_9  and  C4_10 
REMARK    7  A    between atoms: C4_10  and  C5_11 
REMARK    8  A    between atoms: C5_11  and  O1_12 
REMARK    9  A    between atoms: O1_12  and  C6_13 
REMARK   10  A    between atoms: C8_18  and  O2_19 
REMARK   11  A    between atoms: C9_21  and  O3_22 
REMARK   12  A    between atoms: C10_24  and  O4_25 
ROOT
HETATM    1  C6  UNL     1      26.836 -37.472 -53.500  1.00  0.00     0.469 C 
HETATM    2  N4  UNL     1      26.536 -38.911 -53.484  1.00  0.00    -0.018 N 
ATOM      3  H41 UNL     1      25.674 -39.095 -52.969  1.00  0.00     0.283 HD
ATOM      4  H42 UNL     1      27.197 -39.412 -52.891  1.00  0.00     0.283 HD
HETATM    5  C7  UNL     1      26.482 -39.489 -54.771  1.00  0.00     0.231 C 
HETATM    6  C8  UNL     1      27.488 -40.612 -54.988  1.00  0.00     0.180 C 
HETATM    7  C9  UNL     1      27.237 -40.896 -56.469  1.00  0.00     0.178 C 
HETATM    8  C10 UNL     1      27.221 -39.493 -57.036  1.00  0.00     0.157 C 
HETATM    9  C11 UNL     1      26.762 -38.583 -55.914  1.00  0.00     0.074 C 
HETATM   10  C12 UNL     1      27.768 -37.504 -55.618  1.00  0.00     0.182 C 
HETATM   11  O5  UNL     1      27.992 -37.329 -54.264  1.00  0.00    -0.339 OA
ENDROOT
BRANCH   1  12
HETATM   12  O1  UNL     1      25.796 -36.726 -53.901  1.00  0.00    -0.339 OA
BRANCH  12  13
HETATM   13  C5  UNL     1      25.696 -35.405 -53.632  1.00  0.00     0.172 C 
BRANCH  13  14
HETATM   14  C4  UNL     1      24.385 -34.759 -53.434  1.00  0.00     0.026 C 
BRANCH  14  15
HETATM   15  C3  UNL     1      23.958 -34.362 -52.074  1.00  0.00     0.004 C 
BRANCH  15  16
HETATM   16  C2  UNL     1      24.949 -34.885 -51.032  1.00  0.00     0.022 C 
BRANCH  16  17
HETATM   17  C1  UNL     1      24.382 -34.975 -49.655  1.00  0.00     0.155 C 
BRANCH  17  18
HETATM   18  N3  UNL     1      25.069 -36.108 -49.010  1.00  0.00    -0.253 N 
ATOM     19  H3  UNL     1      24.987 -37.041 -49.413  1.00  0.00     0.196 HD
BRANCH  18  20
HETATM   20  N2  UNL     1      25.744 -35.943 -47.986  1.00  0.00    -0.249 NA
BRANCH  20  21
HETATM   21  N1  UNL     1      26.482 -36.061 -47.022  1.00  0.00    -0.261 N 
ATOM     22  H12 UNL     1      25.851 -35.527 -46.425  1.00  0.00     0.193 HD
ATOM     23  H11 UNL     1      27.237 -36.286 -46.375  1.00  0.00     0.193 HD
ENDBRANCH  20  21
ENDBRANCH  18  20
ENDBRANCH  17  18
ENDBRANCH  16  17
ENDBRANCH  15  16
ENDBRANCH  14  15
ENDBRANCH  13  14
ENDBRANCH  12  13
ENDBRANCH   1  12
BRANCH   6  24
HETATM   24  O2  UNL     1      27.232 -41.708 -54.200  1.00  0.00    -0.391 OA
ATOM     25  H2  UNL     1      27.253 -41.503 -53.273  1.00  0.00     0.210 HD
ENDBRANCH   6  24
BRANCH   7  26
HETATM   26  O3  UNL     1      28.216 -41.687 -57.010  1.00  0.00    -0.390 OA
ATOM     27  H3  UNL     1      28.092 -41.816 -57.943  1.00  0.00     0.210 HD
ENDBRANCH   7  26
BRANCH   8  28
HETATM   28  O4  UNL     1      28.508 -39.206 -57.462  1.00  0.00    -0.392 OA
ATOM     29  H4  UNL     1      28.487 -39.160 -58.410  1.00  0.00     0.210 HD
ENDBRANCH   8  28
TORSDOF 12
ENDMDL
