MODEL 1
REMARK VINA RESULT: -6.963284402      0.000      0.000
REMARK  9 active torsions:
REMARK  status: ('A' for Active; 'I' for Inactive)
REMARK    1  A    between atoms: C2_3  and  N2_4 
REMARK    2  A    between atoms: C2_3  and  C3_8 
REMARK    3  A    between atoms: C2_3  and  C7_16 
REMARK    4  A    between atoms: C3_8  and  C4_9 
REMARK    5  A    between atoms: C7_16  and  O1_17 
REMARK    6  A    between atoms: C7_16  and  N5_19 
REMARK    7  A    between atoms: N5_19  and  C8_20 
REMARK    8  A    between atoms: N5_19  and  C9_24 
REMARK    9  A    between atoms: C9_24  and  C10_25 
ROOT
HETATM    1  N1  UNL     1      24.032 -41.999 -60.333  1.00  0.00    -0.194 NA
HETATM    2  C1  UNL     1      24.679 -41.607 -59.460  1.00  0.00     0.103 C 
HETATM    3  C2  UNL     1      25.501 -41.076 -58.335  1.00  0.00     0.258 C 
ENDROOT
BRANCH   3   4
HETATM    4  N2  UNL     1      26.709 -40.520 -58.836  1.00  0.00    -0.053 N 
ATOM      5  H23 UNL     1      27.090 -41.068 -59.607  1.00  0.00     0.276 HD
ATOM      6  H22 UNL     1      26.549 -39.647 -59.338  1.00  0.00     0.276 HD
ATOM      7  H21 UNL     1      27.382 -40.408 -58.078  1.00  0.00     0.276 HD
ENDBRANCH   3   4
BRANCH   3   8
HETATM    8  C3  UNL     1      25.932 -42.349 -57.566  1.00  0.00     0.117 C 
BRANCH   8   9
HETATM    9  C4  UNL     1      27.393 -42.479 -57.515  1.00  0.00     0.029 A 
HETATM   10  C5  UNL     1      28.237 -41.975 -56.562  1.00  0.00     0.114 A 
HETATM   11  N3  UNL     1      29.481 -42.346 -56.919  1.00  0.00    -0.360 N 
HETATM   12  C6  UNL     1      29.411 -43.059 -58.058  1.00  0.00     0.180 A 
ATOM     13  H3  UNL     1      30.336 -42.123 -56.409  1.00  0.00     0.166 HD
HETATM   14  N4  UNL     1      28.122 -43.141 -58.423  1.00  0.00    -0.354 N 
ATOM     15  H4  UNL     1      27.761 -43.622 -59.247  1.00  0.00     0.166 HD
ENDBRANCH   8   9
ENDBRANCH   3   8
BRANCH   3  16
HETATM   16  C7  UNL     1      24.690 -40.276 -57.396  1.00  0.00     0.272 C 
BRANCH  16  17
HETATM   17  O1  UNL     1      23.347 -40.353 -57.852  1.00  0.00    -0.373 OA
ATOM     18  H1  UNL     1      23.351 -40.068 -58.758  1.00  0.00     0.212 HD
ENDBRANCH  16  17
BRANCH  16  19
HETATM   19  N5  UNL     1      24.836 -40.434 -56.005  1.00  0.00    -0.348 N 
BRANCH  19  20
HETATM   20  C8  UNL     1      23.810 -41.249 -55.346  1.00  0.00     0.173 C 
HETATM   21  N6  UNL     1      22.676 -40.736 -55.118  1.00  0.00    -0.395 N 
ATOM     22  H62 UNL     1      22.495 -39.771 -55.394  1.00  0.00     0.156 HD
ATOM     23  H61 UNL     1      21.963 -41.302 -54.659  1.00  0.00     0.156 HD
ENDBRANCH  19  20
BRANCH  19  24
HETATM   24  C9  UNL     1      25.862 -39.983 -55.144  1.00  0.00     0.133 C 
BRANCH  24  25
HETATM   25  C10 UNL     1      26.182 -38.538 -55.117  1.00  0.00     0.028 C 
HETATM   26  C11 UNL     1      26.791 -38.241 -53.730  1.00  0.00     0.010 C 
HETATM   27  C12 UNL     1      26.864 -36.731 -53.648  1.00  0.00     0.027 C 
HETATM   28  C13 UNL     1      27.613 -36.245 -54.876  1.00  0.00     0.167 C 
HETATM   29  O2  UNL     1      28.228 -37.310 -55.538  1.00  0.00    -0.391 OA
HETATM   30  C14 UNL     1      27.307 -38.176 -56.087  1.00  0.00     0.173 C 
ENDBRANCH  24  25
ENDBRANCH  19  24
ENDBRANCH  16  19
ENDBRANCH   3  16
TORSDOF 9
ENDMDL
MODEL 2
REMARK VINA RESULT: -6.730186975      1.484      2.979
REMARK  9 active torsions:
REMARK  status: ('A' for Active; 'I' for Inactive)
REMARK    1  A    between atoms: C2_3  and  N2_4 
REMARK    2  A    between atoms: C2_3  and  C3_8 
REMARK    3  A    between atoms: C2_3  and  C7_16 
REMARK    4  A    between atoms: C3_8  and  C4_9 
REMARK    5  A    between atoms: C7_16  and  O1_17 
REMARK    6  A    between atoms: C7_16  and  N5_19 
REMARK    7  A    between atoms: N5_19  and  C8_20 
REMARK    8  A    between atoms: N5_19  and  C9_24 
REMARK    9  A    between atoms: C9_24  and  C10_25 
ROOT
HETATM    1  N1  UNL     1      27.409 -39.406 -58.523  1.00  0.00    -0.194 NA
HETATM    2  C1  UNL     1      27.196 -40.371 -57.925  1.00  0.00     0.103 C 
HETATM    3  C2  UNL     1      26.912 -41.602 -57.132  1.00  0.00     0.258 C 
ENDROOT
BRANCH   3   4
HETATM    4  N2  UNL     1      28.077 -42.003 -56.424  1.00  0.00    -0.053 N 
ATOM      5  H23 UNL     1      28.118 -43.014 -56.298  1.00  0.00     0.276 HD
ATOM      6  H22 UNL     1      28.922 -41.887 -56.981  1.00  0.00     0.276 HD
ATOM      7  H21 UNL     1      28.133 -41.505 -55.535  1.00  0.00     0.276 HD
ENDBRANCH   3   4
BRANCH   3   8
HETATM    8  C3  UNL     1      26.702 -42.692 -58.211  1.00  0.00     0.117 C 
BRANCH   8   9
HETATM    9  C4  UNL     1      25.560 -42.381 -59.077  1.00  0.00     0.029 A 
HETATM   10  C5  UNL     1      25.061 -43.146 -60.097  1.00  0.00     0.114 A 
HETATM   11  N3  UNL     1      24.012 -42.470 -60.603  1.00  0.00    -0.360 N 
HETATM   12  C6  UNL     1      23.865 -41.321 -59.918  1.00  0.00     0.180 A 
ATOM     13  H3  UNL     1      23.426 -42.778 -61.378  1.00  0.00     0.166 HD
HETATM   14  N4  UNL     1      24.819 -41.269 -58.977  1.00  0.00    -0.354 N 
ATOM     15  H4  UNL     1      24.957 -40.515 -58.304  1.00  0.00     0.166 HD
ENDBRANCH   8   9
ENDBRANCH   3   8
BRANCH   3  16
HETATM   16  C7  UNL     1      25.637 -41.494 -56.395  1.00  0.00     0.272 C 
BRANCH  16  17
HETATM   17  O1  UNL     1      25.309 -42.803 -55.956  1.00  0.00    -0.373 OA
ATOM     18  H1  UNL     1      24.463 -43.012 -56.331  1.00  0.00     0.212 HD
ENDBRANCH  16  17
BRANCH  16  19
HETATM   19  N5  UNL     1      25.454 -40.496 -55.419  1.00  0.00    -0.348 N 
BRANCH  19  20
HETATM   20  C8  UNL     1      24.062 -40.138 -55.128  1.00  0.00     0.173 C 
HETATM   21  N6  UNL     1      23.153 -40.535 -55.915  1.00  0.00    -0.395 N 
ATOM     22  H62 UNL     1      23.401 -41.093 -56.732  1.00  0.00     0.156 HD
ATOM     23  H61 UNL     1      22.184 -40.286 -55.713  1.00  0.00     0.156 HD
ENDBRANCH  19  20
BRANCH  19  24
HETATM   24  C9  UNL     1      26.406 -39.824 -54.618  1.00  0.00     0.133 C 
BRANCH  24  25
HETATM   25  C10 UNL     1      26.409 -38.344 -54.610  1.00  0.00     0.028 C 
HETATM   26  C11 UNL     1      26.795 -37.905 -53.182  1.00  0.00     0.010 C 
HETATM   27  C12 UNL     1      26.538 -36.414 -53.145  1.00  0.00     0.027 C 
HETATM   28  C13 UNL     1      27.290 -35.795 -54.310  1.00  0.00     0.167 C 
HETATM   29  O2  UNL     1      28.181 -36.713 -54.871  1.00  0.00    -0.391 OA
HETATM   30  C14 UNL     1      27.525 -37.762 -55.478  1.00  0.00     0.173 C 
ENDBRANCH  24  25
ENDBRANCH  19  24
ENDBRANCH  16  19
ENDBRANCH   3  16
TORSDOF 9
ENDMDL
MODEL 3
REMARK VINA RESULT: -6.565463977      1.507      3.444
REMARK  9 active torsions:
REMARK  status: ('A' for Active; 'I' for Inactive)
REMARK    1  A    between atoms: C2_3  and  N2_4 
REMARK    2  A    between atoms: C2_3  and  C3_8 
REMARK    3  A    between atoms: C2_3  and  C7_16 
REMARK    4  A    between atoms: C3_8  and  C4_9 
REMARK    5  A    between atoms: C7_16  and  O1_17 
REMARK    6  A    between atoms: C7_16  and  N5_19 
REMARK    7  A    between atoms: N5_19  and  C8_20 
REMARK    8  A    between atoms: N5_19  and  C9_24 
REMARK    9  A    between atoms: C9_24  and  C10_25 
ROOT
HETATM    1  N1  UNL     1      28.725 -41.746 -55.696  1.00  0.00    -0.194 NA
HETATM    2  C1  UNL     1      27.699 -41.853 -56.215  1.00  0.00     0.103 C 
HETATM    3  C2  UNL     1      26.365 -42.005 -56.864  1.00  0.00     0.258 C 
ENDROOT
BRANCH   3   4
HETATM    4  N2  UNL     1      26.364 -43.146 -57.711  1.00  0.00    -0.053 N 
ATOM      5  H23 UNL     1      27.306 -43.401 -58.009  1.00  0.00     0.276 HD
ATOM      6  H22 UNL     1      26.133 -43.999 -57.203  1.00  0.00     0.276 HD
ATOM      7  H21 UNL     1      25.740 -42.992 -58.503  1.00  0.00     0.276 HD
ENDBRANCH   3   4
BRANCH   3   8
HETATM    8  C3  UNL     1      26.284 -40.792 -57.822  1.00  0.00     0.117 C 
BRANCH   8   9
HETATM    9  C4  UNL     1      25.032 -40.790 -58.586  1.00  0.00     0.029 A 
HETATM   10  C5  UNL     1      24.662 -41.664 -59.573  1.00  0.00     0.114 A 
HETATM   11  N3  UNL     1      23.437 -41.283 -59.980  1.00  0.00    -0.360 N 
HETATM   12  C6  UNL     1      23.058 -40.206 -59.268  1.00  0.00     0.180 A 
ATOM     13  H3  UNL     1      22.886 -41.736 -60.709  1.00  0.00     0.166 HD
HETATM   14  N4  UNL     1      24.043 -39.904 -58.408  1.00  0.00    -0.354 N 
ATOM     15  H4  UNL     1      24.039 -39.136 -57.737  1.00  0.00     0.166 HD
ENDBRANCH   8   9
ENDBRANCH   3   8
BRANCH   3  16
HETATM   16  C7  UNL     1      25.264 -41.844 -55.893  1.00  0.00     0.272 C 
BRANCH  16  17
HETATM   17  O1  UNL     1      25.217 -43.040 -55.130  1.00  0.00    -0.373 OA
ATOM     18  H1  UNL     1      25.134 -42.779 -54.220  1.00  0.00     0.212 HD
ENDBRANCH  16  17
BRANCH  16  19
HETATM   19  N5  UNL     1      25.146 -40.667 -55.129  1.00  0.00    -0.348 N 
BRANCH  19  20
HETATM   20  C8  UNL     1      23.792 -40.114 -55.018  1.00  0.00     0.173 C 
HETATM   21  N6  UNL     1      22.812 -40.816 -55.405  1.00  0.00    -0.395 N 
ATOM     22  H62 UNL     1      22.978 -41.747 -55.786  1.00  0.00     0.156 HD
ATOM     23  H61 UNL     1      21.871 -40.431 -55.328  1.00  0.00     0.156 HD
ENDBRANCH  19  20
BRANCH  19  24
HETATM   24  C9  UNL     1      26.124 -39.964 -54.390  1.00  0.00     0.133 C 
BRANCH  24  25
HETATM   25  C10 UNL     1      26.262 -38.506 -54.602  1.00  0.00     0.028 C 
HETATM   26  C11 UNL     1      26.823 -37.914 -53.292  1.00  0.00     0.010 C 
HETATM   27  C12 UNL     1      26.707 -36.414 -53.457  1.00  0.00     0.027 C 
HETATM   28  C13 UNL     1      27.396 -36.045 -54.759  1.00  0.00     0.167 C 
HETATM   29  O2  UNL     1      28.141 -37.120 -55.249  1.00  0.00    -0.391 OA
HETATM   30  C14 UNL     1      27.337 -38.170 -55.636  1.00  0.00     0.173 C 
ENDBRANCH  24  25
ENDBRANCH  19  24
ENDBRANCH  16  19
ENDBRANCH   3  16
TORSDOF 9
ENDMDL
MODEL 4
REMARK VINA RESULT: -6.505607027      2.042      3.755
REMARK  9 active torsions:
REMARK  status: ('A' for Active; 'I' for Inactive)
REMARK    1  A    between atoms: C2_3  and  N2_4 
REMARK    2  A    between atoms: C2_3  and  C3_8 
REMARK    3  A    between atoms: C2_3  and  C7_16 
REMARK    4  A    between atoms: C3_8  and  C4_9 
REMARK    5  A    between atoms: C7_16  and  O1_17 
REMARK    6  A    between atoms: C7_16  and  N5_19 
REMARK    7  A    between atoms: N5_19  and  C8_20 
REMARK    8  A    between atoms: N5_19  and  C9_24 
REMARK    9  A    between atoms: C9_24  and  C10_25 
ROOT
HETATM    1  N1  UNL     1      26.437 -38.991 -58.825  1.00  0.00    -0.194 NA
HETATM    2  C1  UNL     1      26.703 -40.052 -58.455  1.00  0.00     0.103 C 
HETATM    3  C2  UNL     1      27.074 -41.414 -57.972  1.00  0.00     0.258 C 
ENDROOT
BRANCH   3   4
HETATM    4  N2  UNL     1      27.534 -42.206 -59.058  1.00  0.00    -0.053 N 
ATOM      5  H23 UNL     1      27.134 -41.905 -59.947  1.00  0.00     0.276 HD
ATOM      6  H22 UNL     1      28.516 -42.031 -59.270  1.00  0.00     0.276 HD
ATOM      7  H21 UNL     1      27.353 -43.192 -58.872  1.00  0.00     0.276 HD
ENDBRANCH   3   4
BRANCH   3   8
HETATM    8  C3  UNL     1      25.717 -42.038 -57.565  1.00  0.00     0.117 C 
BRANCH   8   9
HETATM    9  C4  UNL     1      24.596 -41.392 -58.258  1.00  0.00     0.029 A 
HETATM   10  C5  UNL     1      24.202 -41.585 -59.555  1.00  0.00     0.114 A 
HETATM   11  N3  UNL     1      23.132 -40.792 -59.750  1.00  0.00    -0.360 N 
HETATM   12  C6  UNL     1      22.870 -40.127 -58.610  1.00  0.00     0.180 A 
ATOM     13  H3  UNL     1      22.607 -40.708 -60.620  1.00  0.00     0.166 HD
HETATM   14  N4  UNL     1      23.773 -40.501 -57.690  1.00  0.00    -0.354 N 
ATOM     15  H4  UNL     1      23.825 -40.164 -56.729  1.00  0.00     0.166 HD
ENDBRANCH   8   9
ENDBRANCH   3   8
BRANCH   3  16
HETATM   16  C7  UNL     1      27.890 -41.354 -56.744  1.00  0.00     0.272 C 
BRANCH  16  17
HETATM   17  O1  UNL     1      28.951 -40.447 -57.005  1.00  0.00    -0.373 OA
ATOM     18  H1  UNL     1      29.739 -40.968 -57.095  1.00  0.00     0.212 HD
ENDBRANCH  16  17
BRANCH  16  19
HETATM   19  N5  UNL     1      27.283 -41.184 -55.485  1.00  0.00    -0.348 N 
BRANCH  19  20
HETATM   20  C8  UNL     1      27.582 -42.221 -54.490  1.00  0.00     0.173 C 
HETATM   21  N6  UNL     1      26.655 -42.615 -53.723  1.00  0.00    -0.395 N 
ATOM     22  H62 UNL     1      25.723 -42.210 -53.809  1.00  0.00     0.156 HD
ATOM     23  H61 UNL     1      26.862 -43.335 -53.032  1.00  0.00     0.156 HD
ENDBRANCH  19  20
BRANCH  19  24
HETATM   24  C9  UNL     1      26.479 -40.128 -55.001  1.00  0.00     0.133 C 
BRANCH  24  25
HETATM   25  C10 UNL     1      27.141 -38.897 -54.514  1.00  0.00     0.028 C 
HETATM   26  C11 UNL     1      26.918 -37.814 -55.590  1.00  0.00     0.010 C 
HETATM   27  C12 UNL     1      27.815 -36.664 -55.183  1.00  0.00     0.027 C 
HETATM   28  C13 UNL     1      27.485 -36.318 -53.743  1.00  0.00     0.167 C 
HETATM   29  O2  UNL     1      26.308 -36.951 -53.336  1.00  0.00    -0.391 OA
HETATM   30  C14 UNL     1      26.453 -38.320 -53.276  1.00  0.00     0.173 C 
ENDBRANCH  24  25
ENDBRANCH  19  24
ENDBRANCH  16  19
ENDBRANCH   3  16
TORSDOF 9
ENDMDL
MODEL 5
REMARK VINA RESULT: -6.410400899      2.907      4.435
REMARK  9 active torsions:
REMARK  status: ('A' for Active; 'I' for Inactive)
REMARK    1  A    between atoms: C2_3  and  N2_4 
REMARK    2  A    between atoms: C2_3  and  C3_8 
REMARK    3  A    between atoms: C2_3  and  C7_16 
REMARK    4  A    between atoms: C3_8  and  C4_9 
REMARK    5  A    between atoms: C7_16  and  O1_17 
REMARK    6  A    between atoms: C7_16  and  N5_19 
REMARK    7  A    between atoms: N5_19  and  C8_20 
REMARK    8  A    between atoms: N5_19  and  C9_24 
REMARK    9  A    between atoms: C9_24  and  C10_25 
ROOT
HETATM    1  N1  UNL     1      23.570 -40.163 -55.490  1.00  0.00    -0.194 NA
HETATM    2  C1  UNL     1      24.655 -39.780 -55.385  1.00  0.00     0.103 C 
HETATM    3  C2  UNL     1      26.046 -39.260 -55.249  1.00  0.00     0.258 C 
ENDROOT
BRANCH   3   4
HETATM    4  N2  UNL     1      26.591 -38.990 -56.533  1.00  0.00    -0.053 N 
ATOM      5  H23 UNL     1      25.992 -39.334 -57.283  1.00  0.00     0.276 HD
ATOM      6  H22 UNL     1      26.560 -37.997 -56.761  1.00  0.00     0.276 HD
ATOM      7  H21 UNL     1      27.537 -39.367 -56.596  1.00  0.00     0.276 HD
ENDBRANCH   3   4
BRANCH   3   8
HETATM    8  C3  UNL     1      26.841 -40.478 -54.721  1.00  0.00     0.117 C 
BRANCH   8   9
HETATM    9  C4  UNL     1      27.331 -41.319 -55.819  1.00  0.00     0.029 A 
HETATM   10  C5  UNL     1      26.637 -42.286 -56.496  1.00  0.00     0.114 A 
HETATM   11  N3  UNL     1      27.480 -42.787 -57.417  1.00  0.00    -0.360 N 
HETATM   12  C6  UNL     1      28.662 -42.151 -57.316  1.00  0.00     0.180 A 
ATOM     13  H3  UNL     1      27.260 -43.527 -58.083  1.00  0.00     0.166 HD
HETATM   14  N4  UNL     1      28.567 -41.245 -56.331  1.00  0.00    -0.354 N 
ATOM     15  H4  UNL     1      29.306 -40.612 -56.025  1.00  0.00     0.166 HD
ENDBRANCH   8   9
ENDBRANCH   3   8
BRANCH   3  16
HETATM   16  C7  UNL     1      26.138 -38.217 -54.207  1.00  0.00     0.272 C 
BRANCH  16  17
HETATM   17  O1  UNL     1      26.951 -38.749 -53.172  1.00  0.00    -0.373 OA
ATOM     18  H1  UNL     1      27.853 -38.617 -53.439  1.00  0.00     0.212 HD
ENDBRANCH  16  17
BRANCH  16  19
HETATM   19  N5  UNL     1      26.438 -36.885 -54.549  1.00  0.00    -0.348 N 
BRANCH  19  20
HETATM   20  C8  UNL     1      27.772 -36.657 -55.113  1.00  0.00     0.173 C 
HETATM   21  N6  UNL     1      28.774 -36.676 -54.339  1.00  0.00    -0.395 N 
ATOM     22  H62 UNL     1      28.638 -36.848 -53.343  1.00  0.00     0.156 HD
ATOM     23  H61 UNL     1      29.702 -36.517 -54.732  1.00  0.00     0.156 HD
ENDBRANCH  19  20
BRANCH  19  24
HETATM   24  C9  UNL     1      25.624 -35.730 -54.496  1.00  0.00     0.133 C 
BRANCH  24  25
HETATM   25  C10 UNL     1      24.817 -35.485 -53.280  1.00  0.00     0.028 C 
HETATM   26  C11 UNL     1      25.811 -35.282 -52.117  1.00  0.00     0.010 C 
HETATM   27  C12 UNL     1      24.960 -35.292 -50.866  1.00  0.00     0.027 C 
HETATM   28  C13 UNL     1      23.862 -34.261 -51.054  1.00  0.00     0.167 C 
HETATM   29  O2  UNL     1      24.125 -33.451 -52.162  1.00  0.00    -0.391 OA
HETATM   30  C14 UNL     1      24.063 -34.157 -53.343  1.00  0.00     0.173 C 
ENDBRANCH  24  25
ENDBRANCH  19  24
ENDBRANCH  16  19
ENDBRANCH   3  16
TORSDOF 9
ENDMDL
