MODEL 1
REMARK VINA RESULT: -7.418451409      0.000      0.000
REMARK  10 active torsions:
REMARK  status: ('A' for Active; 'I' for Inactive)
REMARK    1  A    between atoms: C3_4  and  N2_5 
REMARK    2  A    between atoms: N3_8  and  C6_9 
REMARK    3  A    between atoms: C6_9  and  C7_10 
REMARK    4  A    between atoms: C7_10  and  C8_11 
REMARK    5  A    between atoms: C8_11  and  C9_12 
REMARK    6  A    between atoms: C9_12  and  C10_13 
REMARK    7  A    between atoms: C10_13  and  C11_14 
REMARK    8  A    between atoms: C11_14  and  N4_15 
REMARK    9  A    between atoms: C13_22  and  N6_23 
REMARK   10  A    between atoms: C14_28  and  N8_29 
ROOT
HETATM    1  N1  UNL     1      23.742 -40.102 -58.079  1.00  0.00    -0.191 NA
HETATM    2  C1  UNL     1      24.751 -40.667 -58.077  1.00  0.00     0.107 C 
HETATM    3  C2  UNL     1      26.011 -41.344 -58.071  1.00  0.00     0.133 A 
HETATM    4  C3  UNL     1      26.923 -40.967 -57.108  1.00  0.00     0.145 A 
HETATM    5  N5  UNL     1      28.110 -41.592 -57.091  1.00  0.00    -0.175 N 
ATOM      6  H5  UNL     1      28.801 -41.331 -56.388  1.00  0.00     0.186 HD
HETATM    7  C13 UNL     1      28.413 -42.570 -57.991  1.00  0.00     0.679 A 
HETATM    8  N7  UNL     1      27.535 -42.946 -58.932  1.00  0.00    -0.176 N 
ATOM      9  H7  UNL     1      27.773 -43.679 -59.600  1.00  0.00     0.186 HD
HETATM   10  C14 UNL     1      26.336 -42.343 -58.982  1.00  0.00     0.139 A 
ENDROOT
BRANCH   4  11
HETATM   11  N2  UNL     1      26.662 -39.953 -56.130  1.00  0.00    -0.338 N 
HETATM   12  C4  UNL     1      25.813 -40.126 -54.953  1.00  0.00     0.156 C 
HETATM   13  C5  UNL     1      26.409 -39.113 -53.977  1.00  0.00     0.294 C 
HETATM   14  N3  UNL     1      26.944 -38.068 -54.825  1.00  0.00     0.107 N 
HETATM   15  C12 UNL     1      27.171 -38.602 -56.125  1.00  0.00     0.399 C 
BRANCH  14  16
HETATM   16  C6  UNL     1      26.174 -36.861 -54.809  1.00  0.00     0.274 C 
BRANCH  16  17
HETATM   17  C7  UNL     1      26.625 -36.016 -53.637  1.00  0.00     0.030 C 
BRANCH  17  18
HETATM   18  C8  UNL     1      25.464 -35.464 -52.857  1.00  0.00     0.002 C 
BRANCH  18  19
HETATM   19  C9  UNL     1      24.584 -34.553 -53.665  1.00  0.00     0.002 C 
BRANCH  19  20
HETATM   20  C10 UNL     1      23.341 -34.109 -52.961  1.00  0.00     0.027 C 
BRANCH  20  21
HETATM   21  C11 UNL     1      23.509 -34.099 -51.451  1.00  0.00     0.229 C 
BRANCH  21  22
HETATM   22  N4  UNL     1      22.358 -33.333 -50.940  1.00  0.00    -0.079 N 
ATOM     23  H43 UNL     1      21.499 -33.878 -50.872  1.00  0.00     0.274 HD
ATOM     24  H42 UNL     1      22.427 -33.096 -49.950  1.00  0.00     0.274 HD
ATOM     25  H41 UNL     1      22.285 -32.521 -51.554  1.00  0.00     0.274 HD
ENDBRANCH  21  22
ENDBRANCH  20  21
ENDBRANCH  19  20
ENDBRANCH  18  19
ENDBRANCH  17  18
ENDBRANCH  16  17
ENDBRANCH  14  16
ENDBRANCH   4  11
BRANCH  10  26
HETATM   26  N8  UNL     1      25.467 -42.675 -59.872  1.00  0.00    -0.384 N 
ATOM     27  H82 UNL     1      25.201 -42.024 -60.612  1.00  0.00     0.157 HD
ATOM     28  H81 UNL     1      25.046 -43.604 -59.823  1.00  0.00     0.157 HD
ENDBRANCH  10  26
BRANCH   7  29
HETATM   29  N6  UNL     1      29.548 -43.146 -57.947  1.00  0.00    -0.234 N 
ATOM     30  H62 UNL     1      30.391 -42.571 -57.962  1.00  0.00     0.174 HD
ATOM     31  H61 UNL     1      29.603 -44.164 -57.899  1.00  0.00     0.174 HD
ENDBRANCH   7  29
TORSDOF 10
ENDMDL
MODEL 2
REMARK VINA RESULT: -7.068985659      2.693      8.587
REMARK  10 active torsions:
REMARK  status: ('A' for Active; 'I' for Inactive)
REMARK    1  A    between atoms: C3_4  and  N2_5 
REMARK    2  A    between atoms: N3_8  and  C6_9 
REMARK    3  A    between atoms: C6_9  and  C7_10 
REMARK    4  A    between atoms: C7_10  and  C8_11 
REMARK    5  A    between atoms: C8_11  and  C9_12 
REMARK    6  A    between atoms: C9_12  and  C10_13 
REMARK    7  A    between atoms: C10_13  and  C11_14 
REMARK    8  A    between atoms: C11_14  and  N4_15 
REMARK    9  A    between atoms: C13_22  and  N6_23 
REMARK   10  A    between atoms: C14_28  and  N8_29 
ROOT
HETATM    1  N1  UNL     1      26.032 -36.162 -50.293  1.00  0.00    -0.191 NA
HETATM    2  C1  UNL     1      25.305 -35.582 -50.980  1.00  0.00     0.107 C 
HETATM    3  C2  UNL     1      24.425 -34.855 -51.842  1.00  0.00     0.133 A 
HETATM    4  C3  UNL     1      24.664 -34.936 -53.198  1.00  0.00     0.145 A 
HETATM    5  N5  UNL     1      23.848 -34.259 -54.019  1.00  0.00    -0.175 N 
ATOM      6  H5  UNL     1      24.005 -34.303 -55.026  1.00  0.00     0.186 HD
HETATM    7  C13 UNL     1      22.812 -33.514 -53.539  1.00  0.00     0.679 A 
HETATM    8  N7  UNL     1      22.568 -33.428 -52.223  1.00  0.00    -0.176 N 
ATOM      9  H7  UNL     1      21.790 -32.867 -51.877  1.00  0.00     0.186 HD
HETATM   10  C14 UNL     1      23.364 -34.091 -51.369  1.00  0.00     0.139 A 
ENDROOT
BRANCH   4  11
HETATM   11  N2  UNL     1      25.730 -35.707 -53.764  1.00  0.00    -0.338 N 
HETATM   12  C4  UNL     1      27.101 -35.234 -53.941  1.00  0.00     0.156 C 
HETATM   13  C5  UNL     1      27.899 -36.535 -53.890  1.00  0.00     0.294 C 
HETATM   14  N3  UNL     1      26.987 -37.535 -54.407  1.00  0.00     0.107 N 
HETATM   15  C12 UNL     1      25.653 -37.060 -54.260  1.00  0.00     0.399 C 
BRANCH  14  16
HETATM   16  C6  UNL     1      27.312 -37.985 -55.727  1.00  0.00     0.274 C 
BRANCH  16  17
HETATM   17  C7  UNL     1      26.821 -39.409 -55.886  1.00  0.00     0.030 C 
BRANCH  17  18
HETATM   18  C8  UNL     1      26.832 -39.854 -57.322  1.00  0.00     0.002 C 
BRANCH  18  19
HETATM   19  C9  UNL     1      26.031 -41.102 -57.564  1.00  0.00     0.002 C 
BRANCH  19  20
HETATM   20  C10 UNL     1      24.550 -40.913 -57.482  1.00  0.00     0.027 C 
BRANCH  20  21
HETATM   21  C11 UNL     1      23.893 -40.921 -58.852  1.00  0.00     0.229 C 
BRANCH  21  22
HETATM   22  N4  UNL     1      22.806 -39.930 -58.765  1.00  0.00    -0.079 N 
ATOM     23  H43 UNL     1      23.026 -39.128 -58.173  1.00  0.00     0.274 HD
ATOM     24  H42 UNL     1      22.657 -39.403 -59.626  1.00  0.00     0.274 HD
ATOM     25  H41 UNL     1      21.988 -40.457 -58.458  1.00  0.00     0.274 HD
ENDBRANCH  21  22
ENDBRANCH  20  21
ENDBRANCH  19  20
ENDBRANCH  18  19
ENDBRANCH  17  18
ENDBRANCH  16  17
ENDBRANCH  14  16
ENDBRANCH   4  11
BRANCH  10  26
HETATM   26  N8  UNL     1      23.163 -34.031 -50.098  1.00  0.00    -0.384 N 
ATOM     27  H82 UNL     1      22.592 -34.733 -49.626  1.00  0.00     0.157 HD
ATOM     28  H81 UNL     1      23.584 -33.266 -49.571  1.00  0.00     0.157 HD
ENDBRANCH  10  26
BRANCH   7  29
HETATM   29  N6  UNL     1      22.053 -32.884 -54.346  1.00  0.00    -0.234 N 
ATOM     30  H62 UNL     1      22.418 -32.626 -55.263  1.00  0.00     0.174 HD
ATOM     31  H61 UNL     1      21.101 -32.646 -54.069  1.00  0.00     0.174 HD
ENDBRANCH   7  29
TORSDOF 10
ENDMDL
MODEL 3
REMARK VINA RESULT: -6.977501126      1.235      1.410
REMARK  10 active torsions:
REMARK  status: ('A' for Active; 'I' for Inactive)
REMARK    1  A    between atoms: C3_4  and  N2_5 
REMARK    2  A    between atoms: N3_8  and  C6_9 
REMARK    3  A    between atoms: C6_9  and  C7_10 
REMARK    4  A    between atoms: C7_10  and  C8_11 
REMARK    5  A    between atoms: C8_11  and  C9_12 
REMARK    6  A    between atoms: C9_12  and  C10_13 
REMARK    7  A    between atoms: C10_13  and  C11_14 
REMARK    8  A    between atoms: C11_14  and  N4_15 
REMARK    9  A    between atoms: C13_22  and  N6_23 
REMARK   10  A    between atoms: C14_28  and  N8_29 
ROOT
HETATM    1  N1  UNL     1      23.618 -40.323 -56.647  1.00  0.00    -0.191 NA
HETATM    2  C1  UNL     1      24.685 -40.743 -56.796  1.00  0.00     0.107 C 
HETATM    3  C2  UNL     1      26.014 -41.239 -56.985  1.00  0.00     0.133 A 
HETATM    4  C3  UNL     1      27.038 -40.539 -56.383  1.00  0.00     0.145 A 
HETATM    5  N5  UNL     1      28.289 -40.991 -56.553  1.00  0.00    -0.175 N 
ATOM      6  H5  UNL     1      29.064 -40.490 -56.118  1.00  0.00     0.186 HD
HETATM    7  C13 UNL     1      28.550 -42.106 -57.293  1.00  0.00     0.679 A 
HETATM    8  N7  UNL     1      27.563 -42.796 -57.883  1.00  0.00    -0.176 N 
ATOM      9  H7  UNL     1      27.770 -43.628 -58.434  1.00  0.00     0.186 HD
HETATM   10  C14 UNL     1      26.297 -42.373 -57.737  1.00  0.00     0.139 A 
ENDROOT
BRANCH   4  11
HETATM   11  N2  UNL     1      26.830 -39.366 -55.588  1.00  0.00    -0.338 N 
HETATM   12  C4  UNL     1      26.039 -39.319 -54.360  1.00  0.00     0.156 C 
HETATM   13  C5  UNL     1      26.686 -38.158 -53.606  1.00  0.00     0.294 C 
HETATM   14  N3  UNL     1      27.182 -37.285 -54.649  1.00  0.00     0.107 N 
HETATM   15  C12 UNL     1      27.342 -38.042 -55.845  1.00  0.00     0.399 C 
BRANCH  14  16
HETATM   16  C6  UNL     1      26.418 -36.085 -54.809  1.00  0.00     0.274 C 
BRANCH  16  17
HETATM   17  C7  UNL     1      25.785 -35.734 -53.479  1.00  0.00     0.030 C 
BRANCH  17  18
HETATM   18  C8  UNL     1      24.728 -34.673 -53.617  1.00  0.00     0.002 C 
BRANCH  18  19
HETATM   19  C9  UNL     1      24.001 -34.388 -52.333  1.00  0.00     0.002 C 
BRANCH  19  20
HETATM   20  C10 UNL     1      22.566 -34.005 -52.507  1.00  0.00     0.027 C 
BRANCH  20  21
HETATM   21  C11 UNL     1      22.117 -34.101 -53.956  1.00  0.00     0.229 C 
BRANCH  21  22
HETATM   22  N4  UNL     1      21.750 -32.726 -54.338  1.00  0.00    -0.079 N 
ATOM     23  H43 UNL     1      20.778 -32.489 -54.139  1.00  0.00     0.274 HD
ATOM     24  H42 UNL     1      22.169 -32.008 -53.747  1.00  0.00     0.274 HD
ATOM     25  H41 UNL     1      22.001 -32.647 -55.323  1.00  0.00     0.274 HD
ENDBRANCH  21  22
ENDBRANCH  20  21
ENDBRANCH  19  20
ENDBRANCH  18  19
ENDBRANCH  17  18
ENDBRANCH  16  17
ENDBRANCH  14  16
ENDBRANCH   4  11
BRANCH  10  26
HETATM   26  N8  UNL     1      25.321 -43.009 -58.290  1.00  0.00    -0.384 N 
ATOM     27  H82 UNL     1      24.751 -42.565 -59.010  1.00  0.00     0.157 HD
ATOM     28  H81 UNL     1      25.128 -43.965 -57.991  1.00  0.00     0.157 HD
ENDBRANCH  10  26
BRANCH   7  29
HETATM   29  N6  UNL     1      29.749 -42.511 -57.434  1.00  0.00    -0.234 N 
ATOM     30  H62 UNL     1      30.381 -41.977 -58.031  1.00  0.00     0.174 HD
ATOM     31  H61 UNL     1      30.062 -43.356 -56.954  1.00  0.00     0.174 HD
ENDBRANCH   7  29
TORSDOF 10
ENDMDL
MODEL 4
REMARK VINA RESULT: -6.961123046      1.248      1.464
REMARK  10 active torsions:
REMARK  status: ('A' for Active; 'I' for Inactive)
REMARK    1  A    between atoms: C3_4  and  N2_5 
REMARK    2  A    between atoms: N3_8  and  C6_9 
REMARK    3  A    between atoms: C6_9  and  C7_10 
REMARK    4  A    between atoms: C7_10  and  C8_11 
REMARK    5  A    between atoms: C8_11  and  C9_12 
REMARK    6  A    between atoms: C9_12  and  C10_13 
REMARK    7  A    between atoms: C10_13  and  C11_14 
REMARK    8  A    between atoms: C11_14  and  N4_15 
REMARK    9  A    between atoms: C13_22  and  N6_23 
REMARK   10  A    between atoms: C14_28  and  N8_29 
ROOT
HETATM    1  N1  UNL     1      23.614 -40.275 -56.052  1.00  0.00    -0.191 NA
HETATM    2  C1  UNL     1      24.687 -40.642 -56.280  1.00  0.00     0.107 C 
HETATM    3  C2  UNL     1      26.021 -41.073 -56.568  1.00  0.00     0.133 A 
HETATM    4  C3  UNL     1      27.052 -40.290 -56.091  1.00  0.00     0.145 A 
HETATM    5  N5  UNL     1      28.307 -40.681 -56.354  1.00  0.00    -0.175 N 
ATOM      6  H5  UNL     1      29.086 -40.118 -56.013  1.00  0.00     0.186 HD
HETATM    7  C13 UNL     1      28.567 -41.813 -57.067  1.00  0.00     0.679 A 
HETATM    8  N7  UNL     1      27.573 -42.583 -57.536  1.00  0.00    -0.176 N 
ATOM      9  H7  UNL     1      27.780 -43.429 -58.067  1.00  0.00     0.186 HD
HETATM   10  C14 UNL     1      26.303 -42.225 -57.293  1.00  0.00     0.139 A 
ENDROOT
BRANCH   4  11
HETATM   11  N2  UNL     1      26.845 -39.094 -55.330  1.00  0.00    -0.338 N 
HETATM   12  C4  UNL     1      26.145 -39.029 -54.049  1.00  0.00     0.156 C 
HETATM   13  C5  UNL     1      26.789 -37.808 -53.394  1.00  0.00     0.294 C 
HETATM   14  N3  UNL     1      27.163 -36.960 -54.506  1.00  0.00     0.107 N 
HETATM   15  C12 UNL     1      27.273 -37.760 -55.678  1.00  0.00     0.399 C 
BRANCH  14  16
HETATM   16  C6  UNL     1      26.333 -35.804 -54.656  1.00  0.00     0.274 C 
BRANCH  16  17
HETATM   17  C7  UNL     1      25.617 -35.550 -53.346  1.00  0.00     0.030 C 
BRANCH  17  18
HETATM   18  C8  UNL     1      24.329 -34.798 -53.540  1.00  0.00     0.002 C 
BRANCH  18  19
HETATM   19  C9  UNL     1      23.966 -33.927 -52.372  1.00  0.00     0.002 C 
BRANCH  19  20
HETATM   20  C10 UNL     1      24.074 -34.600 -51.040  1.00  0.00     0.027 C 
BRANCH  20  21
HETATM   21  C11 UNL     1      22.797 -34.472 -50.227  1.00  0.00     0.229 C 
BRANCH  21  22
HETATM   22  N4  UNL     1      22.292 -33.118 -50.514  1.00  0.00    -0.079 N 
ATOM     23  H43 UNL     1      21.712 -32.728 -49.770  1.00  0.00     0.274 HD
ATOM     24  H42 UNL     1      23.012 -32.395 -50.492  1.00  0.00     0.274 HD
ATOM     25  H41 UNL     1      21.813 -33.196 -51.412  1.00  0.00     0.274 HD
ENDBRANCH  21  22
ENDBRANCH  20  21
ENDBRANCH  19  20
ENDBRANCH  18  19
ENDBRANCH  17  18
ENDBRANCH  16  17
ENDBRANCH  14  16
ENDBRANCH   4  11
BRANCH  10  26
HETATM   26  N8  UNL     1      25.321 -42.938 -57.728  1.00  0.00    -0.384 N 
ATOM     27  H82 UNL     1      24.776 -42.638 -58.536  1.00  0.00     0.157 HD
ATOM     28  H81 UNL     1      25.098 -43.809 -57.246  1.00  0.00     0.157 HD
ENDBRANCH  10  26
BRANCH   7  29
HETATM   29  N6  UNL     1      29.771 -42.158 -57.299  1.00  0.00    -0.234 N 
ATOM     30  H62 UNL     1      30.212 -42.844 -56.685  1.00  0.00     0.174 HD
ATOM     31  H61 UNL     1      30.276 -41.749 -58.085  1.00  0.00     0.174 HD
ENDBRANCH   7  29
TORSDOF 10
ENDMDL
MODEL 5
REMARK VINA RESULT: -6.899001224      1.885      9.012
REMARK  10 active torsions:
REMARK  status: ('A' for Active; 'I' for Inactive)
REMARK    1  A    between atoms: C3_4  and  N2_5 
REMARK    2  A    between atoms: N3_8  and  C6_9 
REMARK    3  A    between atoms: C6_9  and  C7_10 
REMARK    4  A    between atoms: C7_10  and  C8_11 
REMARK    5  A    between atoms: C8_11  and  C9_12 
REMARK    6  A    between atoms: C9_12  and  C10_13 
REMARK    7  A    between atoms: C10_13  and  C11_14 
REMARK    8  A    between atoms: C11_14  and  N4_15 
REMARK    9  A    between atoms: C13_22  and  N6_23 
REMARK   10  A    between atoms: C14_28  and  N8_29 
ROOT
HETATM    1  N1  UNL     1      26.033 -36.110 -50.301  1.00  0.00    -0.191 NA
HETATM    2  C1  UNL     1      25.305 -35.538 -50.994  1.00  0.00     0.107 C 
HETATM    3  C2  UNL     1      24.423 -34.823 -51.864  1.00  0.00     0.133 A 
HETATM    4  C3  UNL     1      24.663 -34.917 -53.219  1.00  0.00     0.145 A 
HETATM    5  N5  UNL     1      23.846 -34.250 -54.047  1.00  0.00    -0.175 N 
ATOM      6  H5  UNL     1      24.004 -34.304 -55.054  1.00  0.00     0.186 HD
HETATM    7  C13 UNL     1      22.809 -33.502 -53.576  1.00  0.00     0.679 A 
HETATM    8  N7  UNL     1      22.564 -33.403 -52.261  1.00  0.00    -0.176 N 
ATOM      9  H7  UNL     1      21.784 -32.841 -51.920  1.00  0.00     0.186 HD
HETATM   10  C14 UNL     1      23.361 -34.056 -51.400  1.00  0.00     0.139 A 
ENDROOT
BRANCH   4  11
HETATM   11  N2  UNL     1      25.731 -35.692 -53.777  1.00  0.00    -0.338 N 
HETATM   12  C4  UNL     1      27.126 -35.261 -53.850  1.00  0.00     0.156 C 
HETATM   13  C5  UNL     1      27.874 -36.593 -53.842  1.00  0.00     0.294 C 
HETATM   14  N3  UNL     1      26.957 -37.523 -54.469  1.00  0.00     0.107 N 
HETATM   15  C12 UNL     1      25.635 -37.007 -54.363  1.00  0.00     0.399 C 
BRANCH  14  16
HETATM   16  C6  UNL     1      27.338 -37.902 -55.796  1.00  0.00     0.274 C 
BRANCH  16  17
HETATM   17  C7  UNL     1      27.009 -39.367 -55.993  1.00  0.00     0.030 C 
BRANCH  17  18
HETATM   18  C8  UNL     1      27.928 -40.025 -56.985  1.00  0.00     0.002 C 
BRANCH  18  19
HETATM   19  C9  UNL     1      28.412 -41.376 -56.542  1.00  0.00     0.002 C 
BRANCH  19  20
HETATM   20  C10 UNL     1      28.444 -42.408 -57.623  1.00  0.00     0.027 C 
BRANCH  20  21
HETATM   21  C11 UNL     1      27.053 -42.747 -58.134  1.00  0.00     0.229 C 
BRANCH  21  22
HETATM   22  N4  UNL     1      27.057 -42.350 -59.553  1.00  0.00    -0.079 N 
ATOM     23  H43 UNL     1      26.178 -42.536 -60.036  1.00  0.00     0.274 HD
ATOM     24  H42 UNL     1      27.059 -41.340 -59.699  1.00  0.00     0.274 HD
ATOM     25  H41 UNL     1      27.861 -42.827 -59.962  1.00  0.00     0.274 HD
ENDBRANCH  21  22
ENDBRANCH  20  21
ENDBRANCH  19  20
ENDBRANCH  18  19
ENDBRANCH  17  18
ENDBRANCH  16  17
ENDBRANCH  14  16
ENDBRANCH   4  11
BRANCH  10  26
HETATM   26  N8  UNL     1      23.159 -33.983 -50.129  1.00  0.00    -0.384 N 
ATOM     27  H82 UNL     1      23.544 -34.687 -49.498  1.00  0.00     0.157 HD
ATOM     28  H81 UNL     1      22.604 -33.208 -49.765  1.00  0.00     0.157 HD
ENDBRANCH  10  26
BRANCH   7  29
HETATM   29  N6  UNL     1      22.049 -32.882 -54.389  1.00  0.00    -0.234 N 
ATOM     30  H62 UNL     1      22.332 -32.810 -55.367  1.00  0.00     0.174 HD
ATOM     31  H61 UNL     1      21.177 -32.468 -54.058  1.00  0.00     0.174 HD
ENDBRANCH   7  29
TORSDOF 10
ENDMDL
