MODEL 1
REMARK VINA RESULT: -5.477394117      0.000      0.000
REMARK  2 active torsions:
REMARK  status: ('A' for Active; 'I' for Inactive)
REMARK    1  A    between atoms: N1_4  and  N2_5 
REMARK    2  A    between atoms: N2_5  and  C4_7 
ROOT
HETATM    1  C4  UNL     1      99.727  69.199  11.570  1.00  0.00     0.102 C 
HETATM    2  C5  UNL     1      99.766  69.709  10.143  1.00  0.00     0.054 C 
HETATM    3  C6  UNL     1     100.476  68.738   9.226  1.00  0.00     0.234 C 
HETATM    4  N3  UNL     1      99.855  67.440   9.215  1.00  0.00    -0.075 N 
ATOM      5  H31 UNL     1     100.452  66.752   8.755  1.00  0.00     0.277 HD
ATOM      6  H32 UNL     1      99.059  67.420   8.577  1.00  0.00     0.277 HD
HETATM    7  C7  UNL     1      99.471  66.994  10.537  1.00  0.00     0.234 C 
HETATM    8  C8  UNL     1     100.284  67.792  11.534  1.00  0.00     0.054 C 
ENDROOT
BRANCH   1   9
HETATM    9  N2  UNL     1     100.507  70.069  12.379  1.00  0.00    -0.334 N 
ATOM     10  H2  UNL     1     100.098  70.877  12.848  1.00  0.00     0.180 HD
BRANCH   9  11
HETATM   11  N1  UNL     1     101.833  69.767  12.493  1.00  0.00    -0.332 N 
HETATM   12  C3  UNL     1     102.640  70.589  11.664  1.00  0.00     0.142 C 
HETATM   13  C2  UNL     1     103.824  71.219  12.301  1.00  0.00     0.021 C 
HETATM   14  C1  UNL     1     104.541  70.376  13.307  1.00  0.00     0.003 C 
HETATM   15  C10 UNL     1     103.794  69.122  13.673  1.00  0.00     0.021 C 
HETATM   16  C9  UNL     1     102.321  69.511  13.794  1.00  0.00     0.142 C 
ENDBRANCH   9  11
ENDBRANCH   1   9
TORSDOF 2
ENDMDL
MODEL 2
REMARK VINA RESULT: -5.313604057      1.115      4.918
REMARK  2 active torsions:
REMARK  status: ('A' for Active; 'I' for Inactive)
REMARK    1  A    between atoms: N1_4  and  N2_5 
REMARK    2  A    between atoms: N2_5  and  C4_7 
ROOT
HETATM    1  C4  UNL     1     101.839  70.611  13.091  1.00  0.00     0.102 C 
HETATM    2  C5  UNL     1     102.262  69.552  14.090  1.00  0.00     0.054 C 
HETATM    3  C6  UNL     1     103.559  68.889  13.682  1.00  0.00     0.234 C 
HETATM    4  N3  UNL     1     104.639  69.832  13.555  1.00  0.00    -0.075 N 
ATOM      5  H31 UNL     1     105.443  69.406  13.094  1.00  0.00     0.277 HD
ATOM      6  H32 UNL     1     105.058  70.034  14.463  1.00  0.00     0.277 HD
HETATM    7  C7  UNL     1     104.240  71.050  12.884  1.00  0.00     0.234 C 
HETATM    8  C8  UNL     1     102.980  70.741  12.103  1.00  0.00     0.054 C 
ENDROOT
BRANCH   1   9
HETATM    9  N2  UNL     1     100.633  70.187  12.471  1.00  0.00    -0.334 N 
ATOM     10  H2  UNL     1      99.720  70.496  12.806  1.00  0.00     0.180 HD
BRANCH   9  11
HETATM   11  N1  UNL     1     100.760  69.345  11.405  1.00  0.00    -0.332 N 
HETATM   12  C3  UNL     1     100.257  68.049  11.687  1.00  0.00     0.142 C 
HETATM   13  C2  UNL     1      99.337  67.458  10.681  1.00  0.00     0.021 C 
HETATM   14  C1  UNL     1      99.670  67.749   9.253  1.00  0.00     0.003 C 
HETATM   15  C10 UNL     1     100.744  68.791   9.093  1.00  0.00     0.021 C 
HETATM   16  C9  UNL     1     100.458  69.876  10.131  1.00  0.00     0.142 C 
ENDBRANCH   9  11
ENDBRANCH   1   9
TORSDOF 2
ENDMDL
MODEL 3
REMARK VINA RESULT: -5.164458952      1.311      4.824
REMARK  2 active torsions:
REMARK  status: ('A' for Active; 'I' for Inactive)
REMARK    1  A    between atoms: N1_4  and  N2_5 
REMARK    2  A    between atoms: N2_5  and  C4_7 
ROOT
HETATM    1  C4  UNL     1     102.468  70.103  12.622  1.00  0.00     0.102 C 
HETATM    2  C5  UNL     1     103.451  70.669  11.618  1.00  0.00     0.054 C 
HETATM    3  C6  UNL     1     104.430  71.618  12.273  1.00  0.00     0.234 C 
HETATM    4  N3  UNL     1     105.186  70.987  13.323  1.00  0.00    -0.075 N 
ATOM      5  H31 UNL     1     105.689  71.679  13.878  1.00  0.00     0.277 HD
ATOM      6  H32 UNL     1     105.980  70.470  12.944  1.00  0.00     0.277 HD
HETATM    7  C7  UNL     1     104.369  70.139  14.165  1.00  0.00     0.234 C 
HETATM    8  C8  UNL     1     102.931  70.577  13.984  1.00  0.00     0.054 C 
ENDROOT
BRANCH   1   9
HETATM    9  N2  UNL     1     101.169  70.580  12.297  1.00  0.00    -0.334 N 
ATOM     10  H2  UNL     1     100.875  71.531  12.520  1.00  0.00     0.180 HD
BRANCH   9  11
HETATM   11  N1  UNL     1     100.337  69.699  11.671  1.00  0.00    -0.332 N 
HETATM   12  C3  UNL     1     100.082  70.069  10.325  1.00  0.00     0.142 C 
HETATM   13  C2  UNL     1     100.235  69.005   9.300  1.00  0.00     0.021 C 
HETATM   14  C1  UNL     1      99.782  67.642   9.714  1.00  0.00     0.003 C 
HETATM   15  C10 UNL     1      99.472  67.538  11.183  1.00  0.00     0.021 C 
HETATM   16  C9  UNL     1     100.559  68.324  11.916  1.00  0.00     0.142 C 
ENDBRANCH   9  11
ENDBRANCH   1   9
TORSDOF 2
ENDMDL
MODEL 4
REMARK VINA RESULT: -4.830961385      1.671      5.116
REMARK  2 active torsions:
REMARK  status: ('A' for Active; 'I' for Inactive)
REMARK    1  A    between atoms: N1_4  and  N2_5 
REMARK    2  A    between atoms: N2_5  and  C4_7 
ROOT
HETATM    1  C4  UNL     1     103.515  69.696  13.720  1.00  0.00     0.102 C 
HETATM    2  C5  UNL     1     104.107  69.912  12.341  1.00  0.00     0.054 C 
HETATM    3  C6  UNL     1     104.567  71.340  12.151  1.00  0.00     0.234 C 
HETATM    4  N3  UNL     1     105.555  71.731  13.121  1.00  0.00    -0.075 N 
ATOM      5  H31 UNL     1     105.705  72.740  13.104  1.00  0.00     0.277 HD
ATOM      6  H32 UNL     1     106.486  71.421  12.841  1.00  0.00     0.277 HD
HETATM    7  C7  UNL     1     105.236  71.276  14.457  1.00  0.00     0.234 C 
HETATM    8  C8  UNL     1     103.751  70.980  14.488  1.00  0.00     0.054 C 
ENDROOT
BRANCH   1   9
HETATM    9  N2  UNL     1     102.133  69.400  13.574  1.00  0.00    -0.334 N 
ATOM     10  H2  UNL     1     101.572  69.058  14.354  1.00  0.00     0.180 HD
BRANCH   9  11
HETATM   11  N1  UNL     1     101.597  69.596  12.335  1.00  0.00    -0.332 N 
HETATM   12  C3  UNL     1     100.725  68.542  11.958  1.00  0.00     0.142 C 
HETATM   13  C2  UNL     1      99.396  68.934  11.424  1.00  0.00     0.021 C 
HETATM   14  C1  UNL     1      99.384  70.153  10.557  1.00  0.00     0.003 C 
HETATM   15  C10 UNL     1     100.686  70.908  10.573  1.00  0.00     0.021 C 
HETATM   16  C9  UNL     1     101.173  70.907  12.021  1.00  0.00     0.142 C 
ENDBRANCH   9  11
ENDBRANCH   1   9
TORSDOF 2
ENDMDL
MODEL 5
REMARK VINA RESULT: -4.498277192      1.363      4.994
REMARK  2 active torsions:
REMARK  status: ('A' for Active; 'I' for Inactive)
REMARK    1  A    between atoms: N1_4  and  N2_5 
REMARK    2  A    between atoms: N2_5  and  C4_7 
ROOT
HETATM    1  C4  UNL     1     102.829  70.911  12.395  1.00  0.00     0.102 C 
HETATM    2  C5  UNL     1     102.698  69.667  13.252  1.00  0.00     0.054 C 
HETATM    3  C6  UNL     1     104.052  69.097  13.613  1.00  0.00     0.234 C 
HETATM    4  N3  UNL     1     104.872  70.040  14.326  1.00  0.00    -0.075 N 
ATOM      5  H31 UNL     1     105.837  69.714  14.385  1.00  0.00     0.277 HD
ATOM      6  H32 UNL     1     104.640  70.050  15.319  1.00  0.00     0.277 HD
HETATM    7  C7  UNL     1     104.807  71.372  13.764  1.00  0.00     0.234 C 
HETATM    8  C8  UNL     1     104.307  71.236  12.341  1.00  0.00     0.054 C 
ENDROOT
BRANCH   1   9
HETATM    9  N2  UNL     1     102.290  70.630  11.111  1.00  0.00    -0.334 N 
ATOM     10  H2  UNL     1     102.797  70.855  10.255  1.00  0.00     0.180 HD
BRANCH   9  11
HETATM   11  N1  UNL     1     101.059  70.042  11.084  1.00  0.00    -0.332 N 
HETATM   12  C3  UNL     1     100.635  69.756   9.760  1.00  0.00     0.142 C 
HETATM   13  C2  UNL     1     100.113  68.388   9.509  1.00  0.00     0.021 C 
HETATM   14  C1  UNL     1      99.299  67.795  10.615  1.00  0.00     0.003 C 
HETATM   15  C10 UNL     1      99.352  68.595  11.888  1.00  0.00     0.021 C 
HETATM   16  C9  UNL     1     100.801  69.051  12.058  1.00  0.00     0.142 C 
ENDBRANCH   9  11
ENDBRANCH   1   9
TORSDOF 2
ENDMDL
