MODEL 1
REMARK VINA RESULT: -7.037027048      0.000      0.000
REMARK  3 active torsions:
REMARK  status: ('A' for Active; 'I' for Inactive)
REMARK    1  A    between atoms: C2_2  and  C4_5 
REMARK    2  A    between atoms: C9_10  and  C10_11 
REMARK    3  A    between atoms: C10_11  and  N2_12 
ROOT
HETATM    1  C1  UNL     1     103.839  68.660  13.595  1.00  0.00     0.026 C 
HETATM    2  C2  UNL     1     103.740  70.034  13.023  1.00  0.00     0.093 C 
HETATM    3  C3  UNL     1     104.375  70.967  13.964  1.00  0.00     0.064 C 
HETATM    4  N1  UNL     1     104.895  71.711  14.701  1.00  0.00    -0.197 NA
ENDROOT
BRANCH   2   5
HETATM    5  C4  UNL     1     102.325  70.493  12.788  1.00  0.00     0.003 C 
HETATM    6  C5  UNL     1     102.266  71.092  11.403  1.00  0.00     0.006 C 
HETATM    7  C6  UNL     1     100.950  71.724  11.083  1.00  0.00     0.000 C 
HETATM    8  C7  UNL     1     100.017  70.779  10.340  1.00  0.00     0.000 C 
HETATM    9  C8  UNL     1      99.459  69.826  11.378  1.00  0.00     0.006 C 
HETATM   10  C9  UNL     1     100.632  68.928  11.788  1.00  0.00     0.011 C 
HETATM   11  C11 UNL     1     101.313  69.433  13.027  1.00  0.00     0.012 C 
BRANCH  10  12
HETATM   12  C10 UNL     1     100.049  67.548  12.047  1.00  0.00     0.234 C 
BRANCH  12  13
HETATM   13  N2  UNL     1      99.663  66.934  10.778  1.00  0.00    -0.079 N 
ATOM     14  H23 UNL     1      99.166  67.586  10.171  1.00  0.00     0.274 HD
ATOM     15  H22 UNL     1     100.467  66.757  10.176  1.00  0.00     0.274 HD
ATOM     16  H21 UNL     1      99.124  66.087  10.959  1.00  0.00     0.274 HD
ENDBRANCH  12  13
ENDBRANCH  10  12
ENDBRANCH   2   5
TORSDOF 3
ENDMDL
MODEL 2
REMARK VINA RESULT: -5.251999229      1.233      1.491
REMARK  3 active torsions:
REMARK  status: ('A' for Active; 'I' for Inactive)
REMARK    1  A    between atoms: C2_2  and  C4_5 
REMARK    2  A    between atoms: C9_10  and  C10_11 
REMARK    3  A    between atoms: C10_11  and  N2_12 
ROOT
HETATM    1  C1  UNL     1     104.203  70.858  11.845  1.00  0.00     0.026 C 
HETATM    2  C2  UNL     1     103.309  70.610  13.013  1.00  0.00     0.093 C 
HETATM    3  C3  UNL     1     103.568  69.250  13.505  1.00  0.00     0.064 C 
HETATM    4  N1  UNL     1     103.782  68.175  13.912  1.00  0.00    -0.197 NA
ENDROOT
BRANCH   2   5
HETATM    5  C4  UNL     1     101.843  70.724  12.689  1.00  0.00     0.003 C 
HETATM    6  C5  UNL     1     101.728  71.186  11.256  1.00  0.00     0.006 C 
HETATM    7  C6  UNL     1     100.325  71.485  10.837  1.00  0.00     0.000 C 
HETATM    8  C7  UNL     1      99.661  70.302  10.147  1.00  0.00     0.000 C 
HETATM    9  C8  UNL     1      99.270  69.333  11.244  1.00  0.00     0.006 C 
HETATM   10  C9  UNL     1     100.587  68.751  11.771  1.00  0.00     0.011 C 
HETATM   11  C11 UNL     1     101.075  69.488  12.985  1.00  0.00     0.012 C 
BRANCH  10  12
HETATM   12  C10 UNL     1     100.305  67.300  12.128  1.00  0.00     0.234 C 
BRANCH  12  13
HETATM   13  N2  UNL     1      99.657  66.635  11.001  1.00  0.00    -0.079 N 
ATOM     14  H23 UNL     1      99.816  65.628  11.004  1.00  0.00     0.274 HD
ATOM     15  H22 UNL     1      98.641  66.622  11.094  1.00  0.00     0.274 HD
ATOM     16  H21 UNL     1      99.958  67.070  10.128  1.00  0.00     0.274 HD
ENDBRANCH  12  13
ENDBRANCH  10  12
ENDBRANCH   2   5
TORSDOF 3
ENDMDL
MODEL 3
REMARK VINA RESULT: -5.024804774      1.736      4.797
REMARK  3 active torsions:
REMARK  status: ('A' for Active; 'I' for Inactive)
REMARK    1  A    between atoms: C2_2  and  C4_5 
REMARK    2  A    between atoms: C9_10  and  C10_11 
REMARK    3  A    between atoms: C10_11  and  N2_12 
ROOT
HETATM    1  C1  UNL     1      99.238  67.546  10.801  1.00  0.00     0.026 C 
HETATM    2  C2  UNL     1      99.559  68.962  10.457  1.00  0.00     0.093 C 
HETATM    3  C3  UNL     1     100.577  68.956   9.398  1.00  0.00     0.064 C 
HETATM    4  N1  UNL     1     101.374  68.957   8.543  1.00  0.00    -0.197 NA
ENDROOT
BRANCH   2   5
HETATM    5  C4  UNL     1     100.089  69.762  11.617  1.00  0.00     0.003 C 
HETATM    6  C5  UNL     1     100.245  68.819  12.787  1.00  0.00     0.006 C 
HETATM    7  C6  UNL     1     100.629  69.504  14.058  1.00  0.00     0.000 C 
HETATM    8  C7  UNL     1     102.132  69.495  14.293  1.00  0.00     0.000 C 
HETATM    9  C8  UNL     1     102.713  70.560  13.385  1.00  0.00     0.006 C 
HETATM   10  C9  UNL     1     102.566  70.016  11.959  1.00  0.00     0.011 C 
HETATM   11  C11 UNL     1     101.320  70.526  11.295  1.00  0.00     0.012 C 
BRANCH  10  12
HETATM   12  C10 UNL     1     103.790  70.484  11.190  1.00  0.00     0.234 C 
BRANCH  12  13
HETATM   13  N2  UNL     1     104.692  71.196  12.092  1.00  0.00    -0.079 N 
ATOM     14  H23 UNL     1     104.993  72.092  11.707  1.00  0.00     0.274 HD
ATOM     15  H22 UNL     1     104.211  71.547  12.920  1.00  0.00     0.274 HD
ATOM     16  H21 UNL     1     105.481  70.595  12.331  1.00  0.00     0.274 HD
ENDBRANCH  12  13
ENDBRANCH  10  12
ENDBRANCH   2   5
TORSDOF 3
ENDMDL
MODEL 4
REMARK VINA RESULT: -4.638805264      1.269      5.070
REMARK  3 active torsions:
REMARK  status: ('A' for Active; 'I' for Inactive)
REMARK    1  A    between atoms: C2_2  and  C4_5 
REMARK    2  A    between atoms: C9_10  and  C10_11 
REMARK    3  A    between atoms: C10_11  and  N2_12 
ROOT
HETATM    1  C1  UNL     1      98.724  70.716  10.174  1.00  0.00     0.026 C 
HETATM    2  C2  UNL     1     100.030  70.056  10.468  1.00  0.00     0.093 C 
HETATM    3  C3  UNL     1      99.821  68.602  10.449  1.00  0.00     0.064 C 
HETATM    4  N1  UNL     1      99.665  67.444  10.417  1.00  0.00    -0.197 NA
ENDROOT
BRANCH   2   5
HETATM    5  C4  UNL     1     100.611  70.432  11.805  1.00  0.00     0.003 C 
HETATM    6  C5  UNL     1     100.665  69.178  12.646  1.00  0.00     0.006 C 
HETATM    7  C6  UNL     1     101.087  69.425  14.058  1.00  0.00     0.000 C 
HETATM    8  C7  UNL     1     102.580  69.215  14.263  1.00  0.00     0.000 C 
HETATM    9  C8  UNL     1     103.267  70.443  13.701  1.00  0.00     0.006 C 
HETATM   10  C9  UNL     1     103.094  70.354  12.180  1.00  0.00     0.011 C 
HETATM   11  C11 UNL     1     101.909  71.145  11.707  1.00  0.00     0.012 C 
BRANCH  10  12
HETATM   12  C10 UNL     1     104.367  70.916  11.567  1.00  0.00     0.234 C 
BRANCH  12  13
HETATM   13  N2  UNL     1     105.130  71.626  12.590  1.00  0.00    -0.079 N 
ATOM     14  H23 UNL     1     105.148  72.633  12.428  1.00  0.00     0.274 HD
ATOM     15  H22 UNL     1     104.654  71.632  13.492  1.00  0.00     0.274 HD
ATOM     16  H21 UNL     1     106.068  71.230  12.654  1.00  0.00     0.274 HD
ENDBRANCH  12  13
ENDBRANCH  10  12
ENDBRANCH   2   5
TORSDOF 3
ENDMDL
MODEL 5
REMARK VINA RESULT: -4.462258773      1.527      2.767
REMARK  3 active torsions:
REMARK  status: ('A' for Active; 'I' for Inactive)
REMARK    1  A    between atoms: C2_2  and  C4_5 
REMARK    2  A    between atoms: C9_10  and  C10_11 
REMARK    3  A    between atoms: C10_11  and  N2_12 
ROOT
HETATM    1  C1  UNL     1     105.492  71.650  11.932  1.00  0.00     0.026 C 
HETATM    2  C2  UNL     1     104.417  71.496  12.954  1.00  0.00     0.093 C 
HETATM    3  C3  UNL     1     105.055  71.316  14.265  1.00  0.00     0.064 C 
HETATM    4  N1  UNL     1     105.558  71.191  15.313  1.00  0.00    -0.197 NA
ENDROOT
BRANCH   2   5
HETATM    5  C4  UNL     1     103.509  70.320  12.707  1.00  0.00     0.003 C 
HETATM    6  C5  UNL     1     102.746  70.057  13.983  1.00  0.00     0.006 C 
HETATM    7  C6  UNL     1     101.907  68.822  13.933  1.00  0.00     0.000 C 
HETATM    8  C7  UNL     1     100.467  69.113  13.537  1.00  0.00     0.000 C 
HETATM    9  C8  UNL     1     100.472  69.333  12.038  1.00  0.00     0.006 C 
HETATM   10  C9  UNL     1     101.185  70.673  11.819  1.00  0.00     0.011 C 
HETATM   11  C11 UNL     1     102.643  70.483  11.512  1.00  0.00     0.012 C 
BRANCH  10  12
HETATM   12  C10 UNL     1     100.494  71.342  10.642  1.00  0.00     0.234 C 
BRANCH  12  13
HETATM   13  N2  UNL     1      99.272  70.613  10.313  1.00  0.00    -0.079 N 
ATOM     14  H23 UNL     1      99.456  69.636  10.084  1.00  0.00     0.274 HD
ATOM     15  H22 UNL     1      98.681  70.462  11.130  1.00  0.00     0.274 HD
ATOM     16  H21 UNL     1      98.776  71.097   9.564  1.00  0.00     0.274 HD
ENDBRANCH  12  13
ENDBRANCH  10  12
ENDBRANCH   2   5
TORSDOF 3
ENDMDL
