MODEL 1
REMARK VINA RESULT: -5.278017673      0.000      0.000
REMARK  4 active torsions:
REMARK  status: ('A' for Active; 'I' for Inactive)
REMARK    1  A    between atoms: C2_2  and  N1_4 
REMARK    2  A    between atoms: N1_4  and  C4_6 
REMARK    3  A    between atoms: C4_6  and  N2_8 
REMARK    4  A    between atoms: N2_8  and  C5_10 
ROOT
HETATM    1  C4  UNL     1     101.759  70.936  11.923  1.00  0.00     0.168 C 
HETATM    2  S1  UNL     1     101.346  72.277  11.135  1.00  0.00    -0.041 SA
ENDROOT
BRANCH   1   3
HETATM    3  N1  UNL     1     103.124  70.720  12.240  1.00  0.00    -0.363 N 
ATOM      4  H1  UNL     1     103.837  70.862  11.524  1.00  0.00     0.162 HD
BRANCH   3   5
HETATM    5  C2  UNL     1     103.521  70.296  13.580  1.00  0.00     0.075 C 
HETATM    6  C1  UNL     1     104.694  71.129  14.002  1.00  0.00     0.032 C 
HETATM    7  C3  UNL     1     103.877  68.824  13.583  1.00  0.00     0.032 C 
ENDBRANCH   3   5
ENDBRANCH   1   3
BRANCH   1   8
HETATM    8  N2  UNL     1     100.803  69.981  12.318  1.00  0.00    -0.363 N 
ATOM      9  H2  UNL     1     100.682  69.763  13.307  1.00  0.00     0.162 HD
BRANCH   8  10
HETATM   10  C5  UNL     1      99.998  69.311  11.333  1.00  0.00     0.083 C 
HETATM   11  C6  UNL     1     100.513  69.315   9.946  1.00  0.00     0.025 C 
HETATM   12  C7  UNL     1      99.665  68.220   9.276  1.00  0.00     0.002 C 
HETATM   13  C8  UNL     1      99.690  67.143  10.309  1.00  0.00     0.002 C 
HETATM   14  C9  UNL     1      99.817  67.842  11.644  1.00  0.00     0.025 C 
ENDBRANCH   8  10
ENDBRANCH   1   8
TORSDOF 4
ENDMDL
MODEL 2
REMARK VINA RESULT: -4.842956029      1.230      1.254
REMARK  4 active torsions:
REMARK  status: ('A' for Active; 'I' for Inactive)
REMARK    1  A    between atoms: C2_2  and  N1_4 
REMARK    2  A    between atoms: N1_4  and  C4_6 
REMARK    3  A    between atoms: C4_6  and  N2_8 
REMARK    4  A    between atoms: N2_8  and  C5_10 
ROOT
HETATM    1  C4  UNL     1     101.538  70.535  12.446  1.00  0.00     0.168 C 
HETATM    2  S1  UNL     1     100.761  69.720  13.597  1.00  0.00    -0.041 SA
ENDROOT
BRANCH   1   3
HETATM    3  N1  UNL     1     102.897  70.882  12.651  1.00  0.00    -0.363 N 
ATOM      4  H1  UNL     1     103.366  71.498  11.986  1.00  0.00     0.162 HD
BRANCH   3   5
HETATM    5  C2  UNL     1     103.633  70.369  13.804  1.00  0.00     0.075 C 
HETATM    6  C1  UNL     1     104.833  71.244  14.015  1.00  0.00     0.032 C 
HETATM    7  C3  UNL     1     104.050  68.933  13.566  1.00  0.00     0.032 C 
ENDBRANCH   3   5
ENDBRANCH   1   3
BRANCH   1   8
HETATM    8  N2  UNL     1     100.911  70.900  11.240  1.00  0.00    -0.363 N 
ATOM      9  H2  UNL     1     100.996  71.855  10.892  1.00  0.00     0.162 HD
BRANCH   8  10
HETATM   10  C5  UNL     1     100.150  69.933  10.496  1.00  0.00     0.083 C 
HETATM   11  C6  UNL     1     100.876  69.194   9.439  1.00  0.00     0.025 C 
HETATM   12  C7  UNL     1      99.925  68.020   9.147  1.00  0.00     0.002 C 
HETATM   13  C8  UNL     1      99.533  67.596  10.523  1.00  0.00     0.002 C 
HETATM   14  C9  UNL     1      99.592  68.840  11.380  1.00  0.00     0.025 C 
ENDBRANCH   8  10
ENDBRANCH   1   8
TORSDOF 4
ENDMDL
MODEL 3
REMARK VINA RESULT: -4.800652470      0.288      1.171
REMARK  4 active torsions:
REMARK  status: ('A' for Active; 'I' for Inactive)
REMARK    1  A    between atoms: C2_2  and  N1_4 
REMARK    2  A    between atoms: N1_4  and  C4_6 
REMARK    3  A    between atoms: C4_6  and  N2_8 
REMARK    4  A    between atoms: N2_8  and  C5_10 
ROOT
HETATM    1  C4  UNL     1     101.835  71.091  11.847  1.00  0.00     0.168 C 
HETATM    2  S1  UNL     1     101.461  72.490  11.145  1.00  0.00    -0.041 SA
ENDROOT
BRANCH   1   3
HETATM    3  N1  UNL     1     103.184  70.842  12.204  1.00  0.00    -0.363 N 
ATOM      4  H1  UNL     1     103.922  70.974  11.512  1.00  0.00     0.162 HD
BRANCH   3   5
HETATM    5  C2  UNL     1     103.530  70.399  13.552  1.00  0.00     0.075 C 
HETATM    6  C1  UNL     1     104.718  71.191  14.011  1.00  0.00     0.032 C 
HETATM    7  C3  UNL     1     103.837  68.917  13.557  1.00  0.00     0.032 C 
ENDBRANCH   3   5
ENDBRANCH   1   3
BRANCH   1   8
HETATM    8  N2  UNL     1     100.860  70.114  12.126  1.00  0.00    -0.363 N 
ATOM      9  H2  UNL     1     100.223  70.244  12.912  1.00  0.00     0.162 HD
BRANCH   8  10
HETATM   10  C5  UNL     1     100.758  68.936  11.309  1.00  0.00     0.083 C 
HETATM   11  C6  UNL     1      99.681  67.983  11.657  1.00  0.00     0.025 C 
HETATM   12  C7  UNL     1      99.604  67.100  10.398  1.00  0.00     0.002 C 
HETATM   13  C8  UNL     1      99.675  68.118   9.309  1.00  0.00     0.002 C 
HETATM   14  C9  UNL     1     100.490  69.267   9.858  1.00  0.00     0.025 C 
ENDBRANCH   8  10
ENDBRANCH   1   8
TORSDOF 4
ENDMDL
MODEL 4
REMARK VINA RESULT: -4.686118062      1.839      2.167
REMARK  4 active torsions:
REMARK  status: ('A' for Active; 'I' for Inactive)
REMARK    1  A    between atoms: C2_2  and  N1_4 
REMARK    2  A    between atoms: N1_4  and  C4_6 
REMARK    3  A    between atoms: C4_6  and  N2_8 
REMARK    4  A    between atoms: N2_8  and  C5_10 
ROOT
HETATM    1  C4  UNL     1     102.499  69.588  13.528  1.00  0.00     0.168 C 
HETATM    2  S1  UNL     1     103.385  68.246  13.462  1.00  0.00    -0.041 SA
ENDROOT
BRANCH   1   3
HETATM    3  N1  UNL     1     103.158  70.844  13.542  1.00  0.00    -0.363 N 
ATOM      4  H1  UNL     1     102.611  71.699  13.644  1.00  0.00     0.162 HD
BRANCH   3   5
HETATM    5  C2  UNL     1     104.610  70.927  13.413  1.00  0.00     0.075 C 
HETATM    6  C1  UNL     1     105.147  71.607  14.636  1.00  0.00     0.032 C 
HETATM    7  C3  UNL     1     104.985  71.695  12.163  1.00  0.00     0.032 C 
ENDBRANCH   3   5
ENDBRANCH   1   3
BRANCH   1   8
HETATM    8  N2  UNL     1     101.092  69.551  13.560  1.00  0.00    -0.363 N 
ATOM      9  H2  UNL     1     100.606  69.491  14.454  1.00  0.00     0.162 HD
BRANCH   8  10
HETATM   10  C5  UNL     1     100.338  69.599  12.337  1.00  0.00     0.083 C 
HETATM   11  C6  UNL     1     101.028  70.167  11.158  1.00  0.00     0.025 C 
HETATM   12  C7  UNL     1     100.129  69.707   9.997  1.00  0.00     0.002 C 
HETATM   13  C8  UNL     1      99.863  68.285  10.365  1.00  0.00     0.002 C 
HETATM   14  C9  UNL     1      99.910  68.224  11.874  1.00  0.00     0.025 C 
ENDBRANCH   8  10
ENDBRANCH   1   8
TORSDOF 4
ENDMDL
MODEL 5
REMARK VINA RESULT: -4.538880361      1.168      1.230
REMARK  4 active torsions:
REMARK  status: ('A' for Active; 'I' for Inactive)
REMARK    1  A    between atoms: C2_2  and  N1_4 
REMARK    2  A    between atoms: N1_4  and  C4_6 
REMARK    3  A    between atoms: C4_6  and  N2_8 
REMARK    4  A    between atoms: N2_8  and  C5_10 
ROOT
HETATM    1  C4  UNL     1     102.325  70.769  11.965  1.00  0.00     0.168 C 
HETATM    2  S1  UNL     1     103.677  70.347  11.201  1.00  0.00    -0.041 SA
ENDROOT
BRANCH   1   3
HETATM    3  N1  UNL     1     102.320  70.805  13.382  1.00  0.00    -0.363 N 
ATOM      4  H1  UNL     1     101.564  71.284  13.873  1.00  0.00     0.162 HD
BRANCH   3   5
HETATM    5  C2  UNL     1     103.385  70.163  14.148  1.00  0.00     0.075 C 
HETATM    6  C1  UNL     1     104.583  71.063  14.122  1.00  0.00     0.032 C 
HETATM    7  C3  UNL     1     103.716  68.809  13.557  1.00  0.00     0.032 C 
ENDBRANCH   3   5
ENDBRANCH   1   3
BRANCH   1   8
HETATM    8  N2  UNL     1     101.152  71.117  11.266  1.00  0.00    -0.363 N 
ATOM      9  H2  UNL     1     100.949  72.097  11.072  1.00  0.00     0.162 HD
BRANCH   8  10
HETATM   10  C5  UNL     1     100.241  70.095  10.826  1.00  0.00     0.083 C 
HETATM   11  C6  UNL     1     100.638  69.330   9.623  1.00  0.00     0.025 C 
HETATM   12  C7  UNL     1      99.693  68.117   9.678  1.00  0.00     0.002 C 
HETATM   13  C8  UNL     1      99.760  67.745  11.121  1.00  0.00     0.002 C 
HETATM   14  C9  UNL     1     100.027  69.028  11.876  1.00  0.00     0.025 C 
ENDBRANCH   8  10
ENDBRANCH   1   8
TORSDOF 4
ENDMDL
