MODEL 1
REMARK VINA RESULT: -6.924832522      0.000      0.000
REMARK  2 active torsions:
REMARK  status: ('A' for Active; 'I' for Inactive)
REMARK    1  A    between atoms: C4_4  and  N1_5 
REMARK    2  A    between atoms: N1_5  and  C5_7 
ROOT
HETATM    1  C5  UNL     1     102.010  70.246  11.887  1.00  0.00     0.079 C 
HETATM    2  C6  UNL     1     101.440  70.129  13.300  1.00  0.00     0.027 C 
HETATM    3  C7  UNL     1     102.359  69.322  14.214  1.00  0.00     0.037 C 
HETATM    4  C8  UNL     1     103.675  69.341  13.549  1.00  0.00     0.217 A 
HETATM    5  N2  UNL     1     104.840  70.043  13.808  1.00  0.00    -0.063 N 
ATOM      6  H21 UNL     1     105.800  69.877  13.505  1.00  0.00     0.278 HD
ATOM      7  H22 UNL     1     105.384  70.140  14.665  1.00  0.00     0.278 HD
HETATM    8  C9  UNL     1     103.850  70.843  13.270  1.00  0.00     0.218 A 
HETATM    9  C10 UNL     1     103.336  70.946  11.880  1.00  0.00     0.059 C 
ENDROOT
BRANCH   1  10
HETATM   10  N1  UNL     1     100.996  70.716  11.062  1.00  0.00    -0.413 N 
ATOM     11  H1  UNL     1     100.934  71.724  10.922  1.00  0.00     0.154 HD
BRANCH  10  12
HETATM   12  C4  UNL     1     100.067  69.926  10.416  1.00  0.00     0.077 C 
HETATM   13  C3  UNL     1      99.622  68.831  11.381  1.00  0.00     0.024 C 
HETATM   14  C2  UNL     1      99.405  67.596  10.562  1.00  0.00     0.002 C 
HETATM   15  C1  UNL     1      99.996  67.841   9.201  1.00  0.00     0.002 C 
HETATM   16  C11 UNL     1     100.731  69.149   9.283  1.00  0.00     0.024 C 
ENDBRANCH  10  12
ENDBRANCH   1  10
TORSDOF 2
ENDMDL
MODEL 2
REMARK VINA RESULT: -6.543702216      0.970      2.043
REMARK  2 active torsions:
REMARK  status: ('A' for Active; 'I' for Inactive)
REMARK    1  A    between atoms: C4_4  and  N1_5 
REMARK    2  A    between atoms: N1_5  and  C5_7 
ROOT
HETATM    1  C5  UNL     1     102.354  70.582  12.756  1.00  0.00     0.079 C 
HETATM    2  C6  UNL     1     103.445  70.681  11.691  1.00  0.00     0.027 C 
HETATM    3  C7  UNL     1     104.682  71.406  12.215  1.00  0.00     0.037 C 
HETATM    4  C8  UNL     1     104.572  71.340  13.684  1.00  0.00     0.217 A 
HETATM    5  N2  UNL     1     105.221  70.570  14.634  1.00  0.00    -0.063 N 
ATOM      6  H21 UNL     1     105.318  70.695  15.641  1.00  0.00     0.278 HD
ATOM      7  H22 UNL     1     106.215  70.414  14.801  1.00  0.00     0.278 HD
HETATM    8  C9  UNL     1     104.304  69.843  13.899  1.00  0.00     0.218 A 
HETATM    9  C10 UNL     1     102.820  69.814  13.957  1.00  0.00     0.059 C 
ENDROOT
BRANCH   1  10
HETATM   10  N1  UNL     1     101.180  70.195  12.123  1.00  0.00    -0.413 N 
ATOM     11  H1  UNL     1     100.340  70.737  12.320  1.00  0.00     0.154 HD
BRANCH  10  12
HETATM   12  C4  UNL     1     101.063  69.134  11.248  1.00  0.00     0.077 C 
HETATM   13  C3  UNL     1     100.408  69.645   9.968  1.00  0.00     0.024 C 
HETATM   14  C2  UNL     1      99.520  68.547   9.469  1.00  0.00     0.002 C 
HETATM   15  C1  UNL     1      99.395  67.527  10.567  1.00  0.00     0.002 C 
HETATM   16  C11 UNL     1     100.053  68.121  11.780  1.00  0.00     0.024 C 
ENDBRANCH  10  12
ENDBRANCH   1  10
TORSDOF 2
ENDMDL
MODEL 3
REMARK VINA RESULT: -6.332110147      1.046      1.341
REMARK  2 active torsions:
REMARK  status: ('A' for Active; 'I' for Inactive)
REMARK    1  A    between atoms: C4_4  and  N1_5 
REMARK    2  A    between atoms: N1_5  and  C5_7 
ROOT
HETATM    1  C5  UNL     1     101.727  69.755  12.391  1.00  0.00     0.079 C 
HETATM    2  C6  UNL     1     102.361  69.405  13.737  1.00  0.00     0.027 C 
HETATM    3  C7  UNL     1     103.877  69.258  13.626  1.00  0.00     0.037 C 
HETATM    4  C8  UNL     1     104.240  69.958  12.380  1.00  0.00     0.217 A 
HETATM    5  N2  UNL     1     104.830  71.187  12.139  1.00  0.00    -0.063 N 
ATOM      6  H21 UNL     1     105.293  71.554  11.307  1.00  0.00     0.278 HD
ATOM      7  H22 UNL     1     105.691  71.596  12.502  1.00  0.00     0.278 HD
HETATM    8  C9  UNL     1     103.523  71.304  12.571  1.00  0.00     0.218 A 
HETATM    9  C10 UNL     1     102.242  71.060  11.859  1.00  0.00     0.059 C 
ENDROOT
BRANCH   1  10
HETATM   10  N1  UNL     1     100.356  69.571  12.511  1.00  0.00    -0.413 N 
ATOM     11  H1  UNL     1      99.915  69.878  13.378  1.00  0.00     0.154 HD
BRANCH  10  12
HETATM   12  C4  UNL     1      99.543  69.005  11.550  1.00  0.00     0.077 C 
HETATM   13  C3  UNL     1      99.819  67.505  11.518  1.00  0.00     0.024 C 
HETATM   14  C2  UNL     1      99.710  67.076  10.087  1.00  0.00     0.002 C 
HETATM   15  C1  UNL     1      99.681  68.318   9.239  1.00  0.00     0.002 C 
HETATM   16  C11 UNL     1      99.967  69.471  10.159  1.00  0.00     0.024 C 
ENDBRANCH  10  12
ENDBRANCH   1  10
TORSDOF 2
ENDMDL
MODEL 4
REMARK VINA RESULT: -6.152458974      0.700      1.561
REMARK  2 active torsions:
REMARK  status: ('A' for Active; 'I' for Inactive)
REMARK    1  A    between atoms: C4_4  and  N1_5 
REMARK    2  A    between atoms: N1_5  and  C5_7 
ROOT
HETATM    1  C5  UNL     1     101.638  70.829  11.987  1.00  0.00     0.079 C 
HETATM    2  C6  UNL     1     102.884  70.813  11.102  1.00  0.00     0.027 C 
HETATM    3  C7  UNL     1     104.164  70.928  11.928  1.00  0.00     0.037 C 
HETATM    4  C8  UNL     1     103.773  70.546  13.298  1.00  0.00     0.217 A 
HETATM    5  N2  UNL     1     103.978  69.396  14.039  1.00  0.00    -0.063 N 
ATOM      6  H21 UNL     1     103.923  69.231  15.044  1.00  0.00     0.278 HD
ATOM      7  H22 UNL     1     104.833  68.880  14.247  1.00  0.00     0.278 HD
HETATM    8  C9  UNL     1     103.037  69.221  13.042  1.00  0.00     0.218 A 
HETATM    9  C10 UNL     1     101.627  69.680  12.951  1.00  0.00     0.059 C 
ENDROOT
BRANCH   1  10
HETATM   10  N1  UNL     1     100.539  71.025  11.161  1.00  0.00    -0.413 N 
ATOM     11  H1  UNL     1     100.299  71.986  10.919  1.00  0.00     0.154 HD
BRANCH  10  12
HETATM   12  C4  UNL     1      99.745  70.022  10.643  1.00  0.00     0.077 C 
HETATM   13  C3  UNL     1      99.653  68.906  11.679  1.00  0.00     0.024 C 
HETATM   14  C2  UNL     1      99.630  67.614  10.921  1.00  0.00     0.002 C 
HETATM   15  C1  UNL     1     100.010  67.913   9.497  1.00  0.00     0.002 C 
HETATM   16  C11 UNL     1     100.444  69.352   9.463  1.00  0.00     0.024 C 
ENDBRANCH  10  12
ENDBRANCH   1  10
TORSDOF 2
ENDMDL
MODEL 5
REMARK VINA RESULT: -5.275940433      1.516      4.949
REMARK  2 active torsions:
REMARK  status: ('A' for Active; 'I' for Inactive)
REMARK    1  A    between atoms: C4_4  and  N1_5 
REMARK    2  A    between atoms: N1_5  and  C5_7 
ROOT
HETATM    1  C5  UNL     1     100.987  70.121  11.947  1.00  0.00     0.079 C 
HETATM    2  C6  UNL     1     101.064  68.641  12.320  1.00  0.00     0.027 C 
HETATM    3  C7  UNL     1      99.886  67.854  11.750  1.00  0.00     0.037 C 
HETATM    4  C8  UNL     1      99.350  68.696  10.664  1.00  0.00     0.217 A 
HETATM    5  N2  UNL     1      99.444  68.612   9.286  1.00  0.00    -0.063 N 
ATOM      6  H21 UNL     1      98.882  69.043   8.552  1.00  0.00     0.278 HD
ATOM      7  H22 UNL     1      99.244  67.840   8.650  1.00  0.00     0.278 HD
HETATM    8  C9  UNL     1     100.627  69.016   9.873  1.00  0.00     0.218 A 
HETATM    9  C10 UNL     1     101.021  70.322  10.461  1.00  0.00     0.059 C 
ENDROOT
BRANCH   1  10
HETATM   10  N1  UNL     1     101.901  70.803  12.740  1.00  0.00    -0.413 N 
ATOM     11  H1  UNL     1     101.560  71.609  13.263  1.00  0.00     0.154 HD
BRANCH  10  12
HETATM   12  C4  UNL     1     103.235  70.475  12.875  1.00  0.00     0.077 C 
HETATM   13  C3  UNL     1     103.668  70.824  14.296  1.00  0.00     0.024 C 
HETATM   14  C2  UNL     1     105.079  71.320  14.208  1.00  0.00     0.002 C 
HETATM   15  C1  UNL     1     105.388  71.562  12.756  1.00  0.00     0.002 C 
HETATM   16  C11 UNL     1     104.095  71.392  12.009  1.00  0.00     0.024 C 
ENDBRANCH  10  12
ENDBRANCH   1  10
TORSDOF 2
ENDMDL
