MODEL 1
REMARK VINA RESULT: -6.630155928      0.000      0.000
REMARK  3 active torsions:
REMARK  status: ('A' for Active; 'I' for Inactive)
REMARK    1  A    between atoms: C1_2  and  N2_4 
REMARK    2  A    between atoms: N2_4  and  N3_6 
REMARK    3  A    between atoms: C2_8  and  C3_9 
ROOT
HETATM    1  N3  UNL     1     103.448  70.685  11.577  1.00  0.00    -0.314 N 
ATOM      2  H3  UNL     1     103.665  70.126  10.751  1.00  0.00     0.185 HD
HETATM    3  C2  UNL     1     102.235  70.711  12.004  1.00  0.00     0.084 C 
ENDROOT
BRANCH   1   4
HETATM    4  N2  UNL     1     104.466  71.385  12.190  1.00  0.00    -0.279 N 
ATOM      5  H2  UNL     1     105.009  72.067  11.660  1.00  0.00     0.189 HD
BRANCH   4   6
HETATM    6  C1  UNL     1     104.756  71.153  13.556  1.00  0.00     0.199 C 
HETATM    7  N1  UNL     1     105.487  72.100  14.306  1.00  0.00    -0.068 NA
HETATM    8  S1  UNL     1     104.226  69.764  14.241  1.00  0.00    -0.043 SA
ENDBRANCH   4   6
ENDBRANCH   1   4
BRANCH   3   9
HETATM    9  C3  UNL     1     101.229  69.928  11.272  1.00  0.00     0.025 C 
HETATM   10  C4  UNL     1     100.488  68.969  12.197  1.00  0.00     0.010 C 
HETATM   11  C5  UNL     1      99.852  67.927  11.294  1.00  0.00     0.001 C 
HETATM   12  C6  UNL     1      99.387  68.579  10.018  1.00  0.00     0.000 C 
HETATM   13  C7  UNL     1      99.026  70.038  10.219  1.00  0.00     0.001 C 
HETATM   14  C8  UNL     1     100.222  70.851  10.630  1.00  0.00     0.010 C 
ENDBRANCH   3   9
TORSDOF 3
ENDMDL
MODEL 2
REMARK VINA RESULT: -6.528575794      1.280      1.280
REMARK  3 active torsions:
REMARK  status: ('A' for Active; 'I' for Inactive)
REMARK    1  A    between atoms: C1_2  and  N2_4 
REMARK    2  A    between atoms: N2_4  and  N3_6 
REMARK    3  A    between atoms: C2_8  and  C3_9 
ROOT
HETATM    1  N3  UNL     1     103.316  69.488  12.902  1.00  0.00    -0.314 N 
ATOM      2  H3  UNL     1     103.556  68.699  12.301  1.00  0.00     0.185 HD
HETATM    3  C2  UNL     1     102.181  70.070  12.735  1.00  0.00     0.084 C 
ENDROOT
BRANCH   1   4
HETATM    4  N2  UNL     1     104.222  69.890  13.861  1.00  0.00    -0.279 N 
ATOM      5  H2  UNL     1     104.419  69.289  14.661  1.00  0.00     0.189 HD
BRANCH   4   6
HETATM    6  C1  UNL     1     104.878  71.138  13.732  1.00  0.00     0.199 C 
HETATM    7  N1  UNL     1     105.252  71.875  14.876  1.00  0.00    -0.068 NA
HETATM    8  S1  UNL     1     105.189  71.703  12.227  1.00  0.00    -0.043 SA
ENDBRANCH   4   6
ENDBRANCH   1   4
BRANCH   3   9
HETATM    9  C3  UNL     1     101.292  69.559  11.680  1.00  0.00     0.025 C 
HETATM   10  C4  UNL     1     100.202  68.662  12.256  1.00  0.00     0.010 C 
HETATM   11  C5  UNL     1      99.673  67.849  11.088  1.00  0.00     0.001 C 
HETATM   12  C6  UNL     1      99.657  68.698   9.845  1.00  0.00     0.000 C 
HETATM   13  C7  UNL     1      99.479  70.171  10.160  1.00  0.00     0.001 C 
HETATM   14  C8  UNL     1     100.635  70.709  10.955  1.00  0.00     0.010 C 
ENDBRANCH   3   9
TORSDOF 3
ENDMDL
MODEL 3
REMARK VINA RESULT: -6.292564101      1.264      1.273
REMARK  3 active torsions:
REMARK  status: ('A' for Active; 'I' for Inactive)
REMARK    1  A    between atoms: C1_2  and  N2_4 
REMARK    2  A    between atoms: N2_4  and  N3_6 
REMARK    3  A    between atoms: C2_8  and  C3_9 
ROOT
HETATM    1  N3  UNL     1     102.760  70.722  13.063  1.00  0.00    -0.314 N 
ATOM      2  H3  UNL     1     102.862  71.229  12.183  1.00  0.00     0.185 HD
HETATM    3  C2  UNL     1     101.948  69.725  13.111  1.00  0.00     0.084 C 
ENDROOT
BRANCH   1   4
HETATM    4  N2  UNL     1     103.497  71.132  14.154  1.00  0.00    -0.279 N 
ATOM      5  H2  UNL     1     103.030  71.350  15.034  1.00  0.00     0.189 HD
BRANCH   4   6
HETATM    6  C1  UNL     1     104.904  71.249  14.049  1.00  0.00     0.199 C 
HETATM    7  N1  UNL     1     105.493  71.833  12.906  1.00  0.00    -0.068 NA
HETATM    8  S1  UNL     1     105.827  70.692  15.280  1.00  0.00    -0.043 SA
ENDBRANCH   4   6
ENDBRANCH   1   4
BRANCH   3   9
HETATM    9  C3  UNL     1     101.211  69.376  11.887  1.00  0.00     0.025 C 
HETATM   10  C4  UNL     1     100.000  68.503  12.197  1.00  0.00     0.010 C 
HETATM   11  C5  UNL     1      99.620  67.839  10.885  1.00  0.00     0.001 C 
HETATM   12  C6  UNL     1      99.843  68.800   9.747  1.00  0.00     0.000 C 
HETATM   13  C7  UNL     1      99.692  70.245  10.181  1.00  0.00     0.001 C 
HETATM   14  C8  UNL     1     100.736  70.629  11.193  1.00  0.00     0.010 C 
ENDBRANCH   3   9
TORSDOF 3
ENDMDL
MODEL 4
REMARK VINA RESULT: -6.235510227      0.713      1.478
REMARK  3 active torsions:
REMARK  status: ('A' for Active; 'I' for Inactive)
REMARK    1  A    between atoms: C1_2  and  N2_4 
REMARK    2  A    between atoms: N2_4  and  N3_6 
REMARK    3  A    between atoms: C2_8  and  C3_9 
ROOT
HETATM    1  N3  UNL     1     102.929  70.721  11.707  1.00  0.00    -0.314 N 
ATOM      2  H3  UNL     1     103.215  69.912  11.154  1.00  0.00     0.185 HD
HETATM    3  C2  UNL     1     101.673  70.941  11.875  1.00  0.00     0.084 C 
ENDROOT
BRANCH   1   4
HETATM    4  N2  UNL     1     103.904  71.534  12.245  1.00  0.00    -0.279 N 
ATOM      5  H2  UNL     1     104.138  72.418  11.793  1.00  0.00     0.189 HD
BRANCH   4   6
HETATM    6  C1  UNL     1     104.579  71.139  13.425  1.00  0.00     0.199 C 
HETATM    7  N1  UNL     1     105.523  71.993  14.032  1.00  0.00    -0.068 NA
HETATM    8  S1  UNL     1     104.238  69.670  14.064  1.00  0.00    -0.043 SA
ENDBRANCH   4   6
ENDBRANCH   1   4
BRANCH   3   9
HETATM    9  C3  UNL     1     100.719  70.009  11.255  1.00  0.00     0.025 C 
HETATM   10  C4  UNL     1     101.281  69.409   9.972  1.00  0.00     0.010 C 
HETATM   11  C5  UNL     1     100.085  68.870   9.206  1.00  0.00     0.001 C 
HETATM   12  C6  UNL     1      99.081  68.298  10.172  1.00  0.00     0.000 C 
HETATM   13  C7  UNL     1      99.736  67.779  11.437  1.00  0.00     0.001 C 
HETATM   14  C8  UNL     1     100.396  68.886  12.211  1.00  0.00     0.010 C 
ENDBRANCH   3   9
TORSDOF 3
ENDMDL
MODEL 5
REMARK VINA RESULT: -5.929762766      1.426      2.035
REMARK  3 active torsions:
REMARK  status: ('A' for Active; 'I' for Inactive)
REMARK    1  A    between atoms: C1_2  and  N2_4 
REMARK    2  A    between atoms: N2_4  and  N3_6 
REMARK    3  A    between atoms: C2_8  and  C3_9 
ROOT
HETATM    1  N3  UNL     1     102.880  69.659  13.043  1.00  0.00    -0.314 N 
ATOM      2  H3  UNL     1     103.080  69.627  12.043  1.00  0.00     0.185 HD
HETATM    3  C2  UNL     1     101.654  69.631  13.430  1.00  0.00     0.084 C 
ENDROOT
BRANCH   1   4
HETATM    4  N2  UNL     1     103.936  69.730  13.927  1.00  0.00    -0.279 N 
ATOM      5  H2  UNL     1     104.129  68.952  14.557  1.00  0.00     0.189 HD
BRANCH   4   6
HETATM    6  C1  UNL     1     104.751  70.887  13.958  1.00  0.00     0.199 C 
HETATM    7  N1  UNL     1     105.248  71.384  15.182  1.00  0.00    -0.068 NA
HETATM    8  S1  UNL     1     105.101  71.633  12.543  1.00  0.00    -0.043 SA
ENDBRANCH   4   6
ENDBRANCH   1   4
BRANCH   3   9
HETATM    9  C3  UNL     1     100.607  69.555  12.400  1.00  0.00     0.025 C 
HETATM   10  C4  UNL     1     100.995  70.339  11.152  1.00  0.00     0.010 C 
HETATM   11  C5  UNL     1      99.702  70.580  10.393  1.00  0.00     0.001 C 
HETATM   12  C6  UNL     1      98.802  69.380  10.529  1.00  0.00     0.000 C 
HETATM   13  C7  UNL     1      99.586  68.097  10.725  1.00  0.00     0.001 C 
HETATM   14  C8  UNL     1     100.366  68.117  12.010  1.00  0.00     0.010 C 
ENDBRANCH   3   9
TORSDOF 3
ENDMDL
