MODEL 1
REMARK VINA RESULT: -5.464854881      0.000      0.000
REMARK  14 active torsions:
REMARK  status: ('A' for Active; 'I' for Inactive)
REMARK    1  A    between atoms: C2_2  and  O1_3 
REMARK    2  A    between atoms: O1_3  and  C3_4 
REMARK    3  A    between atoms: C3_4  and  C4_6 
REMARK    4  A    between atoms: N1_8  and  C6_9 
REMARK    5  A    between atoms: C6_9  and  C7_10 
REMARK    6  A    between atoms: C7_10  and  C8_11 
REMARK    7  A    between atoms: C9_12  and  C10_13 
REMARK    8  A    between atoms: C12_17  and  O5_18 
REMARK    9  A    between atoms: C14_21  and  C15_22 
REMARK   10  A    between atoms: C15_22  and  C16_23 
REMARK   11  A    between atoms: C18_25  and  C19_26 
REMARK   12  A    between atoms: C19_26  and  O7_28 
REMARK   13  A    between atoms: O7_28  and  C20_29 
REMARK   14  A    between atoms: C20_29  and  C21_30 
ROOT
HETATM    1  C4  UNL     1       8.520   2.136  24.853  1.00  0.00     0.081 C 
HETATM    2  C5  UNL     1       7.856   3.020  23.873  1.00  0.00     0.292 C 
HETATM    3  N1  UNL     1       6.437   3.132  23.989  1.00  0.00     0.092 N 
HETATM    4  C11 UNL     1       5.945   3.259  25.342  1.00  0.00     0.310 C 
HETATM    5  C12 UNL     1       6.892   2.726  26.368  1.00  0.00     0.086 C 
HETATM    6  C13 UNL     1       8.057   3.713  26.474  1.00  0.00     0.045 C 
HETATM    7  C14 UNL     1       9.239   2.931  25.971  1.00  0.00     0.009 C 
HETATM    8  C24 UNL     1       7.492   1.455  25.745  1.00  0.00     0.061 C 
ENDROOT
BRANCH   7   9
HETATM    9  C15 UNL     1      10.390   3.684  25.450  1.00  0.00     0.011 C 
BRANCH   9  10
HETATM   10  C16 UNL     1      10.186   5.162  25.525  1.00  0.00     0.000 A 
HETATM   11  C17 UNL     1      11.230   6.057  24.934  1.00  0.00     0.020 A 
HETATM   12  C18 UNL     1      10.930   6.067  26.405  1.00  0.00     0.090 A 
BRANCH  12  13
HETATM   13  C19 UNL     1      10.241   7.320  26.872  1.00  0.00     0.263 C 
HETATM   14  O6  UNL     1      10.861   8.261  27.416  1.00  0.00    -0.265 OA
BRANCH  13  15
HETATM   15  O7  UNL     1       8.855   7.485  26.712  1.00  0.00    -0.321 OA
BRANCH  15  16
HETATM   16  C20 UNL     1       8.078   7.918  27.826  1.00  0.00     0.182 C 
BRANCH  16  17
HETATM   17  C21 UNL     1       8.190   6.894  28.935  1.00  0.00     0.002 C 
HETATM   18  C22 UNL     1       6.923   6.059  29.041  1.00  0.00     0.011 C 
HETATM   19  C23 UNL     1       8.509   7.501  30.268  1.00  0.00     0.011 C 
ENDBRANCH  16  17
ENDBRANCH  15  16
ENDBRANCH  13  15
ENDBRANCH  12  13
ENDBRANCH   9  10
ENDBRANCH   7   9
BRANCH   1  20
HETATM   20  C3  UNL     1       9.453   1.155  24.252  1.00  0.00     0.269 C 
HETATM   21  O2  UNL     1       9.647   1.200  23.012  1.00  0.00    -0.264 OA
BRANCH  20  22
HETATM   22  O1  UNL     1      10.117   0.196  24.985  1.00  0.00    -0.321 OA
BRANCH  22  23
HETATM   23  C2  UNL     1       9.934  -1.196  24.880  1.00  0.00     0.174 C 
HETATM   24  C1  UNL     1      11.218  -1.879  25.268  1.00  0.00     0.034 C 
ENDBRANCH  22  23
ENDBRANCH  20  22
ENDBRANCH   1  20
BRANCH   5  25
HETATM   25  O5  UNL     1       6.310   2.458  27.580  1.00  0.00    -0.388 OA
ATOM     26  H5  UNL     1       6.873   2.627  28.325  1.00  0.00     0.210 HD
ENDBRANCH   5  25
BRANCH   3  27
HETATM   27  C6  UNL     1       6.014   4.333  23.298  1.00  0.00     0.276 C 
BRANCH  27  28
HETATM   28  C7  UNL     1       7.223   5.163  22.899  1.00  0.00     0.057 C 
BRANCH  28  29
HETATM   29  C8  UNL     1       7.256   6.438  23.610  1.00  0.00    -0.018 C 
HETATM   30  C9  UNL     1       7.957   7.489  23.307  1.00  0.00     0.080 C 
BRANCH  30  31
HETATM   31  C10 UNL     1       8.872   7.686  22.218  1.00  0.00     0.198 C 
HETATM   32  O3  UNL     1       8.623   8.654  21.406  1.00  0.00    -0.645 OA
HETATM   33  O4  UNL     1       9.998   6.950  21.940  1.00  0.00    -0.645 OA
ENDBRANCH  30  31
ENDBRANCH  28  29
ENDBRANCH  27  28
ENDBRANCH   3  27
TORSDOF 14
ENDMDL
MODEL 2
REMARK VINA RESULT: -5.453989412      2.402      6.716
REMARK  14 active torsions:
REMARK  status: ('A' for Active; 'I' for Inactive)
REMARK    1  A    between atoms: C2_2  and  O1_3 
REMARK    2  A    between atoms: O1_3  and  C3_4 
REMARK    3  A    between atoms: C3_4  and  C4_6 
REMARK    4  A    between atoms: N1_8  and  C6_9 
REMARK    5  A    between atoms: C6_9  and  C7_10 
REMARK    6  A    between atoms: C7_10  and  C8_11 
REMARK    7  A    between atoms: C9_12  and  C10_13 
REMARK    8  A    between atoms: C12_17  and  O5_18 
REMARK    9  A    between atoms: C14_21  and  C15_22 
REMARK   10  A    between atoms: C15_22  and  C16_23 
REMARK   11  A    between atoms: C18_25  and  C19_26 
REMARK   12  A    between atoms: C19_26  and  O7_28 
REMARK   13  A    between atoms: O7_28  and  C20_29 
REMARK   14  A    between atoms: C20_29  and  C21_30 
ROOT
HETATM    1  C4  UNL     1       9.773   5.181  25.381  1.00  0.00     0.081 C 
HETATM    2  C5  UNL     1       9.485   5.085  23.935  1.00  0.00     0.292 C 
HETATM    3  N1  UNL     1      10.614   5.165  23.063  1.00  0.00     0.092 N 
HETATM    4  C11 UNL     1      11.771   4.415  23.496  1.00  0.00     0.310 C 
HETATM    5  C12 UNL     1      11.787   4.149  24.967  1.00  0.00     0.086 C 
HETATM    6  C13 UNL     1      10.726   3.083  25.252  1.00  0.00     0.045 C 
HETATM    7  C14 UNL     1       9.705   3.805  26.088  1.00  0.00     0.009 C 
HETATM    8  C24 UNL     1      11.254   5.436  25.617  1.00  0.00     0.061 C 
ENDROOT
BRANCH   7   9
HETATM    9  C15 UNL     1       8.335   3.271  26.111  1.00  0.00     0.011 C 
BRANCH   9  10
HETATM   10  C16 UNL     1       8.293   1.823  26.477  1.00  0.00     0.000 A 
HETATM   11  C17 UNL     1       6.966   1.131  26.497  1.00  0.00     0.020 A 
HETATM   12  C18 UNL     1       7.785   1.294  27.745  1.00  0.00     0.090 A 
BRANCH  12  13
HETATM   13  C19 UNL     1       8.369   0.005  28.255  1.00  0.00     0.263 C 
HETATM   14  O6  UNL     1       7.742  -0.754  29.028  1.00  0.00    -0.265 OA
BRANCH  13  15
HETATM   15  O7  UNL     1       9.660  -0.402  27.880  1.00  0.00    -0.321 OA
BRANCH  15  16
HETATM   16  C20 UNL     1       9.817  -1.610  27.142  1.00  0.00     0.182 C 
BRANCH  16  17
HETATM   17  C21 UNL     1      10.161  -1.274  25.707  1.00  0.00     0.002 C 
HETATM   18  C22 UNL     1       8.959  -1.469  24.794  1.00  0.00     0.011 C 
HETATM   19  C23 UNL     1      11.327  -2.053  25.181  1.00  0.00     0.011 C 
ENDBRANCH  16  17
ENDBRANCH  15  16
ENDBRANCH  13  15
ENDBRANCH  12  13
ENDBRANCH   9  10
ENDBRANCH   7   9
BRANCH   1  20
HETATM   20  C3  UNL     1       8.930   6.162  26.104  1.00  0.00     0.269 C 
HETATM   21  O2  UNL     1       8.170   6.903  25.433  1.00  0.00    -0.264 OA
BRANCH  20  22
HETATM   22  O1  UNL     1       8.940   6.300  27.474  1.00  0.00    -0.321 OA
BRANCH  22  23
HETATM   23  C2  UNL     1       8.971   7.519  28.180  1.00  0.00     0.174 C 
HETATM   24  C1  UNL     1      10.284   8.200  27.904  1.00  0.00     0.034 C 
ENDBRANCH  22  23
ENDBRANCH  20  22
ENDBRANCH   1  20
BRANCH   5  25
HETATM   25  O5  UNL     1      13.022   3.817  25.461  1.00  0.00    -0.388 OA
ATOM     26  H5  UNL     1      13.449   4.518  25.938  1.00  0.00     0.210 HD
ENDBRANCH   5  25
BRANCH   3  27
HETATM   27  C6  UNL     1      10.240   4.612  21.778  1.00  0.00     0.276 C 
BRANCH  27  28
HETATM   28  C7  UNL     1       8.986   3.764  21.915  1.00  0.00     0.057 C 
BRANCH  28  29
HETATM   29  C8  UNL     1       9.312   2.353  22.112  1.00  0.00    -0.018 C 
HETATM   30  C9  UNL     1       8.503   1.404  22.476  1.00  0.00     0.080 C 
BRANCH  30  31
HETATM   31  C10 UNL     1       7.102   1.473  22.779  1.00  0.00     0.198 C 
HETATM   32  O3  UNL     1       6.402   0.410  22.580  1.00  0.00    -0.645 OA
HETATM   33  O4  UNL     1       6.412   2.557  23.266  1.00  0.00    -0.645 OA
ENDBRANCH  30  31
ENDBRANCH  28  29
ENDBRANCH  27  28
ENDBRANCH   3  27
TORSDOF 14
ENDMDL
MODEL 3
REMARK VINA RESULT: -5.329237831      2.370      6.636
REMARK  14 active torsions:
REMARK  status: ('A' for Active; 'I' for Inactive)
REMARK    1  A    between atoms: C2_2  and  O1_3 
REMARK    2  A    between atoms: O1_3  and  C3_4 
REMARK    3  A    between atoms: C3_4  and  C4_6 
REMARK    4  A    between atoms: N1_8  and  C6_9 
REMARK    5  A    between atoms: C6_9  and  C7_10 
REMARK    6  A    between atoms: C7_10  and  C8_11 
REMARK    7  A    between atoms: C9_12  and  C10_13 
REMARK    8  A    between atoms: C12_17  and  O5_18 
REMARK    9  A    between atoms: C14_21  and  C15_22 
REMARK   10  A    between atoms: C15_22  and  C16_23 
REMARK   11  A    between atoms: C18_25  and  C19_26 
REMARK   12  A    between atoms: C19_26  and  O7_28 
REMARK   13  A    between atoms: O7_28  and  C20_29 
REMARK   14  A    between atoms: C20_29  and  C21_30 
ROOT
HETATM    1  C4  UNL     1       9.730   5.463  24.997  1.00  0.00     0.081 C 
HETATM    2  C5  UNL     1       8.756   5.135  23.936  1.00  0.00     0.292 C 
HETATM    3  N1  UNL     1       9.300   4.888  22.638  1.00  0.00     0.092 N 
HETATM    4  C11 UNL     1      10.498   4.079  22.625  1.00  0.00     0.310 C 
HETATM    5  C12 UNL     1      11.239   4.098  23.923  1.00  0.00     0.086 C 
HETATM    6  C13 UNL     1      10.434   3.266  24.924  1.00  0.00     0.045 C 
HETATM    7  C14 UNL     1       9.987   4.269  25.950  1.00  0.00     0.009 C 
HETATM    8  C24 UNL     1      11.138   5.548  24.426  1.00  0.00     0.061 C 
ENDROOT
BRANCH   7   9
HETATM    9  C15 UNL     1       8.798   3.948  26.753  1.00  0.00     0.011 C 
BRANCH   9  10
HETATM   10  C16 UNL     1       8.474   2.490  26.734  1.00  0.00     0.000 A 
HETATM   11  C17 UNL     1       7.078   2.074  26.390  1.00  0.00     0.020 A 
HETATM   12  C18 UNL     1       7.666   1.799  27.743  1.00  0.00     0.090 A 
BRANCH  12  13
HETATM   13  C19 UNL     1       7.947   0.342  27.993  1.00  0.00     0.263 C 
HETATM   14  O6  UNL     1       7.063  -0.452  28.385  1.00  0.00    -0.265 OA
BRANCH  13  15
HETATM   15  O7  UNL     1       9.231  -0.190  27.794  1.00  0.00    -0.321 OA
BRANCH  15  16
HETATM   16  C20 UNL     1       9.387  -1.318  26.936  1.00  0.00     0.182 C 
BRANCH  16  17
HETATM   17  C21 UNL     1      10.205  -0.913  25.728  1.00  0.00     0.002 C 
HETATM   18  C22 UNL     1       9.309  -0.465  24.584  1.00  0.00     0.011 C 
HETATM   19  C23 UNL     1      11.131  -1.991  25.253  1.00  0.00     0.011 C 
ENDBRANCH  16  17
ENDBRANCH  15  16
ENDBRANCH  13  15
ENDBRANCH  12  13
ENDBRANCH   9  10
ENDBRANCH   7   9
BRANCH   1  20
HETATM   20  C3  UNL     1       9.389   6.672  25.782  1.00  0.00     0.269 C 
HETATM   21  O2  UNL     1       8.359   7.316  25.465  1.00  0.00    -0.264 OA
BRANCH  20  22
HETATM   22  O1  UNL     1      10.145   7.123  26.841  1.00  0.00    -0.321 OA
BRANCH  22  23
HETATM   23  C2  UNL     1       9.903   8.292  27.588  1.00  0.00     0.174 C 
HETATM   24  C1  UNL     1       9.153   7.916  28.839  1.00  0.00     0.034 C 
ENDBRANCH  22  23
ENDBRANCH  20  22
ENDBRANCH   1  20
BRANCH   5  25
HETATM   25  O5  UNL     1      12.546   3.696  23.826  1.00  0.00    -0.388 OA
ATOM     26  H5  UNL     1      13.131   4.360  23.482  1.00  0.00     0.210 HD
ENDBRANCH   5  25
BRANCH   3  27
HETATM   27  C6  UNL     1       8.319   4.158  21.861  1.00  0.00     0.276 C 
BRANCH  27  28
HETATM   28  C7  UNL     1       7.347   3.441  22.783  1.00  0.00     0.057 C 
BRANCH  28  29
HETATM   29  C8  UNL     1       7.418   1.991  22.615  1.00  0.00    -0.018 C 
HETATM   30  C9  UNL     1       6.579   1.233  21.976  1.00  0.00     0.080 C 
BRANCH  30  31
HETATM   31  C10 UNL     1       5.380   1.596  21.276  1.00  0.00     0.198 C 
HETATM   32  O3  UNL     1       4.285   1.622  21.954  1.00  0.00    -0.645 OA
HETATM   33  O4  UNL     1       5.265   1.925  19.947  1.00  0.00    -0.645 OA
ENDBRANCH  30  31
ENDBRANCH  28  29
ENDBRANCH  27  28
ENDBRANCH   3  27
TORSDOF 14
ENDMDL
MODEL 4
REMARK VINA RESULT: -5.254471002      3.388      7.059
REMARK  14 active torsions:
REMARK  status: ('A' for Active; 'I' for Inactive)
REMARK    1  A    between atoms: C2_2  and  O1_3 
REMARK    2  A    between atoms: O1_3  and  C3_4 
REMARK    3  A    between atoms: C3_4  and  C4_6 
REMARK    4  A    between atoms: N1_8  and  C6_9 
REMARK    5  A    between atoms: C6_9  and  C7_10 
REMARK    6  A    between atoms: C7_10  and  C8_11 
REMARK    7  A    between atoms: C9_12  and  C10_13 
REMARK    8  A    between atoms: C12_17  and  O5_18 
REMARK    9  A    between atoms: C14_21  and  C15_22 
REMARK   10  A    between atoms: C15_22  and  C16_23 
REMARK   11  A    between atoms: C18_25  and  C19_26 
REMARK   12  A    between atoms: C19_26  and  O7_28 
REMARK   13  A    between atoms: O7_28  and  C20_29 
REMARK   14  A    between atoms: C20_29  and  C21_30 
ROOT
HETATM    1  C4  UNL     1       9.604   3.829  23.413  1.00  0.00     0.081 C 
HETATM    2  C5  UNL     1       9.828   4.139  24.840  1.00  0.00     0.292 C 
HETATM    3  N1  UNL     1      10.750   5.195  25.116  1.00  0.00     0.092 N 
HETATM    4  C11 UNL     1      10.620   6.355  24.263  1.00  0.00     0.310 C 
HETATM    5  C12 UNL     1       9.959   6.056  22.956  1.00  0.00     0.086 C 
HETATM    6  C13 UNL     1       8.470   5.832  23.235  1.00  0.00     0.045 C 
HETATM    7  C14 UNL     1       8.254   4.383  22.895  1.00  0.00     0.009 C 
HETATM    8  C24 UNL     1      10.503   4.682  22.531  1.00  0.00     0.061 C 
ENDROOT
BRANCH   7   9
HETATM    9  C15 UNL     1       7.110   3.696  23.513  1.00  0.00     0.011 C 
BRANCH   9  10
HETATM   10  C16 UNL     1       6.065   3.318  22.514  1.00  0.00     0.000 A 
HETATM   11  C17 UNL     1       6.131   1.958  21.893  1.00  0.00     0.020 A 
HETATM   12  C18 UNL     1       6.288   3.204  21.071  1.00  0.00     0.090 A 
BRANCH  12  13
HETATM   13  C19 UNL     1       5.126   3.473  20.154  1.00  0.00     0.263 C 
HETATM   14  O6  UNL     1       4.158   4.189  20.495  1.00  0.00    -0.265 OA
BRANCH  13  15
HETATM   15  O7  UNL     1       5.081   2.923  18.863  1.00  0.00    -0.321 OA
BRANCH  15  16
HETATM   16  C20 UNL     1       4.007   3.277  17.997  1.00  0.00     0.182 C 
BRANCH  16  17
HETATM   17  C21 UNL     1       4.562   3.611  16.629  1.00  0.00     0.002 C 
HETATM   18  C22 UNL     1       5.386   4.888  16.667  1.00  0.00     0.011 C 
HETATM   19  C23 UNL     1       3.504   3.722  15.573  1.00  0.00     0.011 C 
ENDBRANCH  16  17
ENDBRANCH  15  16
ENDBRANCH  13  15
ENDBRANCH  12  13
ENDBRANCH   9  10
ENDBRANCH   7   9
BRANCH   1  20
HETATM   20  C3  UNL     1       9.721   2.391  23.079  1.00  0.00     0.269 C 
HETATM   21  O2  UNL     1       9.594   2.046  21.878  1.00  0.00    -0.264 OA
BRANCH  20  22
HETATM   22  O1  UNL     1       9.961   1.414  24.020  1.00  0.00    -0.321 OA
BRANCH  22  23
HETATM   23  C2  UNL     1       9.289   0.180  24.117  1.00  0.00     0.174 C 
HETATM   24  C1  UNL     1       7.978   0.401  24.824  1.00  0.00     0.034 C 
ENDBRANCH  22  23
ENDBRANCH  20  22
ENDBRANCH   1  20
BRANCH   5  25
HETATM   25  O5  UNL     1      10.182   7.000  21.988  1.00  0.00    -0.388 OA
ATOM     26  H5  UNL     1       9.642   6.897  21.214  1.00  0.00     0.210 HD
ENDBRANCH   5  25
BRANCH   3  27
HETATM   27  C6  UNL     1      10.516   5.667  26.466  1.00  0.00     0.276 C 
BRANCH  27  28
HETATM   28  C7  UNL     1      10.940   7.121  26.595  1.00  0.00     0.057 C 
BRANCH  28  29
HETATM   29  C8  UNL     1      10.141   7.826  27.595  1.00  0.00    -0.018 C 
HETATM   30  C9  UNL     1       8.918   8.243  27.470  1.00  0.00     0.080 C 
BRANCH  30  31
HETATM   31  C10 UNL     1       8.031   8.132  26.346  1.00  0.00     0.198 C 
HETATM   32  O3  UNL     1       7.248   7.110  26.311  1.00  0.00    -0.645 OA
HETATM   33  O4  UNL     1       7.920   9.004  25.291  1.00  0.00    -0.645 OA
ENDBRANCH  30  31
ENDBRANCH  28  29
ENDBRANCH  27  28
ENDBRANCH   3  27
TORSDOF 14
ENDMDL
MODEL 5
REMARK VINA RESULT: -5.238262413      2.488      6.610
REMARK  14 active torsions:
REMARK  status: ('A' for Active; 'I' for Inactive)
REMARK    1  A    between atoms: C2_2  and  O1_3 
REMARK    2  A    between atoms: O1_3  and  C3_4 
REMARK    3  A    between atoms: C3_4  and  C4_6 
REMARK    4  A    between atoms: N1_8  and  C6_9 
REMARK    5  A    between atoms: C6_9  and  C7_10 
REMARK    6  A    between atoms: C7_10  and  C8_11 
REMARK    7  A    between atoms: C9_12  and  C10_13 
REMARK    8  A    between atoms: C12_17  and  O5_18 
REMARK    9  A    between atoms: C14_21  and  C15_22 
REMARK   10  A    between atoms: C15_22  and  C16_23 
REMARK   11  A    between atoms: C18_25  and  C19_26 
REMARK   12  A    between atoms: C19_26  and  O7_28 
REMARK   13  A    between atoms: O7_28  and  C20_29 
REMARK   14  A    between atoms: C20_29  and  C21_30 
ROOT
HETATM    1  C4  UNL     1       9.981   5.458  25.373  1.00  0.00     0.081 C 
HETATM    2  C5  UNL     1       9.482   5.285  23.993  1.00  0.00     0.292 C 
HETATM    3  N1  UNL     1      10.478   5.156  22.977  1.00  0.00     0.092 N 
HETATM    4  C11 UNL     1      11.593   4.304  23.323  1.00  0.00     0.310 C 
HETATM    5  C12 UNL     1      11.788   4.154  24.798  1.00  0.00     0.086 C 
HETATM    6  C13 UNL     1      10.665   3.254  25.320  1.00  0.00     0.045 C 
HETATM    7  C14 UNL     1       9.860   4.160  26.210  1.00  0.00     0.009 C 
HETATM    8  C24 UNL     1      11.500   5.545  25.388  1.00  0.00     0.061 C 
ENDROOT
BRANCH   7   9
HETATM    9  C15 UNL     1       8.456   3.805  26.463  1.00  0.00     0.011 C 
BRANCH   9  10
HETATM   10  C16 UNL     1       8.246   2.327  26.534  1.00  0.00     0.000 A 
HETATM   11  C17 UNL     1       6.870   1.790  26.289  1.00  0.00     0.020 A 
HETATM   12  C18 UNL     1       7.549   1.632  27.619  1.00  0.00     0.090 A 
BRANCH  12  13
HETATM   13  C19 UNL     1       7.955   0.216  27.924  1.00  0.00     0.263 C 
HETATM   14  O6  UNL     1       7.145  -0.634  28.358  1.00  0.00    -0.265 OA
BRANCH  13  15
HETATM   15  O7  UNL     1       9.278  -0.214  27.730  1.00  0.00    -0.321 OA
BRANCH  15  16
HETATM   16  C20 UNL     1       9.520  -1.374  26.939  1.00  0.00     0.182 C 
BRANCH  16  17
HETATM   17  C21 UNL     1      10.285  -0.975  25.695  1.00  0.00     0.002 C 
HETATM   18  C22 UNL     1       9.338  -0.603  24.564  1.00  0.00     0.011 C 
HETATM   19  C23 UNL     1      11.243  -2.028  25.227  1.00  0.00     0.011 C 
ENDBRANCH  16  17
ENDBRANCH  15  16
ENDBRANCH  13  15
ENDBRANCH  12  13
ENDBRANCH   9  10
ENDBRANCH   7   9
BRANCH   1  20
HETATM   20  C3  UNL     1       9.365   6.589  26.104  1.00  0.00     0.269 C 
HETATM   21  O2  UNL     1       9.850   6.914  27.216  1.00  0.00    -0.264 OA
BRANCH  20  22
HETATM   22  O1  UNL     1       8.287   7.301  25.625  1.00  0.00    -0.321 OA
BRANCH  22  23
HETATM   23  C2  UNL     1       6.973   7.247  26.129  1.00  0.00     0.174 C 
HETATM   24  C1  UNL     1       6.135   6.416  25.194  1.00  0.00     0.034 C 
ENDBRANCH  22  23
ENDBRANCH  20  22
ENDBRANCH   1  20
BRANCH   5  25
HETATM   25  O5  UNL     1      13.035   3.711  25.155  1.00  0.00    -0.388 OA
ATOM     26  H5  UNL     1      13.070   3.304  26.012  1.00  0.00     0.210 HD
ENDBRANCH   5  25
BRANCH   3  27
HETATM   27  C6  UNL     1       9.866   4.554  21.810  1.00  0.00     0.276 C 
BRANCH  27  28
HETATM   28  C7  UNL     1       8.546   3.901  22.186  1.00  0.00     0.057 C 
BRANCH  28  29
HETATM   29  C8  UNL     1       8.661   2.445  22.229  1.00  0.00    -0.018 C 
HETATM   30  C9  UNL     1       7.696   1.579  22.153  1.00  0.00     0.080 C 
BRANCH  30  31
HETATM   31  C10 UNL     1       6.285   1.803  22.008  1.00  0.00     0.198 C 
HETATM   32  O3  UNL     1       5.832   1.963  20.813  1.00  0.00    -0.645 OA
HETATM   33  O4  UNL     1       5.350   1.865  23.013  1.00  0.00    -0.645 OA
ENDBRANCH  30  31
ENDBRANCH  28  29
ENDBRANCH  27  28
ENDBRANCH   3  27
TORSDOF 14
ENDMDL
