MODEL 1
REMARK VINA RESULT: -6.152852465      0.000      0.000
REMARK  5 active torsions:
REMARK  status: ('A' for Active; 'I' for Inactive)
REMARK    1  A    between atoms: O1_2  and  C2_3 
REMARK    2  A    between atoms: C3_4  and  N1_5 
REMARK    3  A    between atoms: C5_10  and  O5_11 
REMARK    4  A    between atoms: C10_18  and  O7_19 
REMARK    5  A    between atoms: C14_27  and  O9_28 
ROOT
HETATM    1  C2  UNL     1      20.139 -15.774  -1.335  1.00  0.00     0.131 C 
HETATM    2  C3  UNL     1      19.049 -15.027  -1.414  1.00  0.00     0.185 C 
HETATM    3  C4  UNL     1      18.045 -15.708  -2.238  1.00  0.00     0.231 C 
HETATM    4  O4  UNL     1      16.817 -15.534  -2.146  1.00  0.00    -0.286 OA
HETATM    5  C5  UNL     1      18.880 -16.569  -3.110  1.00  0.00     0.236 C 
HETATM    6  C6  UNL     1      18.142 -17.688  -3.707  1.00  0.00     0.208 C 
HETATM    7  O6  UNL     1      16.907 -17.751  -3.670  1.00  0.00    -0.288 OA
HETATM    8  C7  UNL     1      18.768 -18.825  -4.394  1.00  0.00     0.040 A 
HETATM    9  C8  UNL     1      17.864 -19.513  -5.173  1.00  0.00     0.020 A 
HETATM   10  C9  UNL     1      18.302 -20.609  -5.883  1.00  0.00     0.037 A 
HETATM   11  C10 UNL     1      19.617 -21.027  -5.828  1.00  0.00     0.067 A 
HETATM   12  C11 UNL     1      20.524 -20.342  -5.051  1.00  0.00     0.067 A 
HETATM   13  C12 UNL     1      20.103 -19.242  -4.333  1.00  0.00     0.051 A 
HETATM   14  N2  UNL     1      21.181 -18.674  -3.596  1.00  0.00    -0.323 N 
ATOM     15  H2  UNL     1      22.091 -19.120  -3.706  1.00  0.00     0.169 HD
HETATM   16  C13 UNL     1      21.126 -17.556  -2.726  1.00  0.00     0.268 C 
HETATM   17  O8  UNL     1      22.205 -16.979  -2.473  1.00  0.00    -0.269 OA
HETATM   18  C14 UNL     1      19.909 -17.019  -2.097  1.00  0.00     0.236 C 
ENDROOT
BRANCH   2  19
HETATM   19  N1  UNL     1      18.937 -13.746  -0.777  1.00  0.00    -0.109 N 
HETATM   20  O2  UNL     1      18.155 -13.566   0.201  1.00  0.00    -0.532 OA
HETATM   21  O3  UNL     1      19.662 -12.650  -1.182  1.00  0.00    -0.532 OA
ENDBRANCH   2  19
BRANCH   1  22
HETATM   22  O1  UNL     1      21.313 -15.478  -0.662  1.00  0.00    -0.354 OA
HETATM   23  C1  UNL     1      21.540 -15.640   0.702  1.00  0.00     0.209 C 
ENDBRANCH   1  22
BRANCH  18  24
HETATM   24  O9  UNL     1      19.334 -17.916  -1.199  1.00  0.00    -0.371 OA
ATOM     25  H9  UNL     1      18.569 -18.270  -1.637  1.00  0.00     0.211 HD
ENDBRANCH  18  24
BRANCH   5  26
HETATM   26  O5  UNL     1      19.501 -15.765  -4.059  1.00  0.00    -0.371 OA
ATOM     27  H5  UNL     1      19.842 -16.322  -4.749  1.00  0.00     0.211 HD
ENDBRANCH   5  26
BRANCH  11  28
HETATM   28  O7  UNL     1      20.041 -22.153  -6.565  1.00  0.00    -0.361 OA
ATOM     29  H7  UNL     1      20.004 -23.021  -6.181  1.00  0.00     0.217 HD
ENDBRANCH  11  28
TORSDOF 5
ENDMDL
MODEL 2
REMARK VINA RESULT: -5.904909300      3.674      5.978
REMARK  5 active torsions:
REMARK  status: ('A' for Active; 'I' for Inactive)
REMARK    1  A    between atoms: O1_2  and  C2_3 
REMARK    2  A    between atoms: C3_4  and  N1_5 
REMARK    3  A    between atoms: C5_10  and  O5_11 
REMARK    4  A    between atoms: C10_18  and  O7_19 
REMARK    5  A    between atoms: C14_27  and  O9_28 
ROOT
HETATM    1  C2  UNL     1      18.865 -17.088  -0.272  1.00  0.00     0.131 C 
HETATM    2  C3  UNL     1      19.214 -16.805  -1.517  1.00  0.00     0.185 C 
HETATM    3  C4  UNL     1      18.047 -16.311  -2.254  1.00  0.00     0.231 C 
HETATM    4  O4  UNL     1      18.102 -15.556  -3.241  1.00  0.00    -0.286 OA
HETATM    5  C5  UNL     1      16.919 -16.933  -1.520  1.00  0.00     0.236 C 
HETATM    6  C6  UNL     1      15.634 -16.259  -1.740  1.00  0.00     0.208 C 
HETATM    7  O6  UNL     1      15.483 -15.415  -2.632  1.00  0.00    -0.288 OA
HETATM    8  C7  UNL     1      14.421 -16.503  -0.950  1.00  0.00     0.040 A 
HETATM    9  C8  UNL     1      13.293 -16.042  -1.590  1.00  0.00     0.020 A 
HETATM   10  C9  UNL     1      12.071 -16.199  -0.973  1.00  0.00     0.037 A 
HETATM   11  C10 UNL     1      11.960 -16.803   0.265  1.00  0.00     0.067 A 
HETATM   12  C11 UNL     1      13.086 -17.265   0.908  1.00  0.00     0.067 A 
HETATM   13  C12 UNL     1      14.318 -17.116   0.305  1.00  0.00     0.051 A 
HETATM   14  N2  UNL     1      15.351 -17.653   1.123  1.00  0.00    -0.323 N 
ATOM     15  H2  UNL     1      15.060 -18.081   2.001  1.00  0.00     0.169 HD
HETATM   16  C13 UNL     1      16.742 -17.659   0.848  1.00  0.00     0.268 C 
HETATM   17  O8  UNL     1      17.441 -18.486   1.471  1.00  0.00    -0.269 OA
HETATM   18  C14 UNL     1      17.431 -16.774  -0.106  1.00  0.00     0.236 C 
ENDROOT
BRANCH   2  19
HETATM   19  N1  UNL     1      20.549 -16.991  -2.010  1.00  0.00    -0.109 N 
HETATM   20  O2  UNL     1      20.909 -18.088  -2.528  1.00  0.00    -0.532 OA
HETATM   21  O3  UNL     1      21.505 -16.005  -1.954  1.00  0.00    -0.532 OA
ENDBRANCH   2  19
BRANCH   1  22
HETATM   22  O1  UNL     1      19.674 -17.590   0.735  1.00  0.00    -0.354 OA
HETATM   23  C1  UNL     1      20.561 -16.856   1.517  1.00  0.00     0.209 C 
ENDBRANCH   1  22
BRANCH  18  24
HETATM   24  O9  UNL     1      17.373 -15.434   0.275  1.00  0.00    -0.371 OA
ATOM     25  H9  UNL     1      17.968 -14.973  -0.306  1.00  0.00     0.211 HD
ENDBRANCH  18  24
BRANCH   5  26
HETATM   26  O5  UNL     1      16.880 -18.286  -1.837  1.00  0.00    -0.371 OA
ATOM     27  H5  UNL     1      16.333 -18.400  -2.605  1.00  0.00     0.211 HD
ENDBRANCH   5  26
BRANCH  11  28
HETATM   28  O7  UNL     1      10.697 -16.952   0.877  1.00  0.00    -0.361 OA
ATOM     29  H7  UNL     1      10.626 -17.032   1.821  1.00  0.00     0.217 HD
ENDBRANCH  11  28
TORSDOF 5
ENDMDL
MODEL 3
REMARK VINA RESULT: -5.823334616      2.131      6.285
REMARK  5 active torsions:
REMARK  status: ('A' for Active; 'I' for Inactive)
REMARK    1  A    between atoms: O1_2  and  C2_3 
REMARK    2  A    between atoms: C3_4  and  N1_5 
REMARK    3  A    between atoms: C5_10  and  O5_11 
REMARK    4  A    between atoms: C10_18  and  O7_19 
REMARK    5  A    between atoms: C14_27  and  O9_28 
ROOT
HETATM    1  C2  UNL     1      19.571 -17.490  -3.845  1.00  0.00     0.131 C 
HETATM    2  C3  UNL     1      18.417 -18.097  -3.621  1.00  0.00     0.185 C 
HETATM    3  C4  UNL     1      17.589 -17.269  -2.739  1.00  0.00     0.231 C 
HETATM    4  O4  UNL     1      16.347 -17.298  -2.702  1.00  0.00    -0.286 OA
HETATM    5  C5  UNL     1      18.604 -16.480  -1.998  1.00  0.00     0.236 C 
HETATM    6  C6  UNL     1      18.065 -15.258  -1.391  1.00  0.00     0.208 C 
HETATM    7  O6  UNL     1      16.848 -15.049  -1.310  1.00  0.00    -0.288 OA
HETATM    8  C7  UNL     1      18.885 -14.178  -0.828  1.00  0.00     0.040 A 
HETATM    9  C8  UNL     1      18.152 -13.357  -0.001  1.00  0.00     0.020 A 
HETATM   10  C9  UNL     1      18.785 -12.294   0.606  1.00  0.00     0.037 A 
HETATM   11  C10 UNL     1      20.127 -12.040   0.401  1.00  0.00     0.067 A 
HETATM   12  C11 UNL     1      20.863 -12.858  -0.425  1.00  0.00     0.067 A 
HETATM   13  C12 UNL     1      20.247 -13.928  -1.041  1.00  0.00     0.051 A 
HETATM   14  N2  UNL     1      21.170 -14.649  -1.849  1.00  0.00    -0.323 N 
ATOM     15  H2  UNL     1      22.132 -14.312  -1.852  1.00  0.00     0.169 HD
HETATM   16  C13 UNL     1      20.896 -15.786  -2.651  1.00  0.00     0.268 C 
HETATM   17  O8  UNL     1      21.870 -16.498  -2.978  1.00  0.00    -0.269 OA
HETATM   18  C14 UNL     1      19.567 -16.198  -3.129  1.00  0.00     0.236 C 
ENDROOT
BRANCH   2  19
HETATM   19  N1  UNL     1      18.093 -19.380  -4.177  1.00  0.00    -0.109 N 
HETATM   20  O2  UNL     1      18.505 -20.449  -3.642  1.00  0.00    -0.532 OA
HETATM   21  O3  UNL     1      17.325 -19.525  -5.308  1.00  0.00    -0.532 OA
ENDBRANCH   2  19
BRANCH   1  22
HETATM   22  O1  UNL     1      20.628 -17.952  -4.614  1.00  0.00    -0.354 OA
HETATM   23  C1  UNL     1      20.714 -17.904  -6.002  1.00  0.00     0.209 C 
ENDBRANCH   1  22
BRANCH  18  24
HETATM   24  O9  UNL     1      19.010 -15.274  -4.012  1.00  0.00    -0.371 OA
ATOM     25  H9  UNL     1      19.123 -14.423  -3.605  1.00  0.00     0.211 HD
ENDBRANCH  18  24
BRANCH   5  26
HETATM   26  O5  UNL     1      19.222 -17.315  -1.075  1.00  0.00    -0.371 OA
ATOM     27  H5  UNL     1      18.909 -17.089  -0.207  1.00  0.00     0.211 HD
ENDBRANCH   5  26
BRANCH  11  28
HETATM   28  O7  UNL     1      20.752 -10.944   1.034  1.00  0.00    -0.361 OA
ATOM     29  H7  UNL     1      21.565 -11.063   1.511  1.00  0.00     0.217 HD
ENDBRANCH  11  28
TORSDOF 5
ENDMDL
MODEL 4
REMARK VINA RESULT: -5.698495531      1.578      3.073
REMARK  5 active torsions:
REMARK  status: ('A' for Active; 'I' for Inactive)
REMARK    1  A    between atoms: O1_2  and  C2_3 
REMARK    2  A    between atoms: C3_4  and  N1_5 
REMARK    3  A    between atoms: C5_10  and  O5_11 
REMARK    4  A    between atoms: C10_18  and  O7_19 
REMARK    5  A    between atoms: C14_27  and  O9_28 
ROOT
HETATM    1  C2  UNL     1      19.015 -15.040  -1.825  1.00  0.00     0.131 C 
HETATM    2  C3  UNL     1      20.314 -14.889  -1.621  1.00  0.00     0.185 C 
HETATM    3  C4  UNL     1      21.059 -15.756  -2.540  1.00  0.00     0.231 C 
HETATM    4  O4  UNL     1      22.220 -15.540  -2.930  1.00  0.00    -0.286 OA
HETATM    5  C5  UNL     1      20.085 -16.840  -2.815  1.00  0.00     0.236 C 
HETATM    6  C6  UNL     1      20.377 -17.591  -4.042  1.00  0.00     0.208 C 
HETATM    7  O6  UNL     1      21.456 -17.476  -4.637  1.00  0.00    -0.288 OA
HETATM    8  C7  UNL     1      19.450 -18.533  -4.680  1.00  0.00     0.040 A 
HETATM    9  C8  UNL     1      20.096 -19.364  -5.568  1.00  0.00     0.020 A 
HETATM   10  C9  UNL     1      19.358 -20.308  -6.248  1.00  0.00     0.037 A 
HETATM   11  C10 UNL     1      17.996 -20.433  -6.058  1.00  0.00     0.067 A 
HETATM   12  C11 UNL     1      17.346 -19.605  -5.171  1.00  0.00     0.067 A 
HETATM   13  C12 UNL     1      18.069 -18.654  -4.481  1.00  0.00     0.051 A 
HETATM   14  N2  UNL     1      17.224 -17.901  -3.619  1.00  0.00    -0.323 N 
ATOM     15  H2  UNL     1      16.239 -18.164  -3.604  1.00  0.00     0.169 HD
HETATM   16  C13 UNL     1      17.603 -16.825  -2.777  1.00  0.00     0.268 C 
HETATM   17  O8  UNL     1      16.833 -16.543  -1.834  1.00  0.00    -0.269 OA
HETATM   18  C14 UNL     1      18.823 -16.014  -2.919  1.00  0.00     0.236 C 
ENDROOT
BRANCH   2  19
HETATM   19  N1  UNL     1      20.846 -14.004  -0.625  1.00  0.00    -0.109 N 
HETATM   20  O2  UNL     1      21.369 -14.451   0.437  1.00  0.00    -0.532 OA
HETATM   21  O3  UNL     1      20.823 -12.636  -0.759  1.00  0.00    -0.532 OA
ENDBRANCH   2  19
BRANCH   1  22
HETATM   22  O1  UNL     1      17.980 -14.409  -1.153  1.00  0.00    -0.354 OA
HETATM   23  C1  UNL     1      17.820 -14.343   0.228  1.00  0.00     0.209 C 
ENDBRANCH   1  22
BRANCH  18  24
HETATM   24  O9  UNL     1      18.833 -15.272  -4.099  1.00  0.00    -0.371 OA
ATOM     25  H9  UNL     1      17.924 -15.181  -4.358  1.00  0.00     0.211 HD
ENDBRANCH  18  24
BRANCH   5  26
HETATM   26  O5  UNL     1      20.002 -17.653  -1.691  1.00  0.00    -0.371 OA
ATOM     27  H5  UNL     1      19.532 -17.183  -1.013  1.00  0.00     0.211 HD
ENDBRANCH   5  26
BRANCH  11  28
HETATM   28  O7  UNL     1      17.262 -21.408  -6.767  1.00  0.00    -0.361 OA
ATOM     29  H7  UNL     1      16.720 -21.159  -7.507  1.00  0.00     0.217 HD
ENDBRANCH  11  28
TORSDOF 5
ENDMDL
MODEL 5
REMARK VINA RESULT: -5.622099296      4.667      6.096
REMARK  5 active torsions:
REMARK  status: ('A' for Active; 'I' for Inactive)
REMARK    1  A    between atoms: O1_2  and  C2_3 
REMARK    2  A    between atoms: C3_4  and  N1_5 
REMARK    3  A    between atoms: C5_10  and  O5_11 
REMARK    4  A    between atoms: C10_18  and  O7_19 
REMARK    5  A    between atoms: C14_27  and  O9_28 
ROOT
HETATM    1  C2  UNL     1      17.575 -16.876  -0.793  1.00  0.00     0.131 C 
HETATM    2  C3  UNL     1      17.372 -15.910  -1.674  1.00  0.00     0.185 C 
HETATM    3  C4  UNL     1      15.933 -15.664  -1.811  1.00  0.00     0.231 C 
HETATM    4  O4  UNL     1      15.431 -14.584  -2.169  1.00  0.00    -0.286 OA
HETATM    5  C5  UNL     1      15.349 -16.971  -1.426  1.00  0.00     0.236 C 
HETATM    6  C6  UNL     1      13.939 -16.887  -1.027  1.00  0.00     0.208 C 
HETATM    7  O6  UNL     1      13.262 -15.871  -1.228  1.00  0.00    -0.288 OA
HETATM    8  C7  UNL     1      13.197 -17.966  -0.364  1.00  0.00     0.040 A 
HETATM    9  C8  UNL     1      11.835 -17.777  -0.448  1.00  0.00     0.020 A 
HETATM   10  C9  UNL     1      11.001 -18.710   0.128  1.00  0.00     0.037 A 
HETATM   11  C10 UNL     1      11.501 -19.819   0.783  1.00  0.00     0.067 A 
HETATM   12  C11 UNL     1      12.861 -20.011   0.869  1.00  0.00     0.067 A 
HETATM   13  C12 UNL     1      13.712 -19.088   0.298  1.00  0.00     0.051 A 
HETATM   14  N2  UNL     1      15.071 -19.461   0.493  1.00  0.00    -0.323 N 
ATOM     15  H2  UNL     1      15.235 -20.337   0.988  1.00  0.00     0.169 HD
HETATM   16  C13 UNL     1      16.222 -18.748   0.073  1.00  0.00     0.268 C 
HETATM   17  O8  UNL     1      17.290 -19.391  -0.010  1.00  0.00    -0.269 OA
HETATM   18  C14 UNL     1      16.265 -17.318  -0.274  1.00  0.00     0.236 C 
ENDROOT
BRANCH   2  19
HETATM   19  N1  UNL     1      18.444 -15.253  -2.368  1.00  0.00    -0.109 N 
HETATM   20  O2  UNL     1      18.758 -15.579  -3.548  1.00  0.00    -0.532 OA
HETATM   21  O3  UNL     1      19.184 -14.242  -1.801  1.00  0.00    -0.532 OA
ENDBRANCH   2  19
BRANCH   1  22
HETATM   22  O1  UNL     1      18.791 -17.408  -0.395  1.00  0.00    -0.354 OA
HETATM   23  C1  UNL     1      19.627 -16.896   0.593  1.00  0.00     0.209 C 
ENDBRANCH   1  22
BRANCH  18  24
HETATM   24  O9  UNL     1      15.989 -16.498   0.819  1.00  0.00    -0.371 OA
ATOM     25  H9  UNL     1      16.579 -16.777   1.510  1.00  0.00     0.211 HD
ENDBRANCH  18  24
BRANCH   5  26
HETATM   26  O5  UNL     1      15.564 -17.872  -2.461  1.00  0.00    -0.371 OA
ATOM     27  H5  UNL     1      16.213 -18.506  -2.180  1.00  0.00     0.211 HD
ENDBRANCH   5  26
BRANCH  11  28
HETATM   28  O7  UNL     1      10.625 -20.760   1.365  1.00  0.00    -0.361 OA
ATOM     29  H7  UNL     1      10.747 -21.039   2.265  1.00  0.00     0.217 HD
ENDBRANCH  11  28
TORSDOF 5
ENDMDL
