MODEL 1
REMARK VINA RESULT: -6.276739639      0.000      0.000
REMARK  2 active torsions:
REMARK  status: ('A' for Active; 'I' for Inactive)
REMARK    1  A    between atoms: O1_2  and  C2_3 
REMARK       I    between atoms: C2_3  and  N1_5 
REMARK    2  A    between atoms: N1_5  and  C3_7 
REMARK       I    between atoms: N5_20  and  C11_21 
ROOT
HETATM    1  C3  UNL     1       5.228 -22.071  -9.521  1.00  0.00     0.131 A 
HETATM    2  C4  UNL     1       5.540 -22.413 -10.805  1.00  0.00     0.098 A 
HETATM    3  N2  UNL     1       5.711 -23.778 -11.138  1.00  0.00    -0.099 NA
HETATM    4  C5  UNL     1       5.677 -21.388 -11.743  1.00  0.00     0.104 A 
HETATM    5  C6  UNL     1       5.988 -21.770 -13.022  1.00  0.00     0.267 A 
HETATM    6  O3  UNL     1       6.136 -22.998 -13.290  1.00  0.00    -0.267 OA
HETATM    7  N3  UNL     1       6.123 -20.808 -13.935  1.00  0.00    -0.270 N 
HETATM    8  C7  UNL     1       6.455 -21.218 -15.299  1.00  0.00     0.164 C 
HETATM    9  C8  UNL     1       5.961 -19.518 -13.616  1.00  0.00     0.332 A 
HETATM   10  O4  UNL     1       6.104 -18.649 -14.543  1.00  0.00    -0.246 OA
HETATM   11  N4  UNL     1       5.648 -19.063 -12.359  1.00  0.00    -0.288 N 
HETATM   12  C9  UNL     1       5.491 -17.666 -12.111  1.00  0.00     0.163 C 
HETATM   13  C10 UNL     1       5.514 -20.046 -11.441  1.00  0.00     0.141 A 
HETATM   14  N5  UNL     1       5.212 -19.731 -10.187  1.00  0.00    -0.234 N 
HETATM   15  C11 UNL     1       4.998 -18.473  -9.627  1.00  0.00     0.197 C 
HETATM   16  N6  UNL     1       3.850 -17.967  -9.593  1.00  0.00    -0.373 N 
ATOM     17  H61 UNL     1       3.693 -17.046  -9.184  1.00  0.00     0.158 HD
ATOM     18  H62 UNL     1       3.086 -18.448 -10.067  1.00  0.00     0.158 HD
HETATM   19  N7  UNL     1       6.042 -17.816  -8.980  1.00  0.00    -0.063 NA
HETATM   20  C12 UNL     1       5.074 -20.750  -9.251  1.00  0.00     0.284 A 
HETATM   21  O5  UNL     1       4.783 -20.465  -8.039  1.00  0.00    -0.265 OA
ENDROOT
BRANCH   1  22
HETATM   22  N1  UNL     1       5.071 -23.076  -8.505  1.00  0.00    -0.296 N 
HETATM   23  C2  UNL     1       6.138 -23.369  -7.650  1.00  0.00     0.364 C 
HETATM   24  O2  UNL     1       7.242 -22.776  -7.742  1.00  0.00    -0.238 OA
ATOM     25  H1  UNL     1       4.186 -23.573  -8.409  1.00  0.00     0.171 HD
BRANCH  23  26
HETATM   26  O1  UNL     1       5.989 -24.333  -6.675  1.00  0.00    -0.309 OA
HETATM   27  C1  UNL     1       7.126 -25.019  -6.159  1.00  0.00     0.215 C 
ENDBRANCH  23  26
ENDBRANCH   1  22
TORSDOF 2
ENDMDL
MODEL 2
REMARK VINA RESULT: -5.888062309      2.480      5.216
REMARK  2 active torsions:
REMARK  status: ('A' for Active; 'I' for Inactive)
REMARK    1  A    between atoms: O1_2  and  C2_3 
REMARK       I    between atoms: C2_3  and  N1_5 
REMARK    2  A    between atoms: N1_5  and  C3_7 
REMARK       I    between atoms: N5_20  and  C11_21 
ROOT
HETATM    1  C3  UNL     1       5.422 -19.346 -12.012  1.00  0.00     0.131 A 
HETATM    2  C4  UNL     1       5.919 -19.884 -13.163  1.00  0.00     0.098 A 
HETATM    3  N2  UNL     1       6.254 -19.030 -14.241  1.00  0.00    -0.099 NA
HETATM    4  C5  UNL     1       6.075 -21.270 -13.226  1.00  0.00     0.104 A 
HETATM    5  C6  UNL     1       6.579 -21.774 -14.398  1.00  0.00     0.267 A 
HETATM    6  O3  UNL     1       6.870 -20.986 -15.344  1.00  0.00    -0.267 OA
HETATM    7  N3  UNL     1       6.738 -23.095 -14.480  1.00  0.00    -0.270 N 
HETATM    8  C7  UNL     1       7.276 -23.630 -15.730  1.00  0.00     0.164 C 
HETATM    9  C8  UNL     1       6.420 -23.900 -13.458  1.00  0.00     0.332 A 
HETATM   10  O4  UNL     1       6.600 -25.156 -13.607  1.00  0.00    -0.246 OA
HETATM   11  N4  UNL     1       5.913 -23.467 -12.258  1.00  0.00    -0.288 N 
HETATM   12  C9  UNL     1       5.603 -24.399 -11.222  1.00  0.00     0.163 C 
HETATM   13  C10 UNL     1       5.755 -22.126 -12.185  1.00  0.00     0.141 A 
HETATM   14  N5  UNL     1       5.272 -21.586 -11.073  1.00  0.00    -0.234 N 
HETATM   15  C11 UNL     1       4.875 -22.215  -9.894  1.00  0.00     0.197 C 
HETATM   16  N6  UNL     1       5.688 -22.403  -8.957  1.00  0.00    -0.373 N 
ATOM     17  H61 UNL     1       5.398 -22.863  -8.094  1.00  0.00     0.158 HD
ATOM     18  H62 UNL     1       6.671 -22.175  -9.103  1.00  0.00     0.158 HD
HETATM   19  N7  UNL     1       3.532 -22.527  -9.694  1.00  0.00    -0.063 NA
HETATM   20  C12 UNL     1       5.115 -20.206 -11.007  1.00  0.00     0.284 A 
HETATM   21  O5  UNL     1       4.652 -19.668  -9.943  1.00  0.00    -0.265 OA
ENDROOT
BRANCH   1  22
HETATM   22  N1  UNL     1       5.236 -17.927 -11.879  1.00  0.00    -0.296 N 
HETATM   23  C2  UNL     1       6.215 -17.157 -11.244  1.00  0.00     0.364 C 
HETATM   24  O2  UNL     1       7.263 -17.669 -10.781  1.00  0.00    -0.238 OA
ATOM     25  H1  UNL     1       4.393 -17.485 -12.245  1.00  0.00     0.171 HD
BRANCH  23  26
HETATM   26  O1  UNL     1       6.037 -15.795 -11.115  1.00  0.00    -0.309 OA
HETATM   27  C1  UNL     1       5.704 -15.000 -12.250  1.00  0.00     0.215 C 
ENDBRANCH  23  26
ENDBRANCH   1  22
TORSDOF 2
ENDMDL
MODEL 3
REMARK VINA RESULT: -5.729896292      2.296      4.954
REMARK  2 active torsions:
REMARK  status: ('A' for Active; 'I' for Inactive)
REMARK    1  A    between atoms: O1_2  and  C2_3 
REMARK       I    between atoms: C2_3  and  N1_5 
REMARK    2  A    between atoms: N1_5  and  C3_7 
REMARK       I    between atoms: N5_20  and  C11_21 
ROOT
HETATM    1  C3  UNL     1       6.009 -22.102 -13.074  1.00  0.00     0.131 A 
HETATM    2  C4  UNL     1       6.099 -20.796 -13.457  1.00  0.00     0.098 A 
HETATM    3  N2  UNL     1       6.492 -20.486 -14.781  1.00  0.00    -0.099 NA
HETATM    4  C5  UNL     1       5.796 -19.812 -12.514  1.00  0.00     0.104 A 
HETATM    5  C6  UNL     1       5.896 -18.512 -12.936  1.00  0.00     0.267 A 
HETATM    6  O3  UNL     1       6.250 -18.265 -14.126  1.00  0.00    -0.267 OA
HETATM    7  N3  UNL     1       5.610 -17.556 -12.053  1.00  0.00    -0.270 N 
HETATM    8  C7  UNL     1       5.717 -16.169 -12.505  1.00  0.00     0.164 C 
HETATM    9  C8  UNL     1       5.240 -17.852 -10.801  1.00  0.00     0.332 A 
HETATM   10  O4  UNL     1       4.980 -16.884 -10.008  1.00  0.00    -0.246 OA
HETATM   11  N4  UNL     1       5.118 -19.129 -10.310  1.00  0.00    -0.288 N 
HETATM   12  C9  UNL     1       4.713 -19.351  -8.959  1.00  0.00     0.163 C 
HETATM   13  C10 UNL     1       5.410 -20.090 -11.214  1.00  0.00     0.141 A 
HETATM   14  N5  UNL     1       5.328 -21.366 -10.857  1.00  0.00    -0.234 N 
HETATM   15  C11 UNL     1       4.968 -21.911  -9.625  1.00  0.00     0.197 C 
HETATM   16  N6  UNL     1       3.774 -22.192  -9.367  1.00  0.00    -0.373 N 
ATOM     17  H61 UNL     1       3.510 -22.590  -8.466  1.00  0.00     0.158 HD
ATOM     18  H62 UNL     1       3.050 -21.929 -10.035  1.00  0.00     0.158 HD
HETATM   19  N7  UNL     1       5.957 -22.270  -8.711  1.00  0.00    -0.063 NA
HETATM   20  C12 UNL     1       5.629 -22.349 -11.794  1.00  0.00     0.284 A 
HETATM   21  O5  UNL     1       5.555 -23.583 -11.468  1.00  0.00    -0.265 OA
ENDROOT
BRANCH   1  22
HETATM   22  N1  UNL     1       6.306 -23.166 -13.994  1.00  0.00    -0.296 N 
HETATM   23  C2  UNL     1       5.307 -23.641 -14.848  1.00  0.00     0.364 C 
HETATM   24  O2  UNL     1       4.145 -23.166 -14.837  1.00  0.00    -0.238 OA
ATOM     25  H1  UNL     1       7.242 -23.571 -14.024  1.00  0.00     0.171 HD
BRANCH  23  26
HETATM   26  O1  UNL     1       5.590 -24.663 -15.732  1.00  0.00    -0.309 OA
HETATM   27  C1  UNL     1       6.854 -25.319 -15.695  1.00  0.00     0.215 C 
ENDBRANCH  23  26
ENDBRANCH   1  22
TORSDOF 2
ENDMDL
MODEL 4
REMARK VINA RESULT: -5.704721718     11.905     14.603
REMARK  2 active torsions:
REMARK  status: ('A' for Active; 'I' for Inactive)
REMARK    1  A    between atoms: O1_2  and  C2_3 
REMARK       I    between atoms: C2_3  and  N1_5 
REMARK    2  A    between atoms: N1_5  and  C3_7 
REMARK       I    between atoms: N5_20  and  C11_21 
ROOT
HETATM    1  C3  UNL     1      14.676 -18.075   0.760  1.00  0.00     0.131 A 
HETATM    2  C4  UNL     1      14.845 -19.403   1.025  1.00  0.00     0.098 A 
HETATM    3  N2  UNL     1      16.111 -19.871   1.450  1.00  0.00    -0.099 NA
HETATM    4  C5  UNL     1      13.746 -20.249   0.862  1.00  0.00     0.104 A 
HETATM    5  C6  UNL     1      13.954 -21.576   1.139  1.00  0.00     0.267 A 
HETATM    6  O3  UNL     1      15.097 -21.965   1.517  1.00  0.00    -0.267 OA
HETATM    7  N3  UNL     1      12.919 -22.403   0.991  1.00  0.00    -0.270 N 
HETATM    8  C7  UNL     1      13.142 -23.818   1.288  1.00  0.00     0.164 C 
HETATM    9  C8  UNL     1      11.723 -21.957   0.589  1.00  0.00     0.332 A 
HETATM   10  O4  UNL     1      10.775 -22.807   0.470  1.00  0.00    -0.246 OA
HETATM   11  N4  UNL     1      11.442 -20.645   0.295  1.00  0.00    -0.288 N 
HETATM   12  C9  UNL     1      10.134 -20.260  -0.126  1.00  0.00     0.163 C 
HETATM   13  C10 UNL     1      12.498 -19.815   0.448  1.00  0.00     0.141 A 
HETATM   14  N5  UNL     1      12.352 -18.521   0.194  1.00  0.00    -0.234 N 
HETATM   15  C11 UNL     1      11.215 -17.834  -0.232  1.00  0.00     0.197 C 
HETATM   16  N6  UNL     1      10.412 -17.340   0.594  1.00  0.00    -0.373 N 
ATOM     17  H61 UNL     1       9.580 -16.837   0.283  1.00  0.00     0.158 HD
ATOM     18  H62 UNL     1      10.548 -17.527   1.587  1.00  0.00     0.158 HD
HETATM   19  N7  UNL     1      11.029 -17.579  -1.589  1.00  0.00    -0.063 NA
HETATM   20  C12 UNL     1      13.443 -17.675   0.355  1.00  0.00     0.284 A 
HETATM   21  O5  UNL     1      13.320 -16.424   0.116  1.00  0.00    -0.265 OA
ENDROOT
BRANCH   1  22
HETATM   22  N1  UNL     1      15.764 -17.147   0.907  1.00  0.00    -0.296 N 
HETATM   23  C2  UNL     1      16.622 -16.910  -0.170  1.00  0.00     0.364 C 
HETATM   24  O2  UNL     1      16.473 -17.488  -1.275  1.00  0.00    -0.238 OA
ATOM     25  H1  UNL     1      15.908 -16.664   1.794  1.00  0.00     0.171 HD
BRANCH  23  26
HETATM   26  O1  UNL     1      17.667 -16.020  -0.030  1.00  0.00    -0.309 OA
HETATM   27  C1  UNL     1      17.610 -14.737  -0.646  1.00  0.00     0.215 C 
ENDBRANCH  23  26
ENDBRANCH   1  22
TORSDOF 2
ENDMDL
MODEL 5
REMARK VINA RESULT: -5.612727750     11.409     13.324
REMARK  2 active torsions:
REMARK  status: ('A' for Active; 'I' for Inactive)
REMARK    1  A    between atoms: O1_2  and  C2_3 
REMARK       I    between atoms: C2_3  and  N1_5 
REMARK    2  A    between atoms: N1_5  and  C3_7 
REMARK       I    between atoms: N5_20  and  C11_21 
ROOT
HETATM    1  C3  UNL     1       9.100 -21.822   1.235  1.00  0.00     0.131 A 
HETATM    2  C4  UNL     1       9.490 -20.514   1.247  1.00  0.00     0.098 A 
HETATM    3  N2  UNL     1       8.529 -19.504   1.487  1.00  0.00    -0.099 NA
HETATM    4  C5  UNL     1      10.838 -20.230   1.017  1.00  0.00     0.104 A 
HETATM    5  C6  UNL     1      11.193 -18.905   1.039  1.00  0.00     0.267 A 
HETATM    6  O3  UNL     1      10.311 -18.024   1.256  1.00  0.00    -0.267 OA
HETATM    7  N3  UNL     1      12.475 -18.610   0.824  1.00  0.00    -0.270 N 
HETATM    8  C7  UNL     1      12.852 -17.196   0.847  1.00  0.00     0.164 C 
HETATM    9  C8  UNL     1      13.382 -19.568   0.596  1.00  0.00     0.332 A 
HETATM   10  O4  UNL     1      14.593 -19.211   0.399  1.00  0.00    -0.246 OA
HETATM   11  N4  UNL     1      13.100 -20.911   0.561  1.00  0.00    -0.288 N 
HETATM   12  C9  UNL     1      14.133 -21.864   0.313  1.00  0.00     0.163 C 
HETATM   13  C10 UNL     1      11.797 -21.200   0.780  1.00  0.00     0.141 A 
HETATM   14  N5  UNL     1      11.400 -22.466   0.771  1.00  0.00    -0.234 N 
HETATM   15  C11 UNL     1      12.154 -23.620   0.559  1.00  0.00     0.197 C 
HETATM   16  N6  UNL     1      12.689 -24.227   1.517  1.00  0.00    -0.373 N 
ATOM     17  H61 UNL     1      13.240 -25.071   1.362  1.00  0.00     0.158 HD
ATOM     18  H62 UNL     1      12.646 -23.814   2.448  1.00  0.00     0.158 HD
HETATM   19  N7  UNL     1      12.212 -24.184  -0.713  1.00  0.00    -0.063 NA
HETATM   20  C12 UNL     1      10.059 -22.754   0.999  1.00  0.00     0.284 A 
HETATM   21  O5  UNL     1       9.658 -23.968   0.995  1.00  0.00    -0.265 OA
ENDROOT
BRANCH   1  22
HETATM   22  N1  UNL     1       7.728 -22.186   1.464  1.00  0.00    -0.296 N 
HETATM   23  C2  UNL     1       6.851 -22.295   0.381  1.00  0.00     0.364 C 
HETATM   24  O2  UNL     1       7.226 -22.083  -0.799  1.00  0.00    -0.238 OA
ATOM     25  H1  UNL     1       7.397 -22.364   2.412  1.00  0.00     0.171 HD
BRANCH  23  26
HETATM   26  O1  UNL     1       5.534 -22.644   0.599  1.00  0.00    -0.309 OA
HETATM   27  C1  UNL     1       4.826 -23.425  -0.359  1.00  0.00     0.215 C 
ENDBRANCH  23  26
ENDBRANCH   1  22
TORSDOF 2
ENDMDL
