MODEL 1
REMARK VINA RESULT: -6.031650685      0.000      0.000
REMARK  8 active torsions:
REMARK  status: ('A' for Active; 'I' for Inactive)
REMARK    1  A    between atoms: N1_1  and  N2_4 
REMARK    2  A    between atoms: N2_4  and  C1_6 
REMARK    3  A    between atoms: C1_6  and  O1_7 
REMARK    4  A    between atoms: C1_6  and  N3_9 
REMARK    5  A    between atoms: N4_11  and  O2_12 
REMARK    6  A    between atoms: C4_15  and  O3_16 
REMARK    7  A    between atoms: C10_24  and  S2_25 
REMARK    8  A    between atoms: S2_25  and  N5_26 
ROOT
HETATM    1  N3  UNL     1       5.448 -18.487 -10.405  1.00  0.00    -0.223 N 
HETATM    2  C2  UNL     1       5.583 -19.559 -11.215  1.00  0.00     0.165 A 
HETATM    3  N4  UNL     1       5.889 -19.710 -12.501  1.00  0.00    -0.202 N 
HETATM    4  C3  UNL     1       5.988 -20.800 -13.247  1.00  0.00     0.115 A 
HETATM    5  C4  UNL     1       6.348 -20.660 -14.602  1.00  0.00     0.096 A 
HETATM    6  C5  UNL     1       6.483 -21.713 -15.463  1.00  0.00     0.039 A 
HETATM    7  C6  UNL     1       6.269 -22.990 -15.036  1.00  0.00     0.004 A 
HETATM    8  C7  UNL     1       5.915 -23.173 -13.713  1.00  0.00     0.021 A 
HETATM    9  C8  UNL     1       5.782 -22.103 -12.858  1.00  0.00     0.037 A 
HETATM   10  S1  UNL     1       5.353 -22.252 -11.220  1.00  0.00    -0.082 SA
HETATM   11  C9  UNL     1       5.270 -20.762 -10.407  1.00  0.00     0.079 A 
HETATM   12  C10 UNL     1       4.960 -20.314  -9.148  1.00  0.00     0.141 A 
HETATM   13  C11 UNL     1       5.064 -18.954  -9.148  1.00  0.00     0.279 A 
HETATM   14  O5  UNL     1       4.835 -18.275  -8.128  1.00  0.00    -0.266 OA
ENDROOT
BRANCH   1  15
HETATM   15  C1  UNL     1       5.797 -17.142 -10.553  1.00  0.00     0.247 C 
BRANCH  15  16
HETATM   16  N2  UNL     1       5.313 -16.044 -11.227  1.00  0.00    -0.271 N 
ATOM     17  H2  UNL     1       4.694 -15.392 -10.746  1.00  0.00     0.190 HD
BRANCH  16  18
HETATM   18  N1  UNL     1       5.671 -15.802 -12.611  1.00  0.00    -0.342 N 
ATOM     19  H12 UNL     1       5.655 -16.586 -13.262  1.00  0.00     0.176 HD
ATOM     20  H11 UNL     1       5.933 -14.869 -12.929  1.00  0.00     0.176 HD
ENDBRANCH  16  18
ENDBRANCH  15  16
BRANCH  15  21
HETATM   21  O1  UNL     1       6.905 -16.807  -9.874  1.00  0.00    -0.331 OA
ATOM     22  H1  UNL     1       6.921 -17.262  -9.040  1.00  0.00     0.221 HD
ENDBRANCH  15  21
ENDBRANCH   1  15
BRANCH   3  23
HETATM   23  O2  UNL     1       6.019 -18.517 -13.224  1.00  0.00    -0.281 OA
ATOM     24  H2  UNL     1       6.910 -18.280 -13.451  1.00  0.00     0.245 HD
ENDBRANCH   3  23
BRANCH  12  25
HETATM   25  S2  UNL     1       4.518 -21.382  -7.836  1.00  0.00     0.151 S 
HETATM   26  O4  UNL     1       5.814 -22.374  -7.489  1.00  0.00    -0.230 OA
BRANCH  25  27
HETATM   27  N5  UNL     1       3.105 -22.305  -8.255  1.00  0.00    -0.345 NA
ATOM     28  H52 UNL     1       2.523 -21.810  -8.931  1.00  0.00     0.166 HD
ATOM     29  H51 UNL     1       2.548 -22.501  -7.423  1.00  0.00     0.166 HD
ENDBRANCH  25  27
ENDBRANCH  12  25
BRANCH   5  30
HETATM   30  O3  UNL     1       6.586 -19.383 -15.130  1.00  0.00    -0.358 OA
ATOM     31  H3  UNL     1       6.999 -19.294 -15.982  1.00  0.00     0.217 HD
ENDBRANCH   5  30
TORSDOF 8
ENDMDL
MODEL 2
REMARK VINA RESULT: -5.985145637      8.094     10.303
REMARK  8 active torsions:
REMARK  status: ('A' for Active; 'I' for Inactive)
REMARK    1  A    between atoms: N1_1  and  N2_4 
REMARK    2  A    between atoms: N2_4  and  C1_6 
REMARK    3  A    between atoms: C1_6  and  O1_7 
REMARK    4  A    between atoms: C1_6  and  N3_9 
REMARK    5  A    between atoms: N4_11  and  O2_12 
REMARK    6  A    between atoms: C4_15  and  O3_16 
REMARK    7  A    between atoms: C10_24  and  S2_25 
REMARK    8  A    between atoms: S2_25  and  N5_26 
ROOT
HETATM    1  N3  UNL     1      11.711 -16.478  -7.177  1.00  0.00    -0.223 N 
HETATM    2  C2  UNL     1      12.238 -15.470  -7.904  1.00  0.00     0.165 A 
HETATM    3  N4  UNL     1      13.238 -14.615  -7.706  1.00  0.00    -0.202 N 
HETATM    4  C3  UNL     1      13.697 -13.627  -8.459  1.00  0.00     0.115 A 
HETATM    5  C4  UNL     1      14.797 -12.880  -7.995  1.00  0.00     0.096 A 
HETATM    6  C5  UNL     1      15.356 -11.843  -8.688  1.00  0.00     0.039 A 
HETATM    7  C6  UNL     1      14.858 -11.472  -9.903  1.00  0.00     0.004 A 
HETATM    8  C7  UNL     1      13.778 -12.179 -10.397  1.00  0.00     0.021 A 
HETATM    9  C8  UNL     1      13.227 -13.220  -9.686  1.00  0.00     0.037 A 
HETATM   10  S1  UNL     1      11.902 -14.136 -10.232  1.00  0.00    -0.082 SA
HETATM   11  C9  UNL     1      11.439 -15.362  -9.149  1.00  0.00     0.079 A 
HETATM   12  C10 UNL     1      10.468 -16.329  -9.072  1.00  0.00     0.141 A 
HETATM   13  C11 UNL     1      10.630 -16.994  -7.893  1.00  0.00     0.279 A 
HETATM   14  O5  UNL     1       9.880 -17.932  -7.556  1.00  0.00    -0.266 OA
ENDROOT
BRANCH   1  15
HETATM   15  C1  UNL     1      12.156 -17.154  -6.038  1.00  0.00     0.247 C 
BRANCH  15  16
HETATM   16  N2  UNL     1      12.638 -16.820  -4.793  1.00  0.00    -0.271 N 
ATOM     17  H2  UNL     1      12.031 -16.337  -4.131  1.00  0.00     0.190 HD
BRANCH  16  18
HETATM   18  N1  UNL     1      13.998 -17.145  -4.409  1.00  0.00    -0.342 N 
ATOM     19  H12 UNL     1      14.608 -17.579  -5.101  1.00  0.00     0.176 HD
ATOM     20  H11 UNL     1      14.340 -16.944  -3.470  1.00  0.00     0.176 HD
ENDBRANCH  16  18
ENDBRANCH  15  16
BRANCH  15  21
HETATM   21  O1  UNL     1      12.125 -18.488  -6.170  1.00  0.00    -0.331 OA
ATOM     22  H1  UNL     1      12.461 -18.735  -7.025  1.00  0.00     0.221 HD
ENDBRANCH  15  21
ENDBRANCH   1  15
BRANCH   3  23
HETATM   23  O2  UNL     1      13.839 -14.688  -6.443  1.00  0.00    -0.281 OA
ATOM     24  H2  UNL     1      14.656 -14.211  -6.359  1.00  0.00     0.245 HD
ENDBRANCH   3  23
BRANCH  12  25
HETATM   25  S2  UNL     1       9.275 -16.585 -10.323  1.00  0.00     0.151 S 
HETATM   26  O4  UNL     1       9.009 -15.143 -11.119  1.00  0.00    -0.230 OA
BRANCH  25  27
HETATM   27  N5  UNL     1       7.804 -17.214  -9.639  1.00  0.00    -0.345 NA
ATOM     28  H52 UNL     1       7.468 -18.024 -10.160  1.00  0.00     0.166 HD
ATOM     29  H51 UNL     1       7.078 -16.498  -9.637  1.00  0.00     0.166 HD
ENDBRANCH  25  27
ENDBRANCH  12  25
BRANCH   5  30
HETATM   30  O3  UNL     1      15.375 -13.189  -6.755  1.00  0.00    -0.358 OA
ATOM     31  H3  UNL     1      16.170 -13.709  -6.723  1.00  0.00     0.217 HD
ENDBRANCH   5  30
TORSDOF 8
ENDMDL
MODEL 3
REMARK VINA RESULT: -5.752541315      2.366      5.299
REMARK  8 active torsions:
REMARK  status: ('A' for Active; 'I' for Inactive)
REMARK    1  A    between atoms: N1_1  and  N2_4 
REMARK    2  A    between atoms: N2_4  and  C1_6 
REMARK    3  A    between atoms: C1_6  and  O1_7 
REMARK    4  A    between atoms: C1_6  and  N3_9 
REMARK    5  A    between atoms: N4_11  and  O2_12 
REMARK    6  A    between atoms: C4_15  and  O3_16 
REMARK    7  A    between atoms: C10_24  and  S2_25 
REMARK    8  A    between atoms: S2_25  and  N5_26 
ROOT
HETATM    1  N3  UNL     1       6.082 -20.085 -13.366  1.00  0.00    -0.223 N 
HETATM    2  C2  UNL     1       5.706 -20.717 -12.234  1.00  0.00     0.165 A 
HETATM    3  N4  UNL     1       5.291 -20.302 -11.040  1.00  0.00    -0.202 N 
HETATM    4  C3  UNL     1       4.950 -20.980  -9.955  1.00  0.00     0.115 A 
HETATM    5  C4  UNL     1       4.531 -20.266  -8.816  1.00  0.00     0.096 A 
HETATM    6  C5  UNL     1       4.154 -20.860  -7.644  1.00  0.00     0.039 A 
HETATM    7  C6  UNL     1       4.166 -22.218  -7.520  1.00  0.00     0.004 A 
HETATM    8  C7  UNL     1       4.572 -22.959  -8.614  1.00  0.00     0.021 A 
HETATM    9  C8  UNL     1       4.949 -22.345  -9.787  1.00  0.00     0.037 A 
HETATM   10  S1  UNL     1       5.455 -23.191 -11.172  1.00  0.00    -0.082 SA
HETATM   11  C9  UNL     1       5.854 -22.174 -12.474  1.00  0.00     0.079 A 
HETATM   12  C10 UNL     1       6.324 -22.309 -13.756  1.00  0.00     0.141 A 
HETATM   13  C11 UNL     1       6.462 -21.062 -14.288  1.00  0.00     0.279 A 
HETATM   14  O5  UNL     1       6.876 -20.882 -15.450  1.00  0.00    -0.266 OA
ENDROOT
BRANCH   1  15
HETATM   15  C1  UNL     1       5.967 -18.759 -13.790  1.00  0.00     0.247 C 
BRANCH  15  16
HETATM   16  N2  UNL     1       6.296 -17.514 -13.304  1.00  0.00    -0.271 N 
ATOM     17  H2  UNL     1       7.261 -17.191 -13.363  1.00  0.00     0.190 HD
BRANCH  16  18
HETATM   18  N1  UNL     1       5.289 -16.656 -12.711  1.00  0.00    -0.342 N 
ATOM     19  H12 UNL     1       4.399 -16.543 -13.195  1.00  0.00     0.176 HD
ATOM     20  H11 UNL     1       5.464 -16.175 -11.829  1.00  0.00     0.176 HD
ENDBRANCH  16  18
ENDBRANCH  15  16
BRANCH  15  21
HETATM   21  O1  UNL     1       5.368 -18.637 -14.984  1.00  0.00    -0.331 OA
ATOM     22  H1  UNL     1       4.504 -19.031 -14.952  1.00  0.00     0.221 HD
ENDBRANCH  15  21
ENDBRANCH   1  15
BRANCH   3  23
HETATM   23  O2  UNL     1       5.325 -18.914 -10.851  1.00  0.00    -0.281 OA
ATOM     24  H2  UNL     1       5.479 -18.635  -9.957  1.00  0.00     0.245 HD
ENDBRANCH   3  23
BRANCH  12  25
HETATM   25  S2  UNL     1       6.658 -23.860 -14.491  1.00  0.00     0.151 S 
HETATM   26  O4  UNL     1       7.146 -24.926 -13.303  1.00  0.00    -0.230 OA
BRANCH  25  27
HETATM   27  N5  UNL     1       7.865 -23.696 -15.732  1.00  0.00    -0.345 NA
ATOM     28  H52 UNL     1       7.853 -24.490 -16.372  1.00  0.00     0.166 HD
ATOM     29  H51 UNL     1       8.794 -23.620 -15.318  1.00  0.00     0.166 HD
ENDBRANCH  25  27
ENDBRANCH  12  25
BRANCH   5  30
HETATM   30  O3  UNL     1       4.486 -18.864  -8.851  1.00  0.00    -0.358 OA
ATOM     31  H3  UNL     1       3.659 -18.416  -8.716  1.00  0.00     0.217 HD
ENDBRANCH   5  30
TORSDOF 8
ENDMDL
MODEL 4
REMARK VINA RESULT: -5.729351902      1.497      1.624
REMARK  8 active torsions:
REMARK  status: ('A' for Active; 'I' for Inactive)
REMARK    1  A    between atoms: N1_1  and  N2_4 
REMARK    2  A    between atoms: N2_4  and  C1_6 
REMARK    3  A    between atoms: C1_6  and  O1_7 
REMARK    4  A    between atoms: C1_6  and  N3_9 
REMARK    5  A    between atoms: N4_11  and  O2_12 
REMARK    6  A    between atoms: C4_15  and  O3_16 
REMARK    7  A    between atoms: C10_24  and  S2_25 
REMARK    8  A    between atoms: S2_25  and  N5_26 
ROOT
HETATM    1  N3  UNL     1       5.531 -18.403 -11.344  1.00  0.00    -0.223 N 
HETATM    2  C2  UNL     1       5.658 -19.643 -11.864  1.00  0.00     0.165 A 
HETATM    3  N4  UNL     1       5.924 -20.109 -13.081  1.00  0.00    -0.202 N 
HETATM    4  C3  UNL     1       6.019 -21.350 -13.534  1.00  0.00     0.115 A 
HETATM    5  C4  UNL     1       6.329 -21.551 -14.893  1.00  0.00     0.096 A 
HETATM    6  C5  UNL     1       6.455 -22.785 -15.467  1.00  0.00     0.039 A 
HETATM    7  C6  UNL     1       6.281 -23.916 -14.726  1.00  0.00     0.004 A 
HETATM    8  C7  UNL     1       5.974 -23.765 -13.387  1.00  0.00     0.021 A 
HETATM    9  C8  UNL     1       5.851 -22.516 -12.824  1.00  0.00     0.037 A 
HETATM   10  S1  UNL     1       5.480 -22.253 -11.185  1.00  0.00    -0.082 SA
HETATM   11  C9  UNL     1       5.397 -20.608 -10.768  1.00  0.00     0.079 A 
HETATM   12  C10 UNL     1       5.120 -19.860  -9.651  1.00  0.00     0.141 A 
HETATM   13  C11 UNL     1       5.198 -18.544  -9.996  1.00  0.00     0.279 A 
HETATM   14  O5  UNL     1       4.991 -17.632  -9.171  1.00  0.00    -0.266 OA
ENDROOT
BRANCH   1  15
HETATM   15  C1  UNL     1       5.849 -17.135 -11.836  1.00  0.00     0.247 C 
BRANCH  15  16
HETATM   16  N2  UNL     1       6.860 -16.215 -11.674  1.00  0.00    -0.271 N 
ATOM     17  H2  UNL     1       6.690 -15.236 -11.902  1.00  0.00     0.190 HD
BRANCH  16  18
HETATM   18  N1  UNL     1       8.163 -16.619 -11.184  1.00  0.00    -0.342 N 
ATOM     19  H12 UNL     1       8.352 -16.545 -10.184  1.00  0.00     0.176 HD
ATOM     20  H11 UNL     1       8.877 -16.970 -11.821  1.00  0.00     0.176 HD
ENDBRANCH  16  18
ENDBRANCH  15  16
BRANCH  15  21
HETATM   21  O1  UNL     1       4.932 -16.656 -12.691  1.00  0.00    -0.331 OA
ATOM     22  H1  UNL     1       4.880 -17.218 -13.455  1.00  0.00     0.221 HD
ENDBRANCH  15  21
ENDBRANCH   1  15
BRANCH   3  23
HETATM   23  O2  UNL     1       6.007 -19.134 -14.084  1.00  0.00    -0.281 OA
ATOM     24  H2  UNL     1       5.489 -18.354 -13.930  1.00  0.00     0.245 HD
ENDBRANCH   3  23
BRANCH  12  25
HETATM   25  S2  UNL     1       4.744 -20.569  -8.098  1.00  0.00     0.151 S 
HETATM   26  O4  UNL     1       3.150 -21.063  -8.102  1.00  0.00    -0.230 OA
BRANCH  25  27
HETATM   27  N5  UNL     1       5.053 -19.430  -6.821  1.00  0.00    -0.345 NA
ATOM     28  H52 UNL     1       5.924 -18.923  -6.976  1.00  0.00     0.166 HD
ATOM     29  H51 UNL     1       5.107 -19.910  -5.922  1.00  0.00     0.166 HD
ENDBRANCH  25  27
ENDBRANCH  12  25
BRANCH   5  30
HETATM   30  O3  UNL     1       6.526 -20.445 -15.733  1.00  0.00    -0.358 OA
ATOM     31  H3  UNL     1       6.481 -20.555 -16.675  1.00  0.00     0.217 HD
ENDBRANCH   5  30
TORSDOF 8
ENDMDL
MODEL 5
REMARK VINA RESULT: -5.661531323      2.079      2.948
REMARK  8 active torsions:
REMARK  status: ('A' for Active; 'I' for Inactive)
REMARK    1  A    between atoms: N1_1  and  N2_4 
REMARK    2  A    between atoms: N2_4  and  C1_6 
REMARK    3  A    between atoms: C1_6  and  O1_7 
REMARK    4  A    between atoms: C1_6  and  N3_9 
REMARK    5  A    between atoms: N4_11  and  O2_12 
REMARK    6  A    between atoms: C4_15  and  O3_16 
REMARK    7  A    between atoms: C10_24  and  S2_25 
REMARK    8  A    between atoms: S2_25  and  N5_26 
ROOT
HETATM    1  N3  UNL     1       4.718 -20.166  -8.510  1.00  0.00    -0.223 N 
HETATM    2  C2  UNL     1       5.066 -20.390  -9.795  1.00  0.00     0.165 A 
HETATM    3  N4  UNL     1       5.373 -19.597 -10.818  1.00  0.00    -0.202 N 
HETATM    4  C3  UNL     1       5.692 -19.882 -12.072  1.00  0.00     0.115 A 
HETATM    5  C4  UNL     1       5.986 -18.822 -12.951  1.00  0.00     0.096 A 
HETATM    6  C5  UNL     1       6.329 -18.998 -14.263  1.00  0.00     0.039 A 
HETATM    7  C6  UNL     1       6.407 -20.250 -14.798  1.00  0.00     0.004 A 
HETATM    8  C7  UNL     1       6.126 -21.320 -13.970  1.00  0.00     0.021 A 
HETATM    9  C8  UNL     1       5.781 -21.127 -12.651  1.00  0.00     0.037 A 
HETATM   10  S1  UNL     1       5.426 -22.393 -11.574  1.00  0.00    -0.082 SA
HETATM   11  C9  UNL     1       5.038 -21.858 -10.008  1.00  0.00     0.079 A 
HETATM   12  C10 UNL     1       4.662 -22.416  -8.813  1.00  0.00     0.141 A 
HETATM   13  C11 UNL     1       4.468 -21.405  -7.919  1.00  0.00     0.279 A 
HETATM   14  O5  UNL     1       4.117 -21.624  -6.742  1.00  0.00    -0.266 OA
ENDROOT
BRANCH   1  15
HETATM   15  C1  UNL     1       4.763 -19.026  -7.704  1.00  0.00     0.247 C 
BRANCH  15  16
HETATM   16  N2  UNL     1       5.717 -18.129  -7.280  1.00  0.00    -0.271 N 
ATOM     17  H2  UNL     1       5.761 -17.870  -6.295  1.00  0.00     0.190 HD
BRANCH  16  18
HETATM   18  N1  UNL     1       6.660 -17.547  -8.215  1.00  0.00    -0.342 N 
ATOM     19  H12 UNL     1       7.489 -18.085  -8.469  1.00  0.00     0.176 HD
ATOM     20  H11 UNL     1       6.502 -16.622  -8.611  1.00  0.00     0.176 HD
ENDBRANCH  16  18
ENDBRANCH  15  16
BRANCH  15  21
HETATM   21  O1  UNL     1       3.571 -18.703  -7.179  1.00  0.00    -0.331 OA
ATOM     22  H1  UNL     1       3.696 -18.192  -6.388  1.00  0.00     0.221 HD
ENDBRANCH  15  21
ENDBRANCH   1  15
BRANCH   3  23
HETATM   23  O2  UNL     1       5.227 -18.226 -10.571  1.00  0.00    -0.281 OA
ATOM     24  H2  UNL     1       6.035 -17.727 -10.584  1.00  0.00     0.245 HD
ENDBRANCH   3  23
BRANCH  12  25
HETATM   25  S2  UNL     1       4.488 -24.140  -8.578  1.00  0.00     0.151 S 
HETATM   26  O4  UNL     1       3.096 -24.651  -9.341  1.00  0.00    -0.230 OA
BRANCH  25  27
HETATM   27  N5  UNL     1       4.459 -24.520  -6.881  1.00  0.00    -0.345 NA
ATOM     28  H52 UNL     1       3.506 -24.532  -6.517  1.00  0.00     0.166 HD
ATOM     29  H51 UNL     1       5.005 -23.838  -6.354  1.00  0.00     0.166 HD
ENDBRANCH  25  27
ENDBRANCH  12  25
BRANCH   5  30
HETATM   30  O3  UNL     1       5.931 -17.499 -12.489  1.00  0.00    -0.358 OA
ATOM     31  H3  UNL     1       5.770 -17.328 -11.569  1.00  0.00     0.217 HD
ENDBRANCH   5  30
TORSDOF 8
ENDMDL
