MODEL 1
REMARK VINA RESULT: -5.103234510      0.000      0.000
REMARK  3 active torsions:
REMARK  status: ('A' for Active; 'I' for Inactive)
REMARK    1  A    between atoms: S1_2  and  C2_3 
REMARK    2  A    between atoms: C5_10  and  N2_11 
REMARK    3  A    between atoms: C6_18  and  O2_19 
ROOT
HETATM    1  C2  UNL     1      18.806 -18.231  -2.792  1.00  0.00     0.157 C 
HETATM    2  S2  UNL     1      19.978 -17.568  -1.567  1.00  0.00    -0.120 SA
HETATM    3  C3  UNL     1      18.921 -16.140  -1.169  1.00  0.00     0.183 C 
HETATM    4  C4  UNL     1      19.064 -15.203  -2.345  1.00  0.00     0.247 C 
HETATM    5  O1  UNL     1      18.383 -15.375  -3.368  1.00  0.00    -0.271 OA
HETATM    6  N1  UNL     1      20.005 -14.163  -2.170  1.00  0.00    -0.310 N 
ATOM      7  H1  UNL     1      19.971 -13.362  -2.801  1.00  0.00     0.166 HD
HETATM    8  C5  UNL     1      20.999 -14.186  -1.145  1.00  0.00     0.490 C 
HETATM    9  N3  UNL     1      20.692 -15.039  -0.034  1.00  0.00     0.019 N 
ATOM     10  H31 UNL     1      20.993 -14.613   0.843  1.00  0.00     0.286 HD
ATOM     11  H32 UNL     1      21.290 -15.865  -0.034  1.00  0.00     0.286 HD
HETATM   12  C6  UNL     1      19.295 -15.416   0.032  1.00  0.00     0.345 C 
HETATM   13  C7  UNL     1      18.541 -14.136   0.052  1.00  0.00     0.131 C 
HETATM   14  N4  UNL     1      17.951 -13.144   0.051  1.00  0.00    -0.192 NA
HETATM   15  C8  UNL     1      17.589 -16.803  -1.204  1.00  0.00     0.175 C 
HETATM   16  C9  UNL     1      17.536 -17.766  -0.079  1.00  0.00     0.072 C 
HETATM   17  N5  UNL     1      17.483 -18.534   0.792  1.00  0.00    -0.196 NA
HETATM   18  C10 UNL     1      17.530 -17.597  -2.431  1.00  0.00     0.040 C 
HETATM   19  N6  UNL     1      16.455 -17.741  -3.148  1.00  0.00    -0.298 N 
ATOM     20  H6  UNL     1      16.500 -18.313  -3.992  1.00  0.00     0.177 HD
HETATM   21  C11 UNL     1      15.240 -17.138  -2.804  1.00  0.00     0.181 C 
HETATM   22  N7  UNL     1      14.230 -16.648  -2.508  1.00  0.00    -0.172 NA
ENDROOT
BRANCH  12  23
HETATM   23  O2  UNL     1      19.077 -16.018   1.242  1.00  0.00    -0.352 OA
ATOM     24  H2  UNL     1      19.778 -16.002   1.882  1.00  0.00     0.213 HD
ENDBRANCH  12  23
BRANCH   8  25
HETATM   25  N2  UNL     1      21.308 -12.858  -0.636  1.00  0.00    -0.032 N 
ATOM     26  H23 UNL     1      22.056 -12.423  -1.176  1.00  0.00     0.278 HD
ATOM     27  H22 UNL     1      20.554 -12.202  -0.840  1.00  0.00     0.278 HD
ATOM     28  H21 UNL     1      21.530 -12.863   0.360  1.00  0.00     0.278 HD
ENDBRANCH   8  25
BRANCH   1  29
HETATM   29  S1  UNL     1      18.755 -20.018  -2.810  1.00  0.00    -0.152 SA
HETATM   30  C1  UNL     1      18.431 -20.549  -4.516  1.00  0.00     0.091 C 
ENDBRANCH   1  29
TORSDOF 3
ENDMDL
MODEL 2
REMARK VINA RESULT: -4.955080186      1.977      4.972
REMARK  3 active torsions:
REMARK  status: ('A' for Active; 'I' for Inactive)
REMARK    1  A    between atoms: S1_2  and  C2_3 
REMARK    2  A    between atoms: C5_10  and  N2_11 
REMARK    3  A    between atoms: C6_18  and  O2_19 
ROOT
HETATM    1  C2  UNL     1      19.572 -17.496   0.036  1.00  0.00     0.157 C 
HETATM    2  S2  UNL     1      18.145 -18.450  -0.569  1.00  0.00    -0.120 SA
HETATM    3  C3  UNL     1      17.187 -16.958  -0.983  1.00  0.00     0.183 C 
HETATM    4  C4  UNL     1      16.716 -16.410   0.343  1.00  0.00     0.247 C 
HETATM    5  O1  UNL     1      17.465 -15.694   1.025  1.00  0.00    -0.271 OA
HETATM    6  N1  UNL     1      15.400 -16.777   0.708  1.00  0.00    -0.310 N 
ATOM      7  H1  UNL     1      14.933 -16.250   1.445  1.00  0.00     0.166 HD
HETATM    8  C5  UNL     1      14.699 -17.854   0.086  1.00  0.00     0.490 C 
HETATM    9  N3  UNL     1      15.182 -18.208  -1.217  1.00  0.00     0.019 N 
ATOM     10  H31 UNL     1      14.408 -18.449  -1.836  1.00  0.00     0.286 HD
ATOM     11  H32 UNL     1      15.664 -19.107  -1.193  1.00  0.00     0.286 HD
HETATM   12  C6  UNL     1      16.020 -17.190  -1.815  1.00  0.00     0.345 C 
HETATM   13  C7  UNL     1      15.199 -15.952  -1.814  1.00  0.00     0.131 C 
HETATM   14  N4  UNL     1      14.572 -14.983  -1.799  1.00  0.00    -0.192 NA
HETATM   15  C8  UNL     1      18.280 -16.107  -1.528  1.00  0.00     0.175 C 
HETATM   16  C9  UNL     1      18.756 -16.735  -2.782  1.00  0.00     0.072 C 
HETATM   17  N5  UNL     1      19.149 -17.221  -3.763  1.00  0.00    -0.196 NA
HETATM   18  C10 UNL     1      19.395 -16.175  -0.583  1.00  0.00     0.040 C 
HETATM   19  N6  UNL     1      20.169 -15.168  -0.305  1.00  0.00    -0.298 N 
ATOM     20  H6  UNL     1      20.925 -15.299   0.366  1.00  0.00     0.177 HD
HETATM   21  C11 UNL     1      20.001 -13.909  -0.895  1.00  0.00     0.181 C 
HETATM   22  N7  UNL     1      19.867 -12.871  -1.398  1.00  0.00    -0.172 NA
ENDROOT
BRANCH  12  23
HETATM   23  O2  UNL     1      16.221 -17.526  -3.128  1.00  0.00    -0.352 OA
ATOM     24  H2  UNL     1      16.115 -16.847  -3.784  1.00  0.00     0.213 HD
ENDBRANCH  12  23
BRANCH   8  25
HETATM   25  N2  UNL     1      13.267 -17.610  -0.004  1.00  0.00    -0.032 N 
ATOM     26  H23 UNL     1      13.023 -16.705   0.396  1.00  0.00     0.278 HD
ATOM     27  H22 UNL     1      12.983 -17.445  -0.970  1.00  0.00     0.278 HD
ATOM     28  H21 UNL     1      12.715 -18.358   0.417  1.00  0.00     0.278 HD
ENDBRANCH   8  25
BRANCH   1  29
HETATM   29  S1  UNL     1      21.138 -18.274  -0.338  1.00  0.00    -0.152 SA
HETATM   30  C1  UNL     1      20.823 -19.627  -1.507  1.00  0.00     0.091 C 
ENDBRANCH   1  29
TORSDOF 3
ENDMDL
MODEL 3
REMARK VINA RESULT: -4.868879887      2.848      5.381
REMARK  3 active torsions:
REMARK  status: ('A' for Active; 'I' for Inactive)
REMARK    1  A    between atoms: S1_2  and  C2_3 
REMARK    2  A    between atoms: C5_10  and  N2_11 
REMARK    3  A    between atoms: C6_18  and  O2_19 
ROOT
HETATM    1  C2  UNL     1      18.038 -18.316  -0.914  1.00  0.00     0.157 C 
HETATM    2  S2  UNL     1      18.836 -19.653  -1.855  1.00  0.00    -0.120 SA
HETATM    3  C3  UNL     1      19.475 -18.522  -3.129  1.00  0.00     0.183 C 
HETATM    4  C4  UNL     1      18.276 -18.158  -3.972  1.00  0.00     0.247 C 
HETATM    5  O1  UNL     1      17.507 -17.255  -3.609  1.00  0.00    -0.271 OA
HETATM    6  N1  UNL     1      18.127 -18.914  -5.157  1.00  0.00    -0.310 N 
ATOM      7  H1  UNL     1      17.505 -18.563  -5.886  1.00  0.00     0.166 HD
HETATM    8  C5  UNL     1      18.812 -20.147  -5.377  1.00  0.00     0.490 C 
HETATM    9  N3  UNL     1      19.996 -20.323  -4.587  1.00  0.00     0.019 N 
ATOM     10  H31 UNL     1      20.727 -20.783  -5.128  1.00  0.00     0.286 HD
ATOM     11  H32 UNL     1      19.848 -21.031  -3.867  1.00  0.00     0.286 HD
HETATM   12  C6  UNL     1      20.485 -19.091  -4.004  1.00  0.00     0.345 C 
HETATM   13  C7  UNL     1      20.680 -18.163  -5.148  1.00  0.00     0.131 C 
HETATM   14  N4  UNL     1      20.816 -17.433  -6.031  1.00  0.00    -0.192 NA
HETATM   15  C8  UNL     1      19.861 -17.372  -2.267  1.00  0.00     0.175 C 
HETATM   16  C9  UNL     1      20.985 -17.811  -1.408  1.00  0.00     0.072 C 
HETATM   17  N5  UNL     1      21.861 -18.143  -0.719  1.00  0.00    -0.196 NA
HETATM   18  C10 UNL     1      18.736 -17.105  -1.370  1.00  0.00     0.040 C 
HETATM   19  N6  UNL     1      18.374 -15.912  -1.000  1.00  0.00    -0.298 N 
ATOM     20  H6  UNL     1      17.577 -15.814  -0.371  1.00  0.00     0.177 HD
HETATM   21  C11 UNL     1      19.040 -14.760  -1.433  1.00  0.00     0.181 C 
HETATM   22  N7  UNL     1      19.604 -13.807  -1.784  1.00  0.00    -0.172 NA
ENDROOT
BRANCH  12  23
HETATM   23  O2  UNL     1      21.727 -19.335  -3.481  1.00  0.00    -0.352 OA
ATOM     24  H2  UNL     1      22.485 -19.073  -3.990  1.00  0.00     0.213 HD
ENDBRANCH  12  23
BRANCH   8  25
HETATM   25  N2  UNL     1      19.158 -20.352  -6.776  1.00  0.00    -0.032 N 
ATOM     26  H23 UNL     1      18.323 -20.368  -7.362  1.00  0.00     0.278 HD
ATOM     27  H22 UNL     1      19.617 -19.528  -7.166  1.00  0.00     0.278 HD
ATOM     28  H21 UNL     1      19.723 -21.189  -6.921  1.00  0.00     0.278 HD
ENDBRANCH   8  25
BRANCH   1  29
HETATM   29  S1  UNL     1      18.102 -18.573   0.854  1.00  0.00    -0.152 SA
HETATM   30  C1  UNL     1      16.432 -18.309   1.517  1.00  0.00     0.091 C 
ENDBRANCH   1  29
TORSDOF 3
ENDMDL
MODEL 4
REMARK VINA RESULT: -4.758556579      3.179      6.271
REMARK  3 active torsions:
REMARK  status: ('A' for Active; 'I' for Inactive)
REMARK    1  A    between atoms: S1_2  and  C2_3 
REMARK    2  A    between atoms: C5_10  and  N2_11 
REMARK    3  A    between atoms: C6_18  and  O2_19 
ROOT
HETATM    1  C2  UNL     1      20.874 -18.340  -1.840  1.00  0.00     0.157 C 
HETATM    2  S2  UNL     1      21.301 -19.361  -3.285  1.00  0.00    -0.120 SA
HETATM    3  C3  UNL     1      19.630 -19.243  -3.997  1.00  0.00     0.183 C 
HETATM    4  C4  UNL     1      18.775 -20.158  -3.152  1.00  0.00     0.247 C 
HETATM    5  O1  UNL     1      18.304 -19.757  -2.077  1.00  0.00    -0.271 OA
HETATM    6  N1  UNL     1      18.575 -21.451  -3.686  1.00  0.00    -0.310 N 
ATOM      7  H1  UNL     1      17.820 -22.024  -3.310  1.00  0.00     0.166 HD
HETATM    8  C5  UNL     1      19.387 -21.989  -4.730  1.00  0.00     0.490 C 
HETATM    9  N3  UNL     1      20.065 -21.007  -5.526  1.00  0.00     0.019 N 
ATOM     10  H31 UNL     1      20.082 -21.286  -6.507  1.00  0.00     0.286 HD
ATOM     11  H32 UNL     1      21.067 -21.013  -5.332  1.00  0.00     0.286 HD
HETATM   12  C6  UNL     1      19.520 -19.674  -5.379  1.00  0.00     0.345 C 
HETATM   13  C7  UNL     1      18.077 -19.798  -5.711  1.00  0.00     0.131 C 
HETATM   14  N4  UNL     1      16.952 -19.894  -5.950  1.00  0.00    -0.192 NA
HETATM   15  C8  UNL     1      19.326 -17.822  -3.678  1.00  0.00     0.175 C 
HETATM   16  C9  UNL     1      20.247 -16.976  -4.473  1.00  0.00     0.072 C 
HETATM   17  N5  UNL     1      20.969 -16.298  -5.082  1.00  0.00    -0.196 NA
HETATM   18  C10 UNL     1      19.676 -17.607  -2.274  1.00  0.00     0.040 C 
HETATM   19  N6  UNL     1      19.001 -16.840  -1.470  1.00  0.00    -0.298 N 
ATOM     20  H6  UNL     1      19.314 -16.745  -0.504  1.00  0.00     0.177 HD
HETATM   21  C11 UNL     1      17.861 -16.141  -1.883  1.00  0.00     0.181 C 
HETATM   22  N7  UNL     1      16.924 -15.552  -2.234  1.00  0.00    -0.172 NA
ENDROOT
BRANCH  12  23
HETATM   23  O2  UNL     1      20.078 -18.881  -6.347  1.00  0.00    -0.352 OA
ATOM     24  H2  UNL     1      19.918 -19.107  -7.256  1.00  0.00     0.213 HD
ENDBRANCH  12  23
BRANCH   8  25
HETATM   25  N2  UNL     1      18.644 -22.869  -5.619  1.00  0.00    -0.032 N 
ATOM     26  H23 UNL     1      17.804 -23.227  -5.163  1.00  0.00     0.278 HD
ATOM     27  H22 UNL     1      18.208 -22.343  -6.376  1.00  0.00     0.278 HD
ATOM     28  H21 UNL     1      19.216 -23.631  -5.985  1.00  0.00     0.278 HD
ENDBRANCH   8  25
BRANCH   1  29
HETATM   29  S1  UNL     1      22.220 -17.290  -1.308  1.00  0.00    -0.152 SA
HETATM   30  C1  UNL     1      22.093 -17.091   0.493  1.00  0.00     0.091 C 
ENDBRANCH   1  29
TORSDOF 3
ENDMDL
MODEL 5
REMARK VINA RESULT: -4.690816606      4.045      7.070
REMARK  3 active torsions:
REMARK  status: ('A' for Active; 'I' for Inactive)
REMARK    1  A    between atoms: S1_2  and  C2_3 
REMARK    2  A    between atoms: C5_10  and  N2_11 
REMARK    3  A    between atoms: C6_18  and  O2_19 
ROOT
HETATM    1  C2  UNL     1      21.132 -18.933  -2.418  1.00  0.00     0.157 C 
HETATM    2  S2  UNL     1      21.707 -20.382  -3.357  1.00  0.00    -0.120 SA
HETATM    3  C3  UNL     1      20.019 -20.909  -3.788  1.00  0.00     0.183 C 
HETATM    4  C4  UNL     1      19.455 -21.504  -2.520  1.00  0.00     0.247 C 
HETATM    5  O1  UNL     1      18.964 -20.771  -1.648  1.00  0.00    -0.271 OA
HETATM    6  N1  UNL     1      19.539 -22.913  -2.432  1.00  0.00    -0.310 N 
ATOM      7  H1  UNL     1      18.964 -23.395  -1.741  1.00  0.00     0.166 HD
HETATM    8  C5  UNL     1      20.396 -23.688  -3.270  1.00  0.00     0.490 C 
HETATM    9  N3  UNL     1      20.775 -23.046  -4.495  1.00  0.00     0.019 N 
ATOM     10  H31 UNL     1      20.802 -23.717  -5.262  1.00  0.00     0.286 HD
ATOM     11  H32 UNL     1      21.758 -22.775  -4.473  1.00  0.00     0.286 HD
HETATM   12  C6  UNL     1      19.937 -21.914  -4.833  1.00  0.00     0.345 C 
HETATM   13  C7  UNL     1      18.549 -22.443  -4.856  1.00  0.00     0.131 C 
HETATM   14  N4  UNL     1      17.468 -22.846  -4.859  1.00  0.00    -0.192 NA
HETATM   15  C8  UNL     1      19.403 -19.578  -4.043  1.00  0.00     0.175 C 
HETATM   16  C9  UNL     1      20.050 -19.008  -5.249  1.00  0.00     0.072 C 
HETATM   17  N5  UNL     1      20.554 -18.542  -6.187  1.00  0.00    -0.196 NA
HETATM   18  C10 UNL     1      19.771 -18.707  -2.927  1.00  0.00     0.040 C 
HETATM   19  N6  UNL     1      18.979 -17.810  -2.419  1.00  0.00    -0.298 N 
ATOM     20  H6  UNL     1      19.314 -17.243  -1.640  1.00  0.00     0.177 HD
HETATM   21  C11 UNL     1      17.684 -17.594  -2.904  1.00  0.00     0.181 C 
HETATM   22  N7  UNL     1      16.615 -17.408  -3.319  1.00  0.00    -0.172 NA
ENDROOT
BRANCH  12  23
HETATM   23  O2  UNL     1      20.234 -21.536  -6.115  1.00  0.00    -0.352 OA
ATOM     24  H2  UNL     1      20.053 -22.151  -6.815  1.00  0.00     0.213 HD
ENDBRANCH  12  23
BRANCH   8  25
HETATM   25  N2  UNL     1      19.835 -24.993  -3.589  1.00  0.00    -0.032 N 
ATOM     26  H23 UNL     1      20.381 -25.741  -3.162  1.00  0.00     0.278 HD
ATOM     27  H22 UNL     1      18.949 -25.140  -3.105  1.00  0.00     0.278 HD
ATOM     28  H21 UNL     1      19.733 -25.140  -4.594  1.00  0.00     0.278 HD
ENDBRANCH   8  25
BRANCH   1  29
HETATM   29  S1  UNL     1      22.217 -17.522  -2.582  1.00  0.00    -0.152 SA
HETATM   30  C1  UNL     1      22.161 -16.592  -1.024  1.00  0.00     0.091 C 
ENDBRANCH   1  29
TORSDOF 3
ENDMDL
