MODEL 1
REMARK VINA RESULT: -6.073417958      0.000      0.000
REMARK  5 active torsions:
REMARK  status: ('A' for Active; 'I' for Inactive)
REMARK    1  A    between atoms: C2_2  and  N1_3 
REMARK    2  A    between atoms: C6_8  and  C7_9 
REMARK    3  A    between atoms: C7_9  and  O2_10 
REMARK    4  A    between atoms: C7_9  and  C8_12 
REMARK    5  A    between atoms: C15_21  and  O5_22 
ROOT
HETATM    1  C7  UNL     1     -14.670  -9.849  23.893  1.00  0.00     0.188 C 
ENDROOT
BRANCH   1   2
HETATM    2  C6  UNL     1     -15.944  -9.424  23.340  1.00  0.00     0.074 A 
HETATM    3  C5  UNL     1     -16.799 -10.490  22.929  1.00  0.00     0.186 A 
HETATM    4  C4  UNL     1     -18.027 -10.195  22.403  1.00  0.00     0.073 A 
HETATM    5  O1  UNL     1     -16.434 -11.687  23.042  1.00  0.00    -0.288 OA
HETATM    6  C3  UNL     1     -18.489  -8.905  22.247  1.00  0.00     0.097 A 
HETATM    7  N1  UNL     1     -17.683  -7.913  22.635  1.00  0.00    -0.338 N 
HETATM    8  C15 UNL     1     -16.460  -8.187  23.160  1.00  0.00     0.155 A 
BRANCH   7   9
HETATM    9  C2  UNL     1     -18.075  -6.515  22.516  1.00  0.00     0.126 C 
HETATM   10  C1  UNL     1     -19.067  -6.064  23.529  1.00  0.00     0.027 C 
ENDBRANCH   7   9
BRANCH   8  11
HETATM   11  O5  UNL     1     -15.706  -7.080  23.535  1.00  0.00    -0.345 OA
ATOM     12  H5  UNL     1     -15.097  -6.757  22.882  1.00  0.00     0.219 HD
ENDBRANCH   8  11
ENDBRANCH   1   2
BRANCH   1  13
HETATM   13  O2  UNL     1     -13.664  -8.924  23.390  1.00  0.00    -0.388 OA
ATOM     14  H2  UNL     1     -12.823  -9.352  23.491  1.00  0.00     0.210 HD
ENDBRANCH   1  13
BRANCH   1  15
HETATM   15  C8  UNL     1     -14.360 -10.002  25.297  1.00  0.00     0.161 C 
HETATM   16  C9  UNL     1     -13.343  -8.862  25.600  1.00  0.00     0.066 C 
HETATM   17  C10 UNL     1     -13.093  -8.821  27.054  1.00  0.00     0.123 C 
HETATM   18  C11 UNL     1     -11.768  -8.070  27.320  1.00  0.00     0.040 C 
HETATM   19  O3  UNL     1     -12.930 -10.044  27.651  1.00  0.00    -0.351 OA
HETATM   20  C12 UNL     1     -13.805 -11.009  27.223  1.00  0.00     0.157 C 
HETATM   21  C13 UNL     1     -13.345 -12.335  27.840  1.00  0.00     0.078 C 
HETATM   22  C14 UNL     1     -15.205 -10.799  27.753  1.00  0.00     0.078 C 
HETATM   23  O4  UNL     1     -13.810 -11.124  25.813  1.00  0.00    -0.348 OA
ENDBRANCH   1  15
TORSDOF 5
ENDMDL
MODEL 2
REMARK VINA RESULT: -5.809435198      3.339      5.115
REMARK  5 active torsions:
REMARK  status: ('A' for Active; 'I' for Inactive)
REMARK    1  A    between atoms: C2_2  and  N1_3 
REMARK    2  A    between atoms: C6_8  and  C7_9 
REMARK    3  A    between atoms: C7_9  and  O2_10 
REMARK    4  A    between atoms: C7_9  and  C8_12 
REMARK    5  A    between atoms: C15_21  and  O5_22 
ROOT
HETATM    1  C7  UNL     1     -13.783 -10.638  28.056  1.00  0.00     0.188 C 
ENDROOT
BRANCH   1   2
HETATM    2  C6  UNL     1     -13.481 -10.044  26.766  1.00  0.00     0.074 A 
HETATM    3  C5  UNL     1     -14.394 -10.386  25.724  1.00  0.00     0.186 A 
HETATM    4  C4  UNL     1     -14.203  -9.869  24.473  1.00  0.00     0.073 A 
HETATM    5  O1  UNL     1     -15.362 -11.155  25.947  1.00  0.00    -0.288 OA
HETATM    6  C3  UNL     1     -13.160  -9.023  24.159  1.00  0.00     0.097 A 
HETATM    7  N1  UNL     1     -12.310  -8.707  25.139  1.00  0.00    -0.338 N 
HETATM    8  C15 UNL     1     -12.484  -9.210  26.389  1.00  0.00     0.155 A 
BRANCH   7   9
HETATM    9  C2  UNL     1     -11.176  -7.819  24.915  1.00  0.00     0.126 C 
HETATM   10  C1  UNL     1     -10.756  -7.703  23.492  1.00  0.00     0.027 C 
ENDBRANCH   7   9
BRANCH   8  11
HETATM   11  O5  UNL     1     -11.544  -8.812  27.334  1.00  0.00    -0.345 OA
ATOM     12  H5  UNL     1     -10.926  -9.479  27.605  1.00  0.00     0.219 HD
ENDBRANCH   8  11
ENDBRANCH   1   2
BRANCH   1  13
HETATM   13  O2  UNL     1     -15.183 -10.350  28.335  1.00  0.00    -0.388 OA
ATOM     14  H2  UNL     1     -15.271 -10.309  29.279  1.00  0.00     0.210 HD
ENDBRANCH   1  13
BRANCH   1  15
HETATM   15  C8  UNL     1     -13.615 -12.029  28.412  1.00  0.00     0.161 C 
HETATM   16  C9  UNL     1     -12.910 -11.996  29.801  1.00  0.00     0.066 C 
HETATM   17  C10 UNL     1     -12.847 -13.370  30.337  1.00  0.00     0.123 C 
HETATM   18  C11 UNL     1     -11.756 -13.439  31.429  1.00  0.00     0.040 C 
HETATM   19  O3  UNL     1     -12.497 -14.334  29.427  1.00  0.00    -0.351 OA
HETATM   20  C12 UNL     1     -13.087 -14.198  28.197  1.00  0.00     0.157 C 
HETATM   21  C13 UNL     1     -12.429 -15.228  27.270  1.00  0.00     0.078 C 
HETATM   22  C14 UNL     1     -14.552 -14.572  28.212  1.00  0.00     0.078 C 
HETATM   23  O4  UNL     1     -12.901 -12.901  27.665  1.00  0.00    -0.348 OA
ENDBRANCH   1  15
TORSDOF 5
ENDMDL
MODEL 3
REMARK VINA RESULT: -5.772036733      2.018      6.358
REMARK  5 active torsions:
REMARK  status: ('A' for Active; 'I' for Inactive)
REMARK    1  A    between atoms: C2_2  and  N1_3 
REMARK    2  A    between atoms: C6_8  and  C7_9 
REMARK    3  A    between atoms: C7_9  and  O2_10 
REMARK    4  A    between atoms: C7_9  and  C8_12 
REMARK    5  A    between atoms: C15_21  and  O5_22 
ROOT
HETATM    1  C7  UNL     1     -15.407  -9.996  23.489  1.00  0.00     0.188 C 
ENDROOT
BRANCH   1   2
HETATM    2  C6  UNL     1     -14.678 -10.068  24.743  1.00  0.00     0.074 A 
HETATM    3  C5  UNL     1     -13.563  -9.184  24.835  1.00  0.00     0.186 A 
HETATM    4  C4  UNL     1     -12.817  -9.169  25.982  1.00  0.00     0.073 A 
HETATM    5  O1  UNL     1     -13.262  -8.428  23.878  1.00  0.00    -0.288 OA
HETATM    6  C3  UNL     1     -13.089  -9.974  27.068  1.00  0.00     0.097 A 
HETATM    7  N1  UNL     1     -14.135 -10.799  26.974  1.00  0.00    -0.338 N 
HETATM    8  C15 UNL     1     -14.888 -10.827  25.844  1.00  0.00     0.155 A 
BRANCH   7   9
HETATM    9  C2  UNL     1     -14.510 -11.689  28.065  1.00  0.00     0.126 C 
HETATM   10  C1  UNL     1     -15.256 -11.031  29.171  1.00  0.00     0.027 C 
ENDBRANCH   7   9
BRANCH   8  11
HETATM   11  O5  UNL     1     -15.955 -11.719  25.855  1.00  0.00    -0.345 OA
ATOM     12  H5  UNL     1     -16.044 -12.244  26.641  1.00  0.00     0.219 HD
ENDBRANCH   8  11
ENDBRANCH   1   2
BRANCH   1  13
HETATM   13  O2  UNL     1     -15.837 -11.352  23.174  1.00  0.00    -0.388 OA
ATOM     14  H2  UNL     1     -15.112 -11.772  22.727  1.00  0.00     0.210 HD
ENDBRANCH   1  13
BRANCH   1  15
HETATM   15  C8  UNL     1     -16.564  -9.172  23.223  1.00  0.00     0.161 C 
HETATM   16  C9  UNL     1     -17.759 -10.171  23.195  1.00  0.00     0.066 C 
HETATM   17  C10 UNL     1     -19.018  -9.406  23.102  1.00  0.00     0.123 C 
HETATM   18  C11 UNL     1     -20.140 -10.336  22.587  1.00  0.00     0.040 C 
HETATM   19  O3  UNL     1     -18.997  -8.356  22.220  1.00  0.00    -0.351 OA
HETATM   20  C12 UNL     1     -17.846  -7.612  22.246  1.00  0.00     0.157 C 
HETATM   21  C13 UNL     1     -17.923  -6.629  21.071  1.00  0.00     0.078 C 
HETATM   22  C14 UNL     1     -17.747  -6.739  23.476  1.00  0.00     0.078 C 
HETATM   23  O4  UNL     1     -16.695  -8.421  22.106  1.00  0.00    -0.348 OA
ENDBRANCH   1  15
TORSDOF 5
ENDMDL
MODEL 4
REMARK VINA RESULT: -5.743210523      2.047      6.019
REMARK  5 active torsions:
REMARK  status: ('A' for Active; 'I' for Inactive)
REMARK    1  A    between atoms: C2_2  and  N1_3 
REMARK    2  A    between atoms: C6_8  and  C7_9 
REMARK    3  A    between atoms: C7_9  and  O2_10 
REMARK    4  A    between atoms: C7_9  and  C8_12 
REMARK    5  A    between atoms: C15_21  and  O5_22 
ROOT
HETATM    1  C7  UNL     1     -16.169 -10.026  22.918  1.00  0.00     0.188 C 
ENDROOT
BRANCH   1   2
HETATM    2  C6  UNL     1     -15.304 -10.113  24.082  1.00  0.00     0.074 A 
HETATM    3  C5  UNL     1     -15.708 -11.078  25.053  1.00  0.00     0.186 A 
HETATM    4  C4  UNL     1     -14.953 -11.244  26.181  1.00  0.00     0.073 A 
HETATM    5  O1  UNL     1     -16.743 -11.767  24.880  1.00  0.00    -0.288 OA
HETATM    6  C3  UNL     1     -13.808 -10.519  26.435  1.00  0.00     0.097 A 
HETATM    7  N1  UNL     1     -13.437  -9.618  25.522  1.00  0.00    -0.338 N 
HETATM    8  C15 UNL     1     -14.173  -9.440  24.394  1.00  0.00     0.155 A 
BRANCH   7   9
HETATM    9  C2  UNL     1     -12.242  -8.801  25.692  1.00  0.00     0.126 C 
HETATM   10  C1  UNL     1     -12.128  -8.143  27.021  1.00  0.00     0.027 C 
ENDBRANCH   7   9
BRANCH   8  11
HETATM   11  O5  UNL     1     -13.693  -8.480  23.509  1.00  0.00    -0.345 OA
ATOM     12  H5  UNL     1     -14.165  -7.656  23.499  1.00  0.00     0.219 HD
ENDBRANCH   8  11
ENDBRANCH   1   2
BRANCH   1  13
HETATM   13  O2  UNL     1     -16.578 -11.386  22.595  1.00  0.00    -0.388 OA
ATOM     14  H2  UNL     1     -16.093 -11.641  21.819  1.00  0.00     0.210 HD
ENDBRANCH   1  13
BRANCH   1  15
HETATM   15  C8  UNL     1     -17.379  -9.243  22.815  1.00  0.00     0.161 C 
HETATM   16  C9  UNL     1     -17.451  -8.829  21.315  1.00  0.00     0.066 C 
HETATM   17  C10 UNL     1     -18.748  -8.169  21.064  1.00  0.00     0.123 C 
HETATM   18  C11 UNL     1     -18.649  -7.334  19.767  1.00  0.00     0.040 C 
HETATM   19  O3  UNL     1     -19.142  -7.277  22.029  1.00  0.00    -0.351 OA
HETATM   20  C12 UNL     1     -18.923  -7.695  23.315  1.00  0.00     0.157 C 
HETATM   21  C13 UNL     1     -19.232  -6.504  24.231  1.00  0.00     0.078 C 
HETATM   22  C14 UNL     1     -19.889  -8.775  23.747  1.00  0.00     0.078 C 
HETATM   23  O4  UNL     1     -17.584  -8.104  23.514  1.00  0.00    -0.348 OA
ENDBRANCH   1  15
TORSDOF 5
ENDMDL
MODEL 5
REMARK VINA RESULT: -5.618879834      2.117      6.258
REMARK  5 active torsions:
REMARK  status: ('A' for Active; 'I' for Inactive)
REMARK    1  A    between atoms: C2_2  and  N1_3 
REMARK    2  A    between atoms: C6_8  and  C7_9 
REMARK    3  A    between atoms: C7_9  and  O2_10 
REMARK    4  A    between atoms: C7_9  and  C8_12 
REMARK    5  A    between atoms: C15_21  and  O5_22 
ROOT
HETATM    1  C7  UNL     1     -16.048  -9.941  23.075  1.00  0.00     0.188 C 
ENDROOT
BRANCH   1   2
HETATM    2  C6  UNL     1     -15.293 -10.109  24.304  1.00  0.00     0.074 A 
HETATM    3  C5  UNL     1     -14.207  -9.198  24.466  1.00  0.00     0.186 A 
HETATM    4  C4  UNL     1     -13.441  -9.268  25.596  1.00  0.00     0.073 A 
HETATM    5  O1  UNL     1     -13.952  -8.341  23.584  1.00  0.00    -0.288 OA
HETATM    6  C3  UNL     1     -13.663 -10.185  26.602  1.00  0.00     0.097 A 
HETATM    7  N1  UNL     1     -14.682 -11.035  26.443  1.00  0.00    -0.338 N 
HETATM    8  C15 UNL     1     -15.455 -10.979  25.328  1.00  0.00     0.155 A 
BRANCH   7   9
HETATM    9  C2  UNL     1     -15.005 -12.041  27.446  1.00  0.00     0.126 C 
HETATM   10  C1  UNL     1     -15.574 -11.495  28.708  1.00  0.00     0.027 C 
ENDBRANCH   7   9
BRANCH   8  11
HETATM   11  O5  UNL     1     -16.491 -11.906  25.268  1.00  0.00    -0.345 OA
ATOM     12  H5  UNL     1     -17.267 -11.688  25.768  1.00  0.00     0.219 HD
ENDBRANCH   8  11
ENDBRANCH   1   2
BRANCH   1  13
HETATM   13  O2  UNL     1     -16.398 -11.276  22.610  1.00  0.00    -0.388 OA
ATOM     14  H2  UNL     1     -17.333 -11.272  22.446  1.00  0.00     0.210 HD
ENDBRANCH   1  13
BRANCH   1  15
HETATM   15  C8  UNL     1     -17.259  -9.168  22.919  1.00  0.00     0.161 C 
HETATM   16  C9  UNL     1     -17.267  -8.751  21.418  1.00  0.00     0.066 C 
HETATM   17  C10 UNL     1     -18.557  -8.100  21.111  1.00  0.00     0.123 C 
HETATM   18  C11 UNL     1     -18.407  -7.262  19.821  1.00  0.00     0.040 C 
HETATM   19  O3  UNL     1     -19.001  -7.214  22.059  1.00  0.00    -0.351 OA
HETATM   20  C12 UNL     1     -18.837  -7.633  23.353  1.00  0.00     0.157 C 
HETATM   21  C13 UNL     1     -19.196  -6.447  24.256  1.00  0.00     0.078 C 
HETATM   22  C14 UNL     1     -19.811  -8.723  23.739  1.00  0.00     0.078 C 
HETATM   23  O4  UNL     1     -17.504  -8.032  23.611  1.00  0.00    -0.348 OA
ENDBRANCH   1  15
TORSDOF 5
ENDMDL
