MODEL 1
REMARK VINA RESULT: -8.824645208      0.000      0.000
REMARK  12 active torsions:
REMARK  status: ('A' for Active; 'I' for Inactive)
REMARK    1  A    between atoms: C2_2  and  C3_3 
REMARK    2  A    between atoms: C2_2  and  C16_24 
REMARK    3  A    between atoms: C4_4  and  C5_5 
REMARK    4  A    between atoms: C6_6  and  O1_7 
REMARK    5  A    between atoms: O1_7  and  C7_8 
REMARK    6  A    between atoms: C10_12  and  O3_13 
REMARK    7  A    between atoms: C11_15  and  O4_16 
REMARK    8  A    between atoms: C12_18  and  O5_19 
REMARK    9  A    between atoms: C16_24  and  C17_25 
REMARK   10  A    between atoms: C17_25  and  O6_26 
REMARK   11  A    between atoms: C17_25  and  C18_28 
REMARK   12  A    between atoms: C18_28  and  C19_29 
ROOT
HETATM    1  C5  UNL     1      20.286  68.230  36.228  1.00  0.00    -0.021 A 
HETATM    2  C6  UNL     1      20.658  68.703  35.058  1.00  0.00     0.078 A 
HETATM    3  C13 UNL     1      22.028  69.172  35.104  1.00  0.00     0.034 A 
HETATM    4  C14 UNL     1      22.480  68.975  36.323  1.00  0.00    -0.019 A 
HETATM    5  C15 UNL     1      21.430  68.363  37.156  1.00  0.00     0.068 A 
ENDROOT
BRANCH   1   6
HETATM    6  C4  UNL     1      18.958  67.672  36.543  1.00  0.00     0.006 C 
HETATM    7  C3  UNL     1      18.538  67.494  37.770  1.00  0.00    -0.022 C 
BRANCH   7   8
HETATM    8  C2  UNL     1      17.222  66.940  38.037  1.00  0.00     0.006 C 
HETATM    9  C1  UNL     1      17.350  65.732  38.982  1.00  0.00     0.014 C 
BRANCH   8  10
HETATM   10  C16 UNL     1      16.416  66.485  36.886  1.00  0.00     0.040 C 
BRANCH  10  11
HETATM   11  C17 UNL     1      16.099  65.045  36.781  1.00  0.00     0.121 C 
BRANCH  11  12
HETATM   12  O6  UNL     1      14.744  64.776  36.620  1.00  0.00    -0.395 OA
ATOM     13  H6  UNL     1      14.366  65.157  35.836  1.00  0.00     0.210 HD
ENDBRANCH  11  12
BRANCH  11  14
HETATM   14  C18 UNL     1      16.783  64.523  35.509  1.00  0.00     0.070 C 
BRANCH  14  15
HETATM   15  C19 UNL     1      16.473  65.442  34.346  1.00  0.00     0.199 A 
HETATM   16  O7  UNL     1      17.586  65.974  33.728  1.00  0.00    -0.231 OA
HETATM   17  O8  UNL     1      17.524  65.286  32.598  1.00  0.00    -0.227 OA
HETATM   18  C20 UNL     1      16.343  64.738  33.041  1.00  0.00     0.118 A 
HETATM   19  C21 UNL     1      16.304  63.230  33.106  1.00  0.00     0.052 C 
HETATM   20  C22 UNL     1      15.166  65.231  32.197  1.00  0.00     0.052 C 
ENDBRANCH  14  15
ENDBRANCH  11  14
ENDBRANCH  10  11
ENDBRANCH   8  10
ENDBRANCH   7   8
ENDBRANCH   1   6
BRANCH   2  21
HETATM   21  O1  UNL     1      19.814  68.739  33.918  1.00  0.00    -0.317 OA
BRANCH  21  22
HETATM   22  C7  UNL     1      20.427  68.595  32.643  1.00  0.00     0.298 C 
HETATM   23  O2  UNL     1      20.870  69.802  32.145  1.00  0.00    -0.351 OA
HETATM   24  C8  UNL     1      20.350  70.137  30.910  1.00  0.00     0.152 C 
HETATM   25  C9  UNL     1      21.041  71.411  30.464  1.00  0.00     0.042 C 
HETATM   26  C10 UNL     1      20.787  69.052  29.950  1.00  0.00     0.178 C 
HETATM   27  C11 UNL     1      20.037  67.808  30.281  1.00  0.00     0.183 C 
HETATM   28  C12 UNL     1      19.589  67.802  31.696  1.00  0.00     0.205 C 
BRANCH  26  29
HETATM   29  O3  UNL     1      20.612  69.453  28.627  1.00  0.00    -0.390 OA
ATOM     30  H3  UNL     1      20.529  68.702  28.050  1.00  0.00     0.210 HD
ENDBRANCH  26  29
BRANCH  27  31
HETATM   31  O4  UNL     1      20.834  66.658  30.067  1.00  0.00    -0.390 OA
ATOM     32  H4  UNL     1      20.746  66.041  30.784  1.00  0.00     0.210 HD
ENDBRANCH  27  31
BRANCH  28  33
HETATM   33  O5  UNL     1      18.247  68.235  31.719  1.00  0.00    -0.388 OA
ATOM     34  H5  UNL     1      17.760  67.805  32.413  1.00  0.00     0.210 HD
ENDBRANCH  28  33
ENDBRANCH  21  22
ENDBRANCH   2  21
TORSDOF 12
ENDMDL
MODEL 2
REMARK VINA RESULT: -8.796384153      1.309      6.221
REMARK  12 active torsions:
REMARK  status: ('A' for Active; 'I' for Inactive)
REMARK    1  A    between atoms: C2_2  and  C3_3 
REMARK    2  A    between atoms: C2_2  and  C16_24 
REMARK    3  A    between atoms: C4_4  and  C5_5 
REMARK    4  A    between atoms: C6_6  and  O1_7 
REMARK    5  A    between atoms: O1_7  and  C7_8 
REMARK    6  A    between atoms: C10_12  and  O3_13 
REMARK    7  A    between atoms: C11_15  and  O4_16 
REMARK    8  A    between atoms: C12_18  and  O5_19 
REMARK    9  A    between atoms: C16_24  and  C17_25 
REMARK   10  A    between atoms: C17_25  and  O6_26 
REMARK   11  A    between atoms: C17_25  and  C18_28 
REMARK   12  A    between atoms: C18_28  and  C19_29 
ROOT
HETATM    1  C5  UNL     1      18.597  66.907  37.673  1.00  0.00    -0.021 A 
HETATM    2  C6  UNL     1      17.423  66.330  37.533  1.00  0.00     0.078 A 
HETATM    3  C13 UNL     1      17.041  65.636  38.746  1.00  0.00     0.034 A 
HETATM    4  C14 UNL     1      18.006  65.802  39.624  1.00  0.00    -0.019 A 
HETATM    5  C15 UNL     1      19.083  66.619  39.040  1.00  0.00     0.068 A 
ENDROOT
BRANCH   1   6
HETATM    6  C4  UNL     1      19.291  67.698  36.640  1.00  0.00     0.006 C 
HETATM    7  C3  UNL     1      20.589  67.662  36.476  1.00  0.00    -0.022 C 
BRANCH   7   8
HETATM    8  C2  UNL     1      21.235  68.457  35.446  1.00  0.00     0.006 C 
HETATM    9  C1  UNL     1      22.181  69.480  36.098  1.00  0.00     0.014 C 
BRANCH   8  10
HETATM   10  C16 UNL     1      20.375  69.218  34.518  1.00  0.00     0.040 C 
BRANCH  10  11
HETATM   11  C17 UNL     1      20.041  68.606  33.214  1.00  0.00     0.121 C 
BRANCH  11  12
HETATM   12  O6  UNL     1      18.687  68.337  33.047  1.00  0.00    -0.395 OA
ATOM     13  H6  UNL     1      18.215  69.015  32.579  1.00  0.00     0.210 HD
ENDBRANCH  11  12
BRANCH  11  14
HETATM   14  C18 UNL     1      20.402  69.629  32.128  1.00  0.00     0.070 C 
BRANCH  14  15
HETATM   15  C19 UNL     1      20.426  68.953  30.773  1.00  0.00     0.199 A 
HETATM   16  O7  UNL     1      19.191  68.848  30.167  1.00  0.00    -0.231 OA
HETATM   17  O8  UNL     1      19.374  69.742  29.206  1.00  0.00    -0.227 OA
HETATM   18  C20 UNL     1      20.671  69.886  29.639  1.00  0.00     0.118 A 
HETATM   19  C21 UNL     1      21.084  71.289  30.016  1.00  0.00     0.052 C 
HETATM   20  C22 UNL     1      21.653  69.340  28.601  1.00  0.00     0.052 C 
ENDBRANCH  14  15
ENDBRANCH  11  14
ENDBRANCH  10  11
ENDBRANCH   8  10
ENDBRANCH   7   8
ENDBRANCH   1   6
BRANCH   2  21
HETATM   21  O1  UNL     1      16.651  66.393  36.343  1.00  0.00    -0.317 OA
BRANCH  21  22
HETATM   22  C7  UNL     1      17.034  65.545  35.268  1.00  0.00     0.298 C 
HETATM   23  O2  UNL     1      16.882  66.165  34.045  1.00  0.00    -0.351 OA
HETATM   24  C8  UNL     1      16.062  65.491  33.160  1.00  0.00     0.152 C 
HETATM   25  C9  UNL     1      16.118  66.237  31.841  1.00  0.00     0.042 C 
HETATM   26  C10 UNL     1      16.703  64.142  32.919  1.00  0.00     0.178 C 
HETATM   27  C11 UNL     1      16.562  63.331  34.160  1.00  0.00     0.183 C 
HETATM   28  C12 UNL     1      16.411  64.192  35.360  1.00  0.00     0.205 C 
BRANCH  26  29
HETATM   29  O3  UNL     1      16.154  63.519  31.800  1.00  0.00    -0.390 OA
ATOM     30  H3  UNL     1      15.284  63.188  31.986  1.00  0.00     0.210 HD
ENDBRANCH  26  29
BRANCH  27  31
HETATM   31  O4  UNL     1      17.688  62.496  34.356  1.00  0.00    -0.390 OA
ATOM     32  H4  UNL     1      17.526  61.856  35.039  1.00  0.00     0.210 HD
ENDBRANCH  27  31
BRANCH  28  33
HETATM   33  O5  UNL     1      15.033  64.284  35.646  1.00  0.00    -0.388 OA
ATOM     34  H5  UNL     1      14.677  63.439  35.894  1.00  0.00     0.210 HD
ENDBRANCH  28  33
ENDBRANCH  21  22
ENDBRANCH   2  21
TORSDOF 12
ENDMDL
MODEL 3
REMARK VINA RESULT: -8.768208036      0.996      1.237
REMARK  12 active torsions:
REMARK  status: ('A' for Active; 'I' for Inactive)
REMARK    1  A    between atoms: C2_2  and  C3_3 
REMARK    2  A    between atoms: C2_2  and  C16_24 
REMARK    3  A    between atoms: C4_4  and  C5_5 
REMARK    4  A    between atoms: C6_6  and  O1_7 
REMARK    5  A    between atoms: O1_7  and  C7_8 
REMARK    6  A    between atoms: C10_12  and  O3_13 
REMARK    7  A    between atoms: C11_15  and  O4_16 
REMARK    8  A    between atoms: C12_18  and  O5_19 
REMARK    9  A    between atoms: C16_24  and  C17_25 
REMARK   10  A    between atoms: C17_25  and  O6_26 
REMARK   11  A    between atoms: C17_25  and  C18_28 
REMARK   12  A    between atoms: C18_28  and  C19_29 
ROOT
HETATM    1  C5  UNL     1      20.155  68.186  36.246  1.00  0.00    -0.021 A 
HETATM    2  C6  UNL     1      20.478  68.675  35.068  1.00  0.00     0.078 A 
HETATM    3  C13 UNL     1      21.869  69.081  35.043  1.00  0.00     0.034 A 
HETATM    4  C14 UNL     1      22.382  68.831  36.228  1.00  0.00    -0.019 A 
HETATM    5  C15 UNL     1      21.356  68.242  37.106  1.00  0.00     0.068 A 
ENDROOT
BRANCH   1   6
HETATM    6  C4  UNL     1      18.823  67.679  36.625  1.00  0.00     0.006 C 
HETATM    7  C3  UNL     1      18.495  67.410  37.863  1.00  0.00    -0.022 C 
BRANCH   7   8
HETATM    8  C2  UNL     1      17.172  66.910  38.195  1.00  0.00     0.006 C 
HETATM    9  C1  UNL     1      17.298  65.627  39.035  1.00  0.00     0.014 C 
BRANCH   8  10
HETATM   10  C16 UNL     1      16.253  66.593  37.083  1.00  0.00     0.040 C 
BRANCH  10  11
HETATM   11  C17 UNL     1      16.105  65.177  36.682  1.00  0.00     0.121 C 
BRANCH  11  12
HETATM   12  O6  UNL     1      14.791  64.721  36.698  1.00  0.00    -0.395 OA
ATOM     13  H6  UNL     1      14.493  64.376  35.866  1.00  0.00     0.210 HD
ENDBRANCH  11  12
BRANCH  11  14
HETATM   14  C18 UNL     1      16.567  65.071  35.221  1.00  0.00     0.070 C 
BRANCH  14  15
HETATM   15  C19 UNL     1      15.972  63.832  34.584  1.00  0.00     0.199 A 
HETATM   16  O7  UNL     1      14.869  64.074  33.792  1.00  0.00    -0.231 OA
HETATM   17  O8  UNL     1      15.428  63.845  32.613  1.00  0.00    -0.227 OA
HETATM   18  C20 UNL     1      16.579  63.481  33.272  1.00  0.00     0.118 A 
HETATM   19  C21 UNL     1      17.822  64.248  32.892  1.00  0.00     0.052 C 
HETATM   20  C22 UNL     1      16.847  61.984  33.106  1.00  0.00     0.052 C 
ENDBRANCH  14  15
ENDBRANCH  11  14
ENDBRANCH  10  11
ENDBRANCH   8  10
ENDBRANCH   7   8
ENDBRANCH   1   6
BRANCH   2  21
HETATM   21  O1  UNL     1      19.571  68.780  33.981  1.00  0.00    -0.317 OA
BRANCH  21  22
HETATM   22  C7  UNL     1      20.041  68.397  32.695  1.00  0.00     0.298 C 
HETATM   23  O2  UNL     1      20.595  69.460  32.012  1.00  0.00    -0.351 OA
HETATM   24  C8  UNL     1      20.014  69.717  30.785  1.00  0.00     0.152 C 
HETATM   25  C9  UNL     1      20.826  70.815  30.127  1.00  0.00     0.042 C 
HETATM   26  C10 UNL     1      20.213  68.474  29.946  1.00  0.00     0.178 C 
HETATM   27  C11 UNL     1      19.336  67.400  30.490  1.00  0.00     0.183 C 
HETATM   28  C12 UNL     1      19.022  67.627  31.923  1.00  0.00     0.205 C 
BRANCH  26  29
HETATM   29  O3  UNL     1      19.974  68.735  28.598  1.00  0.00    -0.390 OA
ATOM     30  H3  UNL     1      19.609  67.974  28.162  1.00  0.00     0.210 HD
ENDBRANCH  26  29
BRANCH  27  31
HETATM   31  O4  UNL     1      19.949  66.130  30.371  1.00  0.00    -0.390 OA
ATOM     32  H4  UNL     1      20.039  65.710  31.218  1.00  0.00     0.210 HD
ENDBRANCH  27  31
BRANCH  28  33
HETATM   33  O5  UNL     1      17.758  68.248  31.987  1.00  0.00    -0.388 OA
ATOM     34  H5  UNL     1      17.711  68.856  32.717  1.00  0.00     0.210 HD
ENDBRANCH  28  33
ENDBRANCH  21  22
ENDBRANCH   2  21
TORSDOF 12
ENDMDL
MODEL 4
REMARK VINA RESULT: -8.545771761      2.772      6.779
REMARK  12 active torsions:
REMARK  status: ('A' for Active; 'I' for Inactive)
REMARK    1  A    between atoms: C2_2  and  C3_3 
REMARK    2  A    between atoms: C2_2  and  C16_24 
REMARK    3  A    between atoms: C4_4  and  C5_5 
REMARK    4  A    between atoms: C6_6  and  O1_7 
REMARK    5  A    between atoms: O1_7  and  C7_8 
REMARK    6  A    between atoms: C10_12  and  O3_13 
REMARK    7  A    between atoms: C11_15  and  O4_16 
REMARK    8  A    between atoms: C12_18  and  O5_19 
REMARK    9  A    between atoms: C16_24  and  C17_25 
REMARK   10  A    between atoms: C17_25  and  O6_26 
REMARK   11  A    between atoms: C17_25  and  C18_28 
REMARK   12  A    between atoms: C18_28  and  C19_29 
ROOT
HETATM    1  C5  UNL     1      18.282  67.198  32.782  1.00  0.00    -0.021 A 
HETATM    2  C6  UNL     1      17.602  66.112  32.484  1.00  0.00     0.078 A 
HETATM    3  C13 UNL     1      17.039  66.207  31.152  1.00  0.00     0.034 A 
HETATM    4  C14 UNL     1      17.390  67.371  30.649  1.00  0.00    -0.019 A 
HETATM    5  C15 UNL     1      18.208  68.113  31.624  1.00  0.00     0.068 A 
ENDROOT
BRANCH   1   6
HETATM    6  C4  UNL     1      18.988  67.444  34.054  1.00  0.00     0.006 C 
HETATM    7  C3  UNL     1      19.815  68.443  34.222  1.00  0.00    -0.022 C 
BRANCH   7   8
HETATM    8  C2  UNL     1      20.491  68.650  35.492  1.00  0.00     0.006 C 
HETATM    9  C1  UNL     1      21.959  69.033  35.241  1.00  0.00     0.014 C 
BRANCH   8  10
HETATM   10  C16 UNL     1      20.510  67.531  36.455  1.00  0.00     0.040 C 
BRANCH  10  11
HETATM   11  C17 UNL     1      20.383  67.846  37.894  1.00  0.00     0.121 C 
BRANCH  11  12
HETATM   12  O6  UNL     1      20.752  69.146  38.221  1.00  0.00    -0.395 OA
ATOM     13  H6  UNL     1      20.301  69.495  38.980  1.00  0.00     0.210 HD
ENDBRANCH  11  12
BRANCH  11  14
HETATM   14  C18 UNL     1      18.895  67.730  38.253  1.00  0.00     0.070 C 
BRANCH  14  15
HETATM   15  C19 UNL     1      18.459  66.282  38.171  1.00  0.00     0.199 A 
HETATM   16  O7  UNL     1      18.137  65.714  39.387  1.00  0.00    -0.231 OA
HETATM   17  O8  UNL     1      16.826  65.634  39.219  1.00  0.00    -0.227 OA
HETATM   18  C20 UNL     1      16.999  66.106  37.939  1.00  0.00     0.118 A 
HETATM   19  C21 UNL     1      16.230  67.357  37.592  1.00  0.00     0.052 C 
HETATM   20  C22 UNL     1      16.672  65.019  36.912  1.00  0.00     0.052 C 
ENDBRANCH  14  15
ENDBRANCH  11  14
ENDBRANCH  10  11
ENDBRANCH   8  10
ENDBRANCH   7   8
ENDBRANCH   1   6
BRANCH   2  21
HETATM   21  O1  UNL     1      17.453  65.008  33.363  1.00  0.00    -0.317 OA
BRANCH  21  22
HETATM   22  C7  UNL     1      16.523  63.997  32.995  1.00  0.00     0.298 C 
HETATM   23  O2  UNL     1      15.280  64.214  33.551  1.00  0.00    -0.351 OA
HETATM   24  C8  UNL     1      14.810  63.170  34.324  1.00  0.00     0.152 C 
HETATM   25  C9  UNL     1      13.394  63.522  34.738  1.00  0.00     0.042 C 
HETATM   26  C10 UNL     1      14.704  61.969  33.410  1.00  0.00     0.178 C 
HETATM   27  C11 UNL     1      16.083  61.517  33.075  1.00  0.00     0.183 C 
HETATM   28  C12 UNL     1      17.066  62.622  33.203  1.00  0.00     0.205 C 
BRANCH  26  29
HETATM   29  O3  UNL     1      13.931  60.965  33.988  1.00  0.00    -0.390 OA
ATOM     30  H3  UNL     1      14.267  60.724  34.844  1.00  0.00     0.210 HD
ENDBRANCH  26  29
BRANCH  27  31
HETATM   31  O4  UNL     1      16.151  61.019  31.752  1.00  0.00    -0.390 OA
ATOM     32  H4  UNL     1      16.145  60.069  31.742  1.00  0.00     0.210 HD
ENDBRANCH  27  31
BRANCH  28  33
HETATM   33  O5  UNL     1      17.678  62.503  34.468  1.00  0.00    -0.388 OA
ATOM     34  H5  UNL     1      17.947  61.607  34.635  1.00  0.00     0.210 HD
ENDBRANCH  28  33
ENDBRANCH  21  22
ENDBRANCH   2  21
TORSDOF 12
ENDMDL
MODEL 5
REMARK VINA RESULT: -8.528069765      1.526      5.896
REMARK  12 active torsions:
REMARK  status: ('A' for Active; 'I' for Inactive)
REMARK    1  A    between atoms: C2_2  and  C3_3 
REMARK    2  A    between atoms: C2_2  and  C16_24 
REMARK    3  A    between atoms: C4_4  and  C5_5 
REMARK    4  A    between atoms: C6_6  and  O1_7 
REMARK    5  A    between atoms: O1_7  and  C7_8 
REMARK    6  A    between atoms: C10_12  and  O3_13 
REMARK    7  A    between atoms: C11_15  and  O4_16 
REMARK    8  A    between atoms: C12_18  and  O5_19 
REMARK    9  A    between atoms: C16_24  and  C17_25 
REMARK   10  A    between atoms: C17_25  and  O6_26 
REMARK   11  A    between atoms: C17_25  and  C18_28 
REMARK   12  A    between atoms: C18_28  and  C19_29 
ROOT
HETATM    1  C5  UNL     1      18.934  67.291  37.435  1.00  0.00    -0.021 A 
HETATM    2  C6  UNL     1      17.795  66.634  37.452  1.00  0.00     0.078 A 
HETATM    3  C13 UNL     1      17.618  65.943  38.714  1.00  0.00     0.034 A 
HETATM    4  C14 UNL     1      18.670  66.195  39.461  1.00  0.00    -0.019 A 
HETATM    5  C15 UNL     1      19.607  67.069  38.733  1.00  0.00     0.068 A 
ENDROOT
BRANCH   1   6
HETATM    6  C4  UNL     1      19.437  68.102  36.311  1.00  0.00     0.006 C 
HETATM    7  C3  UNL     1      20.161  67.598  35.344  1.00  0.00    -0.022 C 
BRANCH   7   8
HETATM    8  C2  UNL     1      20.637  68.433  34.254  1.00  0.00     0.006 C 
HETATM    9  C1  UNL     1      21.639  69.467  34.793  1.00  0.00     0.014 C 
BRANCH   8  10
HETATM   10  C16 UNL     1      19.638  69.188  33.472  1.00  0.00     0.040 C 
BRANCH  10  11
HETATM   11  C17 UNL     1      19.692  69.100  31.997  1.00  0.00     0.121 C 
BRANCH  11  12
HETATM   12  O6  UNL     1      20.922  69.459  31.456  1.00  0.00    -0.395 OA
ATOM     13  H6  UNL     1      21.653  68.954  31.792  1.00  0.00     0.210 HD
ENDBRANCH  11  12
BRANCH  11  14
HETATM   14  C18 UNL     1      19.485  67.624  31.625  1.00  0.00     0.070 C 
BRANCH  14  15
HETATM   15  C19 UNL     1      19.774  67.422  30.152  1.00  0.00     0.199 A 
HETATM   16  O7  UNL     1      21.086  67.104  29.867  1.00  0.00    -0.231 OA
HETATM   17  O8  UNL     1      20.906  65.836  29.530  1.00  0.00    -0.227 OA
HETATM   18  C20 UNL     1      19.553  66.027  29.682  1.00  0.00     0.118 A 
HETATM   19  C21 UNL     1      18.866  65.102  30.658  1.00  0.00     0.052 C 
HETATM   20  C22 UNL     1      18.839  65.945  28.332  1.00  0.00     0.052 C 
ENDBRANCH  14  15
ENDBRANCH  11  14
ENDBRANCH  10  11
ENDBRANCH   8  10
ENDBRANCH   7   8
ENDBRANCH   1   6
BRANCH   2  21
HETATM   21  O1  UNL     1      16.877  66.616  36.369  1.00  0.00    -0.317 OA
BRANCH  21  22
HETATM   22  C7  UNL     1      17.075  65.635  35.359  1.00  0.00     0.298 C 
HETATM   23  O2  UNL     1      16.828  66.136  34.099  1.00  0.00    -0.351 OA
HETATM   24  C8  UNL     1      15.866  65.446  33.386  1.00  0.00     0.152 C 
HETATM   25  C9  UNL     1      15.823  66.046  31.995  1.00  0.00     0.042 C 
HETATM   26  C10 UNL     1      16.380  64.031  33.228  1.00  0.00     0.178 C 
HETATM   27  C11 UNL     1      16.325  63.365  34.559  1.00  0.00     0.183 C 
HETATM   28  C12 UNL     1      16.373  64.353  35.666  1.00  0.00     0.205 C 
BRANCH  26  29
HETATM   29  O3  UNL     1      15.664  63.344  32.249  1.00  0.00    -0.390 OA
ATOM     30  H3  UNL     1      16.249  62.891  31.653  1.00  0.00     0.210 HD
ENDBRANCH  26  29
BRANCH  27  31
HETATM   31  O4  UNL     1      17.405  62.465  34.725  1.00  0.00    -0.390 OA
ATOM     32  H4  UNL     1      18.219  62.846  34.418  1.00  0.00     0.210 HD
ENDBRANCH  27  31
BRANCH  28  33
HETATM   33  O5  UNL     1      15.047  64.586  36.085  1.00  0.00    -0.388 OA
ATOM     34  H5  UNL     1      14.584  65.139  35.466  1.00  0.00     0.210 HD
ENDBRANCH  28  33
ENDBRANCH  21  22
ENDBRANCH   2  21
TORSDOF 12
ENDMDL
