MODEL 1
REMARK VINA RESULT: -6.996008189      0.000      0.000
REMARK  13 active torsions:
REMARK  status: ('A' for Active; 'I' for Inactive)
REMARK    1  A    between atoms: C3_3  and  C4_4 
REMARK    2  A    between atoms: C4_4  and  C5_5 
REMARK    3  A    between atoms: C5_5  and  S2_7 
REMARK    4  A    between atoms: S2_7  and  S3_8 
REMARK    5  A    between atoms: S3_8  and  C6_9 
REMARK    6  A    between atoms: C6_9  and  N4_21 
REMARK    7  A    between atoms: N1_10  and  N2_12 
REMARK       I    between atoms: N2_12  and  C7_14 
REMARK    8  A    between atoms: C7_14  and  C8_16 
REMARK    9  A    between atoms: C8_16  and  N3_17 
REMARK   10  A    between atoms: N4_21  and  C9_23 
REMARK   11  A    between atoms: C9_23  and  C10_24 
REMARK   12  A    between atoms: C10_24  and  C11_25 
REMARK       I    between atoms: C11_25  and  N5_27 
REMARK   13  A    between atoms: N5_27  and  C12_29 
ROOT
HETATM    1  C6  UNL     1      20.301  69.154  32.268  1.00  0.00     0.166 C 
HETATM    2  N1  UNL     1      21.281  69.954  32.396  1.00  0.00    -0.277 N 
ATOM      3  H1  UNL     1      21.410  70.456  33.274  1.00  0.00     0.189 HD
ENDROOT
BRANCH   1   4
HETATM    4  S3  UNL     1      19.165  68.924  33.631  1.00  0.00    -0.014 SA
BRANCH   4   5
HETATM    5  S2  UNL     1      19.943  67.643  35.099  1.00  0.00    -0.042 SA
BRANCH   5   6
HETATM    6  C5  UNL     1      20.831  68.478  36.375  1.00  0.00     0.060 C 
HETATM    7  S1  UNL     1      21.993  69.246  35.964  1.00  0.00    -0.076 SA
BRANCH   6   8
HETATM    8  C4  UNL     1      20.483  68.455  37.814  1.00  0.00     0.085 C 
BRANCH   8   9
HETATM    9  C3  UNL     1      19.230  67.664  38.067  1.00  0.00    -0.025 C 
HETATM   10  C2  UNL     1      19.225  66.706  38.962  1.00  0.00    -0.035 C 
HETATM   11  C1  UNL     1      17.999  65.908  39.231  1.00  0.00     0.036 C 
ENDBRANCH   8   9
ENDBRANCH   6   8
ENDBRANCH   5   6
ENDBRANCH   4   5
ENDBRANCH   1   4
BRANCH   1  12
HETATM   12  N4  UNL     1      20.104  68.450  31.065  1.00  0.00    -0.369 N 
ATOM     13  H4  UNL     1      20.727  67.677  30.831  1.00  0.00     0.161 HD
BRANCH  12  14
HETATM   14  C9  UNL     1      19.035  68.798  30.151  1.00  0.00     0.131 C 
BRANCH  14  15
HETATM   15  C10 UNL     1      19.626  69.136  28.789  1.00  0.00     0.122 C 
BRANCH  15  16
HETATM   16  C11 UNL     1      20.343  67.946  28.229  1.00  0.00     0.219 C 
HETATM   17  O2  UNL     1      21.596  67.889  28.253  1.00  0.00    -0.274 OA
HETATM   18  N5  UNL     1      19.627  66.872  27.666  1.00  0.00    -0.355 N 
ATOM     19  H5  UNL     1      18.608  66.898  27.634  1.00  0.00     0.162 HD
BRANCH  18  20
HETATM   20  C12 UNL     1      20.335  65.738  27.134  1.00  0.00     0.103 C 
HETATM   21  C13 UNL     1      19.369  64.910  26.277  1.00  0.00     0.100 C 
HETATM   22  S4  UNL     1      18.644  64.304  27.827  1.00  0.00    -0.165 SA
HETATM   23  C14 UNL     1      20.420  64.554  28.074  1.00  0.00     0.100 C 
ENDBRANCH  18  20
ENDBRANCH  15  16
ENDBRANCH  14  15
ENDBRANCH  12  14
ENDBRANCH   1  12
BRANCH   2  24
HETATM   24  N2  UNL     1      22.181  70.152  31.349  1.00  0.00    -0.267 N 
HETATM   25  C7  UNL     1      22.121  71.319  30.571  1.00  0.00     0.261 C 
HETATM   26  O1  UNL     1      21.262  72.198  30.802  1.00  0.00    -0.270 OA
ATOM     27  H2  UNL     1      22.887  69.444  31.147  1.00  0.00     0.190 HD
BRANCH  25  28
HETATM   28  C8  UNL     1      23.063  71.563  29.450  1.00  0.00     0.333 C 
BRANCH  28  29
HETATM   29  N3  UNL     1      23.007  70.496  28.487  1.00  0.00    -0.071 N 
ATOM     30  H33 UNL     1      23.315  70.805  27.565  1.00  0.00     0.274 HD
ATOM     31  H32 UNL     1      23.726  69.793  28.664  1.00  0.00     0.274 HD
ATOM     32  H31 UNL     1      22.077  70.081  28.452  1.00  0.00     0.274 HD
ENDBRANCH  28  29
ENDBRANCH  25  28
ENDBRANCH   2  24
TORSDOF 13
ENDMDL
MODEL 2
REMARK VINA RESULT: -6.875493611      2.776      3.453
REMARK  13 active torsions:
REMARK  status: ('A' for Active; 'I' for Inactive)
REMARK    1  A    between atoms: C3_3  and  C4_4 
REMARK    2  A    between atoms: C4_4  and  C5_5 
REMARK    3  A    between atoms: C5_5  and  S2_7 
REMARK    4  A    between atoms: S2_7  and  S3_8 
REMARK    5  A    between atoms: S3_8  and  C6_9 
REMARK    6  A    between atoms: C6_9  and  N4_21 
REMARK    7  A    between atoms: N1_10  and  N2_12 
REMARK       I    between atoms: N2_12  and  C7_14 
REMARK    8  A    between atoms: C7_14  and  C8_16 
REMARK    9  A    between atoms: C8_16  and  N3_17 
REMARK   10  A    between atoms: N4_21  and  C9_23 
REMARK   11  A    between atoms: C9_23  and  C10_24 
REMARK   12  A    between atoms: C10_24  and  C11_25 
REMARK       I    between atoms: C11_25  and  N5_27 
REMARK   13  A    between atoms: N5_27  and  C12_29 
ROOT
HETATM    1  C6  UNL     1      20.137  69.118  32.268  1.00  0.00     0.166 C 
HETATM    2  N1  UNL     1      21.241  69.737  32.386  1.00  0.00    -0.277 N 
ATOM      3  H1  UNL     1      21.523  70.095  33.298  1.00  0.00     0.189 HD
ENDROOT
BRANCH   1   4
HETATM    4  S3  UNL     1      19.096  68.887  33.706  1.00  0.00    -0.014 SA
BRANCH   4   5
HETATM    5  S2  UNL     1      19.992  67.638  35.134  1.00  0.00    -0.042 SA
BRANCH   5   6
HETATM    6  C5  UNL     1      20.907  68.508  36.367  1.00  0.00     0.060 C 
HETATM    7  S1  UNL     1      22.085  69.229  35.917  1.00  0.00    -0.076 SA
BRANCH   6   8
HETATM    8  C4  UNL     1      20.567  68.559  37.808  1.00  0.00     0.085 C 
BRANCH   8   9
HETATM    9  C3  UNL     1      19.354  67.729  38.118  1.00  0.00    -0.025 C 
HETATM   10  C2  UNL     1      19.414  66.789  39.030  1.00  0.00    -0.035 C 
HETATM   11  C1  UNL     1      18.227  65.953  39.356  1.00  0.00     0.036 C 
ENDBRANCH   8   9
ENDBRANCH   6   8
ENDBRANCH   5   6
ENDBRANCH   4   5
ENDBRANCH   1   4
BRANCH   1  12
HETATM   12  N4  UNL     1      19.727  68.616  31.019  1.00  0.00    -0.369 N 
ATOM     13  H4  UNL     1      19.391  69.264  30.306  1.00  0.00     0.161 HD
BRANCH  12  14
HETATM   14  C9  UNL     1      19.772  67.199  30.722  1.00  0.00     0.131 C 
BRANCH  14  15
HETATM   15  C10 UNL     1      18.454  66.775  30.086  1.00  0.00     0.122 C 
BRANCH  15  16
HETATM   16  C11 UNL     1      17.386  66.681  31.132  1.00  0.00     0.219 C 
HETATM   17  O2  UNL     1      16.655  67.669  31.385  1.00  0.00    -0.274 OA
HETATM   18  N5  UNL     1      17.181  65.487  31.850  1.00  0.00    -0.355 N 
ATOM     19  H5  UNL     1      17.765  64.671  31.661  1.00  0.00     0.162 HD
BRANCH  18  20
HETATM   20  C12 UNL     1      16.149  65.418  32.850  1.00  0.00     0.103 C 
HETATM   21  C13 UNL     1      16.805  65.227  34.223  1.00  0.00     0.100 C 
HETATM   22  S4  UNL     1      17.094  63.497  33.753  1.00  0.00    -0.165 SA
HETATM   23  C14 UNL     1      15.532  64.046  33.021  1.00  0.00     0.100 C 
ENDBRANCH  18  20
ENDBRANCH  15  16
ENDBRANCH  14  15
ENDBRANCH  12  14
ENDBRANCH   1  12
BRANCH   2  24
HETATM   24  N2  UNL     1      22.071  69.932  31.281  1.00  0.00    -0.267 N 
HETATM   25  C7  UNL     1      22.075  71.161  30.604  1.00  0.00     0.261 C 
HETATM   26  O1  UNL     1      21.336  72.100  30.976  1.00  0.00    -0.270 OA
ATOM     27  H2  UNL     1      22.678  69.177  30.965  1.00  0.00     0.190 HD
BRANCH  25  28
HETATM   28  C8  UNL     1      22.944  71.403  29.425  1.00  0.00     0.333 C 
BRANCH  28  29
HETATM   29  N3  UNL     1      22.897  70.294  28.511  1.00  0.00    -0.071 N 
ATOM     30  H33 UNL     1      23.622  69.607  28.716  1.00  0.00     0.274 HD
ATOM     31  H32 UNL     1      22.077  69.708  28.674  1.00  0.00     0.274 HD
ATOM     32  H31 UNL     1      22.945  70.614  27.544  1.00  0.00     0.274 HD
ENDBRANCH  28  29
ENDBRANCH  25  28
ENDBRANCH   2  24
TORSDOF 13
ENDMDL
MODEL 3
REMARK VINA RESULT: -6.813512195      2.145      2.451
REMARK  13 active torsions:
REMARK  status: ('A' for Active; 'I' for Inactive)
REMARK    1  A    between atoms: C3_3  and  C4_4 
REMARK    2  A    between atoms: C4_4  and  C5_5 
REMARK    3  A    between atoms: C5_5  and  S2_7 
REMARK    4  A    between atoms: S2_7  and  S3_8 
REMARK    5  A    between atoms: S3_8  and  C6_9 
REMARK    6  A    between atoms: C6_9  and  N4_21 
REMARK    7  A    between atoms: N1_10  and  N2_12 
REMARK       I    between atoms: N2_12  and  C7_14 
REMARK    8  A    between atoms: C7_14  and  C8_16 
REMARK    9  A    between atoms: C8_16  and  N3_17 
REMARK   10  A    between atoms: N4_21  and  C9_23 
REMARK   11  A    between atoms: C9_23  and  C10_24 
REMARK   12  A    between atoms: C10_24  and  C11_25 
REMARK       I    between atoms: C11_25  and  N5_27 
REMARK   13  A    between atoms: N5_27  and  C12_29 
ROOT
HETATM    1  C6  UNL     1      20.482  69.216  32.224  1.00  0.00     0.166 C 
HETATM    2  N1  UNL     1      21.350  70.143  32.265  1.00  0.00    -0.277 N 
ATOM      3  H1  UNL     1      21.355  70.795  33.050  1.00  0.00     0.189 HD
ENDROOT
BRANCH   1   4
HETATM    4  S3  UNL     1      19.281  69.070  33.543  1.00  0.00    -0.014 SA
BRANCH   4   5
HETATM    5  S2  UNL     1      19.922  67.760  35.051  1.00  0.00    -0.042 SA
BRANCH   5   6
HETATM    6  C5  UNL     1      20.926  68.528  36.282  1.00  0.00     0.060 C 
HETATM    7  S1  UNL     1      22.134  69.189  35.819  1.00  0.00    -0.076 SA
BRANCH   6   8
HETATM    8  C4  UNL     1      20.632  68.550  37.733  1.00  0.00     0.085 C 
BRANCH   8   9
HETATM    9  C3  UNL     1      19.440  67.699  38.069  1.00  0.00    -0.025 C 
HETATM   10  C2  UNL     1      19.506  66.829  39.047  1.00  0.00    -0.035 C 
HETATM   11  C1  UNL     1      18.341  65.974  39.399  1.00  0.00     0.036 C 
ENDBRANCH   8   9
ENDBRANCH   6   8
ENDBRANCH   5   6
ENDBRANCH   4   5
ENDBRANCH   1   4
BRANCH   1  12
HETATM   12  N4  UNL     1      20.458  68.305  31.150  1.00  0.00    -0.369 N 
ATOM     13  H4  UNL     1      21.278  67.727  30.968  1.00  0.00     0.161 HD
BRANCH  12  14
HETATM   14  C9  UNL     1      19.293  68.171  30.299  1.00  0.00     0.131 C 
BRANCH  14  15
HETATM   15  C10 UNL     1      19.445  69.086  29.090  1.00  0.00     0.122 C 
BRANCH  15  16
HETATM   16  C11 UNL     1      20.652  68.692  28.295  1.00  0.00     0.219 C 
HETATM   17  O2  UNL     1      21.266  67.629  28.556  1.00  0.00    -0.274 OA
HETATM   18  N5  UNL     1      21.120  69.503  27.243  1.00  0.00    -0.355 N 
ATOM     19  H5  UNL     1      20.637  70.372  27.014  1.00  0.00     0.162 HD
BRANCH  18  20
HETATM   20  C12 UNL     1      22.281  69.105  26.492  1.00  0.00     0.103 C 
HETATM   21  C13 UNL     1      22.743  70.290  25.633  1.00  0.00     0.100 C 
HETATM   22  S4  UNL     1      21.346  69.929  24.531  1.00  0.00    -0.165 SA
HETATM   23  C14 UNL     1      21.974  68.370  25.204  1.00  0.00     0.100 C 
ENDBRANCH  18  20
ENDBRANCH  15  16
ENDBRANCH  14  15
ENDBRANCH  12  14
ENDBRANCH   1  12
BRANCH   2  24
HETATM   24  N2  UNL     1      22.298  70.280  31.250  1.00  0.00    -0.267 N 
HETATM   25  C7  UNL     1      22.263  71.388  30.390  1.00  0.00     0.261 C 
HETATM   26  O1  UNL     1      21.383  72.269  30.517  1.00  0.00    -0.270 OA
ATOM     27  H2  UNL     1      23.020  69.570  31.133  1.00  0.00     0.190 HD
BRANCH  25  28
HETATM   28  C8  UNL     1      23.254  71.565  29.300  1.00  0.00     0.333 C 
BRANCH  28  29
HETATM   29  N3  UNL     1      23.867  72.864  29.365  1.00  0.00    -0.071 N 
ATOM     30  H33 UNL     1      23.596  73.366  30.211  1.00  0.00     0.274 HD
ATOM     31  H32 UNL     1      24.870  72.797  29.540  1.00  0.00     0.274 HD
ATOM     32  H31 UNL     1      23.667  73.407  28.526  1.00  0.00     0.274 HD
ENDBRANCH  28  29
ENDBRANCH  25  28
ENDBRANCH   2  24
TORSDOF 13
ENDMDL
MODEL 4
REMARK VINA RESULT: -6.730395616      2.533      3.055
REMARK  13 active torsions:
REMARK  status: ('A' for Active; 'I' for Inactive)
REMARK    1  A    between atoms: C3_3  and  C4_4 
REMARK    2  A    between atoms: C4_4  and  C5_5 
REMARK    3  A    between atoms: C5_5  and  S2_7 
REMARK    4  A    between atoms: S2_7  and  S3_8 
REMARK    5  A    between atoms: S3_8  and  C6_9 
REMARK    6  A    between atoms: C6_9  and  N4_21 
REMARK    7  A    between atoms: N1_10  and  N2_12 
REMARK       I    between atoms: N2_12  and  C7_14 
REMARK    8  A    between atoms: C7_14  and  C8_16 
REMARK    9  A    between atoms: C8_16  and  N3_17 
REMARK   10  A    between atoms: N4_21  and  C9_23 
REMARK   11  A    between atoms: C9_23  and  C10_24 
REMARK   12  A    between atoms: C10_24  and  C11_25 
REMARK       I    between atoms: C11_25  and  N5_27 
REMARK   13  A    between atoms: N5_27  and  C12_29 
ROOT
HETATM    1  C6  UNL     1      20.521  69.222  32.198  1.00  0.00     0.166 C 
HETATM    2  N1  UNL     1      21.318  70.208  32.296  1.00  0.00    -0.277 N 
ATOM      3  H1  UNL     1      21.242  70.839  33.094  1.00  0.00     0.189 HD
ENDROOT
BRANCH   1   4
HETATM    4  S3  UNL     1      19.281  68.959  33.461  1.00  0.00    -0.014 SA
BRANCH   4   5
HETATM    5  S2  UNL     1      19.970  67.703  34.993  1.00  0.00    -0.042 SA
BRANCH   5   6
HETATM    6  C5  UNL     1      20.924  68.536  36.221  1.00  0.00     0.060 C 
HETATM    7  S1  UNL     1      22.123  69.218  35.764  1.00  0.00    -0.076 SA
BRANCH   6   8
HETATM    8  C4  UNL     1      20.598  68.593  37.665  1.00  0.00     0.085 C 
BRANCH   8   9
HETATM    9  C3  UNL     1      19.426  67.715  38.001  1.00  0.00    -0.025 C 
HETATM   10  C2  UNL     1      19.497  66.877  39.007  1.00  0.00    -0.035 C 
HETATM   11  C1  UNL     1      18.351  65.997  39.360  1.00  0.00     0.036 C 
ENDBRANCH   8   9
ENDBRANCH   6   8
ENDBRANCH   5   6
ENDBRANCH   4   5
ENDBRANCH   1   4
BRANCH   1  12
HETATM   12  N4  UNL     1      20.607  68.339  31.105  1.00  0.00    -0.369 N 
ATOM     13  H4  UNL     1      21.519  68.140  30.695  1.00  0.00     0.161 HD
BRANCH  12  14
HETATM   14  C9  UNL     1      19.429  67.704  30.551  1.00  0.00     0.131 C 
BRANCH  14  15
HETATM   15  C10 UNL     1      19.822  66.374  29.920  1.00  0.00     0.122 C 
BRANCH  15  16
HETATM   16  C11 UNL     1      18.885  65.295  30.370  1.00  0.00     0.219 C 
HETATM   17  O2  UNL     1      18.715  64.268  29.669  1.00  0.00    -0.274 OA
HETATM   18  N5  UNL     1      18.180  65.411  31.584  1.00  0.00    -0.355 N 
ATOM     19  H5  UNL     1      18.302  66.238  32.168  1.00  0.00     0.162 HD
BRANCH  18  20
HETATM   20  C12 UNL     1      17.286  64.362  31.997  1.00  0.00     0.103 C 
HETATM   21  C13 UNL     1      15.958  64.991  32.439  1.00  0.00     0.100 C 
HETATM   22  S4  UNL     1      16.801  65.494  33.967  1.00  0.00    -0.165 SA
HETATM   23  C14 UNL     1      17.475  63.904  33.427  1.00  0.00     0.100 C 
ENDBRANCH  18  20
ENDBRANCH  15  16
ENDBRANCH  14  15
ENDBRANCH  12  14
ENDBRANCH   1  12
BRANCH   2  24
HETATM   24  N2  UNL     1      22.294  70.437  31.326  1.00  0.00    -0.267 N 
HETATM   25  C7  UNL     1      22.195  71.540  30.465  1.00  0.00     0.261 C 
HETATM   26  O1  UNL     1      21.233  72.336  30.551  1.00  0.00    -0.270 OA
ATOM     27  H2  UNL     1      23.084  69.797  31.242  1.00  0.00     0.190 HD
BRANCH  25  28
HETATM   28  C8  UNL     1      23.214  71.814  29.421  1.00  0.00     0.333 C 
BRANCH  28  29
HETATM   29  N3  UNL     1      23.144  70.843  28.363  1.00  0.00    -0.071 N 
ATOM     30  H33 UNL     1      22.191  70.736  28.014  1.00  0.00     0.274 HD
ATOM     31  H32 UNL     1      23.584  71.186  27.509  1.00  0.00     0.274 HD
ATOM     32  H31 UNL     1      23.538  69.951  28.657  1.00  0.00     0.274 HD
ENDBRANCH  28  29
ENDBRANCH  25  28
ENDBRANCH   2  24
TORSDOF 13
ENDMDL
MODEL 5
REMARK VINA RESULT: -6.651064906      3.097      5.306
REMARK  13 active torsions:
REMARK  status: ('A' for Active; 'I' for Inactive)
REMARK    1  A    between atoms: C3_3  and  C4_4 
REMARK    2  A    between atoms: C4_4  and  C5_5 
REMARK    3  A    between atoms: C5_5  and  S2_7 
REMARK    4  A    between atoms: S2_7  and  S3_8 
REMARK    5  A    between atoms: S3_8  and  C6_9 
REMARK    6  A    between atoms: C6_9  and  N4_21 
REMARK    7  A    between atoms: N1_10  and  N2_12 
REMARK       I    between atoms: N2_12  and  C7_14 
REMARK    8  A    between atoms: C7_14  and  C8_16 
REMARK    9  A    between atoms: C8_16  and  N3_17 
REMARK   10  A    between atoms: N4_21  and  C9_23 
REMARK   11  A    between atoms: C9_23  and  C10_24 
REMARK   12  A    between atoms: C10_24  and  C11_25 
REMARK       I    between atoms: C11_25  and  N5_27 
REMARK   13  A    between atoms: N5_27  and  C12_29 
ROOT
HETATM    1  C6  UNL     1      17.815  66.140  33.847  1.00  0.00     0.166 C 
HETATM    2  N1  UNL     1      17.539  65.540  32.760  1.00  0.00    -0.277 N 
ATOM      3  H1  UNL     1      16.747  64.898  32.726  1.00  0.00     0.189 HD
ENDROOT
BRANCH   1   4
HETATM    4  S3  UNL     1      16.810  65.846  35.298  1.00  0.00    -0.014 SA
BRANCH   4   5
HETATM    5  S2  UNL     1      17.173  67.256  36.808  1.00  0.00    -0.042 SA
BRANCH   5   6
HETATM    6  C5  UNL     1      17.954  66.582  38.239  1.00  0.00     0.060 C 
HETATM    7  S1  UNL     1      17.198  65.594  38.990  1.00  0.00    -0.076 SA
BRANCH   6   8
HETATM    8  C4  UNL     1      19.306  66.942  38.725  1.00  0.00     0.085 C 
BRANCH   8   9
HETATM    9  C3  UNL     1      19.878  68.101  37.959  1.00  0.00    -0.025 C 
HETATM   10  C2  UNL     1      20.952  67.940  37.226  1.00  0.00    -0.035 C 
HETATM   11  C1  UNL     1      21.539  69.072  36.458  1.00  0.00     0.036 C 
ENDBRANCH   8   9
ENDBRANCH   6   8
ENDBRANCH   5   6
ENDBRANCH   4   5
ENDBRANCH   1   4
BRANCH   1  12
HETATM   12  N4  UNL     1      18.903  67.030  33.917  1.00  0.00    -0.369 N 
ATOM     13  H4  UNL     1      19.838  66.662  34.094  1.00  0.00     0.161 HD
BRANCH  12  14
HETATM   14  C9  UNL     1      18.726  68.457  33.743  1.00  0.00     0.131 C 
BRANCH  14  15
HETATM   15  C10 UNL     1      19.995  69.054  33.149  1.00  0.00     0.122 C 
BRANCH  15  16
HETATM   16  C11 UNL     1      19.882  69.122  31.656  1.00  0.00     0.219 C 
HETATM   17  O2  UNL     1      18.989  68.475  31.057  1.00  0.00    -0.274 OA
HETATM   18  N5  UNL     1      20.772  69.908  30.900  1.00  0.00    -0.355 N 
ATOM     19  H5  UNL     1      21.506  70.441  31.367  1.00  0.00     0.162 HD
BRANCH  18  20
HETATM   20  C12 UNL     1      20.645  69.959  29.468  1.00  0.00     0.103 C 
HETATM   21  C13 UNL     1      21.928  69.403  28.838  1.00  0.00     0.100 C 
HETATM   22  S4  UNL     1      22.726  70.974  29.277  1.00  0.00    -0.165 SA
HETATM   23  C14 UNL     1      20.996  71.298  28.854  1.00  0.00     0.100 C 
ENDBRANCH  18  20
ENDBRANCH  15  16
ENDBRANCH  14  15
ENDBRANCH  12  14
ENDBRANCH   1  12
BRANCH   2  24
HETATM   24  N2  UNL     1      18.307  65.751  31.615  1.00  0.00    -0.267 N 
HETATM   25  C7  UNL     1      18.697  64.668  30.812  1.00  0.00     0.261 C 
HETATM   26  O1  UNL     1      18.366  63.498  31.110  1.00  0.00    -0.270 OA
ATOM     27  H2  UNL     1      18.586  66.697  31.359  1.00  0.00     0.190 HD
BRANCH  25  28
HETATM   28  C8  UNL     1      19.514  64.854  29.587  1.00  0.00     0.333 C 
BRANCH  28  29
HETATM   29  N3  UNL     1      20.187  66.125  29.603  1.00  0.00    -0.071 N 
ATOM     30  H33 UNL     1      20.209  66.527  30.540  1.00  0.00     0.274 HD
ATOM     31  H32 UNL     1      21.191  66.020  29.455  1.00  0.00     0.274 HD
ATOM     32  H31 UNL     1      19.772  66.768  28.929  1.00  0.00     0.274 HD
ENDBRANCH  28  29
ENDBRANCH  25  28
ENDBRANCH   2  24
TORSDOF 13
ENDMDL
