MODEL 1
REMARK VINA RESULT: -7.550943507      0.000      0.000
REMARK  14 active torsions:
REMARK  status: ('A' for Active; 'I' for Inactive)
REMARK    1  A    between atoms: C2_2  and  C4_4 
REMARK    2  A    between atoms: C4_4  and  O2_6 
REMARK    3  A    between atoms: O2_6  and  C5_7 
REMARK    4  A    between atoms: C10_14  and  C11_15 
REMARK    5  A    between atoms: C11_15  and  C13_17 
REMARK    6  A    between atoms: C13_17  and  O5_18 
REMARK    7  A    between atoms: C13_17  and  C14_20 
REMARK    8  A    between atoms: C14_20  and  C15_21 
REMARK    9  A    between atoms: C15_21  and  O6_22 
REMARK   10  A    between atoms: C15_21  and  C16_24 
REMARK   11  A    between atoms: C16_24  and  C17_25 
REMARK   12  A    between atoms: C17_25  and  C18_26 
REMARK   13  A    between atoms: C20_28  and  O7_29 
REMARK   14  A    between atoms: C21_31  and  O8_32 
ROOT
HETATM    1  C5  UNL     1      13.299  59.551  34.229  1.00  0.00     0.338 C 
HETATM    2  O3  UNL     1      13.998  58.433  33.784  1.00  0.00    -0.204 OA
HETATM    3  O4  UNL     1      13.952  58.256  32.503  1.00  0.00    -0.224 OA
HETATM    4  C6  UNL     1      14.106  59.430  31.827  1.00  0.00     0.126 C 
HETATM    5  C7  UNL     1      12.855  60.054  31.307  1.00  0.00     0.052 C 
HETATM    6  C8  UNL     1      15.053  59.319  30.624  1.00  0.00     0.044 C 
HETATM    7  C9  UNL     1      15.526  60.770  30.427  1.00  0.00     0.011 C 
HETATM    8  C10 UNL     1      15.152  61.501  31.693  1.00  0.00     0.032 C 
HETATM    9  C20 UNL     1      14.953  60.399  32.671  1.00  0.00     0.126 C 
HETATM   10  C21 UNL     1      14.081  60.788  33.848  1.00  0.00     0.214 C 
ENDROOT
BRANCH   8  11
HETATM   11  C11 UNL     1      16.034  62.617  32.084  1.00  0.00     0.017 C 
HETATM   12  C12 UNL     1      17.144  62.991  31.186  1.00  0.00     0.013 C 
BRANCH  11  13
HETATM   13  C13 UNL     1      15.189  63.807  32.538  1.00  0.00     0.124 C 
BRANCH  13  14
HETATM   14  O5  UNL     1      14.658  64.412  31.407  1.00  0.00    -0.395 OA
ATOM     15  H5  UNL     1      13.804  64.029  31.243  1.00  0.00     0.210 HD
ENDBRANCH  13  14
BRANCH  13  16
HETATM   16  C14 UNL     1      15.994  64.790  33.303  1.00  0.00     0.063 C 
BRANCH  16  17
HETATM   17  C15 UNL     1      16.075  64.448  34.749  1.00  0.00     0.120 C 
BRANCH  17  18
HETATM   18  O6  UNL     1      14.866  63.938  35.242  1.00  0.00    -0.395 OA
ATOM     19  H6  UNL     1      14.334  64.610  35.653  1.00  0.00     0.210 HD
ENDBRANCH  17  18
BRANCH  17  20
HETATM   20  C16 UNL     1      16.558  65.515  35.678  1.00  0.00     0.032 C 
BRANCH  20  21
HETATM   21  C17 UNL     1      15.874  65.493  37.035  1.00  0.00     0.002 C 
BRANCH  21  22
HETATM   22  C18 UNL     1      16.637  66.459  37.933  1.00  0.00    -0.004 C 
HETATM   23  C19 UNL     1      17.339  65.709  39.035  1.00  0.00     0.005 C 
ENDBRANCH  21  22
ENDBRANCH  20  21
ENDBRANCH  17  20
ENDBRANCH  16  17
ENDBRANCH  13  16
ENDBRANCH  11  13
ENDBRANCH   8  11
BRANCH   9  24
HETATM   24  O7  UNL     1      16.084  59.746  33.066  1.00  0.00    -0.383 OA
ATOM     25  H7  UNL     1      16.227  59.927  33.988  1.00  0.00     0.210 HD
ENDBRANCH   9  24
BRANCH  10  26
HETATM   26  O8  UNL     1      14.976  61.058  34.908  1.00  0.00    -0.387 OA
ATOM     27  H8  UNL     1      15.709  60.461  34.814  1.00  0.00     0.210 HD
ENDBRANCH  10  26
BRANCH   1  28
HETATM   28  O2  UNL     1      13.209  59.405  35.663  1.00  0.00    -0.280 OA
BRANCH  28  29
HETATM   29  C4  UNL     1      12.144  59.933  36.359  1.00  0.00     0.290 C 
HETATM   30  O1  UNL     1      11.023  59.954  35.773  1.00  0.00    -0.260 OA
BRANCH  29  31
HETATM   31  C2  UNL     1      12.229  60.469  37.730  1.00  0.00     0.004 C 
HETATM   32  C1  UNL     1      11.906  61.715  37.995  1.00  0.00     0.024 C 
HETATM   33  C3  UNL     1      12.679  59.582  38.825  1.00  0.00     0.054 C 
ENDBRANCH  29  31
ENDBRANCH  28  29
ENDBRANCH   1  28
TORSDOF 14
ENDMDL
MODEL 2
REMARK VINA RESULT: -7.536282680      3.764      7.720
REMARK  14 active torsions:
REMARK  status: ('A' for Active; 'I' for Inactive)
REMARK    1  A    between atoms: C2_2  and  C4_4 
REMARK    2  A    between atoms: C4_4  and  O2_6 
REMARK    3  A    between atoms: O2_6  and  C5_7 
REMARK    4  A    between atoms: C10_14  and  C11_15 
REMARK    5  A    between atoms: C11_15  and  C13_17 
REMARK    6  A    between atoms: C13_17  and  O5_18 
REMARK    7  A    between atoms: C13_17  and  C14_20 
REMARK    8  A    between atoms: C14_20  and  C15_21 
REMARK    9  A    between atoms: C15_21  and  O6_22 
REMARK   10  A    between atoms: C15_21  and  C16_24 
REMARK   11  A    between atoms: C16_24  and  C17_25 
REMARK   12  A    between atoms: C17_25  and  C18_26 
REMARK   13  A    between atoms: C20_28  and  O7_29 
REMARK   14  A    between atoms: C21_31  and  O8_32 
ROOT
HETATM    1  C5  UNL     1      18.918  66.545  30.437  1.00  0.00     0.338 C 
HETATM    2  O3  UNL     1      18.173  66.326  29.282  1.00  0.00    -0.204 OA
HETATM    3  O4  UNL     1      18.089  65.082  28.935  1.00  0.00    -0.224 OA
HETATM    4  C6  UNL     1      17.875  64.272  30.010  1.00  0.00     0.126 C 
HETATM    5  C7  UNL     1      19.071  63.552  30.535  1.00  0.00     0.052 C 
HETATM    6  C8  UNL     1      16.812  63.193  29.757  1.00  0.00     0.044 C 
HETATM    7  C9  UNL     1      16.330  62.850  31.176  1.00  0.00     0.011 C 
HETATM    8  C10 UNL     1      16.831  63.963  32.063  1.00  0.00     0.032 C 
HETATM    9  C20 UNL     1      17.121  65.056  31.098  1.00  0.00     0.126 C 
HETATM   10  C21 UNL     1      18.108  66.079  31.625  1.00  0.00     0.214 C 
ENDROOT
BRANCH   8  11
HETATM   11  C11 UNL     1      15.998  64.284  33.238  1.00  0.00     0.017 C 
HETATM   12  C12 UNL     1      14.687  63.620  33.380  1.00  0.00     0.013 C 
BRANCH  11  13
HETATM   13  C13 UNL     1      16.851  64.230  34.505  1.00  0.00     0.124 C 
BRANCH  13  14
HETATM   14  O5  UNL     1      16.436  63.138  35.254  1.00  0.00    -0.395 OA
ATOM     15  H5  UNL     1      17.200  62.768  35.680  1.00  0.00     0.210 HD
ENDBRANCH  13  14
BRANCH  13  16
HETATM   16  C14 UNL     1      16.717  65.471  35.308  1.00  0.00     0.063 C 
BRANCH  16  17
HETATM   17  C15 UNL     1      16.375  65.187  36.728  1.00  0.00     0.120 C 
BRANCH  17  18
HETATM   18  O6  UNL     1      15.036  64.802  36.884  1.00  0.00    -0.395 OA
ATOM     19  H6  UNL     1      14.947  64.026  37.425  1.00  0.00     0.210 HD
ENDBRANCH  17  18
BRANCH  17  20
HETATM   20  C16 UNL     1      16.686  66.250  37.732  1.00  0.00     0.032 C 
BRANCH  20  21
HETATM   21  C17 UNL     1      17.176  65.703  39.062  1.00  0.00     0.002 C 
BRANCH  21  22
HETATM   22  C18 UNL     1      18.621  66.159  39.225  1.00  0.00    -0.004 C 
HETATM   23  C19 UNL     1      18.914  67.315  38.305  1.00  0.00     0.005 C 
ENDBRANCH  21  22
ENDBRANCH  20  21
ENDBRANCH  17  20
ENDBRANCH  16  17
ENDBRANCH  13  16
ENDBRANCH  11  13
ENDBRANCH   8  11
BRANCH   9  24
HETATM   24  O7  UNL     1      16.032  65.645  30.525  1.00  0.00    -0.383 OA
ATOM     25  H7  UNL     1      16.314  66.095  29.737  1.00  0.00     0.210 HD
ENDBRANCH   9  24
BRANCH  10  26
HETATM   26  O8  UNL     1      17.325  67.175  32.051  1.00  0.00    -0.387 OA
ATOM     27  H8  UNL     1      17.850  67.671  32.669  1.00  0.00     0.210 HD
ENDBRANCH  10  26
BRANCH   1  28
HETATM   28  O2  UNL     1      19.150  67.970  30.481  1.00  0.00    -0.280 OA
BRANCH  28  29
HETATM   29  C4  UNL     1      20.360  68.473  30.902  1.00  0.00     0.290 C 
HETATM   30  O1  UNL     1      21.397  68.066  30.301  1.00  0.00    -0.260 OA
BRANCH  29  31
HETATM   31  C2  UNL     1      20.523  69.447  31.998  1.00  0.00     0.004 C 
HETATM   32  C1  UNL     1      20.011  69.222  33.188  1.00  0.00     0.024 C 
HETATM   33  C3  UNL     1      21.281  70.692  31.751  1.00  0.00     0.054 C 
ENDBRANCH  29  31
ENDBRANCH  28  29
ENDBRANCH   1  28
TORSDOF 14
ENDMDL
MODEL 3
REMARK VINA RESULT: -7.510853544      3.655      7.527
REMARK  14 active torsions:
REMARK  status: ('A' for Active; 'I' for Inactive)
REMARK    1  A    between atoms: C2_2  and  C4_4 
REMARK    2  A    between atoms: C4_4  and  O2_6 
REMARK    3  A    between atoms: O2_6  and  C5_7 
REMARK    4  A    between atoms: C10_14  and  C11_15 
REMARK    5  A    between atoms: C11_15  and  C13_17 
REMARK    6  A    between atoms: C13_17  and  O5_18 
REMARK    7  A    between atoms: C13_17  and  C14_20 
REMARK    8  A    between atoms: C14_20  and  C15_21 
REMARK    9  A    between atoms: C15_21  and  O6_22 
REMARK   10  A    between atoms: C15_21  and  C16_24 
REMARK   11  A    between atoms: C16_24  and  C17_25 
REMARK   12  A    between atoms: C17_25  and  C18_26 
REMARK   13  A    between atoms: C20_28  and  O7_29 
REMARK   14  A    between atoms: C21_31  and  O8_32 
ROOT
HETATM    1  C5  UNL     1      18.584  66.315  30.733  1.00  0.00     0.338 C 
HETATM    2  O3  UNL     1      17.739  66.112  29.646  1.00  0.00    -0.204 OA
HETATM    3  O4  UNL     1      17.555  64.866  29.345  1.00  0.00    -0.224 OA
HETATM    4  C6  UNL     1      17.378  64.100  30.458  1.00  0.00     0.126 C 
HETATM    5  C7  UNL     1      18.567  63.322  30.913  1.00  0.00     0.052 C 
HETATM    6  C8  UNL     1      16.237  63.082  30.320  1.00  0.00     0.044 C 
HETATM    7  C9  UNL     1      15.847  62.806  31.783  1.00  0.00     0.011 C 
HETATM    8  C10 UNL     1      16.481  63.910  32.594  1.00  0.00     0.032 C 
HETATM    9  C20 UNL     1      16.759  64.957  31.576  1.00  0.00     0.126 C 
HETATM   10  C21 UNL     1      17.843  65.931  31.994  1.00  0.00     0.214 C 
ENDROOT
BRANCH   8  11
HETATM   11  C11 UNL     1      15.763  64.312  33.818  1.00  0.00     0.017 C 
HETATM   12  C12 UNL     1      14.426  63.742  34.075  1.00  0.00     0.013 C 
BRANCH  11  13
HETATM   13  C13 UNL     1      16.704  64.226  35.019  1.00  0.00     0.124 C 
BRANCH  13  14
HETATM   14  O5  UNL     1      16.936  62.884  35.287  1.00  0.00    -0.395 OA
ATOM     15  H5  UNL     1      17.738  62.820  35.792  1.00  0.00     0.210 HD
ENDBRANCH  13  14
BRANCH  13  16
HETATM   16  C14 UNL     1      16.126  64.885  36.216  1.00  0.00     0.063 C 
BRANCH  16  17
HETATM   17  C15 UNL     1      16.564  66.301  36.346  1.00  0.00     0.120 C 
BRANCH  17  18
HETATM   18  O6  UNL     1      17.579  66.628  35.437  1.00  0.00    -0.395 OA
ATOM     19  H6  UNL     1      17.234  66.894  34.593  1.00  0.00     0.210 HD
ENDBRANCH  17  18
BRANCH  17  20
HETATM   20  C16 UNL     1      16.971  66.769  37.706  1.00  0.00     0.032 C 
BRANCH  20  21
HETATM   21  C17 UNL     1      17.503  65.659  38.596  1.00  0.00     0.002 C 
BRANCH  21  22
HETATM   22  C18 UNL     1      18.700  66.227  39.349  1.00  0.00    -0.004 C 
HETATM   23  C19 UNL     1      19.458  67.195  38.478  1.00  0.00     0.005 C 
ENDBRANCH  21  22
ENDBRANCH  20  21
ENDBRANCH  17  20
ENDBRANCH  16  17
ENDBRANCH  13  16
ENDBRANCH  11  13
ENDBRANCH   8  11
BRANCH   9  24
HETATM   24  O7  UNL     1      15.665  65.597  31.070  1.00  0.00    -0.383 OA
ATOM     25  H7  UNL     1      15.951  66.171  30.370  1.00  0.00     0.210 HD
ENDBRANCH   9  24
BRANCH  10  26
HETATM   26  O8  UNL     1      17.162  67.084  32.444  1.00  0.00    -0.387 OA
ATOM     27  H8  UNL     1      16.405  67.199  31.881  1.00  0.00     0.210 HD
ENDBRANCH  10  26
BRANCH   1  28
HETATM   28  O2  UNL     1      18.902  67.724  30.716  1.00  0.00    -0.280 OA
BRANCH  28  29
HETATM   29  C4  UNL     1      20.185  68.158  30.963  1.00  0.00     0.290 C 
HETATM   30  O1  UNL     1      21.112  67.648  30.268  1.00  0.00    -0.260 OA
BRANCH  29  31
HETATM   31  C2  UNL     1      20.542  69.170  31.974  1.00  0.00     0.004 C 
HETATM   32  C1  UNL     1      21.353  70.163  31.686  1.00  0.00     0.024 C 
HETATM   33  C3  UNL     1      19.970  69.064  33.334  1.00  0.00     0.054 C 
ENDBRANCH  29  31
ENDBRANCH  28  29
ENDBRANCH   1  28
TORSDOF 14
ENDMDL
MODEL 4
REMARK VINA RESULT: -7.494121899      3.416      7.044
REMARK  14 active torsions:
REMARK  status: ('A' for Active; 'I' for Inactive)
REMARK    1  A    between atoms: C2_2  and  C4_4 
REMARK    2  A    between atoms: C4_4  and  O2_6 
REMARK    3  A    between atoms: O2_6  and  C5_7 
REMARK    4  A    between atoms: C10_14  and  C11_15 
REMARK    5  A    between atoms: C11_15  and  C13_17 
REMARK    6  A    between atoms: C13_17  and  O5_18 
REMARK    7  A    between atoms: C13_17  and  C14_20 
REMARK    8  A    between atoms: C14_20  and  C15_21 
REMARK    9  A    between atoms: C15_21  and  O6_22 
REMARK   10  A    between atoms: C15_21  and  C16_24 
REMARK   11  A    between atoms: C16_24  and  C17_25 
REMARK   12  A    between atoms: C17_25  and  C18_26 
REMARK   13  A    between atoms: C20_28  and  O7_29 
REMARK   14  A    between atoms: C21_31  and  O8_32 
ROOT
HETATM    1  C5  UNL     1      17.330  65.469  30.426  1.00  0.00     0.338 C 
HETATM    2  O3  UNL     1      16.370  64.924  29.579  1.00  0.00    -0.204 OA
HETATM    3  O4  UNL     1      16.266  63.636  29.657  1.00  0.00    -0.224 OA
HETATM    4  C6  UNL     1      16.313  63.205  30.949  1.00  0.00     0.126 C 
HETATM    5  C7  UNL     1      17.619  62.650  31.407  1.00  0.00     0.052 C 
HETATM    6  C8  UNL     1      15.264  62.130  31.269  1.00  0.00     0.044 C 
HETATM    7  C9  UNL     1      15.101  62.256  32.794  1.00  0.00     0.011 C 
HETATM    8  C10 UNL     1      15.732  63.574  33.169  1.00  0.00     0.032 C 
HETATM    9  C20 UNL     1      15.771  64.307  31.876  1.00  0.00     0.126 C 
HETATM   10  C21 UNL     1      16.805  65.415  31.843  1.00  0.00     0.214 C 
ENDROOT
BRANCH   8  11
HETATM   11  C11 UNL     1      15.150  64.265  34.335  1.00  0.00     0.017 C 
HETATM   12  C12 UNL     1      13.926  63.713  34.949  1.00  0.00     0.013 C 
BRANCH  11  13
HETATM   13  C13 UNL     1      16.250  64.585  35.347  1.00  0.00     0.124 C 
BRANCH  13  14
HETATM   14  O5  UNL     1      16.871  63.393  35.694  1.00  0.00    -0.395 OA
ATOM     15  H5  UNL     1      16.438  63.051  36.467  1.00  0.00     0.210 HD
ENDBRANCH  13  14
BRANCH  13  16
HETATM   16  C14 UNL     1      15.704  65.240  36.561  1.00  0.00     0.063 C 
BRANCH  16  17
HETATM   17  C15 UNL     1      16.321  66.571  36.809  1.00  0.00     0.120 C 
BRANCH  17  18
HETATM   18  O6  UNL     1      17.314  66.878  35.869  1.00  0.00    -0.395 OA
ATOM     19  H6  UNL     1      17.724  67.718  36.041  1.00  0.00     0.210 HD
ENDBRANCH  17  18
BRANCH  17  20
HETATM   20  C16 UNL     1      16.863  66.829  38.178  1.00  0.00     0.032 C 
BRANCH  20  21
HETATM   21  C17 UNL     1      17.566  65.629  38.789  1.00  0.00     0.002 C 
BRANCH  21  22
HETATM   22  C18 UNL     1      18.802  66.155  39.506  1.00  0.00    -0.004 C 
HETATM   23  C19 UNL     1      19.519  67.165  38.648  1.00  0.00     0.005 C 
ENDBRANCH  21  22
ENDBRANCH  20  21
ENDBRANCH  17  20
ENDBRANCH  16  17
ENDBRANCH  13  16
ENDBRANCH  11  13
ENDBRANCH   8  11
BRANCH   9  24
HETATM   24  O7  UNL     1      14.564  64.720  31.392  1.00  0.00    -0.383 OA
ATOM     25  H7  UNL     1      13.881  64.359  31.944  1.00  0.00     0.210 HD
ENDBRANCH   9  24
BRANCH  10  26
HETATM   26  O8  UNL     1      16.085  66.611  32.065  1.00  0.00    -0.387 OA
ATOM     27  H8  UNL     1      15.201  66.468  31.746  1.00  0.00     0.210 HD
ENDBRANCH  10  26
BRANCH   1  28
HETATM   28  O2  UNL     1      17.510  66.831  29.981  1.00  0.00    -0.280 OA
BRANCH  28  29
HETATM   29  C4  UNL     1      18.767  67.389  29.909  1.00  0.00     0.290 C 
HETATM   30  O1  UNL     1      19.596  66.846  29.122  1.00  0.00    -0.260 OA
BRANCH  29  31
HETATM   31  C2  UNL     1      19.202  68.566  30.684  1.00  0.00     0.004 C 
HETATM   32  C1  UNL     1      19.074  68.604  31.991  1.00  0.00     0.024 C 
HETATM   33  C3  UNL     1      19.798  69.718  29.973  1.00  0.00     0.054 C 
ENDBRANCH  29  31
ENDBRANCH  28  29
ENDBRANCH   1  28
TORSDOF 14
ENDMDL
MODEL 5
REMARK VINA RESULT: -7.475540961      2.575      4.917
REMARK  14 active torsions:
REMARK  status: ('A' for Active; 'I' for Inactive)
REMARK    1  A    between atoms: C2_2  and  C4_4 
REMARK    2  A    between atoms: C4_4  and  O2_6 
REMARK    3  A    between atoms: O2_6  and  C5_7 
REMARK    4  A    between atoms: C10_14  and  C11_15 
REMARK    5  A    between atoms: C11_15  and  C13_17 
REMARK    6  A    between atoms: C13_17  and  O5_18 
REMARK    7  A    between atoms: C13_17  and  C14_20 
REMARK    8  A    between atoms: C14_20  and  C15_21 
REMARK    9  A    between atoms: C15_21  and  O6_22 
REMARK   10  A    between atoms: C15_21  and  C16_24 
REMARK   11  A    between atoms: C16_24  and  C17_25 
REMARK   12  A    between atoms: C17_25  and  C18_26 
REMARK   13  A    between atoms: C20_28  and  O7_29 
REMARK   14  A    between atoms: C21_31  and  O8_32 
ROOT
HETATM    1  C5  UNL     1      16.253  62.159  32.565  1.00  0.00     0.338 C 
HETATM    2  O3  UNL     1      17.025  62.444  31.442  1.00  0.00    -0.204 OA
HETATM    3  O4  UNL     1      16.667  63.516  30.812  1.00  0.00    -0.224 OA
HETATM    4  C6  UNL     1      16.373  64.531  31.672  1.00  0.00     0.126 C 
HETATM    5  C7  UNL     1      14.924  64.771  31.930  1.00  0.00     0.052 C 
HETATM    6  C8  UNL     1      16.953  65.884  31.236  1.00  0.00     0.044 C 
HETATM    7  C9  UNL     1      17.030  66.665  32.560  1.00  0.00     0.011 C 
HETATM    8  C10 UNL     1      16.873  65.638  33.654  1.00  0.00     0.032 C 
HETATM    9  C20 UNL     1      17.192  64.360  32.964  1.00  0.00     0.126 C 
HETATM   10  C21 UNL     1      16.615  63.141  33.656  1.00  0.00     0.214 C 
ENDROOT
BRANCH   8  11
HETATM   11  C11 UNL     1      17.567  65.927  34.923  1.00  0.00     0.017 C 
HETATM   12  C12 UNL     1      18.162  67.264  35.116  1.00  0.00     0.013 C 
BRANCH  11  13
HETATM   13  C13 UNL     1      16.706  65.466  36.098  1.00  0.00     0.124 C 
BRANCH  13  14
HETATM   14  O5  UNL     1      15.380  65.474  35.688  1.00  0.00    -0.395 OA
ATOM     15  H5  UNL     1      14.853  65.112  36.390  1.00  0.00     0.210 HD
ENDBRANCH  13  14
BRANCH  13  16
HETATM   16  C14 UNL     1      16.872  66.349  37.279  1.00  0.00     0.063 C 
BRANCH  16  17
HETATM   17  C15 UNL     1      17.612  65.679  38.384  1.00  0.00     0.120 C 
BRANCH  17  18
HETATM   18  O6  UNL     1      16.756  65.235  39.401  1.00  0.00    -0.395 OA
ATOM     19  H6  UNL     1      17.069  64.437  39.810  1.00  0.00     0.210 HD
ENDBRANCH  17  18
BRANCH  17  20
HETATM   20  C16 UNL     1      18.743  66.433  39.005  1.00  0.00     0.032 C 
BRANCH  20  21
HETATM   21  C17 UNL     1      19.073  67.731  38.289  1.00  0.00     0.002 C 
BRANCH  21  22
HETATM   22  C18 UNL     1      20.554  67.679  37.934  1.00  0.00    -0.004 C 
HETATM   23  C19 UNL     1      20.923  68.839  37.047  1.00  0.00     0.005 C 
ENDBRANCH  21  22
ENDBRANCH  20  21
ENDBRANCH  17  20
ENDBRANCH  16  17
ENDBRANCH  13  16
ENDBRANCH  11  13
ENDBRANCH   8  11
BRANCH   9  24
HETATM   24  O7  UNL     1      18.501  64.182  32.622  1.00  0.00    -0.383 OA
ATOM     25  H7  UNL     1      19.042  64.548  33.311  1.00  0.00     0.210 HD
ENDBRANCH   9  24
BRANCH  10  26
HETATM   26  O8  UNL     1      17.688  62.577  34.383  1.00  0.00    -0.387 OA
ATOM     27  H8  UNL     1      17.524  62.751  35.303  1.00  0.00     0.210 HD
ENDBRANCH  10  26
BRANCH   1  28
HETATM   28  O2  UNL     1      16.595  60.806  32.936  1.00  0.00    -0.280 OA
BRANCH  28  29
HETATM   29  C4  UNL     1      15.647  59.808  32.907  1.00  0.00     0.290 C 
HETATM   30  O1  UNL     1      15.605  59.079  31.873  1.00  0.00    -0.260 OA
BRANCH  29  31
HETATM   31  C2  UNL     1      14.689  59.537  33.995  1.00  0.00     0.004 C 
HETATM   32  C1  UNL     1      13.393  59.646  33.802  1.00  0.00     0.024 C 
HETATM   33  C3  UNL     1      15.200  59.130  35.322  1.00  0.00     0.054 C 
ENDBRANCH  29  31
ENDBRANCH  28  29
ENDBRANCH   1  28
TORSDOF 14
ENDMDL
