MODEL 1
REMARK VINA RESULT: -7.840788738      0.000      0.000
REMARK  11 active torsions:
REMARK  status: ('A' for Active; 'I' for Inactive)
REMARK    1  A    between atoms: C2_2  and  C3_3 
REMARK    2  A    between atoms: C3_3  and  C4_4 
REMARK    3  A    between atoms: C4_4  and  N1_5 
REMARK    4  A    between atoms: N1_5  and  C5_7 
REMARK    5  A    between atoms: C6_10  and  O1_11 
REMARK    6  A    between atoms: O1_11  and  C7_12 
REMARK    7  A    between atoms: C9_14  and  O2_15 
REMARK    8  A    between atoms: O2_15  and  C10_16 
REMARK    9  A    between atoms: C10_16  and  C11_17 
REMARK   10  A    between atoms: C11_17  and  O3_18 
REMARK   11  A    between atoms: C21_32  and  N4_33 
ROOT
HETATM    1  O1  UNL     1      19.804  67.700  33.400  1.00  0.00    -0.315 OA
ENDROOT
BRANCH   1   2
HETATM    2  C6  UNL     1      20.083  68.051  34.737  1.00  0.00     0.252 A 
HETATM    3  N2  UNL     1      19.240  67.722  35.730  1.00  0.00    -0.154 N 
HETATM    4  C5  UNL     1      19.502  68.058  37.014  1.00  0.00     0.695 A 
ATOM      5  H2  UNL     1      18.385  67.210  35.511  1.00  0.00     0.188 HD
HETATM    6  N5  UNL     1      20.618  68.732  37.330  1.00  0.00    -0.022 N 
HETATM    7  C21 UNL     1      21.471  69.069  36.348  1.00  0.00     0.693 A 
ATOM      8  H5  UNL     1      20.816  68.985  38.298  1.00  0.00     0.203 HD
HETATM    9  N3  UNL     1      21.196  68.725  35.060  1.00  0.00    -0.154 N 
ATOM     10  H3  UNL     1      21.851  68.985  34.324  1.00  0.00     0.188 HD
BRANCH   4  11
HETATM   11  N1  UNL     1      18.675  67.732  37.970  1.00  0.00    -0.225 N 
ATOM     12  H1  UNL     1      17.839  68.295  38.130  1.00  0.00     0.177 HD
BRANCH  11  13
HETATM   13  C4  UNL     1      18.937  66.579  38.803  1.00  0.00     0.138 C 
BRANCH  13  14
HETATM   14  C3  UNL     1      17.697  65.807  39.120  1.00  0.00     0.020 C 
BRANCH  14  15
HETATM   15  C2  UNL     1      16.550  66.286  38.288  1.00  0.00    -0.003 C 
HETATM   16  C1  UNL     1      16.107  65.240  37.315  1.00  0.00     0.005 C 
ENDBRANCH  14  15
ENDBRANCH  13  14
ENDBRANCH  11  13
ENDBRANCH   4  11
BRANCH   7  17
HETATM   17  N4  UNL     1      22.540  69.714  36.655  1.00  0.00    -0.234 N 
ATOM     18  H42 UNL     1      22.563  70.236  37.531  1.00  0.00     0.174 HD
ATOM     19  H41 UNL     1      23.355  69.712  36.042  1.00  0.00     0.174 HD
ENDBRANCH   7  17
ENDBRANCH   1   2
BRANCH   1  20
HETATM   20  C7  UNL     1      19.405  68.634  32.448  1.00  0.00     0.147 C 
HETATM   21  C8  UNL     1      18.078  68.292  31.841  1.00  0.00     0.065 C 
HETATM   22  C9  UNL     1      18.176  67.032  30.968  1.00  0.00     0.124 C 
HETATM   23  C16 UNL     1      19.112  67.424  29.839  1.00  0.00     0.033 C 
HETATM   24  C17 UNL     1      20.490  67.766  30.348  1.00  0.00     0.019 C 
HETATM   25  C18 UNL     1      20.414  68.859  31.353  1.00  0.00     0.029 C 
HETATM   26  C19 UNL     1      20.287  70.258  30.798  1.00  0.00     0.181 C 
HETATM   27  C20 UNL     1      21.731  69.431  31.777  1.00  0.00     0.181 C 
HETATM   28  O4  UNL     1      21.154  70.690  31.814  1.00  0.00    -0.389 OA
BRANCH  22  29
HETATM   29  O2  UNL     1      18.610  65.995  31.712  1.00  0.00    -0.383 OA
BRANCH  29  30
HETATM   30  C10 UNL     1      17.807  64.949  31.987  1.00  0.00     0.205 C 
BRANCH  30  31
HETATM   31  C11 UNL     1      17.098  64.911  33.292  1.00  0.00     0.079 C 
HETATM   32  C12 UNL     1      15.583  65.058  33.054  1.00  0.00     0.040 C 
HETATM   33  C13 UNL     1      15.053  63.673  32.889  1.00  0.00     0.003 C 
HETATM   34  C14 UNL     1      16.181  62.708  33.122  1.00  0.00     0.003 C 
HETATM   35  C15 UNL     1      17.163  63.524  33.930  1.00  0.00     0.040 C 
BRANCH  31  36
HETATM   36  O3  UNL     1      17.430  65.857  34.215  1.00  0.00    -0.388 OA
ATOM     37  H3  UNL     1      17.201  65.684  35.120  1.00  0.00     0.210 HD
ENDBRANCH  31  36
ENDBRANCH  30  31
ENDBRANCH  29  30
ENDBRANCH  22  29
ENDBRANCH   1  20
TORSDOF 11
ENDMDL
MODEL 2
REMARK VINA RESULT: -7.731492868      2.765      5.717
REMARK  11 active torsions:
REMARK  status: ('A' for Active; 'I' for Inactive)
REMARK    1  A    between atoms: C2_2  and  C3_3 
REMARK    2  A    between atoms: C3_3  and  C4_4 
REMARK    3  A    between atoms: C4_4  and  N1_5 
REMARK    4  A    between atoms: N1_5  and  C5_7 
REMARK    5  A    between atoms: C6_10  and  O1_11 
REMARK    6  A    between atoms: O1_11  and  C7_12 
REMARK    7  A    between atoms: C9_14  and  O2_15 
REMARK    8  A    between atoms: O2_15  and  C10_16 
REMARK    9  A    between atoms: C10_16  and  C11_17 
REMARK   10  A    between atoms: C11_17  and  O3_18 
REMARK   11  A    between atoms: C21_32  and  N4_33 
ROOT
HETATM    1  O1  UNL     1      18.241  64.869  31.841  1.00  0.00    -0.315 OA
ENDROOT
BRANCH   1   2
HETATM    2  C6  UNL     1      17.628  64.431  33.033  1.00  0.00     0.252 A 
HETATM    3  N2  UNL     1      17.311  65.299  34.008  1.00  0.00    -0.154 N 
HETATM    4  C5  UNL     1      16.723  64.885  35.153  1.00  0.00     0.695 A 
ATOM      5  H2  UNL     1      17.517  66.290  33.882  1.00  0.00     0.188 HD
HETATM    6  N5  UNL     1      16.441  63.587  35.346  1.00  0.00    -0.022 N 
HETATM    7  C21 UNL     1      16.752  62.707  34.381  1.00  0.00     0.693 A 
ATOM      8  H5  UNL     1      15.998  63.275  36.210  1.00  0.00     0.203 HD
HETATM    9  N3  UNL     1      17.343  63.137  33.233  1.00  0.00    -0.154 N 
ATOM     10  H3  UNL     1      17.574  62.459  32.507  1.00  0.00     0.188 HD
BRANCH   4  11
HETATM   11  N1  UNL     1      16.420  65.738  36.093  1.00  0.00    -0.225 N 
ATOM     12  H1  UNL     1      16.126  66.683  35.845  1.00  0.00     0.177 HD
BRANCH  11  13
HETATM   13  C4  UNL     1      16.497  65.351  37.486  1.00  0.00     0.138 C 
BRANCH  13  14
HETATM   14  C3  UNL     1      16.975  66.462  38.363  1.00  0.00     0.020 C 
BRANCH  14  15
HETATM   15  C2  UNL     1      18.220  66.063  39.090  1.00  0.00    -0.003 C 
HETATM   16  C1  UNL     1      19.358  66.977  38.765  1.00  0.00     0.005 C 
ENDBRANCH  14  15
ENDBRANCH  13  14
ENDBRANCH  11  13
ENDBRANCH   4  11
BRANCH   7  17
HETATM   17  N4  UNL     1      16.479  61.464  34.569  1.00  0.00    -0.234 N 
ATOM     18  H42 UNL     1      17.123  60.900  35.125  1.00  0.00     0.174 HD
ATOM     19  H41 UNL     1      15.640  61.039  34.175  1.00  0.00     0.174 HD
ENDBRANCH   7  17
ENDBRANCH   1   2
BRANCH   1  20
HETATM   20  C7  UNL     1      18.193  64.131  30.661  1.00  0.00     0.147 C 
HETATM   21  C8  UNL     1      19.528  64.059  29.983  1.00  0.00     0.065 C 
HETATM   22  C9  UNL     1      19.947  65.432  29.435  1.00  0.00     0.124 C 
HETATM   23  C16 UNL     1      18.908  65.750  28.375  1.00  0.00     0.033 C 
HETATM   24  C17 UNL     1      17.525  65.867  28.963  1.00  0.00     0.019 C 
HETATM   25  C18 UNL     1      17.159  64.617  29.680  1.00  0.00     0.029 C 
HETATM   26  C19 UNL     1      16.679  63.477  28.812  1.00  0.00     0.181 C 
HETATM   27  C20 UNL     1      15.733  64.530  30.126  1.00  0.00     0.181 C 
HETATM   28  O4  UNL     1      15.733  63.181  29.806  1.00  0.00    -0.389 OA
BRANCH  22  29
HETATM   29  O2  UNL     1      20.001  66.327  30.443  1.00  0.00    -0.383 OA
BRANCH  29  30
HETATM   30  C10 UNL     1      20.530  67.552  30.259  1.00  0.00     0.205 C 
BRANCH  30  31
HETATM   31  C11 UNL     1      19.683  68.746  30.512  1.00  0.00     0.079 C 
HETATM   32  C12 UNL     1      18.610  68.398  31.562  1.00  0.00     0.040 C 
HETATM   33  C13 UNL     1      19.210  68.721  32.890  1.00  0.00     0.003 C 
HETATM   34  C14 UNL     1      20.559  69.342  32.657  1.00  0.00     0.003 C 
HETATM   35  C15 UNL     1      20.458  69.846  31.236  1.00  0.00     0.040 C 
BRANCH  31  36
HETATM   36  O3  UNL     1      19.015  69.278  29.450  1.00  0.00    -0.388 OA
ATOM     37  H3  UNL     1      18.520  70.074  29.599  1.00  0.00     0.210 HD
ENDBRANCH  31  36
ENDBRANCH  30  31
ENDBRANCH  29  30
ENDBRANCH  22  29
ENDBRANCH   1  20
TORSDOF 11
ENDMDL
MODEL 3
REMARK VINA RESULT: -7.701785046      0.826      1.080
REMARK  11 active torsions:
REMARK  status: ('A' for Active; 'I' for Inactive)
REMARK    1  A    between atoms: C2_2  and  C3_3 
REMARK    2  A    between atoms: C3_3  and  C4_4 
REMARK    3  A    between atoms: C4_4  and  N1_5 
REMARK    4  A    between atoms: N1_5  and  C5_7 
REMARK    5  A    between atoms: C6_10  and  O1_11 
REMARK    6  A    between atoms: O1_11  and  C7_12 
REMARK    7  A    between atoms: C9_14  and  O2_15 
REMARK    8  A    between atoms: O2_15  and  C10_16 
REMARK    9  A    between atoms: C10_16  and  C11_17 
REMARK   10  A    between atoms: C11_17  and  O3_18 
REMARK   11  A    between atoms: C21_32  and  N4_33 
ROOT
HETATM    1  O1  UNL     1      19.697  67.615  33.572  1.00  0.00    -0.315 OA
ENDROOT
BRANCH   1   2
HETATM    2  C6  UNL     1      20.031  67.999  34.888  1.00  0.00     0.252 A 
HETATM    3  N2  UNL     1      19.231  67.694  35.923  1.00  0.00    -0.154 N 
HETATM    4  C5  UNL     1      19.547  68.060  37.186  1.00  0.00     0.695 A 
ATOM      5  H2  UNL     1      18.369  67.176  35.753  1.00  0.00     0.188 HD
HETATM    6  N5  UNL     1      20.674  68.743  37.438  1.00  0.00    -0.022 N 
HETATM    7  C21 UNL     1      21.484  69.056  36.413  1.00  0.00     0.693 A 
ATOM      8  H5  UNL     1      20.912  69.020  38.390  1.00  0.00     0.203 HD
HETATM    9  N3  UNL     1      21.155  68.681  35.147  1.00  0.00    -0.154 N 
ATOM     10  H3  UNL     1      21.778  68.924  34.377  1.00  0.00     0.188 HD
BRANCH   4  11
HETATM   11  N1  UNL     1      18.761  67.758  38.183  1.00  0.00    -0.225 N 
ATOM     12  H1  UNL     1      18.073  68.436  38.511  1.00  0.00     0.177 HD
BRANCH  11  13
HETATM   13  C4  UNL     1      18.861  66.466  38.827  1.00  0.00     0.138 C 
BRANCH  13  14
HETATM   14  C3  UNL     1      17.524  65.862  39.111  1.00  0.00     0.020 C 
BRANCH  14  15
HETATM   15  C2  UNL     1      16.957  65.231  37.878  1.00  0.00    -0.003 C 
HETATM   16  C1  UNL     1      15.895  66.088  37.266  1.00  0.00     0.005 C 
ENDBRANCH  14  15
ENDBRANCH  13  14
ENDBRANCH  11  13
ENDBRANCH   4  11
BRANCH   7  17
HETATM   17  N4  UNL     1      22.564  69.710  36.658  1.00  0.00    -0.234 N 
ATOM     18  H42 UNL     1      23.406  69.481  36.130  1.00  0.00     0.174 HD
ATOM     19  H41 UNL     1      22.590  70.446  37.364  1.00  0.00     0.174 HD
ENDBRANCH   7  17
ENDBRANCH   1   2
BRANCH   1  20
HETATM   20  C7  UNL     1      19.273  68.528  32.611  1.00  0.00     0.147 C 
HETATM   21  C8  UNL     1      17.849  68.300  32.201  1.00  0.00     0.065 C 
HETATM   22  C9  UNL     1      17.701  66.985  31.419  1.00  0.00     0.124 C 
HETATM   23  C16 UNL     1      18.515  67.201  30.156  1.00  0.00     0.033 C 
HETATM   24  C17 UNL     1      19.975  67.419  30.462  1.00  0.00     0.019 C 
HETATM   25  C18 UNL     1      20.145  68.572  31.384  1.00  0.00     0.029 C 
HETATM   26  C19 UNL     1      20.089  69.941  30.746  1.00  0.00     0.181 C 
HETATM   27  C20 UNL     1      21.558  69.019  31.596  1.00  0.00     0.181 C 
HETATM   28  O4  UNL     1      21.122  70.335  31.611  1.00  0.00    -0.389 OA
BRANCH  22  29
HETATM   29  O2  UNL     1      18.122  65.954  32.179  1.00  0.00    -0.383 OA
BRANCH  29  30
HETATM   30  C10 UNL     1      17.341  65.437  33.147  1.00  0.00     0.205 C 
BRANCH  30  31
HETATM   31  C11 UNL     1      17.024  63.986  33.117  1.00  0.00     0.079 C 
HETATM   32  C12 UNL     1      16.549  63.538  34.513  1.00  0.00     0.040 C 
HETATM   33  C13 UNL     1      15.067  63.715  34.523  1.00  0.00     0.003 C 
HETATM   34  C14 UNL     1      14.637  64.154  33.151  1.00  0.00     0.003 C 
HETATM   35  C15 UNL     1      15.781  63.697  32.276  1.00  0.00     0.040 C 
BRANCH  31  36
HETATM   36  O3  UNL     1      18.026  63.132  32.766  1.00  0.00    -0.388 OA
ATOM     37  H3  UNL     1      18.836  63.514  32.451  1.00  0.00     0.210 HD
ENDBRANCH  31  36
ENDBRANCH  30  31
ENDBRANCH  29  30
ENDBRANCH  22  29
ENDBRANCH   1  20
TORSDOF 11
ENDMDL
MODEL 4
REMARK VINA RESULT: -7.692945608      2.561      3.687
REMARK  11 active torsions:
REMARK  status: ('A' for Active; 'I' for Inactive)
REMARK    1  A    between atoms: C2_2  and  C3_3 
REMARK    2  A    between atoms: C3_3  and  C4_4 
REMARK    3  A    between atoms: C4_4  and  N1_5 
REMARK    4  A    between atoms: N1_5  and  C5_7 
REMARK    5  A    between atoms: C6_10  and  O1_11 
REMARK    6  A    between atoms: O1_11  and  C7_12 
REMARK    7  A    between atoms: C9_14  and  O2_15 
REMARK    8  A    between atoms: O2_15  and  C10_16 
REMARK    9  A    between atoms: C10_16  and  C11_17 
REMARK   10  A    between atoms: C11_17  and  O3_18 
REMARK   11  A    between atoms: C21_32  and  N4_33 
ROOT
HETATM    1  O1  UNL     1      18.221  65.133  32.306  1.00  0.00    -0.315 OA
ENDROOT
BRANCH   1   2
HETATM    2  C6  UNL     1      18.270  66.008  33.410  1.00  0.00     0.252 A 
HETATM    3  N2  UNL     1      17.409  65.882  34.433  1.00  0.00    -0.154 N 
HETATM    4  C5  UNL     1      17.452  66.719  35.494  1.00  0.00     0.695 A 
ATOM      5  H2  UNL     1      16.708  65.141  34.408  1.00  0.00     0.188 HD
HETATM    6  N5  UNL     1      18.363  67.703  35.552  1.00  0.00    -0.022 N 
HETATM    7  C21 UNL     1      19.232  67.842  34.538  1.00  0.00     0.693 A 
ATOM      8  H5  UNL     1      18.396  68.335  36.353  1.00  0.00     0.203 HD
HETATM    9  N3  UNL     1      19.178  66.992  33.475  1.00  0.00    -0.154 N 
ATOM     10  H3  UNL     1      19.843  67.107  32.711  1.00  0.00     0.188 HD
BRANCH   4  11
HETATM   11  N1  UNL     1      16.609  66.587  36.482  1.00  0.00    -0.225 N 
ATOM     12  H1  UNL     1      15.676  66.214  36.306  1.00  0.00     0.177 HD
BRANCH  11  13
HETATM   13  C4  UNL     1      16.990  66.967  37.825  1.00  0.00     0.138 C 
BRANCH  13  14
HETATM   14  C3  UNL     1      17.351  65.791  38.673  1.00  0.00     0.020 C 
BRANCH  14  15
HETATM   15  C2  UNL     1      18.586  66.071  39.468  1.00  0.00    -0.003 C 
HETATM   16  C1  UNL     1      19.472  67.055  38.770  1.00  0.00     0.005 C 
ENDBRANCH  14  15
ENDBRANCH  13  14
ENDBRANCH  11  13
ENDBRANCH   4  11
BRANCH   7  17
HETATM   17  N4  UNL     1      20.104  68.785  34.597  1.00  0.00    -0.234 N 
ATOM     18  H42 UNL     1      20.413  69.221  33.728  1.00  0.00     0.174 HD
ATOM     19  H41 UNL     1      20.486  69.100  35.488  1.00  0.00     0.174 HD
ENDBRANCH   7  17
ENDBRANCH   1   2
BRANCH   1  20
HETATM   20  C7  UNL     1      17.917  65.569  31.018  1.00  0.00     0.147 C 
HETATM   21  C8  UNL     1      16.536  66.144  30.926  1.00  0.00     0.065 C 
HETATM   22  C9  UNL     1      15.468  65.055  31.109  1.00  0.00     0.124 C 
HETATM   23  C16 UNL     1      15.662  64.130  29.921  1.00  0.00     0.033 C 
HETATM   24  C17 UNL     1      17.022  63.479  29.935  1.00  0.00     0.019 C 
HETATM   25  C18 UNL     1      18.091  64.512  29.959  1.00  0.00     0.029 C 
HETATM   26  C19 UNL     1      18.424  65.148  28.630  1.00  0.00     0.181 C 
HETATM   27  C20 UNL     1      19.483  63.998  29.763  1.00  0.00     0.181 C 
HETATM   28  O4  UNL     1      19.775  65.124  29.010  1.00  0.00    -0.389 OA
BRANCH  22  29
HETATM   29  O2  UNL     1      15.627  64.457  32.307  1.00  0.00    -0.383 OA
BRANCH  29  30
HETATM   30  C10 UNL     1      14.572  64.196  33.102  1.00  0.00     0.205 C 
BRANCH  30  31
HETATM   31  C11 UNL     1      14.788  63.425  34.353  1.00  0.00     0.079 C 
HETATM   32  C12 UNL     1      13.561  62.533  34.622  1.00  0.00     0.040 C 
HETATM   33  C13 UNL     1      13.837  61.233  33.943  1.00  0.00     0.003 C 
HETATM   34  C14 UNL     1      15.226  61.288  33.371  1.00  0.00     0.003 C 
HETATM   35  C15 UNL     1      15.885  62.375  34.188  1.00  0.00     0.040 C 
BRANCH  31  36
HETATM   36  O3  UNL     1      14.999  64.133  35.498  1.00  0.00    -0.388 OA
ATOM     37  H3  UNL     1      15.827  64.004  35.946  1.00  0.00     0.210 HD
ENDBRANCH  31  36
ENDBRANCH  30  31
ENDBRANCH  29  30
ENDBRANCH  22  29
ENDBRANCH   1  20
TORSDOF 11
ENDMDL
MODEL 5
REMARK VINA RESULT: -7.663566204      2.391      5.906
REMARK  11 active torsions:
REMARK  status: ('A' for Active; 'I' for Inactive)
REMARK    1  A    between atoms: C2_2  and  C3_3 
REMARK    2  A    between atoms: C3_3  and  C4_4 
REMARK    3  A    between atoms: C4_4  and  N1_5 
REMARK    4  A    between atoms: N1_5  and  C5_7 
REMARK    5  A    between atoms: C6_10  and  O1_11 
REMARK    6  A    between atoms: O1_11  and  C7_12 
REMARK    7  A    between atoms: C9_14  and  O2_15 
REMARK    8  A    between atoms: O2_15  and  C10_16 
REMARK    9  A    between atoms: C10_16  and  C11_17 
REMARK   10  A    between atoms: C11_17  and  O3_18 
REMARK   11  A    between atoms: C21_32  and  N4_33 
ROOT
HETATM    1  O1  UNL     1      17.899  65.261  32.586  1.00  0.00    -0.315 OA
ENDROOT
BRANCH   1   2
HETATM    2  C6  UNL     1      18.384  66.498  32.113  1.00  0.00     0.252 A 
HETATM    3  N2  UNL     1      19.034  67.345  32.929  1.00  0.00    -0.154 N 
HETATM    4  C5  UNL     1      19.501  68.532  32.480  1.00  0.00     0.695 A 
ATOM      5  H2  UNL     1      19.178  67.087  33.905  1.00  0.00     0.188 HD
HETATM    6  N5  UNL     1      19.325  68.897  31.201  1.00  0.00    -0.022 N 
HETATM    7  C21 UNL     1      18.677  68.061  30.373  1.00  0.00     0.693 A 
ATOM      8  H5  UNL     1      19.677  69.793  30.863  1.00  0.00     0.203 HD
HETATM    9  N3  UNL     1      18.213  66.869  30.837  1.00  0.00    -0.154 N 
ATOM     10  H3  UNL     1      17.722  66.242  30.198  1.00  0.00     0.188 HD
BRANCH   4  11
HETATM   11  N1  UNL     1      20.131  69.347  33.283  1.00  0.00    -0.225 N 
ATOM     12  H1  UNL     1      20.334  70.300  32.981  1.00  0.00     0.177 HD
BRANCH  11  13
HETATM   13  C4  UNL     1      20.541  68.905  34.599  1.00  0.00     0.138 C 
BRANCH  13  14
HETATM   14  C3  UNL     1      21.938  69.318  34.932  1.00  0.00     0.020 C 
BRANCH  14  15
HETATM   15  C2  UNL     1      22.278  68.944  36.339  1.00  0.00    -0.003 C 
HETATM   16  C1  UNL     1      21.081  68.421  37.069  1.00  0.00     0.005 C 
ENDBRANCH  14  15
ENDBRANCH  13  14
ENDBRANCH  11  13
ENDBRANCH   4  11
BRANCH   7  17
HETATM   17  N4  UNL     1      18.511  68.414  29.148  1.00  0.00    -0.234 N 
ATOM     18  H42 UNL     1      17.665  68.927  28.896  1.00  0.00     0.174 HD
ATOM     19  H41 UNL     1      19.203  68.191  28.432  1.00  0.00     0.174 HD
ENDBRANCH   7  17
ENDBRANCH   1   2
BRANCH   1  20
HETATM   20  C7  UNL     1      16.771  64.645  32.049  1.00  0.00     0.147 C 
HETATM   21  C8  UNL     1      15.559  64.835  32.910  1.00  0.00     0.065 C 
HETATM   22  C9  UNL     1      15.692  64.065  34.233  1.00  0.00     0.124 C 
HETATM   23  C16 UNL     1      15.740  62.605  33.819  1.00  0.00     0.033 C 
HETATM   24  C17 UNL     1      16.945  62.305  32.963  1.00  0.00     0.019 C 
HETATM   25  C18 UNL     1      16.956  63.179  31.760  1.00  0.00     0.029 C 
HETATM   26  C19 UNL     1      16.059  62.748  30.624  1.00  0.00     0.181 C 
HETATM   27  C20 UNL     1      17.985  62.834  30.729  1.00  0.00     0.181 C 
HETATM   28  O4  UNL     1      17.070  63.147  29.736  1.00  0.00    -0.389 OA
BRANCH  22  29
HETATM   29  O2  UNL     1      16.786  64.488  34.898  1.00  0.00    -0.383 OA
BRANCH  29  30
HETATM   30  C10 UNL     1      16.791  65.662  35.557  1.00  0.00     0.205 C 
BRANCH  30  31
HETATM   31  C11 UNL     1      16.188  65.728  36.913  1.00  0.00     0.079 C 
HETATM   32  C12 UNL     1      17.170  65.130  37.938  1.00  0.00     0.040 C 
HETATM   33  C13 UNL     1      18.013  66.266  38.415  1.00  0.00     0.003 C 
HETATM   34  C14 UNL     1      17.499  67.529  37.786  1.00  0.00     0.003 C 
HETATM   35  C15 UNL     1      16.079  67.168  37.414  1.00  0.00     0.040 C 
BRANCH  31  36
HETATM   36  O3  UNL     1      15.002  65.084  37.105  1.00  0.00    -0.388 OA
ATOM     37  H3  UNL     1      14.898  64.590  37.909  1.00  0.00     0.210 HD
ENDBRANCH  31  36
ENDBRANCH  30  31
ENDBRANCH  29  30
ENDBRANCH  22  29
ENDBRANCH   1  20
TORSDOF 11
ENDMDL
