MODEL 1
REMARK VINA RESULT: -7.666120373      0.000      0.000
REMARK  15 active torsions:
REMARK  status: ('A' for Active; 'I' for Inactive)
REMARK    1  A    between atoms: C6_7  and  C7_8 
REMARK    2  A    between atoms: C7_8  and  O2_9 
REMARK    3  A    between atoms: C8_12  and  C9_13 
REMARK    4  A    between atoms: C10_14  and  C11_15 
REMARK    5  A    between atoms: C12_16  and  C13_17 
REMARK    6  A    between atoms: C13_17  and  C14_18 
REMARK    7  A    between atoms: C14_18  and  C15_19 
REMARK    8  A    between atoms: C15_19  and  O4_20 
REMARK    9  A    between atoms: C15_19  and  N1_22 
REMARK   10  A    between atoms: N1_22  and  C16_24 
REMARK   11  A    between atoms: C16_24  and  C17_25 
REMARK   12  A    between atoms: C17_25  and  N2_26 
REMARK   13  A    between atoms: C19_28  and  O5_29 
REMARK   14  A    between atoms: C23_33  and  O6_34 
REMARK   15  A    between atoms: O6_34  and  O7_35 
ROOT
HETATM    1  C14 UNL     1      11.667  -5.459  27.631  1.00  0.00     0.055 C 
ENDROOT
BRANCH   1   2
HETATM    2  C13 UNL     1      11.527  -4.193  27.802  1.00  0.00     0.004 C 
BRANCH   2   3
HETATM    3  C12 UNL     1      10.297  -3.443  27.817  1.00  0.00     0.000 C 
HETATM    4  C11 UNL     1      10.048  -2.448  28.637  1.00  0.00    -0.000 C 
BRANCH   4   5
HETATM    5  C10 UNL     1      10.939  -1.964  29.622  1.00  0.00    -0.001 C 
HETATM    6  C9  UNL     1      10.874  -2.153  30.912  1.00  0.00     0.009 C 
BRANCH   6   7
HETATM    7  C8  UNL     1       9.867  -2.910  31.675  1.00  0.00     0.176 C 
HETATM    8  C2  UNL     1      10.285  -4.269  32.076  1.00  0.00    -0.057 C 
HETATM    9  C1  UNL     1       9.388  -5.213  32.042  1.00  0.00     0.017 C 
HETATM   10  C3  UNL     1      11.618  -4.675  32.532  1.00  0.00     0.039 C 
HETATM   11  C4  UNL     1      12.312  -3.541  33.277  1.00  0.00     0.042 C 
HETATM   12  C5  UNL     1      11.415  -2.808  34.189  1.00  0.00     0.190 A 
HETATM   13  O1  UNL     1      11.445  -1.354  33.835  1.00  0.00    -0.340 OA
HETATM   14  C6  UNL     1      10.281  -2.113  33.863  1.00  0.00     0.213 A 
HETATM   15  O3  UNL     1       9.458  -2.279  32.822  1.00  0.00    -0.337 OA
BRANCH  14  16
HETATM   16  C7  UNL     1       9.425  -1.612  35.074  1.00  0.00     0.235 C 
BRANCH  16  17
HETATM   17  O2  UNL     1       8.797  -0.415  34.743  1.00  0.00    -0.395 OA
ATOM     18  H2  UNL     1       7.856  -0.507  34.844  1.00  0.00     0.209 HD
ENDBRANCH  16  17
ENDBRANCH  14  16
ENDBRANCH   6   7
ENDBRANCH   4   5
ENDBRANCH   2   3
ENDBRANCH   1   2
BRANCH   1  19
HETATM   19  C15 UNL     1      11.881  -6.586  28.453  1.00  0.00     0.135 C 
BRANCH  19  20
HETATM   20  O4  UNL     1      12.796  -7.416  27.987  1.00  0.00    -0.346 OA
ATOM     21  H4  UNL     1      13.081  -8.063  28.621  1.00  0.00     0.219 HD
ENDBRANCH  19  20
BRANCH  19  22
HETATM   22  N1  UNL     1      11.339  -7.022  29.655  1.00  0.00    -0.369 N 
ATOM     23  H1  UNL     1      10.995  -6.321  30.311  1.00  0.00     0.161 HD
BRANCH  22  24
HETATM   24  C16 UNL     1      11.234  -8.431  30.032  1.00  0.00     0.152 C 
BRANCH  24  25
HETATM   25  C17 UNL     1      10.465  -8.629  31.299  1.00  0.00     0.295 C 
BRANCH  25  26
HETATM   26  N2  UNL     1      11.282  -9.336  32.273  1.00  0.00     0.124 N 
HETATM   27  C18 UNL     1      11.583  -8.572  33.438  1.00  0.00     0.307 C 
HETATM   28  C19 UNL     1      10.355  -8.002  34.112  1.00  0.00     0.149 C 
HETATM   29  C21 UNL     1       9.294  -9.059  34.324  1.00  0.00     0.038 C 
HETATM   30  C22 UNL     1       9.237 -10.094  33.249  1.00  0.00     0.070 C 
HETATM   31  C23 UNL     1      10.558 -10.508  32.689  1.00  0.00     0.395 C 
BRANCH  28  32
HETATM   32  O5  UNL     1      10.711  -7.568  35.390  1.00  0.00    -0.389 OA
HETATM   33  C20 UNL     1      11.996  -7.038  35.443  1.00  0.00     0.202 C 
ENDBRANCH  28  32
BRANCH  31  34
HETATM   34  O6  UNL     1      11.279 -11.318  33.556  1.00  0.00    -0.206 OA
BRANCH  34  35
HETATM   35  O7  UNL     1      11.025 -12.601  33.366  1.00  0.00    -0.248 OA
ATOM     36  H7  UNL     1      10.111 -12.758  33.161  1.00  0.00     0.253 HD
ENDBRANCH  34  35
ENDBRANCH  31  34
ENDBRANCH  25  26
ENDBRANCH  24  25
ENDBRANCH  22  24
ENDBRANCH  19  22
ENDBRANCH   1  19
TORSDOF 15
ENDMDL
MODEL 2
REMARK VINA RESULT: -7.655040558      7.508     10.415
REMARK  15 active torsions:
REMARK  status: ('A' for Active; 'I' for Inactive)
REMARK    1  A    between atoms: C6_7  and  C7_8 
REMARK    2  A    between atoms: C7_8  and  O2_9 
REMARK    3  A    between atoms: C8_12  and  C9_13 
REMARK    4  A    between atoms: C10_14  and  C11_15 
REMARK    5  A    between atoms: C12_16  and  C13_17 
REMARK    6  A    between atoms: C13_17  and  C14_18 
REMARK    7  A    between atoms: C14_18  and  C15_19 
REMARK    8  A    between atoms: C15_19  and  O4_20 
REMARK    9  A    between atoms: C15_19  and  N1_22 
REMARK   10  A    between atoms: N1_22  and  C16_24 
REMARK   11  A    between atoms: C16_24  and  C17_25 
REMARK   12  A    between atoms: C17_25  and  N2_26 
REMARK   13  A    between atoms: C19_28  and  O5_29 
REMARK   14  A    between atoms: C23_33  and  O6_34 
REMARK   15  A    between atoms: O6_34  and  O7_35 
ROOT
HETATM    1  C14 UNL     1       9.361   5.222  30.728  1.00  0.00     0.055 C 
ENDROOT
BRANCH   1   2
HETATM    2  C13 UNL     1       9.957   6.358  30.824  1.00  0.00     0.004 C 
BRANCH   2   3
HETATM    3  C12 UNL     1      10.989   6.880  29.966  1.00  0.00     0.000 C 
HETATM    4  C11 UNL     1      12.244   6.493  29.998  1.00  0.00    -0.000 C 
BRANCH   4   5
HETATM    5  C10 UNL     1      12.769   5.514  30.872  1.00  0.00    -0.001 C 
HETATM    6  C9  UNL     1      13.230   5.694  32.079  1.00  0.00     0.009 C 
BRANCH   6   7
HETATM    7  C8  UNL     1      13.324   6.950  32.843  1.00  0.00     0.176 C 
HETATM    8  C2  UNL     1      12.084   7.347  33.539  1.00  0.00    -0.057 C 
HETATM    9  C1  UNL     1      11.788   8.616  33.574  1.00  0.00     0.017 C 
HETATM   10  C3  UNL     1      11.140   6.456  34.221  1.00  0.00     0.039 C 
HETATM   11  C4  UNL     1      11.856   5.252  34.819  1.00  0.00     0.042 C 
HETATM   12  C5  UNL     1      13.138   5.596  35.462  1.00  0.00     0.190 A 
HETATM   13  O1  UNL     1      14.227   4.772  34.848  1.00  0.00    -0.340 OA
HETATM   14  C6  UNL     1      14.239   6.162  34.876  1.00  0.00     0.213 A 
HETATM   15  O3  UNL     1      14.313   6.942  33.793  1.00  0.00    -0.337 OA
BRANCH  14  16
HETATM   16  C7  UNL     1      15.376   6.598  35.860  1.00  0.00     0.235 C 
BRANCH  16  17
HETATM   17  O2  UNL     1      16.443   5.708  35.770  1.00  0.00    -0.395 OA
ATOM     18  H2  UNL     1      16.871   5.632  36.615  1.00  0.00     0.209 HD
ENDBRANCH  16  17
ENDBRANCH  14  16
ENDBRANCH   6   7
ENDBRANCH   4   5
ENDBRANCH   2   3
ENDBRANCH   1   2
BRANCH   1  19
HETATM   19  C15 UNL     1       9.727   3.863  30.824  1.00  0.00     0.135 C 
BRANCH  19  20
HETATM   20  O4  UNL     1       9.778   3.245  29.658  1.00  0.00    -0.346 OA
ATOM     21  H4  UNL     1      10.659   3.155  29.313  1.00  0.00     0.219 HD
ENDBRANCH  19  20
BRANCH  19  22
HETATM   22  N1  UNL     1      10.050   3.021  31.880  1.00  0.00    -0.369 N 
ATOM     23  H1  UNL     1      10.783   3.317  32.525  1.00  0.00     0.161 HD
BRANCH  22  24
HETATM   24  C16 UNL     1       9.398   1.735  32.118  1.00  0.00     0.152 C 
BRANCH  24  25
HETATM   25  C17 UNL     1      10.201   0.842  33.009  1.00  0.00     0.295 C 
BRANCH  25  26
HETATM   26  N2  UNL     1      11.224   1.615  33.698  1.00  0.00     0.124 N 
HETATM   27  C18 UNL     1      11.093   1.612  35.116  1.00  0.00     0.307 C 
HETATM   28  C19 UNL     1      11.013   0.222  35.707  1.00  0.00     0.149 C 
HETATM   29  C21 UNL     1      12.119  -0.669  35.187  1.00  0.00     0.038 C 
HETATM   30  C22 UNL     1      12.511  -0.398  33.772  1.00  0.00     0.070 C 
HETATM   31  C23 UNL     1      12.504   1.041  33.372  1.00  0.00     0.395 C 
BRANCH  28  32
HETATM   32  O5  UNL     1      11.221   0.312  37.084  1.00  0.00    -0.389 OA
HETATM   33  C20 UNL     1      12.541   0.598  37.414  1.00  0.00     0.202 C 
ENDBRANCH  28  32
BRANCH  31  34
HETATM   34  O6  UNL     1      13.573   1.752  33.900  1.00  0.00    -0.206 OA
BRANCH  34  35
HETATM   35  O7  UNL     1      14.219   2.440  32.975  1.00  0.00    -0.248 OA
ATOM     36  H7  UNL     1      14.747   3.135  33.349  1.00  0.00     0.253 HD
ENDBRANCH  34  35
ENDBRANCH  31  34
ENDBRANCH  25  26
ENDBRANCH  24  25
ENDBRANCH  22  24
ENDBRANCH  19  22
ENDBRANCH   1  19
TORSDOF 15
ENDMDL
MODEL 3
REMARK VINA RESULT: -7.634462811      1.703      2.486
REMARK  15 active torsions:
REMARK  status: ('A' for Active; 'I' for Inactive)
REMARK    1  A    between atoms: C6_7  and  C7_8 
REMARK    2  A    between atoms: C7_8  and  O2_9 
REMARK    3  A    between atoms: C8_12  and  C9_13 
REMARK    4  A    between atoms: C10_14  and  C11_15 
REMARK    5  A    between atoms: C12_16  and  C13_17 
REMARK    6  A    between atoms: C13_17  and  C14_18 
REMARK    7  A    between atoms: C14_18  and  C15_19 
REMARK    8  A    between atoms: C15_19  and  O4_20 
REMARK    9  A    between atoms: C15_19  and  N1_22 
REMARK   10  A    between atoms: N1_22  and  C16_24 
REMARK   11  A    between atoms: C16_24  and  C17_25 
REMARK   12  A    between atoms: C17_25  and  N2_26 
REMARK   13  A    between atoms: C19_28  and  O5_29 
REMARK   14  A    between atoms: C23_33  and  O6_34 
REMARK   15  A    between atoms: O6_34  and  O7_35 
ROOT
HETATM    1  C14 UNL     1      12.294  -6.536  28.193  1.00  0.00     0.055 C 
ENDROOT
BRANCH   1   2
HETATM    2  C13 UNL     1      11.656  -5.646  27.520  1.00  0.00     0.004 C 
BRANCH   2   3
HETATM    3  C12 UNL     1      11.493  -4.253  27.847  1.00  0.00     0.000 C 
HETATM    4  C11 UNL     1      10.840  -3.810  28.897  1.00  0.00    -0.000 C 
BRANCH   4   5
HETATM    5  C10 UNL     1      10.201  -4.626  29.859  1.00  0.00    -0.001 C 
HETATM    6  C9  UNL     1      10.415  -4.650  31.146  1.00  0.00     0.009 C 
BRANCH   6   7
HETATM    7  C8  UNL     1      11.365  -3.843  31.929  1.00  0.00     0.176 C 
HETATM    8  C2  UNL     1      10.898  -2.482  32.262  1.00  0.00    -0.057 C 
HETATM    9  C1  UNL     1      11.774  -1.518  32.238  1.00  0.00     0.017 C 
HETATM   10  C3  UNL     1       9.535  -2.094  32.639  1.00  0.00     0.039 C 
HETATM   11  C4  UNL     1       8.831  -3.218  33.389  1.00  0.00     0.042 C 
HETATM   12  C5  UNL     1       9.699  -3.898  34.368  1.00  0.00     0.190 A 
HETATM   13  O1  UNL     1       9.720  -5.364  34.064  1.00  0.00    -0.340 OA
HETATM   14  C6  UNL     1      10.864  -4.575  34.121  1.00  0.00     0.213 A 
HETATM   15  O3  UNL     1      11.732  -4.425  33.116  1.00  0.00    -0.337 OA
BRANCH  14  16
HETATM   16  C7  UNL     1      11.670  -5.014  35.389  1.00  0.00     0.235 C 
BRANCH  16  17
HETATM   17  O2  UNL     1      12.218  -6.278  35.185  1.00  0.00    -0.395 OA
ATOM     18  H2  UNL     1      12.341  -6.714  36.020  1.00  0.00     0.209 HD
ENDBRANCH  16  17
ENDBRANCH  14  16
ENDBRANCH   6   7
ENDBRANCH   4   5
ENDBRANCH   2   3
ENDBRANCH   1   2
BRANCH   1  19
HETATM   19  C15 UNL     1      12.152  -7.914  28.461  1.00  0.00     0.135 C 
BRANCH  19  20
HETATM   20  O4  UNL     1      12.347  -8.682  27.403  1.00  0.00    -0.346 OA
ATOM     21  H4  UNL     1      11.541  -8.990  27.003  1.00  0.00     0.219 HD
ENDBRANCH  19  20
BRANCH  19  22
HETATM   22  N1  UNL     1      11.849  -8.652  29.597  1.00  0.00    -0.369 N 
ATOM     23  H1  UNL     1      12.379  -9.506  29.772  1.00  0.00     0.161 HD
BRANCH  22  24
HETATM   24  C16 UNL     1      10.814  -8.273  30.557  1.00  0.00     0.152 C 
BRANCH  24  25
HETATM   25  C17 UNL     1      10.140  -9.459  31.170  1.00  0.00     0.295 C 
BRANCH  25  26
HETATM   26  N2  UNL     1      11.013 -10.072  32.160  1.00  0.00     0.124 N 
HETATM   27  C18 UNL     1      11.199  -9.285  33.333  1.00  0.00     0.307 C 
HETATM   28  C19 UNL     1       9.899  -8.864  33.983  1.00  0.00     0.149 C 
HETATM   29  C21 UNL     1       8.964 -10.039  34.168  1.00  0.00     0.038 C 
HETATM   30  C22 UNL     1       9.049 -11.067  33.089  1.00  0.00     0.070 C 
HETATM   31  C23 UNL     1      10.421 -11.322  32.557  1.00  0.00     0.395 C 
BRANCH  28  32
HETATM   32  O5  UNL     1      10.176  -8.399  35.269  1.00  0.00    -0.389 OA
HETATM   33  C20 UNL     1      10.713  -9.381  36.095  1.00  0.00     0.202 C 
ENDBRANCH  28  32
BRANCH  31  34
HETATM   34  O6  UNL     1      11.212 -12.048  33.437  1.00  0.00    -0.206 OA
BRANCH  34  35
HETATM   35  O7  UNL     1      10.872 -13.325  33.475  1.00  0.00    -0.248 OA
ATOM     36  H7  UNL     1      10.552 -13.584  34.331  1.00  0.00     0.253 HD
ENDBRANCH  34  35
ENDBRANCH  31  34
ENDBRANCH  25  26
ENDBRANCH  24  25
ENDBRANCH  22  24
ENDBRANCH  19  22
ENDBRANCH   1  19
TORSDOF 15
ENDMDL
MODEL 4
REMARK VINA RESULT: -7.558558682      1.492      2.596
REMARK  15 active torsions:
REMARK  status: ('A' for Active; 'I' for Inactive)
REMARK    1  A    between atoms: C6_7  and  C7_8 
REMARK    2  A    between atoms: C7_8  and  O2_9 
REMARK    3  A    between atoms: C8_12  and  C9_13 
REMARK    4  A    between atoms: C10_14  and  C11_15 
REMARK    5  A    between atoms: C12_16  and  C13_17 
REMARK    6  A    between atoms: C13_17  and  C14_18 
REMARK    7  A    between atoms: C14_18  and  C15_19 
REMARK    8  A    between atoms: C15_19  and  O4_20 
REMARK    9  A    between atoms: C15_19  and  N1_22 
REMARK   10  A    between atoms: N1_22  and  C16_24 
REMARK   11  A    between atoms: C16_24  and  C17_25 
REMARK   12  A    between atoms: C17_25  and  N2_26 
REMARK   13  A    between atoms: C19_28  and  O5_29 
REMARK   14  A    between atoms: C23_33  and  O6_34 
REMARK   15  A    between atoms: O6_34  and  O7_35 
ROOT
HETATM    1  C14 UNL     1      11.876  -4.928  27.100  1.00  0.00     0.055 C 
ENDROOT
BRANCH   1   2
HETATM    2  C13 UNL     1      11.548  -3.712  27.361  1.00  0.00     0.004 C 
BRANCH   2   3
HETATM    3  C12 UNL     1      10.256  -3.223  27.768  1.00  0.00     0.000 C 
HETATM    4  C11 UNL     1      10.070  -2.254  28.636  1.00  0.00    -0.000 C 
BRANCH   4   5
HETATM    5  C10 UNL     1      11.102  -1.551  29.299  1.00  0.00    -0.001 C 
HETATM    6  C9  UNL     1      11.142  -1.202  30.555  1.00  0.00     0.009 C 
BRANCH   6   7
HETATM    7  C8  UNL     1      10.138  -1.446  31.604  1.00  0.00     0.176 C 
HETATM    8  C2  UNL     1      10.357  -2.670  32.402  1.00  0.00    -0.057 C 
HETATM    9  C1  UNL     1       9.309  -3.358  32.755  1.00  0.00     0.017 C 
HETATM   10  C3  UNL     1      11.647  -3.195  32.860  1.00  0.00     0.039 C 
HETATM   11  C4  UNL     1      12.636  -2.067  33.127  1.00  0.00     0.042 C 
HETATM   12  C5  UNL     1      12.029  -0.910  33.810  1.00  0.00     0.190 A 
HETATM   13  O1  UNL     1      12.269   0.320  32.990  1.00  0.00    -0.340 OA
HETATM   14  C6  UNL     1      11.003  -0.120  33.361  1.00  0.00     0.213 A 
HETATM   15  O3  UNL     1      10.021  -0.417  32.503  1.00  0.00    -0.337 OA
BRANCH  14  16
HETATM   16  C7  UNL     1      10.439   0.906  34.400  1.00  0.00     0.235 C 
BRANCH  16  17
HETATM   17  O2  UNL     1       9.650   0.243  35.336  1.00  0.00    -0.395 OA
ATOM     18  H2  UNL     1       8.844   0.727  35.477  1.00  0.00     0.209 HD
ENDBRANCH  16  17
ENDBRANCH  14  16
ENDBRANCH   6   7
ENDBRANCH   4   5
ENDBRANCH   2   3
ENDBRANCH   1   2
BRANCH   1  19
HETATM   19  C15 UNL     1      11.885  -6.157  27.791  1.00  0.00     0.135 C 
BRANCH  19  20
HETATM   20  O4  UNL     1      11.872  -7.212  26.996  1.00  0.00    -0.346 OA
ATOM     21  H4  UNL     1      11.610  -8.014  27.433  1.00  0.00     0.219 HD
ENDBRANCH  19  20
BRANCH  19  22
HETATM   22  N1  UNL     1      11.905  -6.511  29.134  1.00  0.00    -0.369 N 
ATOM     23  H1  UNL     1      12.717  -7.018  29.486  1.00  0.00     0.161 HD
BRANCH  22  24
HETATM   24  C16 UNL     1      10.827  -6.197  30.070  1.00  0.00     0.152 C 
BRANCH  24  25
HETATM   25  C17 UNL     1      11.167  -6.566  31.479  1.00  0.00     0.295 C 
BRANCH  25  26
HETATM   26  N2  UNL     1       9.999  -7.121  32.145  1.00  0.00     0.124 N 
HETATM   27  C18 UNL     1       9.920  -8.542  32.085  1.00  0.00     0.307 C 
HETATM   28  C19 UNL     1      11.172  -9.231  32.582  1.00  0.00     0.149 C 
HETATM   29  C21 UNL     1      11.608  -8.692  33.926  1.00  0.00     0.038 C 
HETATM   30  C22 UNL     1      11.338  -7.237  34.121  1.00  0.00     0.070 C 
HETATM   31  C23 UNL     1      10.059  -6.740  33.532  1.00  0.00     0.395 C 
BRANCH  28  32
HETATM   32  O5  UNL     1      10.881 -10.580  32.795  1.00  0.00    -0.389 OA
HETATM   33  C20 UNL     1       9.527 -10.868  32.666  1.00  0.00     0.202 C 
ENDBRANCH  28  32
BRANCH  31  34
HETATM   34  O6  UNL     1       8.944  -7.137  34.257  1.00  0.00    -0.206 OA
BRANCH  34  35
HETATM   35  O7  UNL     1       9.026  -6.785  35.528  1.00  0.00    -0.248 OA
ATOM     36  H7  UNL     1       8.479  -7.326  36.086  1.00  0.00     0.253 HD
ENDBRANCH  34  35
ENDBRANCH  31  34
ENDBRANCH  25  26
ENDBRANCH  24  25
ENDBRANCH  22  24
ENDBRANCH  19  22
ENDBRANCH   1  19
TORSDOF 15
ENDMDL
MODEL 5
REMARK VINA RESULT: -7.555105955      1.313      1.537
REMARK  15 active torsions:
REMARK  status: ('A' for Active; 'I' for Inactive)
REMARK    1  A    between atoms: C6_7  and  C7_8 
REMARK    2  A    between atoms: C7_8  and  O2_9 
REMARK    3  A    between atoms: C8_12  and  C9_13 
REMARK    4  A    between atoms: C10_14  and  C11_15 
REMARK    5  A    between atoms: C12_16  and  C13_17 
REMARK    6  A    between atoms: C13_17  and  C14_18 
REMARK    7  A    between atoms: C14_18  and  C15_19 
REMARK    8  A    between atoms: C15_19  and  O4_20 
REMARK    9  A    between atoms: C15_19  and  N1_22 
REMARK   10  A    between atoms: N1_22  and  C16_24 
REMARK   11  A    between atoms: C16_24  and  C17_25 
REMARK   12  A    between atoms: C17_25  and  N2_26 
REMARK   13  A    between atoms: C19_28  and  O5_29 
REMARK   14  A    between atoms: C23_33  and  O6_34 
REMARK   15  A    between atoms: O6_34  and  O7_35 
ROOT
HETATM    1  C14 UNL     1      11.837  -5.267  27.669  1.00  0.00     0.055 C 
ENDROOT
BRANCH   1   2
HETATM    2  C13 UNL     1      11.527  -4.031  27.497  1.00  0.00     0.004 C 
BRANCH   2   3
HETATM    3  C12 UNL     1      10.251  -3.408  27.739  1.00  0.00     0.000 C 
HETATM    4  C11 UNL     1      10.063  -2.402  28.563  1.00  0.00    -0.000 C 
BRANCH   4   5
HETATM    5  C10 UNL     1      11.074  -1.782  29.331  1.00  0.00    -0.001 C 
HETATM    6  C9  UNL     1      11.080  -1.582  30.620  1.00  0.00     0.009 C 
BRANCH   6   7
HETATM    7  C8  UNL     1      10.046  -1.943  31.606  1.00  0.00     0.176 C 
HETATM    8  C2  UNL     1      10.308  -3.191  32.351  1.00  0.00    -0.057 C 
HETATM    9  C1  UNL     1       9.292  -3.962  32.618  1.00  0.00     0.017 C 
HETATM   10  C3  UNL     1      11.607  -3.658  32.845  1.00  0.00     0.039 C 
HETATM   11  C4  UNL     1      12.507  -2.486  33.216  1.00  0.00     0.042 C 
HETATM   12  C5  UNL     1      11.796  -1.407  33.925  1.00  0.00     0.190 A 
HETATM   13  O1  UNL     1      11.993  -0.123  33.180  1.00  0.00    -0.340 OA
HETATM   14  C6  UNL     1      10.743  -0.660  33.467  1.00  0.00     0.213 A 
HETATM   15  O3  UNL     1       9.822  -0.972  32.548  1.00  0.00    -0.337 OA
BRANCH  14  16
HETATM   16  C7  UNL     1      10.066   0.273  34.526  1.00  0.00     0.235 C 
BRANCH  16  17
HETATM   17  O2  UNL     1       8.937  -0.352  35.050  1.00  0.00    -0.395 OA
ATOM     18  H2  UNL     1       8.154   0.016  34.656  1.00  0.00     0.209 HD
ENDBRANCH  16  17
ENDBRANCH  14  16
ENDBRANCH   6   7
ENDBRANCH   4   5
ENDBRANCH   2   3
ENDBRANCH   1   2
BRANCH   1  19
HETATM   19  C15 UNL     1      11.688  -6.228  28.690  1.00  0.00     0.135 C 
BRANCH  19  20
HETATM   20  O4  UNL     1      12.213  -7.403  28.393  1.00  0.00    -0.346 OA
ATOM     21  H4  UNL     1      11.610  -7.988  27.950  1.00  0.00     0.219 HD
ENDBRANCH  19  20
BRANCH  19  22
HETATM   22  N1  UNL     1      11.106  -6.216  29.951  1.00  0.00    -0.369 N 
ATOM     23  H1  UNL     1      10.946  -5.314  30.399  1.00  0.00     0.161 HD
BRANCH  22  24
HETATM   24  C16 UNL     1      10.711  -7.425  30.672  1.00  0.00     0.152 C 
BRANCH  24  25
HETATM   25  C17 UNL     1      10.368  -7.153  32.102  1.00  0.00     0.295 C 
BRANCH  25  26
HETATM   26  N2  UNL     1      10.585  -8.348  32.903  1.00  0.00     0.124 N 
HETATM   27  C18 UNL     1      11.730  -8.276  33.748  1.00  0.00     0.307 C 
HETATM   28  C19 UNL     1      11.743  -7.052  34.635  1.00  0.00     0.149 C 
HETATM   29  C21 UNL     1      10.428  -6.876  35.361  1.00  0.00     0.038 C 
HETATM   30  C22 UNL     1       9.233  -7.313  34.580  1.00  0.00     0.070 C 
HETATM   31  C23 UNL     1       9.429  -8.533  33.741  1.00  0.00     0.395 C 
BRANCH  28  32
HETATM   32  O5  UNL     1      12.700  -7.237  35.634  1.00  0.00    -0.389 OA
HETATM   33  C20 UNL     1      13.125  -6.042  36.204  1.00  0.00     0.202 C 
ENDBRANCH  28  32
BRANCH  31  34
HETATM   34  O6  UNL     1       9.479  -9.700  34.491  1.00  0.00    -0.206 OA
BRANCH  34  35
HETATM   35  O7  UNL     1       9.083 -10.754  33.800  1.00  0.00    -0.248 OA
ATOM     36  H7  UNL     1       9.809 -11.195  33.373  1.00  0.00     0.253 HD
ENDBRANCH  34  35
ENDBRANCH  31  34
ENDBRANCH  25  26
ENDBRANCH  24  25
ENDBRANCH  22  24
ENDBRANCH  19  22
ENDBRANCH   1  19
TORSDOF 15
ENDMDL
