MODEL 1
REMARK VINA RESULT: -7.233230973      0.000      0.000
REMARK  9 active torsions:
REMARK  status: ('A' for Active; 'I' for Inactive)
REMARK    1  A    between atoms: C2_2  and  C5_5 
REMARK    2  A    between atoms: C5_5  and  C6_7 
REMARK    3  A    between atoms: C10_13  and  N1_14 
REMARK       I    between atoms: N1_14  and  C11_16 
REMARK    4  A    between atoms: C11_16  and  C12_18 
REMARK    5  A    between atoms: C13_21  and  C14_22 
REMARK    6  A    between atoms: C15_25  and  N4_26 
REMARK    7  A    between atoms: C16_30  and  N5_31 
REMARK    8  A    between atoms: C20_42  and  O8_43 
REMARK    9  A    between atoms: O8_43  and  S3_44 
ROOT
HETATM    1  C12 UNL     1     -10.982   8.131  -1.223  1.00  0.00     0.247 C 
HETATM    2  O3  UNL     1      -9.716   8.140  -0.641  1.00  0.00    -0.250 OA
HETATM    3  N2  UNL     1      -9.147   9.387  -0.636  1.00  0.00    -0.077 NA
HETATM    4  C13 UNL     1      -9.462  10.131   0.485  1.00  0.00     0.251 C 
HETATM    5  C17 UNL     1     -10.329   9.402   1.460  1.00  0.00     0.246 C 
HETATM    6  O6  UNL     1      -9.952   9.425   2.640  1.00  0.00    -0.271 OA
HETATM    7  N6  UNL     1     -11.519   8.705   1.122  1.00  0.00    -0.343 N 
ATOM      8  H6  UNL     1     -12.146   8.543   1.911  1.00  0.00     0.163 HD
HETATM    9  C18 UNL     1     -12.005   8.184  -0.127  1.00  0.00     0.223 C 
HETATM   10  C19 UNL     1     -12.944   9.175  -0.739  1.00  0.00     0.216 C 
HETATM   11  O7  UNL     1     -14.128   9.422  -0.561  1.00  0.00    -0.283 OA
HETATM   12  S2  UNL     1     -11.602   9.753  -1.750  1.00  0.00    -0.037 SA
ENDROOT
BRANCH   1  13
HETATM   13  C11 UNL     1     -11.151   7.069  -2.236  1.00  0.00     0.273 C 
HETATM   14  N1  UNL     1     -11.034   5.675  -2.005  1.00  0.00    -0.319 N 
ATOM     15  H1  UNL     1     -10.807   5.369  -1.059  1.00  0.00     0.169 HD
HETATM   16  O2  UNL     1     -11.425   7.419  -3.412  1.00  0.00    -0.269 OA
BRANCH  14  17
HETATM   17  C10 UNL     1     -11.207   4.693  -2.984  1.00  0.00     0.110 A 
HETATM   18  C9  UNL     1     -12.474   4.156  -3.193  1.00  0.00     0.148 A 
HETATM   19  C8  UNL     1     -12.686   3.224  -4.171  1.00  0.00     0.088 A 
HETATM   20  F2  UNL     1     -13.534   4.536  -2.442  1.00  0.00    -0.203 F 
HETATM   21  C7  UNL     1     -11.654   2.782  -4.985  1.00  0.00     0.136 A 
HETATM   22  C6  UNL     1     -10.387   3.282  -4.819  1.00  0.00     0.086 A 
HETATM   23  F1  UNL     1     -11.940   1.864  -5.951  1.00  0.00    -0.205 F 
HETATM   24  C20 UNL     1     -10.207   4.236  -3.800  1.00  0.00     0.138 A 
BRANCH  22  25
HETATM   25  C5  UNL     1      -9.252   2.924  -5.613  1.00  0.00     0.173 C 
HETATM   26  O1  UNL     1      -8.551   1.911  -5.207  1.00  0.00    -0.291 OA
BRANCH  25  27
HETATM   27  C2  UNL     1      -8.694   3.489  -6.852  1.00  0.00     0.015 C 
HETATM   28  C1  UNL     1      -9.595   4.547  -7.451  1.00  0.00     0.023 C 
HETATM   29  C3  UNL     1      -8.692   2.376  -7.961  1.00  0.00     0.023 C 
HETATM   30  C4  UNL     1      -7.244   3.884  -6.786  1.00  0.00     0.023 C 
ENDBRANCH  25  27
ENDBRANCH  22  25
BRANCH  24  31
HETATM   31  O8  UNL     1      -8.937   4.805  -3.525  1.00  0.00    -0.211 OA
BRANCH  31  32
HETATM   32  S3  UNL     1      -7.944   4.270  -2.260  1.00  0.00     0.257 S 
HETATM   33  O9  UNL     1      -6.508   4.143  -2.590  1.00  0.00    -0.572 OA
HETATM   34  O10 UNL     1      -8.113   5.243  -1.100  1.00  0.00    -0.572 OA
HETATM   35  O11 UNL     1      -8.403   2.775  -1.636  1.00  0.00    -0.572 OA
ENDBRANCH  31  32
ENDBRANCH  24  31
ENDBRANCH  14  17
ENDBRANCH   1  13
BRANCH   4  36
HETATM   36  C14 UNL     1      -8.361  10.887   1.188  1.00  0.00     0.083 A 
HETATM   37  N3  UNL     1      -7.168  10.280   1.251  1.00  0.00    -0.336 N 
HETATM   38  C15 UNL     1      -6.175  10.863   1.871  1.00  0.00     0.144 A 
ATOM     39  H3  UNL     1      -7.034   9.366   0.817  1.00  0.00     0.168 HD
HETATM   40  S1  UNL     1      -6.842  12.309   2.415  1.00  0.00    -0.028 SA
HETATM   41  C16 UNL     1      -8.478  12.096   1.783  1.00  0.00     0.171 A 
BRANCH  38  42
HETATM   42  N4  UNL     1      -4.945  10.400   2.021  1.00  0.00    -0.380 N 
ATOM     43  H42 UNL     1      -4.361   9.892   1.356  1.00  0.00     0.158 HD
ATOM     44  H41 UNL     1      -4.356  10.477   2.850  1.00  0.00     0.158 HD
ENDBRANCH  38  42
BRANCH  41  45
HETATM   45  N5  UNL     1      -9.493  13.070   1.945  1.00  0.00    -0.106 N 
HETATM   46  O4  UNL     1      -9.960  13.212   3.127  1.00  0.00    -0.531 OA
HETATM   47  O5  UNL     1     -10.030  13.859   1.037  1.00  0.00    -0.531 OA
ENDBRANCH  41  45
ENDBRANCH   4  36
TORSDOF 9
ENDMDL
MODEL 2
REMARK VINA RESULT: -7.203578710      1.290      1.997
REMARK  9 active torsions:
REMARK  status: ('A' for Active; 'I' for Inactive)
REMARK    1  A    between atoms: C2_2  and  C5_5 
REMARK    2  A    between atoms: C5_5  and  C6_7 
REMARK    3  A    between atoms: C10_13  and  N1_14 
REMARK       I    between atoms: N1_14  and  C11_16 
REMARK    4  A    between atoms: C11_16  and  C12_18 
REMARK    5  A    between atoms: C13_21  and  C14_22 
REMARK    6  A    between atoms: C15_25  and  N4_26 
REMARK    7  A    between atoms: C16_30  and  N5_31 
REMARK    8  A    between atoms: C20_42  and  O8_43 
REMARK    9  A    between atoms: O8_43  and  S3_44 
ROOT
HETATM    1  C12 UNL     1     -10.905   7.775  -1.226  1.00  0.00     0.247 C 
HETATM    2  O3  UNL     1      -9.657   7.973  -0.639  1.00  0.00    -0.250 OA
HETATM    3  N2  UNL     1      -9.306   9.297  -0.580  1.00  0.00    -0.077 NA
HETATM    4  C13 UNL     1      -9.738   9.930   0.570  1.00  0.00     0.251 C 
HETATM    5  C17 UNL     1     -10.465   9.025   1.510  1.00  0.00     0.246 C 
HETATM    6  O6  UNL     1     -10.093   9.062   2.691  1.00  0.00    -0.271 OA
HETATM    7  N6  UNL     1     -11.522   8.151   1.140  1.00  0.00    -0.343 N 
ATOM      8  H6  UNL     1     -12.109   7.854   1.920  1.00  0.00     0.163 HD
HETATM    9  C18 UNL     1     -11.918   7.608  -0.131  1.00  0.00     0.223 C 
HETATM   10  C19 UNL     1     -13.014   8.451  -0.704  1.00  0.00     0.216 C 
HETATM   11  O7  UNL     1     -14.221   8.486  -0.520  1.00  0.00    -0.283 OA
HETATM   12  S2  UNL     1     -11.792   9.289  -1.686  1.00  0.00    -0.037 SA
ENDROOT
BRANCH   1  13
HETATM   13  C11 UNL     1     -10.896   6.742  -2.282  1.00  0.00     0.273 C 
HETATM   14  N1  UNL     1     -10.787   5.344  -2.076  1.00  0.00    -0.319 N 
ATOM     15  H1  UNL     1     -10.700   5.012  -1.116  1.00  0.00     0.169 HD
HETATM   16  O2  UNL     1     -10.995   7.125  -3.475  1.00  0.00    -0.269 OA
BRANCH  14  17
HETATM   17  C10 UNL     1     -10.788   4.390  -3.097  1.00  0.00     0.110 A 
HETATM   18  C9  UNL     1     -11.989   3.790  -3.466  1.00  0.00     0.148 A 
HETATM   19  C8  UNL     1     -12.033   2.884  -4.489  1.00  0.00     0.088 A 
HETATM   20  F2  UNL     1     -13.147   4.080  -2.830  1.00  0.00    -0.203 F 
HETATM   21  C7  UNL     1     -10.891   2.532  -5.194  1.00  0.00     0.136 A 
HETATM   22  C6  UNL     1      -9.684   3.098  -4.869  1.00  0.00     0.086 A 
HETATM   23  F1  UNL     1     -11.009   1.636  -6.214  1.00  0.00    -0.205 F 
HETATM   24  C20 UNL     1      -9.678   4.023  -3.808  1.00  0.00     0.138 A 
BRANCH  22  25
HETATM   25  C5  UNL     1      -8.446   2.836  -5.539  1.00  0.00     0.173 C 
HETATM   26  O1  UNL     1      -7.779   1.795  -5.146  1.00  0.00    -0.291 OA
BRANCH  25  27
HETATM   27  C2  UNL     1      -7.747   3.529  -6.632  1.00  0.00     0.015 C 
HETATM   28  C1  UNL     1      -8.640   4.530  -7.334  1.00  0.00     0.023 C 
HETATM   29  C3  UNL     1      -7.435   2.493  -7.772  1.00  0.00     0.023 C 
HETATM   30  C4  UNL     1      -6.381   4.058  -6.291  1.00  0.00     0.023 C 
ENDBRANCH  25  27
ENDBRANCH  22  25
BRANCH  24  31
HETATM   31  O8  UNL     1      -8.484   4.653  -3.373  1.00  0.00    -0.211 OA
BRANCH  31  32
HETATM   32  S3  UNL     1      -7.557   4.072  -2.077  1.00  0.00     0.257 S 
HETATM   33  O9  UNL     1      -7.275   2.620  -2.099  1.00  0.00    -0.572 OA
HETATM   34  O10 UNL     1      -6.244   4.843  -2.069  1.00  0.00    -0.572 OA
HETATM   35  O11 UNL     1      -8.244   4.381  -0.571  1.00  0.00    -0.572 OA
ENDBRANCH  31  32
ENDBRANCH  24  31
ENDBRANCH  14  17
ENDBRANCH   1  13
BRANCH   4  36
HETATM   36  C14 UNL     1      -8.778  10.831   1.307  1.00  0.00     0.083 A 
HETATM   37  N3  UNL     1      -9.321  11.840   2.002  1.00  0.00    -0.336 N 
HETATM   38  C15 UNL     1      -8.547  12.678   2.641  1.00  0.00     0.144 A 
ATOM     39  H3  UNL     1     -10.334  11.954   2.032  1.00  0.00     0.168 HD
HETATM   40  S1  UNL     1      -6.996  12.114   2.314  1.00  0.00    -0.028 SA
HETATM   41  C16 UNL     1      -7.429  10.731   1.303  1.00  0.00     0.171 A 
BRANCH  38  42
HETATM   42  N4  UNL     1      -8.924  13.718   3.367  1.00  0.00    -0.380 N 
ATOM     43  H42 UNL     1      -9.458  13.739   4.236  1.00  0.00     0.158 HD
ATOM     44  H41 UNL     1      -8.737  14.702   3.174  1.00  0.00     0.158 HD
ENDBRANCH  38  42
BRANCH  41  45
HETATM   45  N5  UNL     1      -6.462   9.857   0.749  1.00  0.00    -0.106 N 
HETATM   46  O4  UNL     1      -5.610   9.363   1.565  1.00  0.00    -0.531 OA
HETATM   47  O5  UNL     1      -6.316   9.479  -0.505  1.00  0.00    -0.531 OA
ENDBRANCH  41  45
ENDBRANCH   4  36
TORSDOF 9
ENDMDL
MODEL 3
REMARK VINA RESULT: -6.853703075      1.115      1.334
REMARK  9 active torsions:
REMARK  status: ('A' for Active; 'I' for Inactive)
REMARK    1  A    between atoms: C2_2  and  C5_5 
REMARK    2  A    between atoms: C5_5  and  C6_7 
REMARK    3  A    between atoms: C10_13  and  N1_14 
REMARK       I    between atoms: N1_14  and  C11_16 
REMARK    4  A    between atoms: C11_16  and  C12_18 
REMARK    5  A    between atoms: C13_21  and  C14_22 
REMARK    6  A    between atoms: C15_25  and  N4_26 
REMARK    7  A    between atoms: C16_30  and  N5_31 
REMARK    8  A    between atoms: C20_42  and  O8_43 
REMARK    9  A    between atoms: O8_43  and  S3_44 
ROOT
HETATM    1  C12 UNL     1     -11.488   7.840  -1.042  1.00  0.00     0.247 C 
HETATM    2  O3  UNL     1     -10.175   7.850  -0.578  1.00  0.00    -0.250 OA
HETATM    3  N2  UNL     1      -9.548   9.050  -0.792  1.00  0.00    -0.077 NA
HETATM    4  C13 UNL     1      -9.721   9.953   0.239  1.00  0.00     0.251 C 
HETATM    5  C17 UNL     1     -10.527   9.412   1.376  1.00  0.00     0.246 C 
HETATM    6  O6  UNL     1     -10.041   9.568   2.504  1.00  0.00    -0.271 OA
HETATM    7  N6  UNL     1     -11.776   8.749   1.240  1.00  0.00    -0.343 N 
ATOM      8  H6  UNL     1     -12.332   8.731   2.095  1.00  0.00     0.163 HD
HETATM    9  C18 UNL     1     -12.401   8.098   0.120  1.00  0.00     0.223 C 
HETATM   10  C19 UNL     1     -13.344   9.054  -0.538  1.00  0.00     0.216 C 
HETATM   11  O7  UNL     1     -14.493   9.393  -0.295  1.00  0.00    -0.283 OA
HETATM   12  S2  UNL     1     -12.076   9.412  -1.730  1.00  0.00    -0.037 SA
ENDROOT
BRANCH   1  13
HETATM   13  C11 UNL     1     -11.801   6.665  -1.882  1.00  0.00     0.273 C 
HETATM   14  N1  UNL     1     -11.684   6.598  -3.292  1.00  0.00    -0.319 N 
ATOM     15  H1  UNL     1     -11.361   7.432  -3.782  1.00  0.00     0.169 HD
HETATM   16  O2  UNL     1     -12.208   5.625  -1.304  1.00  0.00    -0.269 OA
BRANCH  14  17
HETATM   17  C10 UNL     1     -11.982   5.468  -4.059  1.00  0.00     0.110 A 
HETATM   18  C9  UNL     1     -13.314   5.131  -4.286  1.00  0.00     0.148 A 
HETATM   19  C8  UNL     1     -13.640   4.056  -5.066  1.00  0.00     0.088 A 
HETATM   20  F2  UNL     1     -14.325   5.850  -3.748  1.00  0.00    -0.203 F 
HETATM   21  C7  UNL     1     -12.663   3.268  -5.657  1.00  0.00     0.136 A 
HETATM   22  C6  UNL     1     -11.337   3.561  -5.464  1.00  0.00     0.086 A 
HETATM   23  F1  UNL     1     -13.059   2.222  -6.437  1.00  0.00    -0.205 F 
HETATM   24  C20 UNL     1     -11.040   4.671  -4.652  1.00  0.00     0.138 A 
BRANCH  22  25
HETATM   25  C5  UNL     1     -10.244   2.839  -6.042  1.00  0.00     0.173 C 
HETATM   26  O1  UNL     1      -9.826   1.796  -5.394  1.00  0.00    -0.291 OA
BRANCH  25  27
HETATM   27  C2  UNL     1      -9.466   3.042  -7.274  1.00  0.00     0.015 C 
HETATM   28  C1  UNL     1     -10.011   4.180  -8.110  1.00  0.00     0.023 C 
HETATM   29  C3  UNL     1      -9.672   1.800  -8.215  1.00  0.00     0.023 C 
HETATM   30  C4  UNL     1      -7.972   3.071  -7.098  1.00  0.00     0.023 C 
ENDBRANCH  25  27
ENDBRANCH  22  25
BRANCH  24  31
HETATM   31  O8  UNL     1      -9.704   5.053  -4.368  1.00  0.00    -0.211 OA
BRANCH  31  32
HETATM   32  S3  UNL     1      -8.808   4.385  -3.094  1.00  0.00     0.257 S 
HETATM   33  O9  UNL     1      -9.459   3.266  -2.378  1.00  0.00    -0.572 OA
HETATM   34  O10 UNL     1      -7.477   3.914  -3.665  1.00  0.00    -0.572 OA
HETATM   35  O11 UNL     1      -8.392   5.505  -1.907  1.00  0.00    -0.572 OA
ENDBRANCH  31  32
ENDBRANCH  24  31
ENDBRANCH  14  17
ENDBRANCH   1  13
BRANCH   4  36
HETATM   36  C14 UNL     1      -8.524  10.727   0.735  1.00  0.00     0.083 A 
HETATM   37  N3  UNL     1      -7.413  10.018   0.975  1.00  0.00    -0.336 N 
HETATM   38  C15 UNL     1      -6.346  10.619   1.434  1.00  0.00     0.144 A 
ATOM     39  H3  UNL     1      -7.399   9.013   0.800  1.00  0.00     0.168 HD
HETATM   40  S1  UNL     1      -6.822  12.227   1.566  1.00  0.00    -0.028 SA
HETATM   41  C16 UNL     1      -8.483  12.056   0.986  1.00  0.00     0.171 A 
BRANCH  38  42
HETATM   42  N4  UNL     1      -5.180  10.065   1.720  1.00  0.00    -0.380 N 
ATOM     43  H42 UNL     1      -4.974   9.261   2.313  1.00  0.00     0.158 HD
ATOM     44  H41 UNL     1      -4.262  10.358   1.385  1.00  0.00     0.158 HD
ENDBRANCH  38  42
BRANCH  41  45
HETATM   45  N5  UNL     1      -9.368  13.154   0.870  1.00  0.00    -0.106 N 
HETATM   46  O4  UNL     1     -10.040  13.456   1.916  1.00  0.00    -0.531 OA
HETATM   47  O5  UNL     1      -9.601  13.917  -0.179  1.00  0.00    -0.531 OA
ENDBRANCH  41  45
ENDBRANCH   4  36
TORSDOF 9
ENDMDL
MODEL 4
REMARK VINA RESULT: -6.690334683      5.640     10.539
REMARK  9 active torsions:
REMARK  status: ('A' for Active; 'I' for Inactive)
REMARK    1  A    between atoms: C2_2  and  C5_5 
REMARK    2  A    between atoms: C5_5  and  C6_7 
REMARK    3  A    between atoms: C10_13  and  N1_14 
REMARK       I    between atoms: N1_14  and  C11_16 
REMARK    4  A    between atoms: C11_16  and  C12_18 
REMARK    5  A    between atoms: C13_21  and  C14_22 
REMARK    6  A    between atoms: C15_25  and  N4_26 
REMARK    7  A    between atoms: C16_30  and  N5_31 
REMARK    8  A    between atoms: C20_42  and  O8_43 
REMARK    9  A    between atoms: O8_43  and  S3_44 
ROOT
HETATM    1  C12 UNL     1     -14.336   6.549  -3.961  1.00  0.00     0.247 C 
HETATM    2  O3  UNL     1     -14.277   5.501  -4.877  1.00  0.00    -0.250 OA
HETATM    3  N2  UNL     1     -13.090   5.465  -5.561  1.00  0.00    -0.077 NA
HETATM    4  C13 UNL     1     -12.113   4.718  -4.929  1.00  0.00     0.251 C 
HETATM    5  C17 UNL     1     -12.575   4.090  -3.655  1.00  0.00     0.246 C 
HETATM    6  O6  UNL     1     -12.329   2.882  -3.528  1.00  0.00    -0.271 OA
HETATM    7  N6  UNL     1     -13.260   4.774  -2.615  1.00  0.00    -0.343 N 
ATOM      8  H6  UNL     1     -13.220   4.304  -1.710  1.00  0.00     0.163 HD
HETATM    9  C18 UNL     1     -14.001   6.006  -2.603  1.00  0.00     0.223 C 
HETATM   10  C19 UNL     1     -13.107   7.110  -2.130  1.00  0.00     0.216 C 
HETATM   11  O7  UNL     1     -12.764   7.487  -1.020  1.00  0.00    -0.283 OA
HETATM   12  S2  UNL     1     -12.827   7.546  -3.830  1.00  0.00    -0.037 SA
ENDROOT
BRANCH   1  13
HETATM   13  C11 UNL     1     -15.574   7.348  -4.067  1.00  0.00     0.273 C 
HETATM   14  N1  UNL     1     -15.973   8.383  -3.185  1.00  0.00    -0.319 N 
ATOM     15  H1  UNL     1     -15.359   8.599  -2.399  1.00  0.00     0.169 HD
HETATM   16  O2  UNL     1     -16.351   7.098  -5.023  1.00  0.00    -0.269 OA
BRANCH  14  17
HETATM   17  C10 UNL     1     -17.149   9.127  -3.316  1.00  0.00     0.110 A 
HETATM   18  C9  UNL     1     -17.181  10.197  -4.207  1.00  0.00     0.148 A 
HETATM   19  C8  UNL     1     -18.328  10.919  -4.391  1.00  0.00     0.088 A 
HETATM   20  F2  UNL     1     -16.088  10.557  -4.917  1.00  0.00    -0.203 F 
HETATM   21  C7  UNL     1     -19.493  10.615  -3.703  1.00  0.00     0.136 A 
HETATM   22  C6  UNL     1     -19.511   9.568  -2.816  1.00  0.00     0.086 A 
HETATM   23  F1  UNL     1     -20.604  11.365  -3.948  1.00  0.00    -0.205 F 
HETATM   24  C20 UNL     1     -18.312   8.851  -2.650  1.00  0.00     0.138 A 
BRANCH  22  25
HETATM   25  C5  UNL     1     -20.657   9.142  -2.071  1.00  0.00     0.173 C 
HETATM   26  O1  UNL     1     -20.765   9.591  -0.858  1.00  0.00    -0.291 OA
BRANCH  25  27
HETATM   27  C2  UNL     1     -21.790   8.268  -2.412  1.00  0.00     0.015 C 
HETATM   28  C1  UNL     1     -22.091   8.279  -3.896  1.00  0.00     0.023 C 
HETATM   29  C3  UNL     1     -23.102   8.873  -1.795  1.00  0.00     0.023 C 
HETATM   30  C4  UNL     1     -21.750   6.892  -1.805  1.00  0.00     0.023 C 
ENDBRANCH  25  27
ENDBRANCH  22  25
BRANCH  24  31
HETATM   31  O8  UNL     1     -18.210   7.764  -1.744  1.00  0.00    -0.211 OA
BRANCH  31  32
HETATM   32  S3  UNL     1     -17.625   7.936  -0.163  1.00  0.00     0.257 S 
HETATM   33  O9  UNL     1     -18.280   7.083   0.852  1.00  0.00    -0.572 OA
HETATM   34  O10 UNL     1     -16.132   7.637  -0.190  1.00  0.00    -0.572 OA
HETATM   35  O11 UNL     1     -17.736   9.511   0.424  1.00  0.00    -0.572 OA
ENDBRANCH  31  32
ENDBRANCH  24  31
ENDBRANCH  14  17
ENDBRANCH   1  13
BRANCH   4  36
HETATM   36  C14 UNL     1     -11.291   3.755  -5.750  1.00  0.00     0.083 A 
HETATM   37  N3  UNL     1     -10.068   3.467  -5.283  1.00  0.00    -0.336 N 
HETATM   38  C15 UNL     1      -9.289   2.663  -5.958  1.00  0.00     0.144 A 
ATOM     39  H3  UNL     1      -9.747   3.874  -4.404  1.00  0.00     0.168 HD
HETATM   40  S1  UNL     1     -10.213   2.250  -7.301  1.00  0.00    -0.028 SA
HETATM   41  C16 UNL     1     -11.662   3.187  -6.920  1.00  0.00     0.171 A 
BRANCH  38  42
HETATM   42  N4  UNL     1      -8.064   2.282  -5.635  1.00  0.00    -0.380 N 
ATOM     43  H42 UNL     1      -7.367   2.762  -5.065  1.00  0.00     0.158 HD
ATOM     44  H41 UNL     1      -7.597   1.418  -5.909  1.00  0.00     0.158 HD
ENDBRANCH  38  42
BRANCH  41  45
HETATM   45  N5  UNL     1     -12.811   3.186  -7.746  1.00  0.00    -0.106 N 
HETATM   46  O4  UNL     1     -13.722   2.337  -7.452  1.00  0.00    -0.531 OA
HETATM   47  O5  UNL     1     -13.076   3.947  -8.789  1.00  0.00    -0.531 OA
ENDBRANCH  41  45
ENDBRANCH   4  36
TORSDOF 9
ENDMDL
MODEL 5
REMARK VINA RESULT: -6.635890174      1.384      2.308
REMARK  9 active torsions:
REMARK  status: ('A' for Active; 'I' for Inactive)
REMARK    1  A    between atoms: C2_2  and  C5_5 
REMARK    2  A    between atoms: C5_5  and  C6_7 
REMARK    3  A    between atoms: C10_13  and  N1_14 
REMARK       I    between atoms: N1_14  and  C11_16 
REMARK    4  A    between atoms: C11_16  and  C12_18 
REMARK    5  A    between atoms: C13_21  and  C14_22 
REMARK    6  A    between atoms: C15_25  and  N4_26 
REMARK    7  A    between atoms: C16_30  and  N5_31 
REMARK    8  A    between atoms: C20_42  and  O8_43 
REMARK    9  A    between atoms: O8_43  and  S3_44 
ROOT
HETATM    1  C12 UNL     1     -10.759   8.071  -0.548  1.00  0.00     0.247 C 
HETATM    2  O3  UNL     1      -9.541   8.377   0.056  1.00  0.00    -0.250 OA
HETATM    3  N2  UNL     1      -9.074   9.616  -0.297  1.00  0.00    -0.077 NA
HETATM    4  C13 UNL     1      -9.524  10.629   0.529  1.00  0.00     0.251 C 
HETATM    5  C17 UNL     1     -10.395  10.147   1.643  1.00  0.00     0.246 C 
HETATM    6  O6  UNL     1     -10.104  10.561   2.773  1.00  0.00    -0.271 OA
HETATM    7  N6  UNL     1     -11.501   9.269   1.485  1.00  0.00    -0.343 N 
ATOM      8  H6  UNL     1     -12.165   9.293   2.259  1.00  0.00     0.163 HD
HETATM    9  C18 UNL     1     -11.856   8.352   0.436  1.00  0.00     0.223 C 
HETATM   10  C19 UNL     1     -12.827   9.018  -0.488  1.00  0.00     0.216 C 
HETATM   11  O7  UNL     1     -14.035   9.191  -0.444  1.00  0.00    -0.283 OA
HETATM   12  S2  UNL     1     -11.467   9.391  -1.570  1.00  0.00    -0.037 SA
ENDROOT
BRANCH   1  13
HETATM   13  C11 UNL     1     -10.773   6.742  -1.193  1.00  0.00     0.273 C 
HETATM   14  N1  UNL     1     -10.997   6.490  -2.569  1.00  0.00    -0.319 N 
ATOM     15  H1  UNL     1     -11.172   7.290  -3.176  1.00  0.00     0.169 HD
HETATM   16  O2  UNL     1     -10.567   5.737  -0.466  1.00  0.00    -0.269 OA
BRANCH  14  17
HETATM   17  C10 UNL     1     -10.997   5.219  -3.152  1.00  0.00     0.110 A 
HETATM   18  C9  UNL     1     -12.153   4.445  -3.098  1.00  0.00     0.148 A 
HETATM   19  C8  UNL     1     -12.200   3.215  -3.694  1.00  0.00     0.088 A 
HETATM   20  F2  UNL     1     -13.263   4.879  -2.458  1.00  0.00    -0.203 F 
HETATM   21  C7  UNL     1     -11.106   2.697  -4.371  1.00  0.00     0.136 A 
HETATM   22  C6  UNL     1      -9.944   3.423  -4.453  1.00  0.00     0.086 A 
HETATM   23  F1  UNL     1     -11.227   1.472  -4.957  1.00  0.00    -0.205 F 
HETATM   24  C20 UNL     1      -9.933   4.682  -3.824  1.00  0.00     0.138 A 
BRANCH  22  25
HETATM   25  C5  UNL     1      -8.762   3.006  -5.145  1.00  0.00     0.173 C 
HETATM   26  O1  UNL     1      -7.868   2.377  -4.448  1.00  0.00    -0.291 OA
BRANCH  25  27
HETATM   27  C2  UNL     1      -8.336   3.146  -6.547  1.00  0.00     0.015 C 
HETATM   28  C1  UNL     1      -7.861   1.833  -7.131  1.00  0.00     0.023 C 
HETATM   29  C3  UNL     1      -7.037   4.029  -6.596  1.00  0.00     0.023 C 
HETATM   30  C4  UNL     1      -9.280   3.908  -7.436  1.00  0.00     0.023 C 
ENDBRANCH  25  27
ENDBRANCH  22  25
BRANCH  24  31
HETATM   31  O8  UNL     1      -8.780   5.508  -3.828  1.00  0.00    -0.211 OA
BRANCH  31  32
HETATM   32  S3  UNL     1      -7.569   5.402  -2.647  1.00  0.00     0.257 S 
HETATM   33  O9  UNL     1      -7.788   4.376  -1.604  1.00  0.00    -0.572 OA
HETATM   34  O10 UNL     1      -6.253   5.125  -3.361  1.00  0.00    -0.572 OA
HETATM   35  O11 UNL     1      -7.312   6.847  -1.819  1.00  0.00    -0.572 OA
ENDBRANCH  31  32
ENDBRANCH  24  31
ENDBRANCH  14  17
ENDBRANCH   1  13
BRANCH   4  36
HETATM   36  C14 UNL     1      -8.537  11.664   1.012  1.00  0.00     0.083 A 
HETATM   37  N3  UNL     1      -9.042  12.862   1.339  1.00  0.00    -0.336 N 
HETATM   38  C15 UNL     1      -8.241  13.816   1.737  1.00  0.00     0.144 A 
ATOM     39  H3  UNL     1     -10.046  13.029   1.277  1.00  0.00     0.168 HD
HETATM   40  S1  UNL     1      -6.718  13.104   1.682  1.00  0.00    -0.028 SA
HETATM   41  C16 UNL     1      -7.198  11.502   1.113  1.00  0.00     0.171 A 
BRANCH  38  42
HETATM   42  N4  UNL     1      -8.578  15.044   2.093  1.00  0.00    -0.380 N 
ATOM     43  H42 UNL     1      -9.319  15.353   2.723  1.00  0.00     0.158 HD
ATOM     44  H41 UNL     1      -8.141  15.914   1.790  1.00  0.00     0.158 HD
ENDBRANCH  38  42
BRANCH  41  45
HETATM   45  N5  UNL     1      -6.268  10.455   0.904  1.00  0.00    -0.106 N 
HETATM   46  O4  UNL     1      -5.946   9.768   1.933  1.00  0.00    -0.531 OA
HETATM   47  O5  UNL     1      -5.681  10.087  -0.217  1.00  0.00    -0.531 OA
ENDBRANCH  41  45
ENDBRANCH   4  36
TORSDOF 9
ENDMDL
