MODEL 1
REMARK VINA RESULT: -6.891399652      0.000      0.000
REMARK  13 active torsions:
REMARK  status: ('A' for Active; 'I' for Inactive)
REMARK    1  A    between atoms: O1_2  and  C2_3 
REMARK    2  A    between atoms: C2_3  and  O2_4 
REMARK    3  A    between atoms: C2_3  and  C3_6 
REMARK    4  A    between atoms: C4_7  and  C5_8 
REMARK    5  A    between atoms: C8_17  and  S1_18 
REMARK    6  A    between atoms: S1_18  and  C9_19 
REMARK    7  A    between atoms: C9_19  and  C10_20 
REMARK    8  A    between atoms: C13_24  and  O5_25 
REMARK    9  A    between atoms: C14_27  and  C15_28 
REMARK   10  A    between atoms: N3_29  and  N4_31 
REMARK   11  A    between atoms: C16_36  and  S2_37 
REMARK   12  A    between atoms: C19_44  and  O9_45 
REMARK   13  A    between atoms: O9_45  and  C20_46 
ROOT
HETATM    1  C3  UNL     1     -10.623   6.363  -1.911  1.00  0.00     0.064 C 
HETATM    2  C4  UNL     1     -10.667   7.641  -1.649  1.00  0.00     0.121 C 
HETATM    3  N1  UNL     1     -11.780   8.639  -1.788  1.00  0.00    -0.374 N 
ATOM      4  H1  UNL     1     -11.765   9.387  -1.094  1.00  0.00     0.160 HD
HETATM    5  C6  UNL     1     -12.851   8.725  -2.715  1.00  0.00     0.143 C 
HETATM    6  C7  UNL     1     -13.233  10.162  -3.029  1.00  0.00     0.148 C 
HETATM    7  N2  UNL     1     -14.586  10.087  -3.421  1.00  0.00    -0.384 N 
ATOM      8  H2  UNL     1     -15.067  10.815  -3.948  1.00  0.00     0.160 HD
HETATM    9  C8  UNL     1     -15.140   9.002  -3.039  1.00  0.00     0.082 C 
HETATM   10  C16 UNL     1     -14.159   8.149  -2.285  1.00  0.00     0.200 C 
HETATM   11  S3  UNL     1     -14.336   6.443  -2.888  1.00  0.00    -0.127 SA
HETATM   12  C17 UNL     1     -13.199   5.346  -1.999  1.00  0.00     0.117 C 
HETATM   13  C18 UNL     1     -11.785   5.514  -2.424  1.00  0.00    -0.009 C 
HETATM   14  C19 UNL     1     -11.438   4.811  -3.493  1.00  0.00     0.154 C 
ENDROOT
BRANCH   9  15
HETATM   15  S1  UNL     1     -16.851   8.603  -3.380  1.00  0.00    -0.108 SA
BRANCH  15  16
HETATM   16  C9  UNL     1     -17.959   9.153  -2.094  1.00  0.00     0.137 C 
BRANCH  16  17
HETATM   17  C10 UNL     1     -19.057   8.205  -1.782  1.00  0.00     0.022 A 
HETATM   18  C11 UNL     1     -18.847   7.061  -1.046  1.00  0.00     0.071 A 
HETATM   19  C12 UNL     1     -19.865   6.182  -0.750  1.00  0.00     0.153 A 
HETATM   20  F1  UNL     1     -19.706   5.062  -0.041  1.00  0.00    -0.203 F 
HETATM   21  C13 UNL     1     -21.150   6.470  -1.219  1.00  0.00     0.133 A 
HETATM   22  C14 UNL     1     -21.338   7.611  -1.948  1.00  0.00     0.086 A 
HETATM   23  N5  UNL     1     -20.303   8.438  -2.208  1.00  0.00    -0.355 N 
ATOM     24  H5  UNL     1     -20.480   9.280  -2.755  1.00  0.00     0.166 HD
BRANCH  21  25
HETATM   25  O5  UNL     1     -22.197   5.616  -0.946  1.00  0.00    -0.356 OA
ATOM     26  H5  UNL     1     -22.908   5.895  -0.381  1.00  0.00     0.218 HD
ENDBRANCH  21  25
BRANCH  22  27
HETATM   27  C15 UNL     1     -22.666   7.936  -2.449  1.00  0.00     0.140 C 
HETATM   28  N3  UNL     1     -23.675   7.952  -1.662  1.00  0.00    -0.299 N 
ATOM     29  H3  UNL     1     -23.518   7.731  -0.679  1.00  0.00     0.187 HD
BRANCH  28  30
HETATM   30  N4  UNL     1     -24.968   8.251  -2.060  1.00  0.00    -0.242 N 
HETATM   31 CL1  UNL     1     -26.374   7.514  -1.404  1.00  0.00     0.028 Cl
ATOM     32  H4  UNL     1     -25.093   8.954  -2.789  1.00  0.00     0.202 HD
ENDBRANCH  28  30
ENDBRANCH  22  27
ENDBRANCH  16  17
ENDBRANCH  15  16
ENDBRANCH   9  15
BRANCH  10  33
HETATM   33  S2  UNL     1     -14.516   8.326  -0.578  1.00  0.00     0.130 S 
HETATM   34  O6  UNL     1     -14.965   9.756  -0.361  1.00  0.00    -0.594 OA
HETATM   35  O7  UNL     1     -15.652   7.380  -0.251  1.00  0.00    -0.594 OA
HETATM   36  O8  UNL     1     -13.225   8.052   0.426  1.00  0.00    -0.594 OA
ENDBRANCH  10  33
BRANCH   2  37
HETATM   37  C5  UNL     1      -9.504   8.267  -1.167  1.00  0.00     0.227 C 
HETATM   38  O3  UNL     1      -9.579   8.603   0.124  1.00  0.00    -0.643 OA
HETATM   39  O4  UNL     1      -8.323   8.625  -1.645  1.00  0.00    -0.643 OA
ENDBRANCH   2  37
BRANCH   1  40
HETATM   40  C2  UNL     1      -9.455   5.590  -1.737  1.00  0.00     0.191 C 
BRANCH  40  41
HETATM   41  O1  UNL     1      -8.309   5.371  -2.427  1.00  0.00    -0.335 OA
HETATM   42  C1  UNL     1      -7.031   5.219  -1.745  1.00  0.00     0.212 C 
ENDBRANCH  40  41
BRANCH  40  43
HETATM   43  O2  UNL     1      -9.389   4.857  -0.638  1.00  0.00    -0.340 OA
ATOM     44  H2  UNL     1     -10.051   5.189  -0.043  1.00  0.00     0.220 HD
ENDBRANCH  40  43
ENDBRANCH   1  40
BRANCH  14  45
HETATM   45  O9  UNL     1     -12.325   3.976  -4.119  1.00  0.00    -0.291 OA
BRANCH  45  46
HETATM   46  C20 UNL     1     -12.616   4.021  -5.439  1.00  0.00     0.259 C 
HETATM   47  C21 UNL     1     -12.445   2.763  -6.260  1.00  0.00     0.126 C 
HETATM   48  O10 UNL     1     -13.015   5.036  -6.012  1.00  0.00    -0.265 OA
ENDBRANCH  45  46
ENDBRANCH  14  45
TORSDOF 13
ENDMDL
MODEL 2
REMARK VINA RESULT: -6.683906834      5.270      9.833
REMARK  13 active torsions:
REMARK  status: ('A' for Active; 'I' for Inactive)
REMARK    1  A    between atoms: O1_2  and  C2_3 
REMARK    2  A    between atoms: C2_3  and  O2_4 
REMARK    3  A    between atoms: C2_3  and  C3_6 
REMARK    4  A    between atoms: C4_7  and  C5_8 
REMARK    5  A    between atoms: C8_17  and  S1_18 
REMARK    6  A    between atoms: S1_18  and  C9_19 
REMARK    7  A    between atoms: C9_19  and  C10_20 
REMARK    8  A    between atoms: C13_24  and  O5_25 
REMARK    9  A    between atoms: C14_27  and  C15_28 
REMARK   10  A    between atoms: N3_29  and  N4_31 
REMARK   11  A    between atoms: C16_36  and  S2_37 
REMARK   12  A    between atoms: C19_44  and  O9_45 
REMARK   13  A    between atoms: O9_45  and  C20_46 
ROOT
HETATM    1  C3  UNL     1     -15.285   7.518  -3.051  1.00  0.00     0.064 C 
HETATM    2  C4  UNL     1     -14.966   7.501  -4.317  1.00  0.00     0.121 C 
HETATM    3  N1  UNL     1     -13.728   7.018  -5.016  1.00  0.00    -0.374 N 
ATOM      4  H1  UNL     1     -13.892   6.643  -5.951  1.00  0.00     0.160 HD
HETATM    5  C6  UNL     1     -12.370   6.991  -4.605  1.00  0.00     0.143 C 
HETATM    6  C7  UNL     1     -11.410   7.193  -5.766  1.00  0.00     0.148 C 
HETATM    7  N2  UNL     1     -10.218   6.562  -5.348  1.00  0.00    -0.384 N 
ATOM      8  H2  UNL     1      -9.304   6.740  -5.762  1.00  0.00     0.160 HD
HETATM    9  C8  UNL     1     -10.418   5.742  -4.390  1.00  0.00     0.082 C 
HETATM   10  C16 UNL     1     -11.873   5.713  -4.017  1.00  0.00     0.200 C 
HETATM   11  S3  UNL     1     -11.977   5.761  -2.203  1.00  0.00    -0.127 SA
HETATM   12  C17 UNL     1     -13.711   5.699  -1.675  1.00  0.00     0.117 C 
HETATM   13  C18 UNL     1     -14.429   6.979  -1.905  1.00  0.00    -0.009 C 
HETATM   14  C19 UNL     1     -14.292   7.876  -0.939  1.00  0.00     0.154 C 
ENDROOT
BRANCH   9  15
HETATM   15  S1  UNL     1      -9.108   4.783  -3.634  1.00  0.00    -0.108 SA
BRANCH  15  16
HETATM   16  C9  UNL     1      -7.873   4.253  -4.807  1.00  0.00     0.137 C 
BRANCH  16  17
HETATM   17  C10 UNL     1      -8.180   2.971  -5.487  1.00  0.00     0.022 A 
HETATM   18  C11 UNL     1      -7.211   2.025  -5.736  1.00  0.00     0.071 A 
HETATM   19  C12 UNL     1      -7.495   0.832  -6.362  1.00  0.00     0.153 A 
HETATM   20  F1  UNL     1      -6.587  -0.112  -6.623  1.00  0.00    -0.203 F 
HETATM   21  C13 UNL     1      -8.812   0.585  -6.756  1.00  0.00     0.133 A 
HETATM   22  C14 UNL     1      -9.760   1.536  -6.501  1.00  0.00     0.086 A 
HETATM   23  N5  UNL     1      -9.426   2.689  -5.882  1.00  0.00    -0.355 N 
ATOM     24  H5  UNL     1     -10.159   3.376  -5.708  1.00  0.00     0.166 HD
BRANCH  21  25
HETATM   25  O5  UNL     1      -9.138  -0.597  -7.387  1.00  0.00    -0.356 OA
ATOM     26  H5  UNL     1      -9.761  -1.195  -6.991  1.00  0.00     0.218 HD
ENDBRANCH  21  25
BRANCH  22  27
HETATM   27  C15 UNL     1     -11.141   1.305  -6.900  1.00  0.00     0.140 C 
HETATM   28  N3  UNL     1     -11.694   2.033  -7.795  1.00  0.00    -0.299 N 
ATOM     29  H3  UNL     1     -11.137   2.776  -8.216  1.00  0.00     0.187 HD
BRANCH  28  30
HETATM   30  N4  UNL     1     -13.001   1.877  -8.229  1.00  0.00    -0.242 N 
HETATM   31 CL1  UNL     1     -13.894   3.088  -9.056  1.00  0.00     0.028 Cl
ATOM     32  H4  UNL     1     -13.461   0.986  -8.045  1.00  0.00     0.202 HD
ENDBRANCH  28  30
ENDBRANCH  22  27
ENDBRANCH  16  17
ENDBRANCH  15  16
ENDBRANCH   9  15
BRANCH  10  33
HETATM   33  S2  UNL     1     -12.563   4.261  -4.717  1.00  0.00     0.130 S 
HETATM   34  O6  UNL     1     -12.215   4.266  -6.190  1.00  0.00    -0.594 OA
HETATM   35  O7  UNL     1     -11.907   3.075  -4.042  1.00  0.00    -0.594 OA
HETATM   36  O8  UNL     1     -14.214   4.158  -4.595  1.00  0.00    -0.594 OA
ENDBRANCH  10  33
BRANCH   2  37
HETATM   37  C5  UNL     1     -15.881   8.028  -5.245  1.00  0.00     0.227 C 
HETATM   38  O3  UNL     1     -15.705   9.332  -5.482  1.00  0.00    -0.643 OA
HETATM   39  O4  UNL     1     -16.894   7.585  -5.970  1.00  0.00    -0.643 OA
ENDBRANCH   2  37
BRANCH   1  40
HETATM   40  C2  UNL     1     -16.505   8.048  -2.579  1.00  0.00     0.191 C 
BRANCH  40  41
HETATM   41  O1  UNL     1     -17.692   7.553  -2.152  1.00  0.00    -0.335 OA
HETATM   42  C1  UNL     1     -18.003   7.451  -0.732  1.00  0.00     0.212 C 
ENDBRANCH  40  41
BRANCH  40  43
HETATM   43  O2  UNL     1     -16.590   9.366  -2.510  1.00  0.00    -0.340 OA
ATOM     44  H2  UNL     1     -16.488   9.697  -3.395  1.00  0.00     0.220 HD
ENDBRANCH  40  43
ENDBRANCH   1  40
BRANCH  14  45
HETATM   45  O9  UNL     1     -13.564   7.606   0.190  1.00  0.00    -0.291 OA
BRANCH  45  46
HETATM   46  C20 UNL     1     -13.475   8.431   1.258  1.00  0.00     0.259 C 
HETATM   47  C21 UNL     1     -12.114   8.961   1.649  1.00  0.00     0.126 C 
HETATM   48  O10 UNL     1     -14.446   8.775   1.933  1.00  0.00    -0.265 OA
ENDBRANCH  45  46
ENDBRANCH  14  45
TORSDOF 13
ENDMDL
MODEL 3
REMARK VINA RESULT: -6.662002867      4.677      9.378
REMARK  13 active torsions:
REMARK  status: ('A' for Active; 'I' for Inactive)
REMARK    1  A    between atoms: O1_2  and  C2_3 
REMARK    2  A    between atoms: C2_3  and  O2_4 
REMARK    3  A    between atoms: C2_3  and  C3_6 
REMARK    4  A    between atoms: C4_7  and  C5_8 
REMARK    5  A    between atoms: C8_17  and  S1_18 
REMARK    6  A    between atoms: S1_18  and  C9_19 
REMARK    7  A    between atoms: C9_19  and  C10_20 
REMARK    8  A    between atoms: C13_24  and  O5_25 
REMARK    9  A    between atoms: C14_27  and  C15_28 
REMARK   10  A    between atoms: N3_29  and  N4_31 
REMARK   11  A    between atoms: C16_36  and  S2_37 
REMARK   12  A    between atoms: C19_44  and  O9_45 
REMARK   13  A    between atoms: O9_45  and  C20_46 
ROOT
HETATM    1  C3  UNL     1     -17.194   8.526  -2.508  1.00  0.00     0.064 C 
HETATM    2  C4  UNL     1     -16.753   7.698  -1.599  1.00  0.00     0.121 C 
HETATM    3  N1  UNL     1     -15.383   7.132  -1.362  1.00  0.00    -0.374 N 
ATOM      4  H1  UNL     1     -15.167   6.950  -0.382  1.00  0.00     0.160 HD
HETATM    5  C6  UNL     1     -14.336   6.806  -2.262  1.00  0.00     0.143 C 
HETATM    6  C7  UNL     1     -13.522   5.610  -1.796  1.00  0.00     0.148 C 
HETATM    7  N2  UNL     1     -12.258   5.790  -2.398  1.00  0.00    -0.384 N 
ATOM      8  H2  UNL     1     -11.572   5.046  -2.514  1.00  0.00     0.160 HD
HETATM    9  C8  UNL     1     -12.074   6.994  -2.781  1.00  0.00     0.082 C 
HETATM   10  C16 UNL     1     -13.276   7.838  -2.460  1.00  0.00     0.200 C 
HETATM   11  S3  UNL     1     -13.639   8.856  -3.921  1.00  0.00    -0.127 SA
HETATM   12  C17 UNL     1     -15.066   9.927  -3.596  1.00  0.00     0.117 C 
HETATM   13  C18 UNL     1     -16.354   9.187  -3.599  1.00  0.00    -0.009 C 
HETATM   14  C19 UNL     1     -16.900   9.024  -4.797  1.00  0.00     0.154 C 
ENDROOT
BRANCH   9  15
HETATM   15  S1  UNL     1     -10.572   7.547  -3.582  1.00  0.00    -0.108 SA
BRANCH  15  16
HETATM   16  C9  UNL     1      -9.097   6.991  -2.748  1.00  0.00     0.137 C 
BRANCH  16  17
HETATM   17  C10 UNL     1      -8.539   7.960  -1.772  1.00  0.00     0.022 A 
HETATM   18  C11 UNL     1      -7.259   8.454  -1.883  1.00  0.00     0.071 A 
HETATM   19  C12 UNL     1      -6.742   9.357  -0.982  1.00  0.00     0.153 A 
HETATM   20  F1  UNL     1      -5.507   9.862  -1.051  1.00  0.00    -0.203 F 
HETATM   21  C13 UNL     1      -7.550   9.778   0.078  1.00  0.00     0.133 A 
HETATM   22  C14 UNL     1      -8.818   9.275   0.171  1.00  0.00     0.086 A 
HETATM   23  N5  UNL     1      -9.275   8.392  -0.742  1.00  0.00    -0.355 N 
ATOM     24  H5  UNL     1     -10.226   8.038  -0.641  1.00  0.00     0.166 HD
BRANCH  21  25
HETATM   25  O5  UNL     1      -7.069  10.680   1.002  1.00  0.00    -0.356 OA
ATOM     26  H5  UNL     1      -6.734  11.523   0.720  1.00  0.00     0.218 HD
ENDBRANCH  21  25
BRANCH  22  27
HETATM   27  C15 UNL     1      -9.682   9.697   1.265  1.00  0.00     0.140 C 
HETATM   28  N3  UNL     1     -10.355   8.838   1.934  1.00  0.00    -0.299 N 
ATOM     29  H3  UNL     1     -10.265   7.856   1.677  1.00  0.00     0.187 HD
BRANCH  28  30
HETATM   30  N4  UNL     1     -11.198   9.158   2.986  1.00  0.00    -0.242 N 
HETATM   31 CL1  UNL     1     -12.884   8.830   3.006  1.00  0.00     0.028 Cl
ATOM     32  H4  UNL     1     -10.791   9.618   3.801  1.00  0.00     0.202 HD
ENDBRANCH  28  30
ENDBRANCH  22  27
ENDBRANCH  16  17
ENDBRANCH  15  16
ENDBRANCH   9  15
BRANCH  10  33
HETATM   33  S2  UNL     1     -12.888   8.778  -1.032  1.00  0.00     0.130 S 
HETATM   34  O6  UNL     1     -12.179   7.853  -0.066  1.00  0.00    -0.594 OA
HETATM   35  O7  UNL     1     -11.947   9.886  -1.460  1.00  0.00    -0.594 OA
HETATM   36  O8  UNL     1     -14.205   9.407  -0.245  1.00  0.00    -0.594 OA
ENDBRANCH  10  33
BRANCH   2  37
HETATM   37  C5  UNL     1     -17.664   7.192  -0.656  1.00  0.00     0.227 C 
HETATM   38  O3  UNL     1     -17.574   7.785   0.539  1.00  0.00    -0.643 OA
HETATM   39  O4  UNL     1     -18.612   6.270  -0.616  1.00  0.00    -0.643 OA
ENDBRANCH   2  37
BRANCH   1  40
HETATM   40  C2  UNL     1     -18.546   8.924  -2.584  1.00  0.00     0.191 C 
BRANCH  40  41
HETATM   41  O1  UNL     1     -19.711   8.373  -3.003  1.00  0.00    -0.335 OA
HETATM   42  C1  UNL     1     -20.908   8.410  -2.174  1.00  0.00     0.212 C 
ENDBRANCH  40  41
BRANCH  40  43
HETATM   43  O2  UNL     1     -18.829  10.142  -2.152  1.00  0.00    -0.340 OA
ATOM     44  H2  UNL     1     -18.444  10.751  -2.772  1.00  0.00     0.220 HD
ENDBRANCH  40  43
ENDBRANCH   1  40
BRANCH  14  45
HETATM   45  O9  UNL     1     -16.316   9.538  -5.925  1.00  0.00    -0.291 OA
BRANCH  45  46
HETATM   46  C20 UNL     1     -15.952   8.803  -7.000  1.00  0.00     0.259 C 
HETATM   47  C21 UNL     1     -14.765   9.259  -7.818  1.00  0.00     0.126 C 
HETATM   48  O10 UNL     1     -16.537   7.777  -7.351  1.00  0.00    -0.265 OA
ENDBRANCH  45  46
ENDBRANCH  14  45
TORSDOF 13
ENDMDL
MODEL 4
REMARK VINA RESULT: -6.518539671      4.847     10.345
REMARK  13 active torsions:
REMARK  status: ('A' for Active; 'I' for Inactive)
REMARK    1  A    between atoms: O1_2  and  C2_3 
REMARK    2  A    between atoms: C2_3  and  O2_4 
REMARK    3  A    between atoms: C2_3  and  C3_6 
REMARK    4  A    between atoms: C4_7  and  C5_8 
REMARK    5  A    between atoms: C8_17  and  S1_18 
REMARK    6  A    between atoms: S1_18  and  C9_19 
REMARK    7  A    between atoms: C9_19  and  C10_20 
REMARK    8  A    between atoms: C13_24  and  O5_25 
REMARK    9  A    between atoms: C14_27  and  C15_28 
REMARK   10  A    between atoms: N3_29  and  N4_31 
REMARK   11  A    between atoms: C16_36  and  S2_37 
REMARK   12  A    between atoms: C19_44  and  O9_45 
REMARK   13  A    between atoms: O9_45  and  C20_46 
ROOT
HETATM    1  C3  UNL     1     -20.040  10.734  -0.319  1.00  0.00     0.064 C 
HETATM    2  C4  UNL     1     -19.025  11.199   0.358  1.00  0.00     0.121 C 
HETATM    3  N1  UNL     1     -17.598  10.738   0.439  1.00  0.00    -0.374 N 
ATOM      4  H1  UNL     1     -16.922  11.487   0.589  1.00  0.00     0.160 HD
HETATM    5  C6  UNL     1     -17.026   9.443   0.343  1.00  0.00     0.143 C 
HETATM    6  C7  UNL     1     -15.792   9.289   1.216  1.00  0.00     0.148 C 
HETATM    7  N2  UNL     1     -15.043   8.272   0.587  1.00  0.00    -0.384 N 
ATOM      8  H2  UNL     1     -14.305   7.741   1.049  1.00  0.00     0.160 HD
HETATM    9  C8  UNL     1     -15.396   8.093  -0.626  1.00  0.00     0.082 C 
HETATM   10  C16 UNL     1     -16.505   9.038  -0.995  1.00  0.00     0.200 C 
HETATM   11  S3  UNL     1     -17.757   8.086  -1.907  1.00  0.00    -0.127 SA
HETATM   12  C17 UNL     1     -19.120   9.171  -2.413  1.00  0.00     0.117 C 
HETATM   13  C18 UNL     1     -20.005   9.548  -1.282  1.00  0.00    -0.009 C 
HETATM   14  C19 UNL     1     -20.963   8.673  -1.008  1.00  0.00     0.154 C 
ENDROOT
BRANCH   9  15
HETATM   15  S1  UNL     1     -14.639   6.874  -1.697  1.00  0.00    -0.108 SA
BRANCH  15  16
HETATM   16  C9  UNL     1     -12.873   6.756  -1.472  1.00  0.00     0.137 C 
BRANCH  16  17
HETATM   17  C10 UNL     1     -12.234   5.635  -2.204  1.00  0.00     0.022 A 
HETATM   18  C11 UNL     1     -12.893   4.934  -3.188  1.00  0.00     0.071 A 
HETATM   19  C12 UNL     1     -12.299   3.897  -3.872  1.00  0.00     0.153 A 
HETATM   20  F1  UNL     1     -12.901   3.191  -4.833  1.00  0.00    -0.203 F 
HETATM   21  C13 UNL     1     -10.986   3.550  -3.546  1.00  0.00     0.133 A 
HETATM   22  C14 UNL     1     -10.348   4.257  -2.565  1.00  0.00     0.086 A 
HETATM   23  N5  UNL     1     -10.978   5.267  -1.927  1.00  0.00    -0.355 N 
ATOM     24  H5  UNL     1     -10.472   5.773  -1.200  1.00  0.00     0.166 HD
BRANCH  21  25
HETATM   25  O5  UNL     1     -10.355   2.517  -4.206  1.00  0.00    -0.356 OA
ATOM     26  H5  UNL     1      -9.412   2.420  -4.153  1.00  0.00     0.218 HD
ENDBRANCH  21  25
BRANCH  22  27
HETATM   27  C15 UNL     1      -8.978   3.918  -2.205  1.00  0.00     0.140 C 
HETATM   28  N3  UNL     1      -8.562   4.067  -1.005  1.00  0.00    -0.299 N 
ATOM     29  H3  UNL     1      -9.219   4.427  -0.313  1.00  0.00     0.187 HD
BRANCH  28  30
HETATM   30  N4  UNL     1      -7.277   3.768  -0.583  1.00  0.00    -0.242 N 
HETATM   31 CL1  UNL     1      -5.965   3.440  -1.642  1.00  0.00     0.028 Cl
ATOM     32  H4  UNL     1      -7.098   3.741   0.421  1.00  0.00     0.202 HD
ENDBRANCH  28  30
ENDBRANCH  22  27
ENDBRANCH  16  17
ENDBRANCH  15  16
ENDBRANCH   9  15
BRANCH  10  33
HETATM   33  S2  UNL     1     -15.795  10.336  -1.935  1.00  0.00     0.130 S 
HETATM   34  O6  UNL     1     -14.359  10.485  -1.479  1.00  0.00    -0.594 OA
HETATM   35  O7  UNL     1     -15.828   9.915  -3.389  1.00  0.00    -0.594 OA
HETATM   36  O8  UNL     1     -16.534  11.808  -1.739  1.00  0.00    -0.594 OA
ENDBRANCH  10  33
BRANCH   2  37
HETATM   37  C5  UNL     1     -19.230  12.313   1.191  1.00  0.00     0.227 C 
HETATM   38  O3  UNL     1     -18.900  13.473   0.616  1.00  0.00    -0.643 OA
HETATM   39  O4  UNL     1     -19.670  12.542   2.418  1.00  0.00    -0.643 OA
ENDBRANCH   2  37
BRANCH   1  40
HETATM   40  C2  UNL     1     -21.331  11.298  -0.240  1.00  0.00     0.191 C 
BRANCH  40  41
HETATM   41  O1  UNL     1     -22.363  11.273   0.639  1.00  0.00    -0.335 OA
HETATM   42  C1  UNL     1     -22.993  12.502   1.103  1.00  0.00     0.212 C 
ENDBRANCH  40  41
BRANCH  40  43
HETATM   43  O2  UNL     1     -21.706  12.063  -1.253  1.00  0.00    -0.340 OA
ATOM     44  H2  UNL     1     -21.569  11.558  -2.046  1.00  0.00     0.220 HD
ENDBRANCH  40  43
ENDBRANCH   1  40
BRANCH  14  45
HETATM   45  O9  UNL     1     -21.121   7.531  -1.748  1.00  0.00    -0.291 OA
BRANCH  45  46
HETATM   46  C20 UNL     1     -21.340   6.304  -1.223  1.00  0.00     0.259 C 
HETATM   47  C21 UNL     1     -20.286   5.706  -0.319  1.00  0.00     0.126 C 
HETATM   48  O10 UNL     1     -22.357   5.644  -1.443  1.00  0.00    -0.265 OA
ENDBRANCH  45  46
ENDBRANCH  14  45
TORSDOF 13
ENDMDL
MODEL 5
REMARK VINA RESULT: -6.433517448      5.004      8.974
REMARK  13 active torsions:
REMARK  status: ('A' for Active; 'I' for Inactive)
REMARK    1  A    between atoms: O1_2  and  C2_3 
REMARK    2  A    between atoms: C2_3  and  O2_4 
REMARK    3  A    between atoms: C2_3  and  C3_6 
REMARK    4  A    between atoms: C4_7  and  C5_8 
REMARK    5  A    between atoms: C8_17  and  S1_18 
REMARK    6  A    between atoms: S1_18  and  C9_19 
REMARK    7  A    between atoms: C9_19  and  C10_20 
REMARK    8  A    between atoms: C13_24  and  O5_25 
REMARK    9  A    between atoms: C14_27  and  C15_28 
REMARK   10  A    between atoms: N3_29  and  N4_31 
REMARK   11  A    between atoms: C16_36  and  S2_37 
REMARK   12  A    between atoms: C19_44  and  O9_45 
REMARK   13  A    between atoms: O9_45  and  C20_46 
ROOT
HETATM    1  C3  UNL     1     -14.328   8.079  -0.846  1.00  0.00     0.064 C 
HETATM    2  C4  UNL     1     -14.731   7.886  -2.073  1.00  0.00     0.121 C 
HETATM    3  N1  UNL     1     -14.004   7.370  -3.281  1.00  0.00    -0.374 N 
ATOM      4  H1  UNL     1     -14.589   6.848  -3.934  1.00  0.00     0.160 HD
HETATM    5  C6  UNL     1     -12.645   7.481  -3.675  1.00  0.00     0.143 C 
HETATM    6  C7  UNL     1     -12.482   7.556  -5.184  1.00  0.00     0.148 C 
HETATM    7  N2  UNL     1     -11.181   7.063  -5.420  1.00  0.00    -0.384 N 
ATOM      8  H2  UNL     1     -10.659   7.226  -6.281  1.00  0.00     0.160 HD
HETATM    9  C8  UNL     1     -10.733   6.390  -4.433  1.00  0.00     0.082 C 
HETATM   10  C16 UNL     1     -11.751   6.338  -3.328  1.00  0.00     0.200 C 
HETATM   11  S3  UNL     1     -10.881   6.657  -1.764  1.00  0.00    -0.127 SA
HETATM   12  C17 UNL     1     -12.045   6.582  -0.375  1.00  0.00     0.117 C 
HETATM   13  C18 UNL     1     -12.934   7.769  -0.304  1.00  0.00    -0.009 C 
HETATM   14  C19 UNL     1     -12.422   8.811   0.338  1.00  0.00     0.154 C 
ENDROOT
BRANCH   9  15
HETATM   15  S1  UNL     1      -9.112   5.632  -4.420  1.00  0.00    -0.108 SA
BRANCH  15  16
HETATM   16  C9  UNL     1      -8.730   4.787  -5.944  1.00  0.00     0.137 C 
BRANCH  16  17
HETATM   17  C10 UNL     1      -9.857   4.007  -6.513  1.00  0.00     0.022 A 
HETATM   18  C11 UNL     1     -10.183   2.752  -6.052  1.00  0.00     0.071 A 
HETATM   19  C12 UNL     1     -11.231   2.028  -6.576  1.00  0.00     0.153 A 
HETATM   20  F1  UNL     1     -11.582   0.809  -6.159  1.00  0.00    -0.203 F 
HETATM   21  C13 UNL     1     -11.980   2.595  -7.610  1.00  0.00     0.133 A 
HETATM   22  C14 UNL     1     -11.640   3.842  -8.055  1.00  0.00     0.086 A 
HETATM   23  N5  UNL     1     -10.602   4.508  -7.504  1.00  0.00    -0.355 N 
ATOM     24  H5  UNL     1     -10.377   5.436  -7.861  1.00  0.00     0.166 HD
BRANCH  21  25
HETATM   25  O5  UNL     1     -13.037   1.903  -8.163  1.00  0.00    -0.356 OA
ATOM     26  H5  UNL     1     -13.362   2.135  -9.025  1.00  0.00     0.218 HD
ENDBRANCH  21  25
BRANCH  22  27
HETATM   27  C15 UNL     1     -12.404   4.458  -9.131  1.00  0.00     0.140 C 
HETATM   28  N3  UNL     1     -12.586   3.842 -10.238  1.00  0.00    -0.299 N 
ATOM     29  H3  UNL     1     -12.182   2.912 -10.339  1.00  0.00     0.187 HD
BRANCH  28  30
HETATM   30  N4  UNL     1     -13.299   4.358 -11.308  1.00  0.00    -0.242 N 
HETATM   31 CL1  UNL     1     -13.825   5.989 -11.421  1.00  0.00     0.028 Cl
ATOM     32  H4  UNL     1     -13.527   3.728 -12.078  1.00  0.00     0.202 HD
ENDBRANCH  28  30
ENDBRANCH  22  27
ENDBRANCH  16  17
ENDBRANCH  15  16
ENDBRANCH   9  15
BRANCH  10  33
HETATM   33  S2  UNL     1     -12.513   4.761  -3.393  1.00  0.00     0.130 S 
HETATM   34  O6  UNL     1     -12.992   4.553  -4.813  1.00  0.00    -0.594 OA
HETATM   35  O7  UNL     1     -11.454   3.731  -3.056  1.00  0.00    -0.594 OA
HETATM   36  O8  UNL     1     -13.826   4.591  -2.394  1.00  0.00    -0.594 OA
ENDBRANCH  10  33
BRANCH   2  37
HETATM   37  C5  UNL     1     -16.059   8.213  -2.402  1.00  0.00     0.227 C 
HETATM   38  O3  UNL     1     -16.185   9.423  -2.955  1.00  0.00    -0.643 OA
HETATM   39  O4  UNL     1     -17.250   7.645  -2.316  1.00  0.00    -0.643 OA
ENDBRANCH   2  37
BRANCH   1  40
HETATM   40  C2  UNL     1     -15.169   8.607   0.157  1.00  0.00     0.191 C 
BRANCH  40  41
HETATM   41  O1  UNL     1     -15.795   9.785   0.395  1.00  0.00    -0.335 OA
HETATM   42  C1  UNL     1     -17.214   9.835   0.722  1.00  0.00     0.212 C 
ENDBRANCH  40  41
BRANCH  40  43
HETATM   43  O2  UNL     1     -15.466   7.802   1.164  1.00  0.00    -0.340 OA
ATOM     44  H2  UNL     1     -16.371   7.972   1.397  1.00  0.00     0.220 HD
ENDBRANCH  40  43
ENDBRANCH   1  40
BRANCH  14  45
HETATM   45  O9  UNL     1     -11.178   8.757   0.910  1.00  0.00    -0.291 OA
BRANCH  45  46
HETATM   46  C20 UNL     1     -10.790   9.506   1.968  1.00  0.00     0.259 C 
HETATM   47  C21 UNL     1     -11.154   9.036   3.358  1.00  0.00     0.126 C 
HETATM   48  O10 UNL     1     -10.153  10.554   1.860  1.00  0.00    -0.265 OA
ENDBRANCH  45  46
ENDBRANCH  14  45
TORSDOF 13
ENDMDL
