MODEL 1
REMARK VINA RESULT: -7.645596147      0.000      0.000
REMARK  12 active torsions:
REMARK  status: ('A' for Active; 'I' for Inactive)
REMARK    1  A    between atoms: C3_3  and  C4_4 
REMARK    2  A    between atoms: N1_5  and  N2_7 
REMARK    3  A    between atoms: C6_12  and  N4_13 
REMARK    4  A    between atoms: N5_16  and  N6_17 
REMARK    5  A    between atoms: N8_24  and  C8_25 
REMARK    6  A    between atoms: C13_33  and  C14_34 
REMARK    7  A    between atoms: C14_34  and  S1_35 
REMARK    8  A    between atoms: S1_35  and  C15_36 
REMARK       I    between atoms: N10_41  and  C18_42 
REMARK    9  A    between atoms: C18_42  and  C19_44 
REMARK   10  A    between atoms: C19_44  and  O4_45 
REMARK   11  A    between atoms: C19_44  and  C20_47 
REMARK   12  A    between atoms: C20_47  and  O5_50 
ROOT
HETATM    1  C1  UNL     1     -14.564   6.349  -4.183  1.00  0.00     0.051 C 
HETATM    2  C2  UNL     1     -14.418   7.046  -2.884  1.00  0.00    -0.022 A 
HETATM    3  C3  UNL     1     -13.284   6.712  -2.090  1.00  0.00     0.062 A 
HETATM    4  N8  UNL     1     -13.071   7.294  -0.919  1.00  0.00    -0.298 N 
HETATM    5  C9  UNL     1     -13.972   8.234  -0.476  1.00  0.00     0.260 A 
HETATM    6  O2  UNL     1     -13.776   8.793   0.639  1.00  0.00    -0.267 OA
HETATM    7  C10 UNL     1     -15.071   8.566  -1.231  1.00  0.00     0.045 A 
HETATM    8  C11 UNL     1     -15.981   9.518  -0.782  1.00  0.00     0.042 A 
HETATM    9  C12 UNL     1     -17.095   9.889  -1.496  1.00  0.00     0.042 A 
HETATM   10 CL2  UNL     1     -18.200  11.106  -0.853  1.00  0.00    -0.084 Cl
HETATM   11  C13 UNL     1     -17.344   9.297  -2.727  1.00  0.00    -0.026 A 
HETATM   12  C23 UNL     1     -16.456   8.354  -3.184  1.00  0.00     0.022 A 
HETATM   13  C24 UNL     1     -15.320   7.980  -2.453  1.00  0.00    -0.012 A 
ENDROOT
BRANCH   3  14
HETATM   14  C4  UNL     1     -12.400   5.700  -2.610  1.00  0.00     0.138 C 
HETATM   15  N1  UNL     1     -12.603   4.448  -2.536  1.00  0.00    -0.295 N 
ATOM     16  H1  UNL     1     -13.452   4.122  -2.075  1.00  0.00     0.186 HD
BRANCH  15  17
HETATM   17  N2  UNL     1     -11.726   3.497  -3.052  1.00  0.00    -0.132 N 
HETATM   18  C5  UNL     1     -11.752   3.075  -4.262  1.00  0.00     0.715 A 
HETATM   19  N3  UNL     1     -10.839   2.135  -4.670  1.00  0.00    -0.019 N 
HETATM   20  N7  UNL     1     -12.621   3.468  -5.207  1.00  0.00    -0.137 N 
HETATM   21  C6  UNL     1     -10.800   1.635  -5.907  1.00  0.00     0.715 A 
ATOM     22  H3  UNL     1     -10.154   1.802  -3.992  1.00  0.00     0.203 HD
HETATM   23  N5  UNL     1     -11.699   2.073  -6.802  1.00  0.00    -0.037 N 
HETATM   24  C7  UNL     1     -12.620   2.993  -6.464  1.00  0.00     0.374 A 
HETATM   25  O1  UNL     1     -13.457   3.388  -7.332  1.00  0.00    -0.244 OA
ATOM     26  H7  UNL     1     -13.322   4.166  -4.956  1.00  0.00     0.189 HD
ATOM     27  H2  UNL     1     -11.018   3.111  -2.427  1.00  0.00     0.205 HD
BRANCH  21  28
HETATM   28  N4  UNL     1      -9.938   0.754  -6.275  1.00  0.00    -0.232 N 
ATOM     29  H42 UNL     1     -10.213  -0.229  -6.283  1.00  0.00     0.174 HD
ATOM     30  H41 UNL     1      -8.989   0.996  -6.560  1.00  0.00     0.174 HD
ENDBRANCH  21  28
BRANCH  23  31
HETATM   31  N6  UNL     1     -11.668   1.560  -8.095  1.00  0.00    -0.320 N 
ATOM     32  H62 UNL     1     -10.947   0.891  -8.362  1.00  0.00     0.178 HD
ATOM     33  H61 UNL     1     -12.374   1.865  -8.765  1.00  0.00     0.178 HD
ENDBRANCH  23  31
ENDBRANCH  15  17
ENDBRANCH   3  14
BRANCH   4  34
HETATM   34  C8  UNL     1     -11.939   7.008  -0.063  1.00  0.00     0.247 C 
HETATM   35 CL1  UNL     1     -10.587   8.083  -0.469  1.00  0.00    -0.108 Cl
ENDBRANCH   4  34
BRANCH  11  36
HETATM   36  C14 UNL     1     -18.544   9.686  -3.449  1.00  0.00     0.122 C 
BRANCH  36  37
HETATM   37  S1  UNL     1     -20.109   9.465  -2.618  1.00  0.00    -0.089 SA
BRANCH  37  38
HETATM   38  C15 UNL     1     -20.287   7.902  -1.787  1.00  0.00     0.149 A 
HETATM   39  N9  UNL     1     -19.377   7.179  -1.120  1.00  0.00    -0.340 N 
HETATM   40  C16 UNL     1     -19.912   6.053  -0.639  1.00  0.00     0.275 A 
ATOM     41  H9  UNL     1     -18.402   7.452  -0.996  1.00  0.00     0.164 HD
HETATM   42  C17 UNL     1     -21.269   6.058  -1.027  1.00  0.00     0.284 A 
HETATM   43  O6  UNL     1     -20.753   4.983  -0.276  1.00  0.00    -0.333 OA
HETATM   44  N10 UNL     1     -21.469   7.199  -1.726  1.00  0.00    -0.264 N 
HETATM   45  C18 UNL     1     -22.691   7.646  -2.298  1.00  0.00     0.260 C 
HETATM   46  O3  UNL     1     -22.740   8.774  -2.881  1.00  0.00    -0.270 OA
BRANCH  45  47
HETATM   47  C19 UNL     1     -23.942   6.879  -2.263  1.00  0.00     0.244 C 
BRANCH  47  48
HETATM   48  O4  UNL     1     -24.906   7.572  -1.457  1.00  0.00    -0.383 OA
ATOM     49  H4  UNL     1     -25.680   7.031  -1.353  1.00  0.00     0.210 HD
ENDBRANCH  47  48
BRANCH  47  50
HETATM   50  C20 UNL     1     -24.610   6.852  -3.650  1.00  0.00     0.085 C 
HETATM   51  C21 UNL     1     -25.610   8.016  -3.687  1.00  0.00     0.049 C 
HETATM   52  C22 UNL     1     -25.363   5.559  -3.842  1.00  0.00     0.049 C 
BRANCH  50  53
HETATM   53  O5  UNL     1     -23.667   7.015  -4.631  1.00  0.00    -0.388 OA
ATOM     54  H5  UNL     1     -23.752   7.875  -5.025  1.00  0.00     0.210 HD
ENDBRANCH  50  53
ENDBRANCH  47  50
ENDBRANCH  45  47
ENDBRANCH  37  38
ENDBRANCH  36  37
ENDBRANCH  11  36
TORSDOF 12
ENDMDL
MODEL 2
REMARK VINA RESULT: -7.594942125      2.280      3.055
REMARK  12 active torsions:
REMARK  status: ('A' for Active; 'I' for Inactive)
REMARK    1  A    between atoms: C3_3  and  C4_4 
REMARK    2  A    between atoms: N1_5  and  N2_7 
REMARK    3  A    between atoms: C6_12  and  N4_13 
REMARK    4  A    between atoms: N5_16  and  N6_17 
REMARK    5  A    between atoms: N8_24  and  C8_25 
REMARK    6  A    between atoms: C13_33  and  C14_34 
REMARK    7  A    between atoms: C14_34  and  S1_35 
REMARK    8  A    between atoms: S1_35  and  C15_36 
REMARK       I    between atoms: N10_41  and  C18_42 
REMARK    9  A    between atoms: C18_42  and  C19_44 
REMARK   10  A    between atoms: C19_44  and  O4_45 
REMARK   11  A    between atoms: C19_44  and  C20_47 
REMARK   12  A    between atoms: C20_47  and  O5_50 
ROOT
HETATM    1  C1  UNL     1     -14.466   6.093  -4.265  1.00  0.00     0.051 C 
HETATM    2  C2  UNL     1     -13.479   6.173  -3.163  1.00  0.00    -0.022 A 
HETATM    3  C3  UNL     1     -12.228   5.523  -3.360  1.00  0.00     0.062 A 
HETATM    4  N8  UNL     1     -11.285   5.551  -2.430  1.00  0.00    -0.298 N 
HETATM    5  C9  UNL     1     -11.536   6.224  -1.257  1.00  0.00     0.260 A 
HETATM    6  O2  UNL     1     -10.642   6.256  -0.366  1.00  0.00    -0.267 OA
HETATM    7  C10 UNL     1     -12.739   6.856  -1.052  1.00  0.00     0.045 A 
HETATM    8  C11 UNL     1     -12.991   7.538   0.135  1.00  0.00     0.042 A 
HETATM    9  C12 UNL     1     -14.174   8.187   0.392  1.00  0.00     0.042 A 
HETATM   10 CL2  UNL     1     -14.413   9.029   1.925  1.00  0.00    -0.084 Cl
HETATM   11  C13 UNL     1     -15.180   8.176  -0.565  1.00  0.00    -0.026 A 
HETATM   12  C23 UNL     1     -14.948   7.506  -1.741  1.00  0.00     0.022 A 
HETATM   13  C24 UNL     1     -13.739   6.846  -2.000  1.00  0.00    -0.012 A 
ENDROOT
BRANCH   3  14
HETATM   14  C4  UNL     1     -12.051   4.817  -4.604  1.00  0.00     0.138 C 
HETATM   15  N1  UNL     1     -12.197   3.565  -4.759  1.00  0.00    -0.295 N 
ATOM     16  H1  UNL     1     -12.460   3.005  -3.948  1.00  0.00     0.186 HD
BRANCH  15  17
HETATM   17  N2  UNL     1     -12.018   2.916  -5.978  1.00  0.00    -0.132 N 
HETATM   18  C5  UNL     1     -10.924   2.356  -6.342  1.00  0.00     0.715 A 
HETATM   19  N3  UNL     1     -10.855   1.740  -7.567  1.00  0.00    -0.019 N 
HETATM   20  N7  UNL     1      -9.792   2.314  -5.622  1.00  0.00    -0.137 N 
HETATM   21  C6  UNL     1      -9.755   1.141  -8.028  1.00  0.00     0.715 A 
ATOM     22  H3  UNL     1     -11.688   1.741  -8.155  1.00  0.00     0.203 HD
HETATM   23  N5  UNL     1      -8.658   1.137  -7.255  1.00  0.00    -0.037 N 
HETATM   24  C7  UNL     1      -8.662   1.723  -6.044  1.00  0.00     0.374 A 
HETATM   25  O1  UNL     1      -7.609   1.703  -5.337  1.00  0.00    -0.244 OA
ATOM     26  H7  UNL     1      -9.790   2.757  -4.703  1.00  0.00     0.189 HD
ATOM     27  H2  UNL     1     -12.808   2.885  -6.623  1.00  0.00     0.205 HD
BRANCH  21  28
HETATM   28  N4  UNL     1      -9.705   0.569  -9.179  1.00  0.00    -0.232 N 
ATOM     29  H42 UNL     1      -8.793   0.381  -9.595  1.00  0.00     0.174 HD
ATOM     30  H41 UNL     1     -10.540   0.293  -9.695  1.00  0.00     0.174 HD
ENDBRANCH  21  28
BRANCH  23  31
HETATM   31  N6  UNL     1      -7.505   0.514  -7.725  1.00  0.00    -0.320 N 
ATOM     32  H62 UNL     1      -6.626   0.619  -7.219  1.00  0.00     0.178 HD
ATOM     33  H61 UNL     1      -7.557  -0.042  -8.578  1.00  0.00     0.178 HD
ENDBRANCH  23  31
ENDBRANCH  15  17
ENDBRANCH   3  14
BRANCH   4  34
HETATM   34  C8  UNL     1      -9.990   4.918  -2.565  1.00  0.00     0.247 C 
HETATM   35 CL1  UNL     1      -8.841   6.044  -3.313  1.00  0.00    -0.108 Cl
ENDBRANCH   4  34
BRANCH  11  36
HETATM   36  C14 UNL     1     -16.433   8.846  -0.257  1.00  0.00     0.122 C 
BRANCH  36  37
HETATM   37  S1  UNL     1     -17.731   8.762  -1.480  1.00  0.00    -0.089 SA
BRANCH  37  38
HETATM   38  C15 UNL     1     -18.972   7.529  -1.154  1.00  0.00     0.149 A 
HETATM   39  N9  UNL     1     -18.852   6.328  -0.572  1.00  0.00    -0.340 N 
HETATM   40  C16 UNL     1     -20.029   5.698  -0.515  1.00  0.00     0.275 A 
ATOM     41  H9  UNL     1     -17.976   5.944  -0.217  1.00  0.00     0.164 HD
HETATM   42  C17 UNL     1     -20.974   6.565  -1.107  1.00  0.00     0.284 A 
HETATM   43  O6  UNL     1     -21.381   5.312  -0.606  1.00  0.00    -0.333 OA
HETATM   44  N10 UNL     1     -20.299   7.675  -1.486  1.00  0.00    -0.264 N 
HETATM   45  C18 UNL     1     -20.842   8.832  -2.107  1.00  0.00     0.260 C 
HETATM   46  O3  UNL     1     -20.091   9.826  -2.356  1.00  0.00    -0.270 OA
BRANCH  45  47
HETATM   47  C19 UNL     1     -22.251   8.972  -2.493  1.00  0.00     0.244 C 
BRANCH  47  48
HETATM   48  O4  UNL     1     -22.695  10.308  -2.213  1.00  0.00    -0.383 OA
ATOM     49  H4  UNL     1     -23.267  10.605  -2.910  1.00  0.00     0.210 HD
ENDBRANCH  47  48
BRANCH  47  50
HETATM   50  C20 UNL     1     -22.417   8.868  -4.020  1.00  0.00     0.085 C 
HETATM   51  C21 UNL     1     -23.203  10.108  -4.469  1.00  0.00     0.049 C 
HETATM   52  C22 UNL     1     -23.210   7.636  -4.378  1.00  0.00     0.049 C 
BRANCH  50  53
HETATM   53  O5  UNL     1     -21.189   8.849  -4.628  1.00  0.00    -0.388 OA
ATOM     54  H5  UNL     1     -20.507   9.023  -3.990  1.00  0.00     0.210 HD
ENDBRANCH  50  53
ENDBRANCH  47  50
ENDBRANCH  45  47
ENDBRANCH  37  38
ENDBRANCH  36  37
ENDBRANCH  11  36
TORSDOF 12
ENDMDL
MODEL 3
REMARK VINA RESULT: -7.562578872      6.668     11.794
REMARK  12 active torsions:
REMARK  status: ('A' for Active; 'I' for Inactive)
REMARK    1  A    between atoms: C3_3  and  C4_4 
REMARK    2  A    between atoms: N1_5  and  N2_7 
REMARK    3  A    between atoms: C6_12  and  N4_13 
REMARK    4  A    between atoms: N5_16  and  N6_17 
REMARK    5  A    between atoms: N8_24  and  C8_25 
REMARK    6  A    between atoms: C13_33  and  C14_34 
REMARK    7  A    between atoms: C14_34  and  S1_35 
REMARK    8  A    between atoms: S1_35  and  C15_36 
REMARK       I    between atoms: N10_41  and  C18_42 
REMARK    9  A    between atoms: C18_42  and  C19_44 
REMARK   10  A    between atoms: C19_44  and  O4_45 
REMARK   11  A    between atoms: C19_44  and  C20_47 
REMARK   12  A    between atoms: C20_47  and  O5_50 
ROOT
HETATM    1  C1  UNL     1     -22.564  11.887   0.147  1.00  0.00     0.051 C 
HETATM    2  C2  UNL     1     -23.883  11.458   0.665  1.00  0.00    -0.022 A 
HETATM    3  C3  UNL     1     -24.426  12.194   1.756  1.00  0.00     0.062 A 
HETATM    4  N8  UNL     1     -25.604  11.884   2.276  1.00  0.00    -0.298 N 
HETATM    5  C9  UNL     1     -26.303  10.828   1.741  1.00  0.00     0.260 A 
HETATM    6  O2  UNL     1     -27.427  10.526   2.231  1.00  0.00    -0.267 OA
HETATM    7  C10 UNL     1     -25.793  10.107   0.688  1.00  0.00     0.045 A 
HETATM    8  C11 UNL     1     -26.501   9.039   0.147  1.00  0.00     0.042 A 
HETATM    9  C12 UNL     1     -26.039   8.286  -0.905  1.00  0.00     0.042 A 
HETATM   10 CL2  UNL     1     -27.002   6.945  -1.531  1.00  0.00    -0.084 Cl
HETATM   11  C13 UNL     1     -24.808   8.588  -1.471  1.00  0.00    -0.026 A 
HETATM   12  C23 UNL     1     -24.095   9.639  -0.947  1.00  0.00     0.022 A 
HETATM   13  C24 UNL     1     -24.570  10.405   0.125  1.00  0.00    -0.012 A 
ENDROOT
BRANCH   3  14
HETATM   14  C4  UNL     1     -23.623  13.271   2.278  1.00  0.00     0.138 C 
HETATM   15  N1  UNL     1     -22.648  13.130   3.080  1.00  0.00    -0.295 N 
ATOM     16  H1  UNL     1     -22.406  12.188   3.387  1.00  0.00     0.186 HD
BRANCH  15  17
HETATM   17  N2  UNL     1     -21.891  14.195   3.564  1.00  0.00    -0.132 N 
HETATM   18  C5  UNL     1     -20.617  14.171   3.698  1.00  0.00     0.715 A 
HETATM   19  N3  UNL     1     -19.967  15.278   4.183  1.00  0.00    -0.019 N 
HETATM   20  N7  UNL     1     -19.822  13.129   3.409  1.00  0.00    -0.137 N 
HETATM   21  C6  UNL     1     -18.646  15.337   4.362  1.00  0.00     0.715 A 
ATOM     22  H3  UNL     1     -20.524  16.100   4.417  1.00  0.00     0.203 HD
HETATM   23  N5  UNL     1     -17.910  14.257   4.052  1.00  0.00    -0.037 N 
HETATM   24  C7  UNL     1     -18.488  13.141   3.573  1.00  0.00     0.374 A 
HETATM   25  O1  UNL     1     -17.767  12.137   3.289  1.00  0.00    -0.244 OA
ATOM     26  H7  UNL     1     -20.254  12.279   3.045  1.00  0.00     0.189 HD
ATOM     27  H2  UNL     1     -22.383  15.049   3.828  1.00  0.00     0.205 HD
BRANCH  21  28
HETATM   28  N4  UNL     1     -18.051  16.382   4.819  1.00  0.00    -0.232 N 
ATOM     29  H42 UNL     1     -18.209  16.653   5.789  1.00  0.00     0.174 HD
ATOM     30  H41 UNL     1     -17.425  16.952   4.250  1.00  0.00     0.174 HD
ENDBRANCH  21  28
BRANCH  23  31
HETATM   31  N6  UNL     1     -16.532  14.306   4.234  1.00  0.00    -0.320 N 
ATOM     32  H62 UNL     1     -15.985  15.048   3.799  1.00  0.00     0.178 HD
ATOM     33  H61 UNL     1     -16.083  13.591   4.807  1.00  0.00     0.178 HD
ENDBRANCH  23  31
ENDBRANCH  15  17
ENDBRANCH   3  14
BRANCH   4  34
HETATM   34  C8  UNL     1     -26.218  12.592   3.380  1.00  0.00     0.247 C 
HETATM   35 CL1  UNL     1     -27.194  13.941   2.767  1.00  0.00    -0.108 Cl
ENDBRANCH   4  34
BRANCH  11  36
HETATM   36  C14 UNL     1     -24.329   7.758  -2.564  1.00  0.00     0.122 C 
BRANCH  36  37
HETATM   37  S1  UNL     1     -22.591   7.854  -2.966  1.00  0.00    -0.089 SA
BRANCH  37  38
HETATM   38  C15 UNL     1     -21.523   7.006  -1.824  1.00  0.00     0.149 A 
HETATM   39  N9  UNL     1     -21.768   5.932  -1.059  1.00  0.00    -0.340 N 
HETATM   40  C16 UNL     1     -20.697   5.602  -0.332  1.00  0.00     0.275 A 
ATOM     41  H9  UNL     1     -22.656   5.432  -1.036  1.00  0.00     0.164 HD
HETATM   42  C17 UNL     1     -19.690   6.537  -0.657  1.00  0.00     0.284 A 
HETATM   43  O6  UNL     1     -19.431   5.517   0.280  1.00  0.00    -0.333 OA
HETATM   44  N10 UNL     1     -20.224   7.381  -1.570  1.00  0.00    -0.264 N 
HETATM   45  C18 UNL     1     -19.572   8.472  -2.206  1.00  0.00     0.260 C 
HETATM   46  O3  UNL     1     -20.186   9.146  -3.091  1.00  0.00    -0.270 OA
BRANCH  45  47
HETATM   47  C19 UNL     1     -18.198   8.893  -1.909  1.00  0.00     0.244 C 
BRANCH  47  48
HETATM   48  O4  UNL     1     -17.636   9.542  -3.059  1.00  0.00    -0.383 OA
ATOM     49  H4  UNL     1     -17.670   8.953  -3.804  1.00  0.00     0.210 HD
ENDBRANCH  47  48
BRANCH  47  50
HETATM   50  C20 UNL     1     -18.179  10.004  -0.844  1.00  0.00     0.085 C 
HETATM   51  C21 UNL     1     -17.667  11.276  -1.534  1.00  0.00     0.049 C 
HETATM   52  C22 UNL     1     -17.230   9.643   0.272  1.00  0.00     0.049 C 
BRANCH  50  53
HETATM   53  O5  UNL     1     -19.443  10.213  -0.358  1.00  0.00    -0.388 OA
ATOM     54  H5  UNL     1     -19.420  10.841   0.354  1.00  0.00     0.210 HD
ENDBRANCH  50  53
ENDBRANCH  47  50
ENDBRANCH  45  47
ENDBRANCH  37  38
ENDBRANCH  36  37
ENDBRANCH  11  36
TORSDOF 12
ENDMDL
MODEL 4
REMARK VINA RESULT: -7.546752574      2.585      3.869
REMARK  12 active torsions:
REMARK  status: ('A' for Active; 'I' for Inactive)
REMARK    1  A    between atoms: C3_3  and  C4_4 
REMARK    2  A    between atoms: N1_5  and  N2_7 
REMARK    3  A    between atoms: C6_12  and  N4_13 
REMARK    4  A    between atoms: N5_16  and  N6_17 
REMARK    5  A    between atoms: N8_24  and  C8_25 
REMARK    6  A    between atoms: C13_33  and  C14_34 
REMARK    7  A    between atoms: C14_34  and  S1_35 
REMARK    8  A    between atoms: S1_35  and  C15_36 
REMARK       I    between atoms: N10_41  and  C18_42 
REMARK    9  A    between atoms: C18_42  and  C19_44 
REMARK   10  A    between atoms: C19_44  and  O4_45 
REMARK   11  A    between atoms: C19_44  and  C20_47 
REMARK   12  A    between atoms: C20_47  and  O5_50 
ROOT
HETATM    1  C1  UNL     1     -14.312   5.764  -4.097  1.00  0.00     0.051 C 
HETATM    2  C2  UNL     1     -13.221   6.006  -3.125  1.00  0.00    -0.022 A 
HETATM    3  C3  UNL     1     -11.930   5.503  -3.455  1.00  0.00     0.062 A 
HETATM    4  N8  UNL     1     -10.896   5.681  -2.647  1.00  0.00    -0.298 N 
HETATM    5  C9  UNL     1     -11.090   6.366  -1.470  1.00  0.00     0.260 A 
HETATM    6  O2  UNL     1     -10.109   6.541  -0.694  1.00  0.00    -0.267 OA
HETATM    7  C10 UNL     1     -12.330   6.857  -1.137  1.00  0.00     0.045 A 
HETATM    8  C11 UNL     1     -12.524   7.550   0.053  1.00  0.00     0.042 A 
HETATM    9  C12 UNL     1     -13.740   8.063   0.435  1.00  0.00     0.042 A 
HETATM   10 CL2  UNL     1     -13.901   8.931   1.964  1.00  0.00    -0.084 Cl
HETATM   11  C13 UNL     1     -14.842   7.892  -0.393  1.00  0.00    -0.026 A 
HETATM   12  C23 UNL     1     -14.667   7.209  -1.571  1.00  0.00     0.022 A 
HETATM   13  C24 UNL     1     -13.425   6.688  -1.957  1.00  0.00    -0.012 A 
ENDROOT
BRANCH   3  14
HETATM   14  C4  UNL     1     -11.814   4.775  -4.693  1.00  0.00     0.138 C 
HETATM   15  N1  UNL     1     -11.986   3.522  -4.821  1.00  0.00    -0.295 N 
ATOM     16  H1  UNL     1     -12.225   2.980  -3.991  1.00  0.00     0.186 HD
BRANCH  15  17
HETATM   17  N2  UNL     1     -11.866   2.851  -6.035  1.00  0.00    -0.132 N 
HETATM   18  C5  UNL     1     -10.801   2.253  -6.425  1.00  0.00     0.715 A 
HETATM   19  N3  UNL     1     -10.789   1.618  -7.642  1.00  0.00    -0.019 N 
HETATM   20  N7  UNL     1      -9.648   2.189  -5.741  1.00  0.00    -0.137 N 
HETATM   21  C6  UNL     1      -9.723   0.980  -8.129  1.00  0.00     0.715 A 
ATOM     22  H3  UNL     1     -11.640   1.635  -8.203  1.00  0.00     0.203 HD
HETATM   23  N5  UNL     1      -8.601   0.955  -7.391  1.00  0.00    -0.037 N 
HETATM   24  C7  UNL     1      -8.549   1.558  -6.190  1.00  0.00     0.374 A 
HETATM   25  O1  UNL     1      -7.475   1.518  -5.517  1.00  0.00    -0.244 OA
ATOM     26  H7  UNL     1      -9.602   2.644  -4.829  1.00  0.00     0.189 HD
ATOM     27  H2  UNL     1     -12.676   2.834  -6.654  1.00  0.00     0.205 HD
BRANCH  21  28
HETATM   28  N4  UNL     1      -9.727   0.390  -9.272  1.00  0.00    -0.232 N 
ATOM     29  H42 UNL     1     -10.094  -0.560  -9.333  1.00  0.00     0.174 HD
ATOM     30  H41 UNL     1      -9.379   0.833 -10.122  1.00  0.00     0.174 HD
ENDBRANCH  21  28
BRANCH  23  31
HETATM   31  N6  UNL     1      -7.483   0.292  -7.888  1.00  0.00    -0.320 N 
ATOM     32  H62 UNL     1      -6.895   0.738  -8.591  1.00  0.00     0.178 HD
ATOM     33  H61 UNL     1      -7.267  -0.642  -7.538  1.00  0.00     0.178 HD
ENDBRANCH  23  31
ENDBRANCH  15  17
ENDBRANCH   3  14
BRANCH   4  34
HETATM   34  C8  UNL     1      -9.558   5.204  -2.921  1.00  0.00     0.247 C 
HETATM   35 CL1  UNL     1      -9.350   3.571  -2.259  1.00  0.00    -0.108 Cl
ENDBRANCH   4  34
BRANCH  11  36
HETATM   36  C14 UNL     1     -16.123   8.420   0.047  1.00  0.00     0.122 C 
BRANCH  36  37
HETATM   37  S1  UNL     1     -17.595   7.678  -0.640  1.00  0.00    -0.089 SA
BRANCH  37  38
HETATM   38  C15 UNL     1     -18.179   8.447  -2.134  1.00  0.00     0.149 A 
HETATM   39  N9  UNL     1     -17.488   8.904  -3.188  1.00  0.00    -0.340 N 
HETATM   40  C16 UNL     1     -18.302   9.418  -4.114  1.00  0.00     0.275 A 
ATOM     41  H9  UNL     1     -16.472   8.864  -3.272  1.00  0.00     0.164 HD
HETATM   42  C17 UNL     1     -19.614   9.279  -3.613  1.00  0.00     0.284 A 
HETATM   43  O6  UNL     1     -19.398   9.873  -4.873  1.00  0.00    -0.333 OA
HETATM   44  N10 UNL     1     -19.508   8.683  -2.404  1.00  0.00    -0.264 N 
HETATM   45  C18 UNL     1     -20.573   8.320  -1.535  1.00  0.00     0.260 C 
HETATM   46  O3  UNL     1     -20.322   7.710  -0.449  1.00  0.00    -0.270 OA
BRANCH  45  47
HETATM   47  C19 UNL     1     -21.987   8.602  -1.808  1.00  0.00     0.244 C 
BRANCH  47  48
HETATM   48  O4  UNL     1     -22.782   7.464  -1.444  1.00  0.00    -0.383 OA
ATOM     49  H4  UNL     1     -22.987   6.959  -2.222  1.00  0.00     0.210 HD
ENDBRANCH  47  48
BRANCH  47  50
HETATM   50  C20 UNL     1     -22.518   9.705  -0.874  1.00  0.00     0.085 C 
HETATM   51  C21 UNL     1     -24.038   9.771  -1.082  1.00  0.00     0.049 C 
HETATM   52  C22 UNL     1     -21.919  11.038  -1.245  1.00  0.00     0.049 C 
BRANCH  50  53
HETATM   53  O5  UNL     1     -22.239   9.392   0.431  1.00  0.00    -0.388 OA
ATOM     54  H5  UNL     1     -22.743   9.947   1.014  1.00  0.00     0.210 HD
ENDBRANCH  50  53
ENDBRANCH  47  50
ENDBRANCH  45  47
ENDBRANCH  37  38
ENDBRANCH  36  37
ENDBRANCH  11  36
TORSDOF 12
ENDMDL
MODEL 5
REMARK VINA RESULT: -7.492752200      4.592      6.729
REMARK  12 active torsions:
REMARK  status: ('A' for Active; 'I' for Inactive)
REMARK    1  A    between atoms: C3_3  and  C4_4 
REMARK    2  A    between atoms: N1_5  and  N2_7 
REMARK    3  A    between atoms: C6_12  and  N4_13 
REMARK    4  A    between atoms: N5_16  and  N6_17 
REMARK    5  A    between atoms: N8_24  and  C8_25 
REMARK    6  A    between atoms: C13_33  and  C14_34 
REMARK    7  A    between atoms: C14_34  and  S1_35 
REMARK    8  A    between atoms: S1_35  and  C15_36 
REMARK       I    between atoms: N10_41  and  C18_42 
REMARK    9  A    between atoms: C18_42  and  C19_44 
REMARK   10  A    between atoms: C19_44  and  O4_45 
REMARK   11  A    between atoms: C19_44  and  C20_47 
REMARK   12  A    between atoms: C20_47  and  O5_50 
ROOT
HETATM    1  C1  UNL     1     -12.506   7.560   0.267  1.00  0.00     0.051 C 
HETATM    2  C2  UNL     1     -13.045   7.283  -1.084  1.00  0.00    -0.022 A 
HETATM    3  C3  UNL     1     -12.174   6.652  -2.017  1.00  0.00     0.062 A 
HETATM    4  N8  UNL     1     -12.576   6.360  -3.245  1.00  0.00    -0.298 N 
HETATM    5  C9  UNL     1     -13.863   6.681  -3.610  1.00  0.00     0.260 A 
HETATM    6  O2  UNL     1     -14.255   6.406  -4.779  1.00  0.00    -0.267 OA
HETATM    7  C10 UNL     1     -14.716   7.291  -2.722  1.00  0.00     0.045 A 
HETATM    8  C11 UNL     1     -16.017   7.613  -3.092  1.00  0.00     0.042 A 
HETATM    9  C12 UNL     1     -16.911   8.222  -2.245  1.00  0.00     0.042 A 
HETATM   10 CL2  UNL     1     -18.546   8.598  -2.795  1.00  0.00    -0.084 Cl
HETATM   11  C13 UNL     1     -16.517   8.539  -0.951  1.00  0.00    -0.026 A 
HETATM   12  C23 UNL     1     -15.235   8.228  -0.570  1.00  0.00     0.022 A 
HETATM   13  C24 UNL     1     -14.327   7.606  -1.437  1.00  0.00    -0.012 A 
ENDROOT
BRANCH   3  14
HETATM   14  C4  UNL     1     -10.833   6.371  -1.568  1.00  0.00     0.138 C 
HETATM   15  N1  UNL     1     -10.429   5.243  -1.145  1.00  0.00    -0.295 N 
ATOM     16  H1  UNL     1     -11.093   4.470  -1.116  1.00  0.00     0.186 HD
BRANCH  15  17
HETATM   17  N2  UNL     1      -9.124   5.006  -0.718  1.00  0.00    -0.132 N 
HETATM   18  C5  UNL     1      -8.254   4.348  -1.391  1.00  0.00     0.715 A 
HETATM   19  N3  UNL     1      -6.993   4.175  -0.880  1.00  0.00    -0.019 N 
HETATM   20  N7  UNL     1      -8.462   3.782  -2.591  1.00  0.00    -0.137 N 
HETATM   21  C6  UNL     1      -6.030   3.497  -1.508  1.00  0.00     0.715 A 
ATOM     22  H3  UNL     1      -6.780   4.586   0.029  1.00  0.00     0.203 HD
HETATM   23  N5  UNL     1      -6.306   2.957  -2.705  1.00  0.00    -0.037 N 
HETATM   24  C7  UNL     1      -7.524   3.091  -3.261  1.00  0.00     0.374 A 
HETATM   25  O1  UNL     1      -7.755   2.569  -4.393  1.00  0.00    -0.244 OA
ATOM     26  H7  UNL     1      -9.383   3.881  -3.017  1.00  0.00     0.189 HD
ATOM     27  H2  UNL     1      -8.843   5.381   0.188  1.00  0.00     0.205 HD
BRANCH  21  28
HETATM   28  N4  UNL     1      -4.852   3.343  -1.015  1.00  0.00    -0.232 N 
ATOM     29  H42 UNL     1      -4.185   4.111  -1.086  1.00  0.00     0.174 HD
ATOM     30  H41 UNL     1      -4.556   2.483  -0.553  1.00  0.00     0.174 HD
ENDBRANCH  21  28
BRANCH  23  31
HETATM   31  N6  UNL     1      -5.310   2.249  -3.371  1.00  0.00    -0.320 N 
ATOM     32  H62 UNL     1      -4.442   2.714  -3.634  1.00  0.00     0.178 HD
ATOM     33  H61 UNL     1      -5.466   1.264  -3.590  1.00  0.00     0.178 HD
ENDBRANCH  23  31
ENDBRANCH  15  17
ENDBRANCH   3  14
BRANCH   4  34
HETATM   34  C8  UNL     1     -11.748   5.715  -4.241  1.00  0.00     0.247 C 
HETATM   35 CL1  UNL     1     -11.916   3.953  -4.120  1.00  0.00    -0.108 Cl
ENDBRANCH   4  34
BRANCH  11  36
HETATM   36  C14 UNL     1     -17.473   9.208  -0.084  1.00  0.00     0.122 C 
BRANCH  36  37
HETATM   37  S1  UNL     1     -17.627  10.980  -0.244  1.00  0.00    -0.089 SA
BRANCH  37  38
HETATM   38  C15 UNL     1     -19.133  11.652   0.423  1.00  0.00     0.149 A 
HETATM   39  N9  UNL     1     -20.381  11.601  -0.063  1.00  0.00    -0.340 N 
HETATM   40  C16 UNL     1     -21.239  12.235   0.742  1.00  0.00     0.275 A 
ATOM     41  H9  UNL     1     -20.643  11.139  -0.933  1.00  0.00     0.164 HD
HETATM   42  C17 UNL     1     -20.480  12.728   1.825  1.00  0.00     0.284 A 
HETATM   43  O6  UNL     1     -21.870  12.958   1.773  1.00  0.00    -0.333 OA
HETATM   44  N10 UNL     1     -19.199  12.356   1.603  1.00  0.00    -0.264 N 
HETATM   45  C18 UNL     1     -18.079  12.611   2.441  1.00  0.00     0.260 C 
HETATM   46  O3  UNL     1     -16.938  12.148   2.129  1.00  0.00    -0.270 OA
BRANCH  45  47
HETATM   47  C19 UNL     1     -18.144  13.392   3.682  1.00  0.00     0.244 C 
BRANCH  47  48
HETATM   48  O4  UNL     1     -17.291  12.795   4.669  1.00  0.00    -0.383 OA
ATOM     49  H4  UNL     1     -16.906  13.475   5.210  1.00  0.00     0.210 HD
ENDBRANCH  47  48
BRANCH  47  50
HETATM   50  C20 UNL     1     -17.521  14.787   3.488  1.00  0.00     0.085 C 
HETATM   51  C21 UNL     1     -17.705  15.545   4.811  1.00  0.00     0.049 C 
HETATM   52  C22 UNL     1     -18.243  15.535   2.395  1.00  0.00     0.049 C 
BRANCH  50  53
HETATM   53  O5  UNL     1     -16.186  14.671   3.198  1.00  0.00    -0.388 OA
ATOM     54  H5  UNL     1     -15.820  15.524   3.001  1.00  0.00     0.210 HD
ENDBRANCH  50  53
ENDBRANCH  47  50
ENDBRANCH  45  47
ENDBRANCH  37  38
ENDBRANCH  36  37
ENDBRANCH  11  36
TORSDOF 12
ENDMDL
