MODEL 1
REMARK VINA RESULT: -8.617975112      0.000      0.000
REMARK  9 active torsions:
REMARK  status: ('A' for Active; 'I' for Inactive)
REMARK    1  A    between atoms: C1_4  and  O1_5 
REMARK    2  A    between atoms: C1_4  and  C18_46 
REMARK    3  A    between atoms: O1_5  and  C2_6 
REMARK    4  A    between atoms: C2_6  and  C3_7 
REMARK    5  A    between atoms: C3_7  and  C4_8 
REMARK    6  A    between atoms: C4_8  and  C5_9 
REMARK       I    between atoms: C5_9  and  N2_11 
REMARK    7  A    between atoms: N3_14  and  C8_15 
REMARK    8  A    between atoms: C10_19  and  N5_20 
REMARK    9  A    between atoms: N6_22  and  C11_24 
ROOT
HETATM    1  C8  UNL     1     -12.479   5.508  -2.059  1.00  0.00     0.722 A 
HETATM    2  N4  UNL     1     -13.616   6.050  -1.766  1.00  0.00    -0.171 N 
ATOM      3  H4  UNL     1     -14.453   5.638  -2.178  1.00  0.00     0.186 HD
HETATM    4  C9  UNL     1     -13.792   7.173  -0.916  1.00  0.00     0.163 A 
HETATM    5  C10 UNL     1     -14.893   7.797  -0.557  1.00  0.00     0.072 A 
HETATM    6  C15 UNL     1     -14.579   8.912   0.341  1.00  0.00     0.083 A 
HETATM    7  C16 UNL     1     -13.092   8.892   0.490  1.00  0.00     0.155 A 
HETATM    8  N9  UNL     1     -12.660   7.782  -0.320  1.00  0.00    -0.165 N 
HETATM    9  C17 UNL     1     -11.359   7.225  -0.607  1.00  0.00     0.694 A 
HETATM   10  N10 UNL     1     -10.312   7.760  -0.077  1.00  0.00    -0.234 N 
ATOM     11 1H10 UNL     1      -9.393   7.366  -0.279  1.00  0.00     0.174 HD
ATOM     12 2H10 UNL     1     -10.343   8.568   0.546  1.00  0.00     0.174 HD
HETATM   13  N11 UNL     1     -11.316   6.108  -1.467  1.00  0.00    -0.020 N 
ATOM     14  H11 UNL     1     -10.406   5.702  -1.681  1.00  0.00     0.203 HD
ENDROOT
BRANCH   1  15
HETATM   15  N3  UNL     1     -12.376   4.385  -2.916  1.00  0.00    -0.053 N 
HETATM   16  C7  UNL     1     -13.526   3.951  -3.650  1.00  0.00     0.201 C 
HETATM   17  C6  UNL     1     -13.049   3.717  -5.091  1.00  0.00     0.185 C 
HETATM   18  N2  UNL     1     -11.905   2.834  -4.969  1.00  0.00    -0.191 N 
HETATM   19  C5  UNL     1     -11.429   2.171  -6.159  1.00  0.00     0.245 C 
HETATM   20  O6  UNL     1     -11.317   2.648  -3.784  1.00  0.00    -0.083 OA
HETATM   21  O2  UNL     1     -12.006   2.369  -7.255  1.00  0.00    -0.271 OA
HETATM   22  O5  UNL     1     -11.226   3.726  -3.052  1.00  0.00    -0.071 OA
BRANCH  19  23
HETATM   23  C4  UNL     1     -10.276   1.271  -6.101  1.00  0.00     0.107 C 
BRANCH  23  24
HETATM   24  C3  UNL     1      -9.001   1.992  -6.429  1.00  0.00     0.036 C 
BRANCH  24  25
HETATM   25  C2  UNL     1      -7.785   1.151  -6.301  1.00  0.00     0.178 C 
BRANCH  25  26
HETATM   26  O1  UNL     1      -6.700   1.934  -5.772  1.00  0.00    -0.335 OA
BRANCH  26  27
HETATM   27  C1  UNL     1      -6.385   1.914  -4.422  1.00  0.00     0.146 C 
HETATM   28  N1  UNL     1      -5.733   0.915  -3.982  1.00  0.00    -0.379 N 
ATOM     29  H12 UNL     1      -5.434   0.137  -4.570  1.00  0.00     0.158 HD
ATOM     30  H11 UNL     1      -5.501   0.900  -2.989  1.00  0.00     0.158 HD
BRANCH  27  31
HETATM   31  C18 UNL     1      -6.817   3.042  -3.570  1.00  0.00     0.020 A 
HETATM   32  C19 UNL     1      -6.949   2.916  -2.204  1.00  0.00     0.061 A 
HETATM   33  C20 UNL     1      -7.361   4.013  -1.439  1.00  0.00     0.153 A 
HETATM   34  F1  UNL     1      -7.483   3.861  -0.092  1.00  0.00    -0.203 F 
HETATM   35  C21 UNL     1      -7.641   5.225  -2.027  1.00  0.00     0.143 A 
HETATM   36  C22 UNL     1      -7.514   5.369  -3.396  1.00  0.00     0.109 A 
HETATM   37  O8  UNL     1      -8.059   6.428  -1.468  1.00  0.00    -0.320 OA
HETATM   38  C23 UNL     1      -7.107   4.272  -4.114  1.00  0.00     0.055 A 
HETATM   39  O7  UNL     1      -7.862   6.683  -3.675  1.00  0.00    -0.323 OA
HETATM   40  C24 UNL     1      -7.910   7.439  -2.458  1.00  0.00     0.352 C 
ENDBRANCH  27  31
ENDBRANCH  26  27
ENDBRANCH  25  26
ENDBRANCH  24  25
ENDBRANCH  23  24
ENDBRANCH  19  23
ENDBRANCH   1  15
BRANCH   5  41
HETATM   41  N5  UNL     1     -16.247   7.483  -0.951  1.00  0.00    -0.299 N 
HETATM   42  N6  UNL     1     -17.242   7.918  -0.298  1.00  0.00    -0.284 N 
ATOM     43  H6  UNL     1     -17.119   8.504   0.528  1.00  0.00     0.188 HD
ATOM     44  H5  UNL     1     -16.406   6.898  -1.772  1.00  0.00     0.186 HD
BRANCH  42  45
HETATM   45  C11 UNL     1     -18.529   7.558  -0.759  1.00  0.00     0.151 A 
HETATM   46  N7  UNL     1     -19.130   6.449  -0.305  1.00  0.00    -0.292 N 
HETATM   47  C12 UNL     1     -20.372   6.101  -0.747  1.00  0.00     0.328 A 
ATOM     48  H7  UNL     1     -18.653   5.861   0.378  1.00  0.00     0.172 HD
HETATM   49  O3  UNL     1     -20.907   5.051  -0.298  1.00  0.00    -0.247 OA
HETATM   50  N8  UNL     1     -20.975   6.893  -1.646  1.00  0.00    -0.274 N 
HETATM   51  C13 UNL     1     -20.411   8.021  -2.135  1.00  0.00     0.275 A 
ATOM     52  H8  UNL     1     -21.904   6.632  -1.976  1.00  0.00     0.173 HD
HETATM   53  O4  UNL     1     -20.981   8.752  -2.971  1.00  0.00    -0.266 OA
HETATM   54  C14 UNL     1     -19.152   8.369  -1.681  1.00  0.00     0.147 A 
HETATM   55 CL1  UNL     1     -18.337   9.816  -2.257  1.00  0.00    -0.074 Cl
ENDBRANCH  42  45
ENDBRANCH   5  41
TORSDOF 9
ENDMDL
MODEL 2
REMARK VINA RESULT: -8.380696220      1.269      1.586
REMARK  9 active torsions:
REMARK  status: ('A' for Active; 'I' for Inactive)
REMARK    1  A    between atoms: C1_4  and  O1_5 
REMARK    2  A    between atoms: C1_4  and  C18_46 
REMARK    3  A    between atoms: O1_5  and  C2_6 
REMARK    4  A    between atoms: C2_6  and  C3_7 
REMARK    5  A    between atoms: C3_7  and  C4_8 
REMARK    6  A    between atoms: C4_8  and  C5_9 
REMARK       I    between atoms: C5_9  and  N2_11 
REMARK    7  A    between atoms: N3_14  and  C8_15 
REMARK    8  A    between atoms: C10_19  and  N5_20 
REMARK    9  A    between atoms: N6_22  and  C11_24 
ROOT
HETATM    1  C8  UNL     1     -12.504   5.226  -2.539  1.00  0.00     0.722 A 
HETATM    2  N4  UNL     1     -13.593   5.813  -2.163  1.00  0.00    -0.171 N 
ATOM      3  H4  UNL     1     -14.472   5.454  -2.535  1.00  0.00     0.186 HD
HETATM    4  C9  UNL     1     -13.662   6.917  -1.274  1.00  0.00     0.163 A 
HETATM    5  C10 UNL     1     -14.708   7.581  -0.832  1.00  0.00     0.072 A 
HETATM    6  C15 UNL     1     -14.286   8.652   0.076  1.00  0.00     0.083 A 
HETATM    7  C16 UNL     1     -12.795   8.557   0.134  1.00  0.00     0.155 A 
HETATM    8  N9  UNL     1     -12.468   7.452  -0.731  1.00  0.00    -0.165 N 
HETATM    9  C17 UNL     1     -11.215   6.842  -1.111  1.00  0.00     0.694 A 
HETATM   10  N10 UNL     1     -10.114   7.310  -0.631  1.00  0.00    -0.234 N 
ATOM     11 1H10 UNL     1      -9.229   6.879  -0.899  1.00  0.00     0.174 HD
ATOM     12 2H10 UNL     1     -10.067   8.099   0.014  1.00  0.00     0.174 HD
HETATM   13  N11 UNL     1     -11.279   5.751  -2.002  1.00  0.00    -0.020 N 
ATOM     14  H11 UNL     1     -10.405   5.308  -2.283  1.00  0.00     0.203 HD
ENDROOT
BRANCH   1  15
HETATM   15  N3  UNL     1     -12.508   4.126  -3.432  1.00  0.00    -0.053 N 
HETATM   16  C7  UNL     1     -13.562   4.002  -4.392  1.00  0.00     0.201 C 
HETATM   17  C6  UNL     1     -12.883   3.679  -5.731  1.00  0.00     0.185 C 
HETATM   18  N2  UNL     1     -12.031   2.539  -5.455  1.00  0.00    -0.191 N 
HETATM   19  C5  UNL     1     -11.505   1.798  -6.576  1.00  0.00     0.245 C 
HETATM   20  O6  UNL     1     -11.748   2.194  -4.196  1.00  0.00    -0.083 OA
HETATM   21  O2  UNL     1     -11.792   2.149  -7.745  1.00  0.00    -0.271 OA
HETATM   22  O5  UNL     1     -11.546   3.205  -3.393  1.00  0.00    -0.071 OA
BRANCH  19  23
HETATM   23  C4  UNL     1     -10.635   0.638  -6.361  1.00  0.00     0.107 C 
BRANCH  23  24
HETATM   24  C3  UNL     1      -9.852   0.305  -7.598  1.00  0.00     0.036 C 
BRANCH  24  25
HETATM   25  C2  UNL     1      -8.465  -0.146  -7.326  1.00  0.00     0.178 C 
BRANCH  25  26
HETATM   26  O1  UNL     1      -7.602   0.993  -7.161  1.00  0.00    -0.335 OA
BRANCH  26  27
HETATM   27  C1  UNL     1      -6.942   1.233  -5.964  1.00  0.00     0.146 C 
HETATM   28  N1  UNL     1      -6.021   0.424  -5.625  1.00  0.00    -0.379 N 
ATOM     29  H12 UNL     1      -5.748  -0.383  -6.186  1.00  0.00     0.158 HD
ATOM     30  H11 UNL     1      -5.537   0.600  -4.745  1.00  0.00     0.158 HD
BRANCH  27  31
HETATM   31  C18 UNL     1      -7.339   2.402  -5.152  1.00  0.00     0.020 A 
HETATM   32  C19 UNL     1      -8.377   3.230  -5.521  1.00  0.00     0.061 A 
HETATM   33  C20 UNL     1      -8.715   4.325  -4.719  1.00  0.00     0.153 A 
HETATM   34  F1  UNL     1      -9.745   5.126  -5.108  1.00  0.00    -0.203 F 
HETATM   35  C21 UNL     1      -8.027   4.595  -3.559  1.00  0.00     0.143 A 
HETATM   36  C22 UNL     1      -6.984   3.776  -3.173  1.00  0.00     0.109 A 
HETATM   37  O8  UNL     1      -8.191   5.614  -2.625  1.00  0.00    -0.320 OA
HETATM   38  C23 UNL     1      -6.680   2.711  -3.985  1.00  0.00     0.055 A 
HETATM   39  O7  UNL     1      -6.503   4.305  -1.983  1.00  0.00    -0.323 OA
HETATM   40  C24 UNL     1      -7.435   5.267  -1.471  1.00  0.00     0.352 C 
ENDBRANCH  27  31
ENDBRANCH  26  27
ENDBRANCH  25  26
ENDBRANCH  24  25
ENDBRANCH  23  24
ENDBRANCH  19  23
ENDBRANCH   1  15
BRANCH   5  41
HETATM   41  N5  UNL     1     -16.096   7.345  -1.151  1.00  0.00    -0.299 N 
HETATM   42  N6  UNL     1     -17.028   7.888  -0.486  1.00  0.00    -0.284 N 
ATOM     43  H6  UNL     1     -16.828   8.510   0.298  1.00  0.00     0.188 HD
ATOM     44  H5  UNL     1     -16.332   6.728  -1.928  1.00  0.00     0.186 HD
BRANCH  42  45
HETATM   45  C11 UNL     1     -18.357   7.597  -0.873  1.00  0.00     0.151 A 
HETATM   46  N7  UNL     1     -18.971   6.494  -0.423  1.00  0.00    -0.292 N 
HETATM   47  C12 UNL     1     -20.252   6.212  -0.793  1.00  0.00     0.328 A 
ATOM     48  H7  UNL     1     -18.474   5.859   0.202  1.00  0.00     0.172 HD
HETATM   49  O3  UNL     1     -20.799   5.165  -0.352  1.00  0.00    -0.247 OA
HETATM   50  N8  UNL     1     -20.881   7.064  -1.617  1.00  0.00    -0.274 N 
HETATM   51  C13 UNL     1     -20.306   8.189  -2.098  1.00  0.00     0.275 A 
ATOM     52  H8  UNL     1     -21.840   6.853  -1.894  1.00  0.00     0.173 HD
HETATM   53  O4  UNL     1     -20.900   8.976  -2.863  1.00  0.00    -0.266 OA
HETATM   54  C14 UNL     1     -19.006   8.469  -1.718  1.00  0.00     0.147 A 
HETATM   55 CL1  UNL     1     -18.173   9.908  -2.289  1.00  0.00    -0.074 Cl
ENDBRANCH  42  45
ENDBRANCH   5  41
TORSDOF 9
ENDMDL
MODEL 3
REMARK VINA RESULT: -8.378492298      2.178      2.823
REMARK  9 active torsions:
REMARK  status: ('A' for Active; 'I' for Inactive)
REMARK    1  A    between atoms: C1_4  and  O1_5 
REMARK    2  A    between atoms: C1_4  and  C18_46 
REMARK    3  A    between atoms: O1_5  and  C2_6 
REMARK    4  A    between atoms: C2_6  and  C3_7 
REMARK    5  A    between atoms: C3_7  and  C4_8 
REMARK    6  A    between atoms: C4_8  and  C5_9 
REMARK       I    between atoms: C5_9  and  N2_11 
REMARK    7  A    between atoms: N3_14  and  C8_15 
REMARK    8  A    between atoms: C10_19  and  N5_20 
REMARK    9  A    between atoms: N6_22  and  C11_24 
ROOT
HETATM    1  C8  UNL     1     -13.851   6.872  -2.508  1.00  0.00     0.722 A 
HETATM    2  N4  UNL     1     -14.980   7.310  -2.057  1.00  0.00    -0.171 N 
ATOM      3  H4  UNL     1     -15.796   7.216  -2.661  1.00  0.00     0.186 HD
HETATM    4  C9  UNL     1     -15.175   7.912  -0.786  1.00  0.00     0.163 A 
HETATM    5  C10 UNL     1     -16.272   8.387  -0.236  1.00  0.00     0.072 A 
HETATM    6  C15 UNL     1     -15.984   8.916   1.101  1.00  0.00     0.083 A 
HETATM    7  C16 UNL     1     -14.520   8.698   1.305  1.00  0.00     0.155 A 
HETATM    8  N9  UNL     1     -14.073   8.066   0.090  1.00  0.00    -0.165 N 
HETATM    9  C17 UNL     1     -12.781   7.597  -0.354  1.00  0.00     0.694 A 
HETATM   10  N10 UNL     1     -11.761   7.726   0.425  1.00  0.00    -0.234 N 
ATOM     11 1H10 UNL     1     -10.849   7.394   0.111  1.00  0.00     0.174 HD
ATOM     12 2H10 UNL     1     -11.807   8.144   1.354  1.00  0.00     0.174 HD
HETATM   13  N11 UNL     1     -12.717   7.018  -1.638  1.00  0.00    -0.020 N 
ATOM     14  H11 UNL     1     -11.813   6.682  -1.969  1.00  0.00     0.203 HD
ENDROOT
BRANCH   1  15
HETATM   15  N3  UNL     1     -13.728   6.281  -3.790  1.00  0.00    -0.053 N 
HETATM   16  C7  UNL     1     -13.505   7.114  -4.932  1.00  0.00     0.201 C 
HETATM   17  C6  UNL     1     -12.367   6.455  -5.725  1.00  0.00     0.185 C 
HETATM   18  N2  UNL     1     -12.789   5.081  -5.916  1.00  0.00    -0.191 N 
HETATM   19  C5  UNL     1     -12.092   4.286  -6.898  1.00  0.00     0.245 C 
HETATM   20  O6  UNL     1     -13.797   4.577  -5.198  1.00  0.00    -0.083 OA
HETATM   21  O2  UNL     1     -11.151   4.793  -7.554  1.00  0.00    -0.271 OA
HETATM   22  O5  UNL     1     -13.815   4.961  -3.950  1.00  0.00    -0.071 OA
BRANCH  19  23
HETATM   23  C4  UNL     1     -12.470   2.891  -7.133  1.00  0.00     0.107 C 
BRANCH  23  24
HETATM   24  C3  UNL     1     -11.299   1.969  -6.952  1.00  0.00     0.036 C 
BRANCH  24  25
HETATM   25  C2  UNL     1     -11.151   1.451  -5.569  1.00  0.00     0.178 C 
BRANCH  25  26
HETATM   26  O1  UNL     1     -10.222   2.269  -4.837  1.00  0.00    -0.335 OA
BRANCH  26  27
HETATM   27  C1  UNL     1     -10.635   3.059  -3.774  1.00  0.00     0.146 C 
HETATM   28  N1  UNL     1     -11.818   2.891  -3.339  1.00  0.00    -0.379 N 
ATOM     29  H12 UNL     1     -12.469   2.210  -3.730  1.00  0.00     0.158 HD
ATOM     30  H11 UNL     1     -12.121   3.473  -2.558  1.00  0.00     0.158 HD
BRANCH  27  31
HETATM   31  C18 UNL     1      -9.691   4.046  -3.208  1.00  0.00     0.020 A 
HETATM   32  C19 UNL     1      -8.334   3.812  -3.157  1.00  0.00     0.061 A 
HETATM   33  C20 UNL     1      -7.480   4.776  -2.611  1.00  0.00     0.153 A 
HETATM   34  F1  UNL     1      -6.144   4.519  -2.572  1.00  0.00    -0.203 F 
HETATM   35  C21 UNL     1      -7.971   5.965  -2.121  1.00  0.00     0.143 A 
HETATM   36  C22 UNL     1      -9.329   6.216  -2.166  1.00  0.00     0.109 A 
HETATM   37  O8  UNL     1      -7.314   7.047  -1.545  1.00  0.00    -0.320 OA
HETATM   38  C23 UNL     1     -10.136   5.247  -2.707  1.00  0.00     0.055 A 
HETATM   39  O7  UNL     1      -9.502   7.474  -1.606  1.00  0.00    -0.323 OA
HETATM   40  C24 UNL     1      -8.233   8.132  -1.493  1.00  0.00     0.352 C 
ENDBRANCH  27  31
ENDBRANCH  26  27
ENDBRANCH  25  26
ENDBRANCH  24  25
ENDBRANCH  23  24
ENDBRANCH  19  23
ENDBRANCH   1  15
BRANCH   5  41
HETATM   41  N5  UNL     1     -17.598   8.416  -0.806  1.00  0.00    -0.299 N 
HETATM   42  N6  UNL     1     -18.342   7.390  -0.799  1.00  0.00    -0.284 N 
ATOM     43  H6  UNL     1     -18.027   6.510  -0.391  1.00  0.00     0.188 HD
ATOM     44  H5  UNL     1     -17.944   9.281  -1.223  1.00  0.00     0.186 HD
BRANCH  42  45
HETATM   45  C11 UNL     1     -19.625   7.515  -1.381  1.00  0.00     0.151 A 
HETATM   46  N7  UNL     1     -19.914   8.553  -2.177  1.00  0.00    -0.292 N 
HETATM   47  C12 UNL     1     -21.149   8.675  -2.740  1.00  0.00     0.328 A 
ATOM     48  H7  UNL     1     -19.202   9.260  -2.363  1.00  0.00     0.172 HD
HETATM   49  O3  UNL     1     -21.386   9.665  -3.484  1.00  0.00    -0.247 OA
HETATM   50  N8  UNL     1     -22.066   7.732  -2.478  1.00  0.00    -0.274 N 
HETATM   51  C13 UNL     1     -21.824   6.666  -1.682  1.00  0.00     0.275 A 
ATOM     52  H8  UNL     1     -22.990   7.823  -2.900  1.00  0.00     0.173 HD
HETATM   53  O4  UNL     1     -22.684   5.793  -1.445  1.00  0.00    -0.266 OA
HETATM   54  C14 UNL     1     -20.568   6.548  -1.114  1.00  0.00     0.147 A 
HETATM   55 CL1  UNL     1     -20.158   5.198  -0.067  1.00  0.00    -0.074 Cl
ENDBRANCH  42  45
ENDBRANCH   5  41
TORSDOF 9
ENDMDL
MODEL 4
REMARK VINA RESULT: -8.331262008      6.114     11.354
REMARK  9 active torsions:
REMARK  status: ('A' for Active; 'I' for Inactive)
REMARK    1  A    between atoms: C1_4  and  O1_5 
REMARK    2  A    between atoms: C1_4  and  C18_46 
REMARK    3  A    between atoms: O1_5  and  C2_6 
REMARK    4  A    between atoms: C2_6  and  C3_7 
REMARK    5  A    between atoms: C3_7  and  C4_8 
REMARK    6  A    between atoms: C4_8  and  C5_9 
REMARK       I    between atoms: C5_9  and  N2_11 
REMARK    7  A    between atoms: N3_14  and  C8_15 
REMARK    8  A    between atoms: C10_19  and  N5_20 
REMARK    9  A    between atoms: N6_22  and  C11_24 
ROOT
HETATM    1  C8  UNL     1     -23.850  11.972   1.080  1.00  0.00     0.722 A 
HETATM    2  N4  UNL     1     -23.063  12.688   1.815  1.00  0.00    -0.171 N 
ATOM      3  H4  UNL     1     -22.082  12.412   1.859  1.00  0.00     0.186 HD
HETATM    4  C9  UNL     1     -23.455  13.827   2.564  1.00  0.00     0.163 A 
HETATM    5  C10 UNL     1     -22.740  14.618   3.336  1.00  0.00     0.072 A 
HETATM    6  C15 UNL     1     -23.584  15.672   3.907  1.00  0.00     0.083 A 
HETATM    7  C16 UNL     1     -24.954  15.417   3.369  1.00  0.00     0.155 A 
HETATM    8  N9  UNL     1     -24.807  14.251   2.536  1.00  0.00    -0.165 N 
HETATM    9  C17 UNL     1     -25.739  13.494   1.734  1.00  0.00     0.694 A 
HETATM   10  N10 UNL     1     -26.975  13.858   1.691  1.00  0.00    -0.234 N 
ATOM     11 1H10 UNL     1     -27.634  13.323   1.124  1.00  0.00     0.174 HD
ATOM     12 2H10 UNL     1     -27.347  14.663   2.195  1.00  0.00     0.174 HD
HETATM   13  N11 UNL     1     -25.226  12.381   1.036  1.00  0.00    -0.020 N 
ATOM     14  H11 UNL     1     -25.870  11.834   0.465  1.00  0.00     0.203 HD
ENDROOT
BRANCH   1  15
HETATM   15  N3  UNL     1     -23.390  10.844   0.356  1.00  0.00    -0.053 N 
HETATM   16  C7  UNL     1     -24.068  10.453  -0.842  1.00  0.00     0.201 C 
HETATM   17  C6  UNL     1     -22.971  10.198  -1.888  1.00  0.00     0.185 C 
HETATM   18  N2  UNL     1     -22.054   9.273  -1.252  1.00  0.00    -0.191 N 
HETATM   19  C5  UNL     1     -21.093   8.590  -2.084  1.00  0.00     0.245 C 
HETATM   20  O6  UNL     1     -22.106   9.066   0.067  1.00  0.00    -0.083 OA
HETATM   21  O2  UNL     1     -21.073   8.808  -3.318  1.00  0.00    -0.271 OA
HETATM   22  O5  UNL     1     -22.338  10.141   0.772  1.00  0.00    -0.071 OA
BRANCH  19  23
HETATM   23  C4  UNL     1     -20.138   7.646  -1.499  1.00  0.00     0.107 C 
BRANCH  23  24
HETATM   24  C3  UNL     1     -18.721   8.080  -1.743  1.00  0.00     0.036 C 
BRANCH  24  25
HETATM   25  C2  UNL     1     -18.211   9.052  -0.745  1.00  0.00     0.178 C 
BRANCH  25  26
HETATM   26  O1  UNL     1     -17.452   8.365   0.266  1.00  0.00    -0.335 OA
BRANCH  26  27
HETATM   27  C1  UNL     1     -16.484   9.020   1.013  1.00  0.00     0.146 C 
HETATM   28  N1  UNL     1     -16.873   9.916   1.827  1.00  0.00    -0.379 N 
ATOM     29  H12 UNL     1     -17.852  10.173   1.954  1.00  0.00     0.158 HD
ATOM     30  H11 UNL     1     -16.162  10.398   2.377  1.00  0.00     0.158 HD
BRANCH  27  31
HETATM   31  C18 UNL     1     -15.065   8.648   0.829  1.00  0.00     0.020 A 
HETATM   32  C19 UNL     1     -14.092   9.012   1.735  1.00  0.00     0.061 A 
HETATM   33  C20 UNL     1     -12.762   8.636   1.517  1.00  0.00     0.153 A 
HETATM   34  F1  UNL     1     -11.821   9.009   2.427  1.00  0.00    -0.203 F 
HETATM   35  C21 UNL     1     -12.402   7.904   0.409  1.00  0.00     0.143 A 
HETATM   36  C22 UNL     1     -13.365   7.531  -0.509  1.00  0.00     0.109 A 
HETATM   37  O8  UNL     1     -11.160   7.430   0.001  1.00  0.00    -0.320 OA
HETATM   38  C23 UNL     1     -14.660   7.917  -0.263  1.00  0.00     0.055 A 
HETATM   39  O7  UNL     1     -12.697   6.817  -1.494  1.00  0.00    -0.323 OA
HETATM   40  C24 UNL     1     -11.379   6.484  -1.039  1.00  0.00     0.352 C 
ENDBRANCH  27  31
ENDBRANCH  26  27
ENDBRANCH  25  26
ENDBRANCH  24  25
ENDBRANCH  23  24
ENDBRANCH  19  23
ENDBRANCH   1  15
BRANCH   5  41
HETATM   41  N5  UNL     1     -21.329  14.521   3.624  1.00  0.00    -0.299 N 
HETATM   42  N6  UNL     1     -20.840  13.499   4.193  1.00  0.00    -0.284 N 
ATOM     43  H6  UNL     1     -21.428  12.712   4.466  1.00  0.00     0.188 HD
ATOM     44  H5  UNL     1     -20.711  15.290   3.364  1.00  0.00     0.186 HD
BRANCH  42  45
HETATM   45  C11 UNL     1     -19.446  13.494   4.433  1.00  0.00     0.151 A 
HETATM   46  N7  UNL     1     -18.960  13.857   5.628  1.00  0.00    -0.292 N 
HETATM   47  C12 UNL     1     -17.617  13.852   5.863  1.00  0.00     0.328 A 
ATOM     48  H7  UNL     1     -19.601  14.139   6.369  1.00  0.00     0.172 HD
HETATM   49  O3  UNL     1     -17.195  14.199   6.999  1.00  0.00    -0.247 OA
HETATM   50  N8  UNL     1     -16.797  13.476   4.870  1.00  0.00    -0.274 N 
HETATM   51  C13 UNL     1     -17.237  13.102   3.647  1.00  0.00     0.275 A 
ATOM     52  H8  UNL     1     -15.792  13.472   5.046  1.00  0.00     0.173 HD
HETATM   53  O4  UNL     1     -16.466  12.753   2.730  1.00  0.00    -0.266 OA
HETATM   54  C14 UNL     1     -18.601  13.109   3.416  1.00  0.00     0.147 A 
HETATM   55 CL1  UNL     1     -19.271  12.638   1.860  1.00  0.00    -0.074 Cl
ENDBRANCH  42  45
ENDBRANCH   5  41
TORSDOF 9
ENDMDL
MODEL 5
REMARK VINA RESULT: -8.297946235      1.931      2.225
REMARK  9 active torsions:
REMARK  status: ('A' for Active; 'I' for Inactive)
REMARK    1  A    between atoms: C1_4  and  O1_5 
REMARK    2  A    between atoms: C1_4  and  C18_46 
REMARK    3  A    between atoms: O1_5  and  C2_6 
REMARK    4  A    between atoms: C2_6  and  C3_7 
REMARK    5  A    between atoms: C3_7  and  C4_8 
REMARK    6  A    between atoms: C4_8  and  C5_9 
REMARK       I    between atoms: C5_9  and  N2_11 
REMARK    7  A    between atoms: N3_14  and  C8_15 
REMARK    8  A    between atoms: C10_19  and  N5_20 
REMARK    9  A    between atoms: N6_22  and  C11_24 
ROOT
HETATM    1  C8  UNL     1     -13.401   7.046  -2.373  1.00  0.00     0.722 A 
HETATM    2  N4  UNL     1     -14.456   7.302  -1.671  1.00  0.00    -0.171 N 
ATOM      3  H4  UNL     1     -15.357   7.018  -2.056  1.00  0.00     0.186 HD
HETATM    4  C9  UNL     1     -14.460   7.947  -0.406  1.00  0.00     0.163 A 
HETATM    5  C10 UNL     1     -15.468   8.252   0.383  1.00  0.00     0.072 A 
HETATM    6  C15 UNL     1     -14.983   8.918   1.596  1.00  0.00     0.083 A 
HETATM    7  C16 UNL     1     -13.498   8.985   1.442  1.00  0.00     0.155 A 
HETATM    8  N9  UNL     1     -13.235   8.361   0.171  1.00  0.00    -0.165 N 
HETATM    9  C17 UNL     1     -12.017   8.105  -0.563  1.00  0.00     0.694 A 
HETATM   10  N10 UNL     1     -10.888   8.472  -0.060  1.00  0.00    -0.234 N 
ATOM     11 1H10 UNL     1     -10.028   8.291  -0.578  1.00  0.00     0.174 HD
ATOM     12 2H10 UNL     1     -10.795   8.940   0.842  1.00  0.00     0.174 HD
HETATM   13  N11 UNL     1     -12.145   7.457  -1.809  1.00  0.00    -0.020 N 
ATOM     14  H11 UNL     1     -11.297   7.269  -2.342  1.00  0.00     0.203 HD
ENDROOT
BRANCH   1  15
HETATM   15  N3  UNL     1     -13.469   6.398  -3.631  1.00  0.00    -0.053 N 
HETATM   16  C7  UNL     1     -13.505   7.183  -4.827  1.00  0.00     0.201 C 
HETATM   17  C6  UNL     1     -12.487   6.548  -5.785  1.00  0.00     0.185 C 
HETATM   18  N2  UNL     1     -12.848   5.145  -5.841  1.00  0.00    -0.191 N 
HETATM   19  C5  UNL     1     -12.287   4.341  -6.899  1.00  0.00     0.245 C 
HETATM   20  O6  UNL     1     -13.679   4.623  -4.934  1.00  0.00    -0.083 OA
HETATM   21  O2  UNL     1     -11.511   4.864  -7.733  1.00  0.00    -0.271 OA
HETATM   22  O5  UNL     1     -13.500   5.069  -3.719  1.00  0.00    -0.071 OA
BRANCH  19  23
HETATM   23  C4  UNL     1     -12.612   2.917  -7.006  1.00  0.00     0.107 C 
BRANCH  23  24
HETATM   24  C3  UNL     1     -11.372   2.069  -6.983  1.00  0.00     0.036 C 
BRANCH  24  25
HETATM   25  C2  UNL     1     -11.073   1.480  -5.653  1.00  0.00     0.178 C 
BRANCH  25  26
HETATM   26  O1  UNL     1     -10.247   2.380  -4.893  1.00  0.00    -0.335 OA
BRANCH  26  27
HETATM   27  C1  UNL     1     -10.726   3.015  -3.757  1.00  0.00     0.146 C 
HETATM   28  N1  UNL     1     -11.905   2.733  -3.375  1.00  0.00    -0.379 N 
ATOM     29  H12 UNL     1     -12.508   2.068  -3.859  1.00  0.00     0.158 HD
ATOM     30  H11 UNL     1     -12.257   3.201  -2.539  1.00  0.00     0.158 HD
BRANCH  27  31
HETATM   31  C18 UNL     1      -9.851   3.979  -3.055  1.00  0.00     0.020 A 
HETATM   32  C19 UNL     1      -8.880   3.571  -2.167  1.00  0.00     0.061 A 
HETATM   33  C20 UNL     1      -8.077   4.520  -1.527  1.00  0.00     0.153 A 
HETATM   34  F1  UNL     1      -7.126   4.090  -0.653  1.00  0.00    -0.203 F 
HETATM   35  C21 UNL     1      -8.237   5.865  -1.769  1.00  0.00     0.143 A 
HETATM   36  C22 UNL     1      -9.205   6.293  -2.657  1.00  0.00     0.109 A 
HETATM   37  O8  UNL     1      -7.559   6.965  -1.252  1.00  0.00    -0.320 OA
HETATM   38  C23 UNL     1      -9.975   5.333  -3.266  1.00  0.00     0.055 A 
HETATM   39  O7  UNL     1      -9.116   7.677  -2.682  1.00  0.00    -0.323 OA
HETATM   40  C24 UNL     1      -7.899   8.095  -2.048  1.00  0.00     0.352 C 
ENDBRANCH  27  31
ENDBRANCH  26  27
ENDBRANCH  25  26
ENDBRANCH  24  25
ENDBRANCH  23  24
ENDBRANCH  19  23
ENDBRANCH   1  15
BRANCH   5  41
HETATM   41  N5  UNL     1     -16.871   7.998   0.152  1.00  0.00    -0.299 N 
HETATM   42  N6  UNL     1     -17.282   7.511  -0.943  1.00  0.00    -0.284 N 
ATOM     43  H6  UNL     1     -16.635   7.282  -1.697  1.00  0.00     0.188 HD
ATOM     44  H5  UNL     1     -17.545   8.216   0.886  1.00  0.00     0.186 HD
BRANCH  42  45
HETATM   45  C11 UNL     1     -18.673   7.297  -1.076  1.00  0.00     0.151 A 
HETATM   46  N7  UNL     1     -19.257   6.236  -0.502  1.00  0.00    -0.292 N 
HETATM   47  C12 UNL     1     -20.598   6.027  -0.627  1.00  0.00     0.328 A 
ATOM     48  H7  UNL     1     -18.692   5.577   0.035  1.00  0.00     0.172 HD
HETATM   49  O3  UNL     1     -21.114   5.019  -0.074  1.00  0.00    -0.247 OA
HETATM   50  N8  UNL     1     -21.317   6.909  -1.338  1.00  0.00    -0.274 N 
HETATM   51  C13 UNL     1     -20.776   7.994  -1.937  1.00  0.00     0.275 A 
ATOM     52  H8  UNL     1     -22.321   6.753  -1.432  1.00  0.00     0.173 HD
HETATM   53  O4  UNL     1     -21.454   8.808  -2.596  1.00  0.00    -0.266 OA
HETATM   54  C14 UNL     1     -19.415   8.199  -1.805  1.00  0.00     0.147 A 
HETATM   55 CL1  UNL     1     -18.619   9.581  -2.545  1.00  0.00    -0.074 Cl
ENDBRANCH  42  45
ENDBRANCH   5  41
TORSDOF 9
ENDMDL
