MODEL 1
REMARK VINA RESULT: -5.983444965      0.000      0.000
REMARK  13 active torsions:
REMARK  status: ('A' for Active; 'I' for Inactive)
REMARK    1  A    between atoms: C2_2  and  O1_3 
REMARK    2  A    between atoms: C2_2  and  C15_32 
REMARK    3  A    between atoms: O1_3  and  C3_4 
REMARK       I    between atoms: C3_4  and  N1_6 
REMARK    4  A    between atoms: N5_19  and  C9_20 
REMARK    5  A    between atoms: C9_20  and  C12_24 
REMARK    6  A    between atoms: C12_24  and  N7_25 
REMARK    7  A    between atoms: C15_32  and  N10_33 
REMARK    8  A    between atoms: C15_32  and  O5_50 
REMARK    9  A    between atoms: N10_33  and  S1_35 
REMARK   10  A    between atoms: S1_35  and  C16_38 
REMARK   11  A    between atoms: C19_46  and  N13_47 
REMARK   12  A    between atoms: O5_50  and  C20_51 
REMARK   13  A    between atoms: C20_51  and  N15_55 
ROOT
HETATM    1  C9  UNL     1      23.155 -24.001  37.424  1.00  0.00     0.142 C 
HETATM    2  C10 UNL     1      22.254 -24.635  38.465  1.00  0.00     0.058 C 
HETATM    3  C11 UNL     1      24.542 -24.401  37.776  1.00  0.00     0.093 C 
HETATM    4  N6  UNL     1      25.635 -24.697  38.045  1.00  0.00    -0.194 NA
ENDROOT
BRANCH   1   5
HETATM    5  N5  UNL     1      23.078 -22.564  37.514  1.00  0.00    -0.303 N 
HETATM    6  C6  UNL     1      23.735 -21.669  36.723  1.00  0.00     0.142 A 
HETATM    7  N3  UNL     1      24.579 -21.758  35.716  1.00  0.00    -0.336 N 
HETATM    8  C7  UNL     1      23.364 -20.431  37.168  1.00  0.00     0.122 A 
HETATM    9  C5  UNL     1      25.087 -20.685  35.111  1.00  0.00     0.183 A 
ATOM     10  H3  UNL     1      24.855 -22.684  35.387  1.00  0.00     0.168 HD
HETATM   11  N2  UNL     1      24.736 -19.462  35.531  1.00  0.00    -0.336 N 
HETATM   12  C4  UNL     1      23.869 -19.280  36.565  1.00  0.00     0.141 A 
ATOM     13  H2  UNL     1      25.129 -18.645  35.064  1.00  0.00     0.168 HD
HETATM   14  N1  UNL     1      23.526 -18.144  36.987  1.00  0.00    -0.286 N 
HETATM   15  C3  UNL     1      23.917 -16.878  36.538  1.00  0.00     0.366 C 
ATOM     16  H1  UNL     1      22.870 -18.148  37.767  1.00  0.00     0.172 HD
HETATM   17  O2  UNL     1      25.083 -16.485  36.857  1.00  0.00    -0.238 OA
HETATM   18  N4  UNL     1      22.504 -20.544  38.201  1.00  0.00    -0.346 N 
HETATM   19  C8  UNL     1      22.345 -21.866  38.392  1.00  0.00     0.187 A 
ATOM     20  H4  UNL     1      22.067 -19.787  38.726  1.00  0.00     0.167 HD
BRANCH  15  21
HETATM   21  O1  UNL     1      23.102 -16.028  35.766  1.00  0.00    -0.294 OA
BRANCH  21  22
HETATM   22  C2  UNL     1      23.666 -15.330  34.683  1.00  0.00     0.179 C 
HETATM   23  C1  UNL     1      22.630 -14.242  34.337  1.00  0.00     0.045 C 
BRANCH  22  24
HETATM   24  C15 UNL     1      23.968 -16.178  33.492  1.00  0.00     0.270 C 
BRANCH  24  25
HETATM   25  N10 UNL     1      22.806 -16.472  32.705  1.00  0.00    -0.284 N 
ATOM     26  H10 UNL     1      22.249 -15.740  32.264  1.00  0.00     0.175 HD
BRANCH  25  27
HETATM   27  S1  UNL     1      22.420 -18.123  32.554  1.00  0.00     0.280 S 
HETATM   28  O3  UNL     1      21.706 -18.411  31.259  1.00  0.00    -0.199 OA
HETATM   29  O4  UNL     1      23.702 -18.945  32.633  1.00  0.00    -0.199 OA
BRANCH  27  30
HETATM   30  C16 UNL     1      21.448 -18.628  33.900  1.00  0.00     0.194 A 
HETATM   31  N11 UNL     1      20.901 -17.703  34.696  1.00  0.00    -0.332 N 
HETATM   32  C17 UNL     1      20.126 -18.053  35.741  1.00  0.00     0.120 A 
ATOM     33  H11 UNL     1      21.073 -16.715  34.508  1.00  0.00     0.168 HD
HETATM   34 CL1  UNL     1      19.457 -16.754  36.724  1.00  0.00    -0.063 Cl
HETATM   35  C18 UNL     1      19.880 -19.370  36.016  1.00  0.00     0.132 A 
HETATM   36  N12 UNL     1      20.428 -20.301  35.218  1.00  0.00    -0.347 N 
HETATM   37  C19 UNL     1      21.199 -19.952  34.176  1.00  0.00     0.139 A 
ATOM     38  H12 UNL     1      20.256 -21.288  35.407  1.00  0.00     0.167 HD
BRANCH  37  39
HETATM   39  N13 UNL     1      21.746 -20.834  33.400  1.00  0.00    -0.383 N 
ATOM     40 2H13 UNL     1      22.229 -21.653  33.767  1.00  0.00     0.157 HD
ATOM     41 1H13 UNL     1      21.684 -20.673  32.396  1.00  0.00     0.157 HD
ENDBRANCH  37  39
ENDBRANCH  27  30
ENDBRANCH  25  27
ENDBRANCH  24  25
BRANCH  24  42
HETATM   42  O5  UNL     1      24.938 -15.572  32.691  1.00  0.00    -0.292 OA
BRANCH  42  43
HETATM   43  C20 UNL     1      25.393 -16.023  31.470  1.00  0.00     0.229 C 
HETATM   44  N14 UNL     1      25.140 -15.336  30.415  1.00  0.00    -0.364 N 
ATOM     45 2H14 UNL     1      24.609 -14.471  30.512  1.00  0.00     0.159 HD
ATOM     46 1H14 UNL     1      25.476 -15.670  29.512  1.00  0.00     0.159 HD
BRANCH  43  47
HETATM   47  N15 UNL     1      26.135 -17.234  31.333  1.00  0.00    -0.264 N 
HETATM   48 CL2  UNL     1      26.990 -17.838  32.710  1.00  0.00     0.014 Cl
ATOM     49  H15 UNL     1      26.161 -17.732  30.443  1.00  0.00     0.184 HD
ENDBRANCH  43  47
ENDBRANCH  42  43
ENDBRANCH  24  42
ENDBRANCH  22  24
ENDBRANCH  21  22
ENDBRANCH  15  21
ENDBRANCH   1   5
BRANCH   1  50
HETATM   50  C12 UNL     1      22.880 -24.519  36.027  1.00  0.00     0.196 C 
BRANCH  50  51
HETATM   51  N7  UNL     1      21.484 -24.767  35.800  1.00  0.00    -0.283 N 
HETATM   52  C13 UNL     1      20.632 -23.776  35.420  1.00  0.00     0.201 A 
HETATM   53  N8  UNL     1      19.399 -24.295  35.298  1.00  0.00    -0.346 N 
HETATM   54  C14 UNL     1      19.461 -25.600  35.594  1.00  0.00     0.198 A 
ATOM     55  H8  UNL     1      18.559 -23.783  35.026  1.00  0.00     0.167 HD
HETATM   56  N9  UNL     1      20.743 -25.847  35.893  1.00  0.00    -0.293 N 
ATOM     57  H9  UNL     1      21.101 -26.763  36.161  1.00  0.00     0.188 HD
ENDBRANCH  50  51
ENDBRANCH   1  50
TORSDOF 13
ENDMDL
MODEL 2
REMARK VINA RESULT: -5.770462439      4.442      8.023
REMARK  13 active torsions:
REMARK  status: ('A' for Active; 'I' for Inactive)
REMARK    1  A    between atoms: C2_2  and  O1_3 
REMARK    2  A    between atoms: C2_2  and  C15_32 
REMARK    3  A    between atoms: O1_3  and  C3_4 
REMARK       I    between atoms: C3_4  and  N1_6 
REMARK    4  A    between atoms: N5_19  and  C9_20 
REMARK    5  A    between atoms: C9_20  and  C12_24 
REMARK    6  A    between atoms: C12_24  and  N7_25 
REMARK    7  A    between atoms: C15_32  and  N10_33 
REMARK    8  A    between atoms: C15_32  and  O5_50 
REMARK    9  A    between atoms: N10_33  and  S1_35 
REMARK   10  A    between atoms: S1_35  and  C16_38 
REMARK   11  A    between atoms: C19_46  and  N13_47 
REMARK   12  A    between atoms: O5_50  and  C20_51 
REMARK   13  A    between atoms: C20_51  and  N15_55 
ROOT
HETATM    1  C9  UNL     1      22.923 -18.324  33.297  1.00  0.00     0.142 C 
HETATM    2  C10 UNL     1      22.389 -18.612  31.908  1.00  0.00     0.058 C 
HETATM    3  C11 UNL     1      24.110 -19.198  33.477  1.00  0.00     0.093 C 
HETATM    4  N6  UNL     1      25.036 -19.885  33.636  1.00  0.00    -0.194 NA
ENDROOT
BRANCH   1   5
HETATM    5  N5  UNL     1      21.946 -18.703  34.289  1.00  0.00    -0.303 N 
HETATM    6  C6  UNL     1      21.993 -18.415  35.620  1.00  0.00     0.142 A 
HETATM    7  N3  UNL     1      22.834 -17.774  36.407  1.00  0.00    -0.336 N 
HETATM    8  C7  UNL     1      20.869 -18.969  36.165  1.00  0.00     0.122 A 
HETATM    9  C5  UNL     1      22.630 -17.644  37.717  1.00  0.00     0.183 A 
ATOM     10  H3  UNL     1      23.673 -17.363  35.997  1.00  0.00     0.168 HD
HETATM   11  N2  UNL     1      21.533 -18.179  38.271  1.00  0.00    -0.336 N 
HETATM   12  C4  UNL     1      20.613 -18.857  37.531  1.00  0.00     0.141 A 
ATOM     13  H2  UNL     1      21.384 -18.075  39.274  1.00  0.00     0.168 HD
HETATM   14  N1  UNL     1      19.578 -19.377  38.025  1.00  0.00    -0.286 N 
HETATM   15  C3  UNL     1      19.142 -19.391  39.353  1.00  0.00     0.366 C 
ATOM     16  H1  UNL     1      18.971 -19.856  37.360  1.00  0.00     0.172 HD
HETATM   17  O2  UNL     1      19.742 -20.177  40.151  1.00  0.00    -0.238 OA
HETATM   18  N4  UNL     1      20.141 -19.582  35.210  1.00  0.00    -0.346 N 
HETATM   19  C8  UNL     1      20.826 -19.403  34.066  1.00  0.00     0.187 A 
ATOM     20  H4  UNL     1      19.257 -20.078  35.329  1.00  0.00     0.167 HD
BRANCH  15  21
HETATM   21  O1  UNL     1      18.090 -18.595  39.847  1.00  0.00    -0.294 OA
BRANCH  21  22
HETATM   22  C2  UNL     1      18.256 -17.201  39.920  1.00  0.00     0.179 C 
HETATM   23  C1  UNL     1      17.710 -16.814  41.309  1.00  0.00     0.045 C 
BRANCH  22  24
HETATM   24  C15 UNL     1      17.561 -16.439  38.841  1.00  0.00     0.270 C 
BRANCH  24  25
HETATM   25  N10 UNL     1      18.430 -16.084  37.757  1.00  0.00    -0.284 N 
ATOM     26  H10 UNL     1      19.362 -16.485  37.653  1.00  0.00     0.175 HD
BRANCH  25  27
HETATM   27  S1  UNL     1      17.802 -14.950  36.654  1.00  0.00     0.280 S 
HETATM   28  O3  UNL     1      16.985 -15.615  35.577  1.00  0.00    -0.199 OA
HETATM   29  O4  UNL     1      16.943 -13.941  37.410  1.00  0.00    -0.199 OA
BRANCH  27  30
HETATM   30  C16 UNL     1      19.096 -14.035  35.946  1.00  0.00     0.194 A 
HETATM   31  N11 UNL     1      20.362 -14.367  36.225  1.00  0.00    -0.332 N 
HETATM   32  C17 UNL     1      21.394 -13.693  35.682  1.00  0.00     0.120 A 
ATOM     33  H11 UNL     1      20.548 -15.144  36.860  1.00  0.00     0.168 HD
HETATM   34 CL1  UNL     1      23.019 -14.214  36.118  1.00  0.00    -0.063 Cl
HETATM   35  C18 UNL     1      21.173 -12.647  34.829  1.00  0.00     0.132 A 
HETATM   36  N12 UNL     1      19.904 -12.312  34.547  1.00  0.00    -0.347 N 
HETATM   37  C19 UNL     1      18.875 -12.984  35.087  1.00  0.00     0.139 A 
ATOM     38  H12 UNL     1      19.719 -11.535  33.913  1.00  0.00     0.167 HD
BRANCH  37  39
HETATM   39  N13 UNL     1      17.642 -12.671  34.837  1.00  0.00    -0.383 N 
ATOM     40 2H13 UNL     1      16.927 -13.378  34.671  1.00  0.00     0.157 HD
ATOM     41 1H13 UNL     1      17.411 -11.679  34.803  1.00  0.00     0.157 HD
ENDBRANCH  37  39
ENDBRANCH  27  30
ENDBRANCH  25  27
ENDBRANCH  24  25
BRANCH  24  42
HETATM   42  O5  UNL     1      16.472 -17.163  38.352  1.00  0.00    -0.292 OA
BRANCH  42  43
HETATM   43  C20 UNL     1      15.159 -16.744  38.313  1.00  0.00     0.229 C 
HETATM   44  N14 UNL     1      14.841 -15.628  38.862  1.00  0.00    -0.364 N 
ATOM     45 2H14 UNL     1      15.574 -15.079  39.311  1.00  0.00     0.159 HD
ATOM     46 1H14 UNL     1      13.870 -15.318  38.833  1.00  0.00     0.159 HD
BRANCH  43  47
HETATM   47  N15 UNL     1      14.132 -17.511  37.685  1.00  0.00    -0.264 N 
HETATM   48 CL2  UNL     1      14.502 -19.121  37.172  1.00  0.00     0.014 Cl
ATOM     49  H15 UNL     1      13.202 -17.118  37.542  1.00  0.00     0.184 HD
ENDBRANCH  43  47
ENDBRANCH  42  43
ENDBRANCH  24  42
ENDBRANCH  22  24
ENDBRANCH  21  22
ENDBRANCH  15  21
ENDBRANCH   1   5
BRANCH   1  50
HETATM   50  C12 UNL     1      23.393 -16.892  33.452  1.00  0.00     0.196 C 
BRANCH  50  51
HETATM   51  N7  UNL     1      24.300 -16.498  32.411  1.00  0.00    -0.283 N 
HETATM   52  C13 UNL     1      23.965 -15.559  31.484  1.00  0.00     0.201 A 
HETATM   53  N8  UNL     1      24.995 -15.407  30.636  1.00  0.00    -0.346 N 
HETATM   54  C14 UNL     1      25.976 -16.237  31.015  1.00  0.00     0.198 A 
ATOM     55  H8  UNL     1      25.026 -14.770  29.840  1.00  0.00     0.167 HD
HETATM   56  N9  UNL     1      25.516 -16.881  32.095  1.00  0.00    -0.293 N 
ATOM     57  H9  UNL     1      26.045 -17.583  32.610  1.00  0.00     0.188 HD
ENDBRANCH  50  51
ENDBRANCH   1  50
TORSDOF 13
ENDMDL
MODEL 3
REMARK VINA RESULT: -5.564262789      1.711      2.150
REMARK  13 active torsions:
REMARK  status: ('A' for Active; 'I' for Inactive)
REMARK    1  A    between atoms: C2_2  and  O1_3 
REMARK    2  A    between atoms: C2_2  and  C15_32 
REMARK    3  A    between atoms: O1_3  and  C3_4 
REMARK       I    between atoms: C3_4  and  N1_6 
REMARK    4  A    between atoms: N5_19  and  C9_20 
REMARK    5  A    between atoms: C9_20  and  C12_24 
REMARK    6  A    between atoms: C12_24  and  N7_25 
REMARK    7  A    between atoms: C15_32  and  N10_33 
REMARK    8  A    between atoms: C15_32  and  O5_50 
REMARK    9  A    between atoms: N10_33  and  S1_35 
REMARK   10  A    between atoms: S1_35  and  C16_38 
REMARK   11  A    between atoms: C19_46  and  N13_47 
REMARK   12  A    between atoms: O5_50  and  C20_51 
REMARK   13  A    between atoms: C20_51  and  N15_55 
ROOT
HETATM    1  C9  UNL     1      22.572 -22.539  36.169  1.00  0.00     0.142 C 
HETATM    2  C10 UNL     1      23.774 -23.408  35.856  1.00  0.00     0.058 C 
HETATM    3  C11 UNL     1      21.794 -22.437  34.908  1.00  0.00     0.093 C 
HETATM    4  N6  UNL     1      21.179 -22.338  33.924  1.00  0.00    -0.194 NA
ENDROOT
BRANCH   1   5
HETATM    5  N5  UNL     1      23.005 -21.210  36.524  1.00  0.00    -0.303 N 
HETATM    6  C6  UNL     1      23.919 -20.452  35.854  1.00  0.00     0.142 A 
HETATM    7  N3  UNL     1      24.659 -20.619  34.778  1.00  0.00    -0.336 N 
HETATM    8  C7  UNL     1      24.013 -19.277  36.547  1.00  0.00     0.122 A 
HETATM    9  C5  UNL     1      25.499 -19.684  34.335  1.00  0.00     0.183 A 
ATOM     10  H3  UNL     1      24.587 -21.497  34.264  1.00  0.00     0.168 HD
HETATM   11  N2  UNL     1      25.607 -18.525  34.999  1.00  0.00    -0.336 N 
HETATM   12  C4  UNL     1      24.878 -18.270  36.120  1.00  0.00     0.141 A 
ATOM     13  H2  UNL     1      26.252 -17.814  34.654  1.00  0.00     0.168 HD
HETATM   14  N1  UNL     1      24.963 -17.194  36.769  1.00  0.00    -0.286 N 
HETATM   15  C3  UNL     1      25.764 -16.074  36.525  1.00  0.00     0.366 C 
ATOM     16  H1  UNL     1      24.361 -17.131  37.590  1.00  0.00     0.172 HD
HETATM   17  O2  UNL     1      26.999 -16.172  36.806  1.00  0.00    -0.238 OA
HETATM   18  N4  UNL     1      23.188 -19.296  37.613  1.00  0.00    -0.346 N 
HETATM   19  C8  UNL     1      22.580 -20.496  37.575  1.00  0.00     0.187 A 
ATOM     20  H4  UNL     1      23.053 -18.557  38.303  1.00  0.00     0.167 HD
BRANCH  15  21
HETATM   21  O1  UNL     1      25.283 -14.861  35.993  1.00  0.00    -0.294 OA
BRANCH  21  22
HETATM   22  C2  UNL     1      25.744 -14.429  34.737  1.00  0.00     0.179 C 
HETATM   23  C1  UNL     1      25.452 -12.916  34.713  1.00  0.00     0.045 C 
BRANCH  22  24
HETATM   24  C15 UNL     1      25.104 -15.116  33.576  1.00  0.00     0.270 C 
BRANCH  24  25
HETATM   25  N10 UNL     1      23.697 -15.327  33.756  1.00  0.00    -0.284 N 
ATOM     26  H10 UNL     1      23.126 -14.717  34.342  1.00  0.00     0.175 HD
BRANCH  25  27
HETATM   27  S1  UNL     1      23.043 -16.662  32.927  1.00  0.00     0.280 S 
HETATM   28  O3  UNL     1      22.360 -16.244  31.651  1.00  0.00    -0.199 OA
HETATM   29  O4  UNL     1      24.160 -17.654  32.618  1.00  0.00    -0.199 OA
BRANCH  27  30
HETATM   30  C16 UNL     1      21.929 -17.508  33.954  1.00  0.00     0.194 A 
HETATM   31  N11 UNL     1      21.497 -16.920  35.076  1.00  0.00    -0.332 N 
HETATM   32  C17 UNL     1      20.619 -17.536  35.891  1.00  0.00     0.120 A 
ATOM     33  H11 UNL     1      21.838 -15.989  35.318  1.00  0.00     0.168 HD
HETATM   34 CL1  UNL     1      20.117 -16.671  37.341  1.00  0.00    -0.063 Cl
HETATM   35  C18 UNL     1      20.146 -18.784  35.591  1.00  0.00     0.132 A 
HETATM   36  N12 UNL     1      20.578 -19.376  34.466  1.00  0.00    -0.347 N 
HETATM   37  C19 UNL     1      21.452 -18.762  33.653  1.00  0.00     0.139 A 
ATOM     38  H12 UNL     1      20.237 -20.306  34.226  1.00  0.00     0.167 HD
BRANCH  37  39
HETATM   39  N13 UNL     1      21.890 -19.319  32.568  1.00  0.00    -0.383 N 
ATOM     40 2H13 UNL     1      21.272 -19.551  31.791  1.00  0.00     0.157 HD
ATOM     41 1H13 UNL     1      22.886 -19.529  32.522  1.00  0.00     0.157 HD
ENDBRANCH  37  39
ENDBRANCH  27  30
ENDBRANCH  25  27
ENDBRANCH  24  25
BRANCH  24  42
HETATM   42  O5  UNL     1      25.324 -14.397  32.399  1.00  0.00    -0.292 OA
BRANCH  42  43
HETATM   43  C20 UNL     1      25.930 -14.867  31.252  1.00  0.00     0.229 C 
HETATM   44  N14 UNL     1      25.244 -15.570  30.425  1.00  0.00    -0.364 N 
ATOM     45 2H14 UNL     1      24.265 -15.759  30.640  1.00  0.00     0.159 HD
ATOM     46 1H14 UNL     1      25.692 -15.917  29.577  1.00  0.00     0.159 HD
BRANCH  43  47
HETATM   47  N15 UNL     1      27.299 -14.603  30.950  1.00  0.00    -0.264 N 
HETATM   48 CL2  UNL     1      28.510 -15.174  32.045  1.00  0.00     0.014 Cl
ATOM     49  H15 UNL     1      27.557 -14.089  30.108  1.00  0.00     0.184 HD
ENDBRANCH  43  47
ENDBRANCH  42  43
ENDBRANCH  24  42
ENDBRANCH  22  24
ENDBRANCH  21  22
ENDBRANCH  15  21
ENDBRANCH   1   5
BRANCH   1  50
HETATM   50  C12 UNL     1      21.662 -23.159  37.208  1.00  0.00     0.196 C 
BRANCH  50  51
HETATM   51  N7  UNL     1      20.939 -24.290  36.698  1.00  0.00    -0.283 N 
HETATM   52  C13 UNL     1      21.246 -25.564  37.067  1.00  0.00     0.201 A 
HETATM   53  N8  UNL     1      20.419 -26.406  36.426  1.00  0.00    -0.346 N 
HETATM   54  C14 UNL     1      19.594 -25.682  35.659  1.00  0.00     0.198 A 
ATOM     55  H8  UNL     1      20.419 -27.423  36.509  1.00  0.00     0.167 HD
HETATM   56  N9  UNL     1      19.941 -24.403  35.852  1.00  0.00    -0.293 N 
ATOM     57  H9  UNL     1      19.486 -23.612  35.398  1.00  0.00     0.188 HD
ENDBRANCH  50  51
ENDBRANCH   1  50
TORSDOF 13
ENDMDL
MODEL 4
REMARK VINA RESULT: -5.549235748      2.772      5.222
REMARK  13 active torsions:
REMARK  status: ('A' for Active; 'I' for Inactive)
REMARK    1  A    between atoms: C2_2  and  O1_3 
REMARK    2  A    between atoms: C2_2  and  C15_32 
REMARK    3  A    between atoms: O1_3  and  C3_4 
REMARK       I    between atoms: C3_4  and  N1_6 
REMARK    4  A    between atoms: N5_19  and  C9_20 
REMARK    5  A    between atoms: C9_20  and  C12_24 
REMARK    6  A    between atoms: C12_24  and  N7_25 
REMARK    7  A    between atoms: C15_32  and  N10_33 
REMARK    8  A    between atoms: C15_32  and  O5_50 
REMARK    9  A    between atoms: N10_33  and  S1_35 
REMARK   10  A    between atoms: S1_35  and  C16_38 
REMARK   11  A    between atoms: C19_46  and  N13_47 
REMARK   12  A    between atoms: O5_50  and  C20_51 
REMARK   13  A    between atoms: C20_51  and  N15_55 
ROOT
HETATM    1  C9  UNL     1      21.720 -23.366  36.233  1.00  0.00     0.142 C 
HETATM    2  C10 UNL     1      20.297 -23.797  35.940  1.00  0.00     0.058 C 
HETATM    3  C11 UNL     1      21.675 -22.627  37.520  1.00  0.00     0.093 C 
HETATM    4  N6  UNL     1      21.653 -22.036  38.523  1.00  0.00    -0.194 NA
ENDROOT
BRANCH   1   5
HETATM    5  N5  UNL     1      22.176 -22.449  35.217  1.00  0.00    -0.303 N 
HETATM    6  C6  UNL     1      21.592 -21.265  34.879  1.00  0.00     0.142 A 
HETATM    7  N3  UNL     1      20.532 -20.597  35.287  1.00  0.00    -0.336 N 
HETATM    8  C7  UNL     1      22.360 -20.740  33.877  1.00  0.00     0.122 A 
HETATM    9  C5  UNL     1      20.178 -19.425  34.760  1.00  0.00     0.183 A 
ATOM     10  H3  UNL     1      19.961 -20.992  36.034  1.00  0.00     0.168 HD
HETATM   11  N2  UNL     1      20.917 -18.893  33.777  1.00  0.00    -0.336 N 
HETATM   12  C4  UNL     1      22.028 -19.516  33.296  1.00  0.00     0.141 A 
ATOM     13  H2  UNL     1      20.640 -17.996  33.379  1.00  0.00     0.168 HD
HETATM   14  N1  UNL     1      22.738 -19.045  32.369  1.00  0.00    -0.286 N 
HETATM   15  C3  UNL     1      22.580 -17.855  31.652  1.00  0.00     0.366 C 
ATOM     16  H1  UNL     1      23.543 -19.612  32.104  1.00  0.00     0.172 HD
HETATM   17  O2  UNL     1      21.665 -17.827  30.770  1.00  0.00    -0.238 OA
HETATM   18  N4  UNL     1      23.389 -21.565  33.597  1.00  0.00    -0.346 N 
HETATM   19  C8  UNL     1      23.252 -22.607  34.436  1.00  0.00     0.187 A 
ATOM     20  H4  UNL     1      24.117 -21.427  32.896  1.00  0.00     0.167 HD
BRANCH  15  21
HETATM   21  O1  UNL     1      23.368 -16.704  31.848  1.00  0.00    -0.294 OA
BRANCH  21  22
HETATM   22  C2  UNL     1      23.798 -16.377  33.147  1.00  0.00     0.179 C 
HETATM   23  C1  UNL     1      22.925 -15.175  33.557  1.00  0.00     0.045 C 
BRANCH  22  24
HETATM   24  C15 UNL     1      25.249 -16.044  33.250  1.00  0.00     0.270 C 
BRANCH  24  25
HETATM   25  N10 UNL     1      26.096 -17.043  32.664  1.00  0.00    -0.284 N 
ATOM     26  H10 UNL     1      26.444 -16.968  31.709  1.00  0.00     0.175 HD
BRANCH  25  27
HETATM   27  S1  UNL     1      26.482 -18.360  33.671  1.00  0.00     0.280 S 
HETATM   28  O3  UNL     1      26.378 -17.994  35.129  1.00  0.00    -0.199 OA
HETATM   29  O4  UNL     1      25.542 -19.520  33.359  1.00  0.00    -0.199 OA
BRANCH  27  30
HETATM   30  C16 UNL     1      28.080 -18.932  33.309  1.00  0.00     0.194 A 
HETATM   31  N11 UNL     1      28.791 -18.326  32.352  1.00  0.00    -0.332 N 
HETATM   32  C17 UNL     1      30.041 -18.729  32.053  1.00  0.00     0.120 A 
ATOM     33  H11 UNL     1      28.380 -17.545  31.841  1.00  0.00     0.168 HD
HETATM   34 CL1  UNL     1      30.887 -17.861  30.775  1.00  0.00    -0.063 Cl
HETATM   35  C18 UNL     1      30.616 -19.774  32.722  1.00  0.00     0.132 A 
HETATM   36  N12 UNL     1      29.904 -20.384  33.683  1.00  0.00    -0.347 N 
HETATM   37  C19 UNL     1      28.659 -19.983  33.982  1.00  0.00     0.139 A 
ATOM     38  H12 UNL     1      30.316 -21.165  34.193  1.00  0.00     0.167 HD
BRANCH  37  39
HETATM   39  N13 UNL     1      27.951 -20.563  34.898  1.00  0.00    -0.383 N 
ATOM     40 2H13 UNL     1      27.274 -20.053  35.466  1.00  0.00     0.157 HD
ATOM     41 1H13 UNL     1      28.100 -21.562  35.041  1.00  0.00     0.157 HD
ENDBRANCH  37  39
ENDBRANCH  27  30
ENDBRANCH  25  27
ENDBRANCH  24  25
BRANCH  24  42
HETATM   42  O5  UNL     1      25.511 -14.804  32.664  1.00  0.00    -0.292 OA
BRANCH  42  43
HETATM   43  C20 UNL     1      25.890 -14.577  31.358  1.00  0.00     0.229 C 
HETATM   44  N14 UNL     1      25.079 -14.877  30.409  1.00  0.00    -0.364 N 
ATOM     45 2H14 UNL     1      24.171 -15.274  30.651  1.00  0.00     0.159 HD
ATOM     46 1H14 UNL     1      25.359 -14.709  29.443  1.00  0.00     0.159 HD
BRANCH  43  47
HETATM   47  N15 UNL     1      27.160 -14.021  31.018  1.00  0.00    -0.264 N 
HETATM   48 CL2  UNL     1      28.584 -14.931  31.386  1.00  0.00     0.014 Cl
ATOM     49  H15 UNL     1      27.226 -13.108  30.569  1.00  0.00     0.184 HD
ENDBRANCH  43  47
ENDBRANCH  42  43
ENDBRANCH  24  42
ENDBRANCH  22  24
ENDBRANCH  21  22
ENDBRANCH  15  21
ENDBRANCH   1   5
BRANCH   1  50
HETATM   50  C12 UNL     1      22.654 -24.544  36.424  1.00  0.00     0.196 C 
BRANCH  50  51
HETATM   51  N7  UNL     1      22.017 -25.645  37.090  1.00  0.00    -0.283 N 
HETATM   52  C13 UNL     1      22.194 -25.877  38.420  1.00  0.00     0.201 A 
HETATM   53  N8  UNL     1      21.494 -26.973  38.760  1.00  0.00    -0.346 N 
HETATM   54  C14 UNL     1      20.878 -27.434  37.663  1.00  0.00     0.198 A 
ATOM     55  H8  UNL     1      21.441 -27.383  39.692  1.00  0.00     0.167 HD
HETATM   56  N9  UNL     1      21.221 -26.601  36.672  1.00  0.00    -0.293 N 
ATOM     57  H9  UNL     1      20.901 -26.697  35.709  1.00  0.00     0.188 HD
ENDBRANCH  50  51
ENDBRANCH   1  50
TORSDOF 13
ENDMDL
MODEL 5
REMARK VINA RESULT: -5.529613810      3.376      8.119
REMARK  13 active torsions:
REMARK  status: ('A' for Active; 'I' for Inactive)
REMARK    1  A    between atoms: C2_2  and  O1_3 
REMARK    2  A    between atoms: C2_2  and  C15_32 
REMARK    3  A    between atoms: O1_3  and  C3_4 
REMARK       I    between atoms: C3_4  and  N1_6 
REMARK    4  A    between atoms: N5_19  and  C9_20 
REMARK    5  A    between atoms: C9_20  and  C12_24 
REMARK    6  A    between atoms: C12_24  and  N7_25 
REMARK    7  A    between atoms: C15_32  and  N10_33 
REMARK    8  A    between atoms: C15_32  and  O5_50 
REMARK    9  A    between atoms: N10_33  and  S1_35 
REMARK   10  A    between atoms: S1_35  and  C16_38 
REMARK   11  A    between atoms: C19_46  and  N13_47 
REMARK   12  A    between atoms: O5_50  and  C20_51 
REMARK   13  A    between atoms: C20_51  and  N15_55 
ROOT
HETATM    1  C9  UNL     1      22.750 -16.743  33.704  1.00  0.00     0.142 C 
HETATM    2  C10 UNL     1      22.108 -15.474  34.227  1.00  0.00     0.058 C 
HETATM    3  C11 UNL     1      22.544 -16.737  32.233  1.00  0.00     0.093 C 
HETATM    4  N6  UNL     1      22.382 -16.752  31.080  1.00  0.00    -0.194 NA
ENDROOT
BRANCH   1   5
HETATM    5  N5  UNL     1      22.067 -17.897  34.236  1.00  0.00    -0.303 N 
HETATM    6  C6  UNL     1      22.355 -19.201  33.968  1.00  0.00     0.142 A 
HETATM    7  N3  UNL     1      23.242 -19.826  33.219  1.00  0.00    -0.336 N 
HETATM    8  C7  UNL     1      21.458 -19.941  34.686  1.00  0.00     0.122 A 
HETATM    9  C5  UNL     1      23.298 -21.154  33.135  1.00  0.00     0.183 A 
ATOM     10  H3  UNL     1      23.910 -19.271  32.684  1.00  0.00     0.168 HD
HETATM   11  N2  UNL     1      22.428 -21.898  33.831  1.00  0.00    -0.336 N 
HETATM   12  C4  UNL     1      21.480 -21.334  34.629  1.00  0.00     0.141 A 
ATOM     13  H2  UNL     1      22.477 -22.914  33.761  1.00  0.00     0.168 HD
HETATM   14  N1  UNL     1      20.643 -22.006  35.288  1.00  0.00    -0.286 N 
HETATM   15  C3  UNL     1      20.486 -23.393  35.365  1.00  0.00     0.366 C 
ATOM     16  H1  UNL     1      19.987 -21.460  35.847  1.00  0.00     0.172 HD
HETATM   17  O2  UNL     1      19.947 -23.971  34.369  1.00  0.00    -0.238 OA
HETATM   18  N4  UNL     1      20.634 -19.130  35.381  1.00  0.00    -0.346 N 
HETATM   19  C8  UNL     1      21.031 -17.878  35.086  1.00  0.00     0.187 A 
ATOM     20  H4  UNL     1      19.872 -19.406  35.999  1.00  0.00     0.167 HD
BRANCH  15  21
HETATM   21  O1  UNL     1      20.884 -24.173  36.468  1.00  0.00    -0.294 OA
BRANCH  21  22
HETATM   22  C2  UNL     1      21.621 -25.350  36.250  1.00  0.00     0.179 C 
HETATM   23  C1  UNL     1      21.277 -26.255  37.450  1.00  0.00     0.045 C 
BRANCH  22  24
HETATM   24  C15 UNL     1      23.095 -25.144  36.140  1.00  0.00     0.270 C 
BRANCH  24  25
HETATM   25  N10 UNL     1      23.582 -24.114  37.011  1.00  0.00    -0.284 N 
ATOM     26  H10 UNL     1      23.187 -23.952  37.937  1.00  0.00     0.175 HD
BRANCH  25  27
HETATM   27  S1  UNL     1      24.865 -23.180  36.395  1.00  0.00     0.280 S 
HETATM   28  O3  UNL     1      26.188 -23.594  36.986  1.00  0.00    -0.199 OA
HETATM   29  O4  UNL     1      24.906 -23.325  34.877  1.00  0.00    -0.199 OA
BRANCH  27  30
HETATM   30  C16 UNL     1      24.572 -21.497  36.702  1.00  0.00     0.194 A 
HETATM   31  N11 UNL     1      23.542 -21.143  37.479  1.00  0.00    -0.332 N 
HETATM   32  C17 UNL     1      23.290 -19.849  37.756  1.00  0.00     0.120 A 
ATOM     33  H11 UNL     1      22.936 -21.866  37.869  1.00  0.00     0.168 HD
HETATM   34 CL1  UNL     1      21.908 -19.496  38.789  1.00  0.00    -0.063 Cl
HETATM   35  C18 UNL     1      24.085 -18.859  37.246  1.00  0.00     0.132 A 
HETATM   36  N12 UNL     1      25.119 -19.212  36.466  1.00  0.00    -0.347 N 
HETATM   37  C19 UNL     1      25.371 -20.501  36.190  1.00  0.00     0.139 A 
ATOM     38  H12 UNL     1      25.723 -18.489  36.076  1.00  0.00     0.167 HD
BRANCH  37  39
HETATM   39  N13 UNL     1      26.357 -20.863  35.432  1.00  0.00    -0.383 N 
ATOM     40 2H13 UNL     1      26.700 -21.823  35.410  1.00  0.00     0.157 HD
ATOM     41 1H13 UNL     1      26.790 -20.143  34.856  1.00  0.00     0.157 HD
ENDBRANCH  37  39
ENDBRANCH  27  30
ENDBRANCH  25  27
ENDBRANCH  24  25
BRANCH  24  42
HETATM   42  O5  UNL     1      23.777 -26.335  36.395  1.00  0.00    -0.292 OA
BRANCH  42  43
HETATM   43  C20 UNL     1      24.715 -26.935  35.580  1.00  0.00     0.229 C 
HETATM   44  N14 UNL     1      24.516 -28.137  35.175  1.00  0.00    -0.364 N 
ATOM     45 2H14 UNL     1      23.664 -28.615  35.469  1.00  0.00     0.159 HD
ATOM     46 1H14 UNL     1      25.209 -28.580  34.573  1.00  0.00     0.159 HD
BRANCH  43  47
HETATM   47  N15 UNL     1      25.907 -26.266  35.170  1.00  0.00    -0.264 N 
HETATM   48 CL2  UNL     1      26.971 -27.075  34.072  1.00  0.00     0.014 Cl
ATOM     49  H15 UNL     1      26.126 -25.332  35.516  1.00  0.00     0.184 HD
ENDBRANCH  43  47
ENDBRANCH  42  43
ENDBRANCH  24  42
ENDBRANCH  22  24
ENDBRANCH  21  22
ENDBRANCH  15  21
ENDBRANCH   1   5
BRANCH   1  50
HETATM   50  C12 UNL     1      24.245 -16.780  33.948  1.00  0.00     0.196 C 
BRANCH  50  51
HETATM   51  N7  UNL     1      25.000 -16.483  32.764  1.00  0.00    -0.283 N 
HETATM   52  C13 UNL     1      25.781 -17.419  32.158  1.00  0.00     0.201 A 
HETATM   53  N8  UNL     1      26.374 -16.857  31.091  1.00  0.00    -0.346 N 
HETATM   54  C14 UNL     1      25.977 -15.580  31.015  1.00  0.00     0.198 A 
ATOM     55  H8  UNL     1      27.015 -17.322  30.450  1.00  0.00     0.167 HD
HETATM   56  N9  UNL     1      25.144 -15.392  32.047  1.00  0.00    -0.293 N 
ATOM     57  H9  UNL     1      24.678 -14.509  32.252  1.00  0.00     0.188 HD
ENDBRANCH  50  51
ENDBRANCH   1  50
TORSDOF 13
ENDMDL
