MODEL 1
REMARK VINA RESULT: -6.879441934      0.000      0.000
REMARK  12 active torsions:
REMARK  status: ('A' for Active; 'I' for Inactive)
REMARK    1  A    between atoms: S1_2  and  N1_5 
REMARK    2  A    between atoms: N1_5  and  C2_7 
REMARK    3  A    between atoms: C2_7  and  C3_8 
REMARK    4  A    between atoms: C3_8  and  O3_9 
REMARK    5  A    between atoms: O3_9  and  C4_10 
REMARK    6  A    between atoms: C4_10  and  C5_12 
REMARK    7  A    between atoms: C13_25  and  N4_26 
REMARK       I    between atoms: N5_28  and  C14_30 
REMARK       I    between atoms: C14_30  and  N6_32 
REMARK    8  A    between atoms: N6_32  and  O7_34 
REMARK    9  A    between atoms: O7_34  and  C15_35 
REMARK   10  A    between atoms: C16_38  and  N8_39 
REMARK   11  A    between atoms: C18_44  and  N9_45 
REMARK   12  A    between atoms: N10_48  and  N11_50 
ROOT
HETATM    1  C5  UNL     1      21.465 -20.845  34.353  1.00  0.00     0.141 A 
HETATM    2  N2  UNL     1      20.807 -21.999  34.279  1.00  0.00    -0.348 N 
ATOM      3  H2  UNL     1      20.174 -22.142  33.492  1.00  0.00     0.166 HD
HETATM    4  C6  UNL     1      20.930 -22.997  35.192  1.00  0.00     0.049 A 
HETATM    5  C7  UNL     1      20.191 -24.148  35.002  1.00  0.00     0.058 A 
HETATM    6  C8  UNL     1      20.292 -25.183  35.913  1.00  0.00     0.070 A 
HETATM    7  N3  UNL     1      19.578 -26.395  35.801  1.00  0.00    -0.101 NA
HETATM    8  C9  UNL     1      21.143 -25.026  37.000  1.00  0.00     0.059 A 
HETATM    9 CL1  UNL     1      21.293 -26.320  38.171  1.00  0.00    -0.082 Cl
HETATM   10  C10 UNL     1      21.873 -23.868  37.171  1.00  0.00     0.043 A 
HETATM   11  C11 UNL     1      21.775 -22.834  36.266  1.00  0.00     0.045 A 
HETATM   12  C12 UNL     1      22.477 -21.652  36.381  1.00  0.00     0.214 A 
HETATM   13  O5  UNL     1      23.232 -21.553  37.375  1.00  0.00    -0.285 OA
HETATM   14  C13 UNL     1      22.339 -20.649  35.442  1.00  0.00     0.132 A 
ENDROOT
BRANCH  14  15
HETATM   15  N4  UNL     1      23.007 -19.438  35.487  1.00  0.00    -0.291 N 
HETATM   16  N5  UNL     1      22.880 -18.291  35.683  1.00  0.00    -0.249 N 
HETATM   17  C14 UNL     1      21.941 -17.336  36.016  1.00  0.00     0.359 C 
ATOM     18  H5  UNL     1      23.785 -17.835  35.565  1.00  0.00     0.192 HD
HETATM   19  O6  UNL     1      21.214 -16.738  35.141  1.00  0.00    -0.243 OA
HETATM   20  N6  UNL     1      21.750 -16.978  37.392  1.00  0.00    -0.207 N 
ATOM     21  H6  UNL     1      22.306 -17.426  38.122  1.00  0.00     0.200 HD
ATOM     22  H4  UNL     1      23.987 -19.612  35.263  1.00  0.00     0.187 HD
BRANCH  20  23
HETATM   23  O7  UNL     1      20.827 -16.038  37.716  1.00  0.00    -0.213 OA
BRANCH  23  24
HETATM   24  C15 UNL     1      19.619 -16.322  38.333  1.00  0.00     0.208 A 
HETATM   25  N7  UNL     1      19.429 -16.693  39.619  1.00  0.00    -0.311 N 
HETATM   26  C16 UNL     1      18.124 -16.886  39.874  1.00  0.00     0.217 A 
ATOM     27  H7  UNL     1      20.176 -16.811  40.304  1.00  0.00     0.170 HD
HETATM   28  C17 UNL     1      17.413 -16.635  38.719  1.00  0.00     0.203 A 
HETATM   29  F1  UNL     1      16.054 -16.721  38.567  1.00  0.00    -0.199 F 
HETATM   30  C18 UNL     1      18.348 -16.288  37.777  1.00  0.00     0.198 A 
BRANCH  26  31
HETATM   31  N8  UNL     1      17.520 -17.276  41.087  1.00  0.00    -0.095 N 
HETATM   32  O8  UNL     1      17.939 -18.304  41.653  1.00  0.00    -0.530 OA
HETATM   33  O9  UNL     1      16.495 -16.581  41.674  1.00  0.00    -0.530 OA
ENDBRANCH  26  31
BRANCH  30  34
HETATM   34  N9  UNL     1      18.070 -15.943  36.425  1.00  0.00    -0.108 N 
HETATM   35  O10 UNL     1      18.272 -14.832  35.942  1.00  0.00    -0.532 OA
HETATM   36  O11 UNL     1      17.540 -16.918  35.599  1.00  0.00    -0.532 OA
ENDBRANCH  30  34
ENDBRANCH  23  24
ENDBRANCH  20  23
ENDBRANCH  14  15
BRANCH   1  37
HETATM   37  C4  UNL     1      21.286 -19.812  33.337  1.00  0.00     0.312 C 
HETATM   38  O4  UNL     1      20.172 -19.293  33.089  1.00  0.00    -0.258 OA
BRANCH  37  39
HETATM   39  O3  UNL     1      22.380 -19.393  32.625  1.00  0.00    -0.309 OA
BRANCH  39  40
HETATM   40  C3  UNL     1      22.506 -18.220  31.889  1.00  0.00     0.257 C 
BRANCH  40  41
HETATM   41  C2  UNL     1      23.560 -17.292  32.353  1.00  0.00     0.129 C 
HETATM   42  N10 UNL     1      23.310 -16.152  32.919  1.00  0.00    -0.293 N 
ATOM     43  H10 UNL     1      22.340 -15.871  33.063  1.00  0.00     0.187 HD
BRANCH  41  44
HETATM   44  N1  UNL     1      24.920 -17.654  32.169  1.00  0.00    -0.271 N 
ATOM     45  H1  UNL     1      25.360 -17.472  31.267  1.00  0.00     0.180 HD
BRANCH  44  46
HETATM   46  S1  UNL     1      25.846 -18.386  33.412  1.00  0.00     0.228 S 
HETATM   47  C1  UNL     1      27.579 -18.380  33.117  1.00  0.00     0.186 C 
HETATM   48  O1  UNL     1      25.573 -17.725  34.740  1.00  0.00    -0.206 OA
HETATM   49  O2  UNL     1      25.385 -19.820  33.567  1.00  0.00    -0.206 OA
ENDBRANCH  44  46
ENDBRANCH  41  44
BRANCH  42  50
HETATM   50  N11 UNL     1      24.330 -15.301  33.335  1.00  0.00    -0.344 N 
ATOM     51 2H11 UNL     1      24.093 -14.544  33.976  1.00  0.00     0.176 HD
ATOM     52 1H11 UNL     1      25.291 -15.421  33.015  1.00  0.00     0.176 HD
ENDBRANCH  42  50
ENDBRANCH  40  41
ENDBRANCH  39  40
ENDBRANCH  37  39
ENDBRANCH   1  37
TORSDOF 12
ENDMDL
MODEL 2
REMARK VINA RESULT: -6.850041889      3.744      7.497
REMARK  12 active torsions:
REMARK  status: ('A' for Active; 'I' for Inactive)
REMARK    1  A    between atoms: S1_2  and  N1_5 
REMARK    2  A    between atoms: N1_5  and  C2_7 
REMARK    3  A    between atoms: C2_7  and  C3_8 
REMARK    4  A    between atoms: C3_8  and  O3_9 
REMARK    5  A    between atoms: O3_9  and  C4_10 
REMARK    6  A    between atoms: C4_10  and  C5_12 
REMARK    7  A    between atoms: C13_25  and  N4_26 
REMARK       I    between atoms: N5_28  and  C14_30 
REMARK       I    between atoms: C14_30  and  N6_32 
REMARK    8  A    between atoms: N6_32  and  O7_34 
REMARK    9  A    between atoms: O7_34  and  C15_35 
REMARK   10  A    between atoms: C16_38  and  N8_39 
REMARK   11  A    between atoms: C18_44  and  N9_45 
REMARK   12  A    between atoms: N10_48  and  N11_50 
ROOT
HETATM    1  C5  UNL     1      20.679 -20.379  37.332  1.00  0.00     0.141 A 
HETATM    2  N2  UNL     1      20.110 -19.791  38.382  1.00  0.00    -0.348 N 
ATOM      3  H2  UNL     1      20.388 -20.097  39.314  1.00  0.00     0.166 HD
HETATM    4  C6  UNL     1      19.180 -18.806  38.281  1.00  0.00     0.049 A 
HETATM    5  C7  UNL     1      18.664 -18.276  39.448  1.00  0.00     0.058 A 
HETATM    6  C8  UNL     1      17.715 -17.273  39.381  1.00  0.00     0.070 A 
HETATM    7  N3  UNL     1      17.134 -16.672  40.517  1.00  0.00    -0.101 NA
HETATM    8  C9  UNL     1      17.309 -16.829  38.129  1.00  0.00     0.059 A 
HETATM    9 CL1  UNL     1      16.109 -15.560  38.013  1.00  0.00    -0.082 Cl
HETATM   10  C10 UNL     1      17.838 -17.372  36.976  1.00  0.00     0.043 A 
HETATM   11  C11 UNL     1      18.783 -18.372  37.037  1.00  0.00     0.045 A 
HETATM   12  C12 UNL     1      19.348 -18.955  35.922  1.00  0.00     0.214 A 
HETATM   13  O5  UNL     1      18.954 -18.525  34.815  1.00  0.00    -0.285 OA
HETATM   14  C13 UNL     1      20.293 -19.954  36.045  1.00  0.00     0.132 A 
ENDROOT
BRANCH  14  15
HETATM   15  N4  UNL     1      20.905 -20.587  34.977  1.00  0.00    -0.291 N 
HETATM   16  N5  UNL     1      21.412 -20.415  33.936  1.00  0.00    -0.249 N 
HETATM   17  C14 UNL     1      21.757 -19.424  33.038  1.00  0.00     0.359 C 
ATOM     18  H5  UNL     1      21.703 -21.317  33.558  1.00  0.00     0.192 HD
HETATM   19  O6  UNL     1      20.953 -18.993  32.134  1.00  0.00    -0.243 OA
HETATM   20  N6  UNL     1      23.065 -18.838  33.096  1.00  0.00    -0.207 N 
ATOM     21  H6  UNL     1      23.738 -19.150  33.797  1.00  0.00     0.200 HD
ATOM     22  H4  UNL     1      20.920 -21.588  35.172  1.00  0.00     0.187 HD
BRANCH  20  23
HETATM   23  O7  UNL     1      23.401 -17.866  32.211  1.00  0.00    -0.213 OA
BRANCH  23  24
HETATM   24  C15 UNL     1      23.482 -16.521  32.534  1.00  0.00     0.208 A 
HETATM   25  N7  UNL     1      22.555 -15.783  33.187  1.00  0.00    -0.311 N 
HETATM   26  C16 UNL     1      22.968 -14.513  33.328  1.00  0.00     0.217 A 
ATOM     27  H7  UNL     1      21.663 -16.144  33.527  1.00  0.00     0.170 HD
HETATM   28  C17 UNL     1      24.214 -14.393  32.751  1.00  0.00     0.203 A 
HETATM   29  F1  UNL     1      24.974 -13.254  32.687  1.00  0.00    -0.199 F 
HETATM   30  C18 UNL     1      24.519 -15.639  32.265  1.00  0.00     0.198 A 
BRANCH  26  31
HETATM   31  N8  UNL     1      22.294 -13.441  33.948  1.00  0.00    -0.095 N 
HETATM   32  O8  UNL     1      22.839 -12.880  34.918  1.00  0.00    -0.530 OA
HETATM   33  O9  UNL     1      21.069 -12.985  33.536  1.00  0.00    -0.530 OA
ENDBRANCH  26  31
BRANCH  30  34
HETATM   34  N9  UNL     1      25.717 -15.990  31.583  1.00  0.00    -0.108 N 
HETATM   35  O10 UNL     1      25.824 -16.041  30.361  1.00  0.00    -0.532 OA
HETATM   36  O11 UNL     1      26.834 -16.295  32.342  1.00  0.00    -0.532 OA
ENDBRANCH  30  34
ENDBRANCH  23  24
ENDBRANCH  20  23
ENDBRANCH  14  15
BRANCH   1  37
HETATM   37  C4  UNL     1      21.672 -21.434  37.510  1.00  0.00     0.312 C 
HETATM   38  O4  UNL     1      22.900 -21.198  37.608  1.00  0.00    -0.258 OA
BRANCH  37  39
HETATM   39  O3  UNL     1      21.246 -22.735  37.573  1.00  0.00    -0.309 OA
BRANCH  39  40
HETATM   40  C3  UNL     1      21.166 -23.647  36.525  1.00  0.00     0.257 C 
BRANCH  40  41
HETATM   41  C2  UNL     1      22.375 -24.472  36.312  1.00  0.00     0.129 C 
HETATM   42  N10 UNL     1      22.335 -25.718  35.954  1.00  0.00    -0.293 N 
ATOM     43  H10 UNL     1      21.430 -26.162  35.801  1.00  0.00     0.187 HD
BRANCH  41  44
HETATM   44  N1  UNL     1      23.650 -23.884  36.516  1.00  0.00    -0.271 N 
ATOM     45  H1  UNL     1      24.060 -23.905  37.450  1.00  0.00     0.180 HD
BRANCH  44  46
HETATM   46  S1  UNL     1      24.525 -23.138  35.243  1.00  0.00     0.228 S 
HETATM   47  C1  UNL     1      25.757 -22.007  35.784  1.00  0.00     0.186 C 
HETATM   48  O1  UNL     1      25.167 -24.176  34.358  1.00  0.00    -0.206 OA
HETATM   49  O2  UNL     1      23.541 -22.399  34.360  1.00  0.00    -0.206 OA
ENDBRANCH  44  46
ENDBRANCH  41  44
BRANCH  42  50
HETATM   50  N11 UNL     1      23.496 -26.465  35.772  1.00  0.00    -0.344 N 
ATOM     51 2H11 UNL     1      24.326 -25.986  35.422  1.00  0.00     0.176 HD
ATOM     52 1H11 UNL     1      23.528 -27.463  35.979  1.00  0.00     0.176 HD
ENDBRANCH  42  50
ENDBRANCH  40  41
ENDBRANCH  39  40
ENDBRANCH  37  39
ENDBRANCH   1  37
TORSDOF 12
ENDMDL
MODEL 3
REMARK VINA RESULT: -6.788480552      4.023      8.387
REMARK  12 active torsions:
REMARK  status: ('A' for Active; 'I' for Inactive)
REMARK    1  A    between atoms: S1_2  and  N1_5 
REMARK    2  A    between atoms: N1_5  and  C2_7 
REMARK    3  A    between atoms: C2_7  and  C3_8 
REMARK    4  A    between atoms: C3_8  and  O3_9 
REMARK    5  A    between atoms: O3_9  and  C4_10 
REMARK    6  A    between atoms: C4_10  and  C5_12 
REMARK    7  A    between atoms: C13_25  and  N4_26 
REMARK       I    between atoms: N5_28  and  C14_30 
REMARK       I    between atoms: C14_30  and  N6_32 
REMARK    8  A    between atoms: N6_32  and  O7_34 
REMARK    9  A    between atoms: O7_34  and  C15_35 
REMARK   10  A    between atoms: C16_38  and  N8_39 
REMARK   11  A    between atoms: C18_44  and  N9_45 
REMARK   12  A    between atoms: N10_48  and  N11_50 
ROOT
HETATM    1  C5  UNL     1      21.036 -20.916  35.105  1.00  0.00     0.141 A 
HETATM    2  N2  UNL     1      20.354 -20.735  36.233  1.00  0.00    -0.348 N 
ATOM      3  H2  UNL     1      20.136 -21.555  36.799  1.00  0.00     0.166 HD
HETATM    4  C6  UNL     1      19.932 -19.521  36.673  1.00  0.00     0.049 A 
HETATM    5  C7  UNL     1      19.231 -19.467  37.862  1.00  0.00     0.058 A 
HETATM    6  C8  UNL     1      18.787 -18.248  38.338  1.00  0.00     0.070 A 
HETATM    7  N3  UNL     1      18.067 -18.095  39.541  1.00  0.00    -0.101 NA
HETATM    8  C9  UNL     1      19.064 -17.107  37.595  1.00  0.00     0.059 A 
HETATM    9 CL1  UNL     1      18.514 -15.548  38.172  1.00  0.00    -0.082 Cl
HETATM   10  C10 UNL     1      19.766 -17.184  36.409  1.00  0.00     0.043 A 
HETATM   11  C11 UNL     1      20.210 -18.396  35.931  1.00  0.00     0.045 A 
HETATM   12  C12 UNL     1      20.915 -18.539  34.754  1.00  0.00     0.214 A 
HETATM   13  O5  UNL     1      21.143 -17.485  34.116  1.00  0.00    -0.285 OA
HETATM   14  C13 UNL     1      21.336 -19.781  34.324  1.00  0.00     0.132 A 
ENDROOT
BRANCH  14  15
HETATM   15  N4  UNL     1      22.047 -20.005  33.157  1.00  0.00    -0.291 N 
HETATM   16  N5  UNL     1      22.492 -19.493  32.204  1.00  0.00    -0.249 N 
HETATM   17  C14 UNL     1      22.612 -18.269  31.576  1.00  0.00     0.359 C 
ATOM     18  H5  UNL     1      22.954 -20.201  31.634  1.00  0.00     0.192 HD
HETATM   19  O6  UNL     1      21.722 -17.807  30.773  1.00  0.00    -0.243 OA
HETATM   20  N6  UNL     1      23.774 -17.461  31.813  1.00  0.00    -0.207 N 
ATOM     21  H6  UNL     1      24.508 -17.788  32.442  1.00  0.00     0.200 HD
ATOM     22  H4  UNL     1      22.269 -21.000  33.111  1.00  0.00     0.187 HD
BRANCH  20  23
HETATM   23  O7  UNL     1      23.890 -16.260  31.193  1.00  0.00    -0.213 OA
BRANCH  23  24
HETATM   24  C15 UNL     1      24.857 -15.318  31.506  1.00  0.00     0.208 A 
HETATM   25  N7  UNL     1      26.024 -15.103  30.857  1.00  0.00    -0.311 N 
HETATM   26  C16 UNL     1      26.717 -14.109  31.437  1.00  0.00     0.217 A 
ATOM     27  H7  UNL     1      26.336 -15.626  30.038  1.00  0.00     0.170 HD
HETATM   28  C17 UNL     1      25.992 -13.640  32.511  1.00  0.00     0.203 A 
HETATM   29  F1  UNL     1      26.357 -12.628  33.359  1.00  0.00    -0.199 F 
HETATM   30  C18 UNL     1      24.846 -14.394  32.542  1.00  0.00     0.198 A 
BRANCH  26  31
HETATM   31  N8  UNL     1      27.973 -13.588  31.062  1.00  0.00    -0.095 N 
HETATM   32  O8  UNL     1      28.115 -12.350  31.031  1.00  0.00    -0.530 OA
HETATM   33  O9  UNL     1      29.045 -14.374  30.730  1.00  0.00    -0.530 OA
ENDBRANCH  26  31
BRANCH  30  34
HETATM   34  N9  UNL     1      23.794 -14.262  33.491  1.00  0.00    -0.108 N 
HETATM   35  O10 UNL     1      23.108 -13.253  33.622  1.00  0.00    -0.532 OA
HETATM   36  O11 UNL     1      23.525 -15.337  34.319  1.00  0.00    -0.532 OA
ENDBRANCH  30  34
ENDBRANCH  23  24
ENDBRANCH  20  23
ENDBRANCH  14  15
BRANCH   1  37
HETATM   37  C4  UNL     1      21.459 -22.249  34.688  1.00  0.00     0.312 C 
HETATM   38  O4  UNL     1      22.665 -22.570  34.566  1.00  0.00    -0.258 OA
BRANCH  37  39
HETATM   39  O3  UNL     1      20.498 -23.189  34.419  1.00  0.00    -0.309 OA
BRANCH  39  40
HETATM   40  C3  UNL     1      19.789 -23.955  35.338  1.00  0.00     0.257 C 
BRANCH  40  41
HETATM   41  C2  UNL     1      20.558 -25.042  35.983  1.00  0.00     0.129 C 
HETATM   42  N10 UNL     1      20.046 -26.191  36.295  1.00  0.00    -0.293 N 
ATOM     43  H10 UNL     1      19.064 -26.372  36.084  1.00  0.00     0.187 HD
BRANCH  41  44
HETATM   44  N1  UNL     1      21.927 -24.823  36.288  1.00  0.00    -0.271 N 
ATOM     45  H1  UNL     1      22.631 -25.040  35.583  1.00  0.00     0.180 HD
BRANCH  44  46
HETATM   46  S1  UNL     1      22.436 -24.204  37.805  1.00  0.00     0.228 S 
HETATM   47  C1  UNL     1      24.165 -23.911  37.918  1.00  0.00     0.186 C 
HETATM   48  O1  UNL     1      21.700 -22.929  38.135  1.00  0.00    -0.206 OA
HETATM   49  O2  UNL     1      22.039 -25.195  38.880  1.00  0.00    -0.206 OA
ENDBRANCH  44  46
ENDBRANCH  41  44
BRANCH  42  50
HETATM   50  N11 UNL     1      20.801 -27.186  36.910  1.00  0.00    -0.344 N 
ATOM     51 2H11 UNL     1      21.381 -26.926  37.708  1.00  0.00     0.176 HD
ATOM     52 1H11 UNL     1      20.783 -28.152  36.583  1.00  0.00     0.176 HD
ENDBRANCH  42  50
ENDBRANCH  40  41
ENDBRANCH  39  40
ENDBRANCH  37  39
ENDBRANCH   1  37
TORSDOF 12
ENDMDL
MODEL 4
REMARK VINA RESULT: -6.752791199      4.071      8.181
REMARK  12 active torsions:
REMARK  status: ('A' for Active; 'I' for Inactive)
REMARK    1  A    between atoms: S1_2  and  N1_5 
REMARK    2  A    between atoms: N1_5  and  C2_7 
REMARK    3  A    between atoms: C2_7  and  C3_8 
REMARK    4  A    between atoms: C3_8  and  O3_9 
REMARK    5  A    between atoms: O3_9  and  C4_10 
REMARK    6  A    between atoms: C4_10  and  C5_12 
REMARK    7  A    between atoms: C13_25  and  N4_26 
REMARK       I    between atoms: N5_28  and  C14_30 
REMARK       I    between atoms: C14_30  and  N6_32 
REMARK    8  A    between atoms: N6_32  and  O7_34 
REMARK    9  A    between atoms: O7_34  and  C15_35 
REMARK   10  A    between atoms: C16_38  and  N8_39 
REMARK   11  A    between atoms: C18_44  and  N9_45 
REMARK   12  A    between atoms: N10_48  and  N11_50 
ROOT
HETATM    1  C5  UNL     1      22.750 -20.983  35.307  1.00  0.00     0.141 A 
HETATM    2  N2  UNL     1      22.326 -20.952  36.568  1.00  0.00    -0.348 N 
ATOM      3  H2  UNL     1      22.847 -21.485  37.264  1.00  0.00     0.166 HD
HETATM    4  C6  UNL     1      21.237 -20.250  36.980  1.00  0.00     0.049 A 
HETATM    5  C7  UNL     1      20.899 -20.300  38.318  1.00  0.00     0.058 A 
HETATM    6  C8  UNL     1      19.798 -19.599  38.770  1.00  0.00     0.070 A 
HETATM    7  N3  UNL     1      19.377 -19.589  40.117  1.00  0.00    -0.101 NA
HETATM    8  C9  UNL     1      19.060 -18.861  37.852  1.00  0.00     0.059 A 
HETATM    9 CL1  UNL     1      17.659 -17.962  38.395  1.00  0.00    -0.082 Cl
HETATM   10  C10 UNL     1      19.416 -18.825  36.519  1.00  0.00     0.043 A 
HETATM   11  C11 UNL     1      20.512 -19.522  36.064  1.00  0.00     0.045 A 
HETATM   12  C12 UNL     1      20.919 -19.527  34.746  1.00  0.00     0.214 A 
HETATM   13  O5  UNL     1      20.226 -18.849  33.953  1.00  0.00    -0.285 OA
HETATM   14  C13 UNL     1      22.028 -20.245  34.347  1.00  0.00     0.132 A 
ENDROOT
BRANCH  14  15
HETATM   15  N4  UNL     1      22.498 -20.300  33.046  1.00  0.00    -0.291 N 
HETATM   16  N5  UNL     1      22.753 -19.657  32.102  1.00  0.00    -0.249 N 
HETATM   17  C14 UNL     1      22.757 -18.359  31.631  1.00  0.00     0.359 C 
ATOM     18  H5  UNL     1      23.092 -20.275  31.364  1.00  0.00     0.192 HD
HETATM   19  O6  UNL     1      21.731 -17.813  31.084  1.00  0.00    -0.243 OA
HETATM   20  N6  UNL     1      23.947 -17.566  31.745  1.00  0.00    -0.207 N 
ATOM     21  H6  UNL     1      24.787 -17.959  32.172  1.00  0.00     0.200 HD
ATOM     22  H4  UNL     1      22.701 -21.275  32.826  1.00  0.00     0.187 HD
BRANCH  20  23
HETATM   23  O7  UNL     1      23.948 -16.292  31.280  1.00  0.00    -0.213 OA
BRANCH  23  24
HETATM   24  C15 UNL     1      24.924 -15.357  31.587  1.00  0.00     0.208 A 
HETATM   25  N7  UNL     1      26.029 -15.067  30.863  1.00  0.00    -0.311 N 
HETATM   26  C16 UNL     1      26.754 -14.107  31.461  1.00  0.00     0.217 A 
ATOM     27  H7  UNL     1      26.278 -15.516  29.981  1.00  0.00     0.170 HD
HETATM   28  C17 UNL     1      26.115 -13.741  32.627  1.00  0.00     0.203 A 
HETATM   29  F1  UNL     1      26.536 -12.792  33.521  1.00  0.00    -0.199 F 
HETATM   30  C18 UNL     1      24.988 -14.520  32.692  1.00  0.00     0.198 A 
BRANCH  26  31
HETATM   31  N8  UNL     1      27.966 -13.531  31.027  1.00  0.00    -0.095 N 
HETATM   32  O8  UNL     1      28.892 -14.289  30.683  1.00  0.00    -0.530 OA
HETATM   33  O9  UNL     1      28.175 -12.178  30.966  1.00  0.00    -0.530 OA
ENDBRANCH  26  31
BRANCH  30  34
HETATM   34  N9  UNL     1      24.018 -14.486  33.732  1.00  0.00    -0.108 N 
HETATM   35  O10 UNL     1      23.417 -13.474  34.081  1.00  0.00    -0.532 OA
HETATM   36  O11 UNL     1      23.732 -15.667  34.394  1.00  0.00    -0.532 OA
ENDBRANCH  30  34
ENDBRANCH  23  24
ENDBRANCH  20  23
ENDBRANCH  14  15
BRANCH   1  37
HETATM   37  C4  UNL     1      23.928 -21.758  34.931  1.00  0.00     0.312 C 
HETATM   38  O4  UNL     1      25.043 -21.231  34.705  1.00  0.00    -0.258 OA
BRANCH  37  39
HETATM   39  O3  UNL     1      23.810 -23.120  34.818  1.00  0.00    -0.309 OA
BRANCH  39  40
HETATM   40  C3  UNL     1      24.137 -24.075  35.775  1.00  0.00     0.257 C 
BRANCH  40  41
HETATM   41  C2  UNL     1      22.990 -24.811  36.351  1.00  0.00     0.129 C 
HETATM   42  N10 UNL     1      22.901 -25.125  37.606  1.00  0.00    -0.293 N 
ATOM     43  H10 UNL     1      23.650 -24.850  38.241  1.00  0.00     0.187 HD
BRANCH  41  44
HETATM   44  N1  UNL     1      21.931 -25.207  35.493  1.00  0.00    -0.271 N 
ATOM     45  H1  UNL     1      22.042 -26.048  34.927  1.00  0.00     0.180 HD
BRANCH  44  46
HETATM   46  S1  UNL     1      20.469 -24.316  35.378  1.00  0.00     0.228 S 
HETATM   47  C1  UNL     1      19.028 -25.314  35.251  1.00  0.00     0.186 C 
HETATM   48  O1  UNL     1      20.318 -23.385  36.555  1.00  0.00    -0.206 OA
HETATM   49  O2  UNL     1      20.552 -23.423  34.158  1.00  0.00    -0.206 OA
ENDBRANCH  44  46
ENDBRANCH  41  44
BRANCH  42  50
HETATM   50  N11 UNL     1      21.809 -25.827  38.109  1.00  0.00    -0.344 N 
ATOM     51 2H11 UNL     1      21.624 -25.773  39.111  1.00  0.00     0.176 HD
ATOM     52 1H11 UNL     1      21.204 -26.382  37.505  1.00  0.00     0.176 HD
ENDBRANCH  42  50
ENDBRANCH  40  41
ENDBRANCH  39  40
ENDBRANCH  37  39
ENDBRANCH   1  37
TORSDOF 12
ENDMDL
MODEL 5
REMARK VINA RESULT: -6.744840889      3.577      6.846
REMARK  12 active torsions:
REMARK  status: ('A' for Active; 'I' for Inactive)
REMARK    1  A    between atoms: S1_2  and  N1_5 
REMARK    2  A    between atoms: N1_5  and  C2_7 
REMARK    3  A    between atoms: C2_7  and  C3_8 
REMARK    4  A    between atoms: C3_8  and  O3_9 
REMARK    5  A    between atoms: O3_9  and  C4_10 
REMARK    6  A    between atoms: C4_10  and  C5_12 
REMARK    7  A    between atoms: C13_25  and  N4_26 
REMARK       I    between atoms: N5_28  and  C14_30 
REMARK       I    between atoms: C14_30  and  N6_32 
REMARK    8  A    between atoms: N6_32  and  O7_34 
REMARK    9  A    between atoms: O7_34  and  C15_35 
REMARK   10  A    between atoms: C16_38  and  N8_39 
REMARK   11  A    between atoms: C18_44  and  N9_45 
REMARK   12  A    between atoms: N10_48  and  N11_50 
ROOT
HETATM    1  C5  UNL     1      23.561 -20.649  34.643  1.00  0.00     0.141 A 
HETATM    2  N2  UNL     1      24.672 -20.100  34.158  1.00  0.00    -0.348 N 
ATOM      3  H2  UNL     1      25.564 -20.543  34.379  1.00  0.00     0.166 HD
HETATM    4  C6  UNL     1      24.685 -18.983  33.385  1.00  0.00     0.049 A 
HETATM    5  C7  UNL     1      25.906 -18.511  32.943  1.00  0.00     0.058 A 
HETATM    6  C8  UNL     1      25.954 -17.377  32.155  1.00  0.00     0.070 A 
HETATM    7  N3  UNL     1      27.152 -16.823  31.656  1.00  0.00    -0.101 NA
HETATM    8  C9  UNL     1      24.760 -16.743  31.832  1.00  0.00     0.059 A 
HETATM    9 CL1  UNL     1      24.790 -15.304  30.836  1.00  0.00    -0.082 Cl
HETATM   10  C10 UNL     1      23.551 -17.232  32.284  1.00  0.00     0.043 A 
HETATM   11  C11 UNL     1      23.498 -18.362  33.070  1.00  0.00     0.045 A 
HETATM   12  C12 UNL     1      22.323 -18.899  33.553  1.00  0.00     0.214 A 
HETATM   13  O5  UNL     1      21.271 -18.297  33.238  1.00  0.00    -0.285 OA
HETATM   14  C13 UNL     1      22.330 -20.035  34.337  1.00  0.00     0.132 A 
ENDROOT
BRANCH  14  15
HETATM   15  N4  UNL     1      21.195 -20.633  34.858  1.00  0.00    -0.291 N 
HETATM   16  N5  UNL     1      20.269 -20.466  35.553  1.00  0.00    -0.249 N 
HETATM   17  C14 UNL     1      19.659 -19.521  36.354  1.00  0.00     0.359 C 
ATOM     18  H5  UNL     1      19.716 -21.323  35.577  1.00  0.00     0.192 HD
HETATM   19  O6  UNL     1      19.963 -19.354  37.591  1.00  0.00    -0.243 OA
HETATM   20  N6  UNL     1      18.637 -18.678  35.803  1.00  0.00    -0.207 N 
ATOM     21  H6  UNL     1      18.362 -18.776  34.825  1.00  0.00     0.200 HD
ATOM     22  H4  UNL     1      21.149 -21.586  34.496  1.00  0.00     0.187 HD
BRANCH  20  23
HETATM   23  O7  UNL     1      18.038 -17.751  36.593  1.00  0.00    -0.213 OA
BRANCH  23  24
HETATM   24  C15 UNL     1      18.194 -16.384  36.434  1.00  0.00     0.208 A 
HETATM   25  N7  UNL     1      17.287 -15.513  35.936  1.00  0.00    -0.311 N 
HETATM   26  C16 UNL     1      17.777 -14.263  35.928  1.00  0.00     0.217 A 
ATOM     27  H7  UNL     1      16.355 -15.772  35.609  1.00  0.00     0.170 HD
HETATM   28  C17 UNL     1      19.057 -14.294  36.439  1.00  0.00     0.203 A 
HETATM   29  F1  UNL     1      19.895 -13.221  36.598  1.00  0.00    -0.199 F 
HETATM   30  C18 UNL     1      19.301 -15.608  36.747  1.00  0.00     0.198 A 
BRANCH  26  31
HETATM   31  N8  UNL     1      17.146 -13.081  35.489  1.00  0.00    -0.095 N 
HETATM   32  O8  UNL     1      16.917 -12.950  34.271  1.00  0.00    -0.530 OA
HETATM   33  O9  UNL     1      16.772 -12.070  36.334  1.00  0.00    -0.530 OA
ENDBRANCH  26  31
BRANCH  30  34
HETATM   34  N9  UNL     1      20.508 -16.117  37.305  1.00  0.00    -0.108 N 
HETATM   35  O10 UNL     1      20.725 -16.204  38.510  1.00  0.00    -0.532 OA
HETATM   36  O11 UNL     1      21.499 -16.539  36.437  1.00  0.00    -0.532 OA
ENDBRANCH  30  34
ENDBRANCH  23  24
ENDBRANCH  20  23
ENDBRANCH  14  15
BRANCH   1  37
HETATM   37  C4  UNL     1      23.618 -21.851  35.470  1.00  0.00     0.312 C 
HETATM   38  O4  UNL     1      23.377 -21.838  36.701  1.00  0.00    -0.258 OA
BRANCH  37  39
HETATM   39  O3  UNL     1      23.947 -23.042  34.877  1.00  0.00    -0.309 OA
BRANCH  39  40
HETATM   40  C3  UNL     1      24.201 -24.255  35.509  1.00  0.00     0.257 C 
BRANCH  40  41
HETATM   41  C2  UNL     1      23.064 -24.824  36.265  1.00  0.00     0.129 C 
HETATM   42  N10 UNL     1      23.066 -24.972  37.553  1.00  0.00    -0.293 N 
ATOM     43  H10 UNL     1      23.885 -24.678  38.086  1.00  0.00     0.187 HD
BRANCH  41  44
HETATM   44  N1  UNL     1      21.909 -25.241  35.553  1.00  0.00    -0.271 N 
ATOM     45  H1  UNL     1      21.900 -26.167  35.126  1.00  0.00     0.180 HD
BRANCH  44  46
HETATM   46  S1  UNL     1      20.528 -24.237  35.387  1.00  0.00     0.228 S 
HETATM   47  C1  UNL     1      19.021 -25.118  35.178  1.00  0.00     0.186 C 
HETATM   48  O1  UNL     1      20.395 -23.313  36.572  1.00  0.00    -0.206 OA
HETATM   49  O2  UNL     1      20.736 -23.337  34.188  1.00  0.00    -0.206 OA
ENDBRANCH  44  46
ENDBRANCH  41  44
BRANCH  42  50
HETATM   50  N11 UNL     1      21.979 -25.520  38.229  1.00  0.00    -0.344 N 
ATOM     51 2H11 UNL     1      21.629 -26.427  37.920  1.00  0.00     0.176 HD
ATOM     52 1H11 UNL     1      21.536 -25.039  39.011  1.00  0.00     0.176 HD
ENDBRANCH  42  50
ENDBRANCH  40  41
ENDBRANCH  39  40
ENDBRANCH  37  39
ENDBRANCH   1  37
TORSDOF 12
ENDMDL
