MODEL 1
REMARK VINA RESULT: -6.409354220      0.000      0.000
REMARK  17 active torsions:
REMARK  status: ('A' for Active; 'I' for Inactive)
REMARK    1  A    between atoms: O1_2  and  C2_3 
REMARK    2  A    between atoms: C2_3  and  C3_5 
REMARK    3  A    between atoms: C3_5  and  N1_6 
REMARK    4  A    between atoms: C3_5  and  O4_34 
REMARK    5  A    between atoms: C3_5  and  C15_38 
REMARK    6  A    between atoms: N1_6  and  C4_8 
REMARK    7  A    between atoms: C4_8  and  O3_9 
REMARK    8  A    between atoms: C4_8  and  C5_11 
REMARK    9  A    between atoms: C5_11  and  N2_12 
REMARK   10  A    between atoms: C5_11  and  C10_25 
REMARK   11  A    between atoms: N2_12  and  N3_14 
REMARK   12  A    between atoms: N3_14  and  C6_16 
REMARK   13  A    between atoms: C12_28  and  N6_29 
REMARK   14  A    between atoms: O4_34  and  C13_35 
REMARK   15  A    between atoms: C17_43  and  O6_44 
REMARK   16  A    between atoms: C18_46  and  C19_48 
REMARK   17  A    between atoms: C19_48  and  O8_50 
ROOT
HETATM    1  C4  UNL     1      21.115 -19.449  34.373  1.00  0.00     0.169 C 
ENDROOT
BRANCH   1   2
HETATM    2  N1  UNL     1      22.160 -18.542  34.174  1.00  0.00    -0.328 N 
ATOM      3  H1  UNL     1      22.021 -17.556  34.393  1.00  0.00     0.165 HD
BRANCH   2   4
HETATM    4  C3  UNL     1      23.445 -18.995  33.656  1.00  0.00     0.251 C 
BRANCH   4   5
HETATM    5  C2  UNL     1      23.553 -20.495  33.720  1.00  0.00     0.317 C 
HETATM    6  O2  UNL     1      23.616 -21.238  32.708  1.00  0.00    -0.260 OA
BRANCH   5   7
HETATM    7  O1  UNL     1      23.592 -21.173  34.934  1.00  0.00    -0.323 OA
HETATM    8  C1  UNL     1      24.206 -22.445  35.077  1.00  0.00     0.213 C 
ENDBRANCH   5   7
ENDBRANCH   4   5
BRANCH   4   9
HETATM    9  O4  UNL     1      23.478 -18.688  32.288  1.00  0.00    -0.278 OA
BRANCH   9  10
HETATM   10  C13 UNL     1      22.672 -17.837  31.597  1.00  0.00     0.257 C 
HETATM   11  C14 UNL     1      23.022 -16.385  31.430  1.00  0.00     0.126 C 
HETATM   12  O5  UNL     1      21.629 -18.284  31.100  1.00  0.00    -0.266 OA
ENDBRANCH   9  10
ENDBRANCH   4   9
BRANCH   4  13
HETATM   13  C15 UNL     1      24.604 -18.357  34.324  1.00  0.00     0.180 C 
HETATM   14  S2  UNL     1      23.976 -16.825  35.098  1.00  0.00    -0.066 SA
HETATM   15  S3  UNL     1      25.171 -15.059  35.016  1.00  0.00    -0.005 SA
HETATM   16  N8  UNL     1      26.487 -15.481  33.791  1.00  0.00    -0.222 NA
HETATM   17  C16 UNL     1      27.749 -15.075  34.306  1.00  0.00     0.128 C 
HETATM   18  C17 UNL     1      26.214 -16.788  33.599  1.00  0.00     0.255 C 
HETATM   19  C18 UNL     1      25.827 -18.123  33.408  1.00  0.00     0.247 C 
HETATM   20  F1  UNL     1      25.547 -18.475  32.097  1.00  0.00    -0.226 F 
BRANCH  18  21
HETATM   21  O6  UNL     1      26.485 -17.040  34.985  1.00  0.00    -0.376 OA
ATOM     22  H6  UNL     1      26.315 -16.125  35.179  1.00  0.00     0.211 HD
ENDBRANCH  18  21
BRANCH  19  23
HETATM   23  C19 UNL     1      26.951 -19.062  33.798  1.00  0.00     0.304 C 
HETATM   24  O7  UNL     1      26.761 -20.112  34.460  1.00  0.00    -0.261 OA
BRANCH  23  25
HETATM   25  O8  UNL     1      28.256 -18.799  33.436  1.00  0.00    -0.324 OA
HETATM   26  C20 UNL     1      28.829 -19.292  32.225  1.00  0.00     0.213 C 
ENDBRANCH  23  25
ENDBRANCH  19  23
ENDBRANCH   4  13
ENDBRANCH   2   4
ENDBRANCH   1   2
BRANCH   1  27
HETATM   27  O3  UNL     1      20.734 -20.071  33.275  1.00  0.00    -0.344 OA
ATOM     28  H3  UNL     1      20.989 -20.986  33.245  1.00  0.00     0.219 HD
ENDBRANCH   1  27
BRANCH   1  29
HETATM   29  C5  UNL     1      20.376 -19.854  35.506  1.00  0.00     0.126 C 
BRANCH  29  30
HETATM   30  N2  UNL     1      20.515 -21.040  35.989  1.00  0.00    -0.293 N 
ATOM     31  H2  UNL     1      20.616 -21.139  36.999  1.00  0.00     0.187 HD
BRANCH  30  32
HETATM   32  N3  UNL     1      20.535 -22.169  35.230  1.00  0.00    -0.284 N 
ATOM     33  H3  UNL     1      20.534 -22.066  34.215  1.00  0.00     0.188 HD
BRANCH  32  34
HETATM   34  C6  UNL     1      20.555 -23.362  35.720  1.00  0.00     0.134 A 
HETATM   35  C7  UNL     1      19.682 -24.288  35.185  1.00  0.00     0.054 A 
HETATM   36  C8  UNL     1      19.684 -25.580  35.696  1.00  0.00     0.047 A 
HETATM   37  C9  UNL     1      20.546 -25.918  36.716  1.00  0.00     0.118 A 
HETATM   38 CL1  UNL     1      20.553 -27.564  37.370  1.00  0.00    -0.063 Cl
HETATM   39  N4  UNL     1      21.372 -24.973  37.193  1.00  0.00    -0.288 N 
HETATM   40  N5  UNL     1      21.377 -23.725  36.708  1.00  0.00    -0.283 N 
ATOM     41  H4  UNL     1      22.015 -25.212  37.948  1.00  0.00     0.188 HD
ATOM     42  H5  UNL     1      22.021 -23.038  37.100  1.00  0.00     0.188 HD
ENDBRANCH  32  34
ENDBRANCH  30  32
ENDBRANCH  29  30
BRANCH  29  43
HETATM   43  C10 UNL     1      19.367 -19.010  36.229  1.00  0.00     0.073 A 
HETATM   44  C11 UNL     1      18.402 -18.320  35.562  1.00  0.00     0.085 A 
HETATM   45  S1  UNL     1      17.475 -17.634  36.857  1.00  0.00    -0.064 SA
HETATM   46  C12 UNL     1      18.373 -18.266  38.140  1.00  0.00     0.142 A 
HETATM   47  N7  UNL     1      19.328 -18.964  37.548  1.00  0.00    -0.335 N 
ATOM     48  H7  UNL     1      20.025 -19.460  38.103  1.00  0.00     0.168 HD
BRANCH  46  49
HETATM   49  N6  UNL     1      18.175 -18.105  39.433  1.00  0.00    -0.380 N 
ATOM     50  H62 UNL     1      18.078 -17.228  39.945  1.00  0.00     0.158 HD
ATOM     51  H61 UNL     1      18.085 -18.822  40.153  1.00  0.00     0.158 HD
ENDBRANCH  46  49
ENDBRANCH  29  43
ENDBRANCH   1  29
TORSDOF 17
ENDMDL
MODEL 2
REMARK VINA RESULT: -6.012495171      4.089      6.813
REMARK  17 active torsions:
REMARK  status: ('A' for Active; 'I' for Inactive)
REMARK    1  A    between atoms: O1_2  and  C2_3 
REMARK    2  A    between atoms: C2_3  and  C3_5 
REMARK    3  A    between atoms: C3_5  and  N1_6 
REMARK    4  A    between atoms: C3_5  and  O4_34 
REMARK    5  A    between atoms: C3_5  and  C15_38 
REMARK    6  A    between atoms: N1_6  and  C4_8 
REMARK    7  A    between atoms: C4_8  and  O3_9 
REMARK    8  A    between atoms: C4_8  and  C5_11 
REMARK    9  A    between atoms: C5_11  and  N2_12 
REMARK   10  A    between atoms: C5_11  and  C10_25 
REMARK   11  A    between atoms: N2_12  and  N3_14 
REMARK   12  A    between atoms: N3_14  and  C6_16 
REMARK   13  A    between atoms: C12_28  and  N6_29 
REMARK   14  A    between atoms: O4_34  and  C13_35 
REMARK   15  A    between atoms: C17_43  and  O6_44 
REMARK   16  A    between atoms: C18_46  and  C19_48 
REMARK   17  A    between atoms: C19_48  and  O8_50 
ROOT
HETATM    1  C4  UNL     1      20.990 -22.058  35.076  1.00  0.00     0.169 C 
ENDROOT
BRANCH   1   2
HETATM    2  N1  UNL     1      22.045 -22.904  35.429  1.00  0.00    -0.328 N 
ATOM      3  H1  UNL     1      22.637 -23.306  34.702  1.00  0.00     0.165 HD
BRANCH   2   4
HETATM    4  C3  UNL     1      22.307 -23.216  36.830  1.00  0.00     0.251 C 
BRANCH   4   5
HETATM    5  C2  UNL     1      22.198 -21.983  37.685  1.00  0.00     0.317 C 
HETATM    6  O2  UNL     1      21.356 -21.842  38.608  1.00  0.00    -0.260 OA
BRANCH   5   7
HETATM    7  O1  UNL     1      23.044 -20.894  37.507  1.00  0.00    -0.323 OA
HETATM    8  C1  UNL     1      23.369 -20.001  38.563  1.00  0.00     0.213 C 
ENDBRANCH   5   7
ENDBRANCH   4   5
BRANCH   4   9
HETATM    9  O4  UNL     1      21.275 -24.057  37.272  1.00  0.00    -0.278 OA
BRANCH   9  10
HETATM   10  C13 UNL     1      20.979 -25.317  36.854  1.00  0.00     0.257 C 
HETATM   11  C14 UNL     1      21.316 -26.520  37.689  1.00  0.00     0.126 C 
HETATM   12  O5  UNL     1      20.420 -25.461  35.758  1.00  0.00    -0.266 OA
ENDBRANCH   9  10
ENDBRANCH   4   9
BRANCH   4  13
HETATM   13  C15 UNL     1      23.609 -23.891  37.046  1.00  0.00     0.180 C 
HETATM   14  S2  UNL     1      23.978 -23.744  38.830  1.00  0.00    -0.066 SA
HETATM   15  S3  UNL     1      25.979 -23.328  39.442  1.00  0.00    -0.005 SA
HETATM   16  N8  UNL     1      26.824 -22.849  37.872  1.00  0.00    -0.222 NA
HETATM   17  C16 UNL     1      28.077 -23.518  37.795  1.00  0.00     0.128 C 
HETATM   18  C17 UNL     1      25.843 -23.128  36.987  1.00  0.00     0.255 C 
HETATM   19  C18 UNL     1      24.755 -23.385  36.141  1.00  0.00     0.247 C 
HETATM   20  F1  UNL     1      24.345 -22.312  35.365  1.00  0.00    -0.226 F 
BRANCH  18  21
HETATM   21  O6  UNL     1      25.893 -24.507  37.380  1.00  0.00    -0.376 OA
ATOM     22  H6  UNL     1      24.945 -24.516  37.450  1.00  0.00     0.211 HD
ENDBRANCH  18  21
BRANCH  19  23
HETATM   23  C19 UNL     1      25.114 -24.446  35.121  1.00  0.00     0.304 C 
HETATM   24  O7  UNL     1      24.409 -25.466  34.924  1.00  0.00    -0.261 OA
BRANCH  23  25
HETATM   25  O8  UNL     1      26.254 -24.336  34.351  1.00  0.00    -0.324 OA
HETATM   26  C20 UNL     1      27.224 -25.381  34.265  1.00  0.00     0.213 C 
ENDBRANCH  23  25
ENDBRANCH  19  23
ENDBRANCH   4  13
ENDBRANCH   2   4
ENDBRANCH   1   2
BRANCH   1  27
HETATM   27  O3  UNL     1      19.799 -22.606  35.216  1.00  0.00    -0.344 OA
ATOM     28  H3  UNL     1      19.263 -22.191  35.882  1.00  0.00     0.219 HD
ENDBRANCH   1  27
BRANCH   1  29
HETATM   29  C5  UNL     1      20.920 -20.729  34.604  1.00  0.00     0.126 C 
BRANCH  29  30
HETATM   30  N2  UNL     1      21.291 -20.440  33.404  1.00  0.00    -0.293 N 
ATOM     31  H2  UNL     1      20.572 -20.362  32.685  1.00  0.00     0.187 HD
BRANCH  30  32
HETATM   32  N3  UNL     1      22.586 -20.233  33.040  1.00  0.00    -0.284 N 
ATOM     33  H3  UNL     1      23.238 -21.014  33.120  1.00  0.00     0.188 HD
BRANCH  32  34
HETATM   34  C6  UNL     1      23.035 -19.107  32.601  1.00  0.00     0.134 A 
HETATM   35  C7  UNL     1      24.322 -18.752  32.950  1.00  0.00     0.054 A 
HETATM   36  C8  UNL     1      24.829 -17.543  32.489  1.00  0.00     0.047 A 
HETATM   37  C9  UNL     1      24.053 -16.724  31.698  1.00  0.00     0.118 A 
HETATM   38 CL1  UNL     1      24.696 -15.184  31.108  1.00  0.00    -0.063 Cl
HETATM   39  N4  UNL     1      22.809 -17.127  31.393  1.00  0.00    -0.288 N 
HETATM   40  N5  UNL     1      22.311 -18.289  31.832  1.00  0.00    -0.283 N 
ATOM     41  H4  UNL     1      22.225 -16.529  30.807  1.00  0.00     0.188 HD
ATOM     42  H5  UNL     1      21.360 -18.555  31.576  1.00  0.00     0.188 HD
ENDBRANCH  32  34
ENDBRANCH  30  32
ENDBRANCH  29  30
BRANCH  29  43
HETATM   43  C10 UNL     1      20.464 -19.547  35.408  1.00  0.00     0.073 A 
HETATM   44  C11 UNL     1      20.190 -18.348  34.824  1.00  0.00     0.085 A 
HETATM   45  S1  UNL     1      19.613 -17.407  36.162  1.00  0.00    -0.064 SA
HETATM   46  C12 UNL     1      19.764 -18.593  37.355  1.00  0.00     0.142 A 
HETATM   47  N7  UNL     1      20.237 -19.642  36.705  1.00  0.00    -0.335 N 
ATOM     48  H7  UNL     1      20.425 -20.515  37.199  1.00  0.00     0.168 HD
BRANCH  46  49
HETATM   49  N6  UNL     1      19.478 -18.501  38.638  1.00  0.00    -0.380 N 
ATOM     50  H62 UNL     1      18.558 -18.545  39.078  1.00  0.00     0.158 HD
ATOM     51  H61 UNL     1      20.119 -18.370  39.421  1.00  0.00     0.158 HD
ENDBRANCH  46  49
ENDBRANCH  29  43
ENDBRANCH   1  29
TORSDOF 17
ENDMDL
MODEL 3
REMARK VINA RESULT: -6.009695658      4.238      7.374
REMARK  17 active torsions:
REMARK  status: ('A' for Active; 'I' for Inactive)
REMARK    1  A    between atoms: O1_2  and  C2_3 
REMARK    2  A    between atoms: C2_3  and  C3_5 
REMARK    3  A    between atoms: C3_5  and  N1_6 
REMARK    4  A    between atoms: C3_5  and  O4_34 
REMARK    5  A    between atoms: C3_5  and  C15_38 
REMARK    6  A    between atoms: N1_6  and  C4_8 
REMARK    7  A    between atoms: C4_8  and  O3_9 
REMARK    8  A    between atoms: C4_8  and  C5_11 
REMARK    9  A    between atoms: C5_11  and  N2_12 
REMARK   10  A    between atoms: C5_11  and  C10_25 
REMARK   11  A    between atoms: N2_12  and  N3_14 
REMARK   12  A    between atoms: N3_14  and  C6_16 
REMARK   13  A    between atoms: C12_28  and  N6_29 
REMARK   14  A    between atoms: O4_34  and  C13_35 
REMARK   15  A    between atoms: C17_43  and  O6_44 
REMARK   16  A    between atoms: C18_46  and  C19_48 
REMARK   17  A    between atoms: C19_48  and  O8_50 
ROOT
HETATM    1  C4  UNL     1      21.134 -21.410  34.636  1.00  0.00     0.169 C 
ENDROOT
BRANCH   1   2
HETATM    2  N1  UNL     1      21.518 -21.997  35.845  1.00  0.00    -0.328 N 
ATOM      3  H1  UNL     1      20.843 -22.076  36.605  1.00  0.00     0.165 HD
BRANCH   2   4
HETATM    4  C3  UNL     1      22.876 -22.496  36.027  1.00  0.00     0.251 C 
BRANCH   4   5
HETATM    5  C2  UNL     1      23.838 -21.783  35.115  1.00  0.00     0.317 C 
HETATM    6  O2  UNL     1      23.909 -21.982  33.876  1.00  0.00    -0.260 OA
BRANCH   5   7
HETATM    7  O1  UNL     1      24.733 -20.833  35.597  1.00  0.00    -0.323 OA
HETATM    8  C1  UNL     1      26.138 -21.043  35.602  1.00  0.00     0.213 C 
ENDBRANCH   5   7
ENDBRANCH   4   5
BRANCH   4   9
HETATM    9  O4  UNL     1      23.280 -22.149  37.324  1.00  0.00    -0.278 OA
BRANCH   9  10
HETATM   10  C13 UNL     1      22.576 -21.474  38.272  1.00  0.00     0.257 C 
HETATM   11  C14 UNL     1      22.925 -20.064  38.655  1.00  0.00     0.126 C 
HETATM   12  O5  UNL     1      21.628 -22.050  38.825  1.00  0.00    -0.266 OA
ENDBRANCH   9  10
ENDBRANCH   4   9
BRANCH   4  13
HETATM   13  C15 UNL     1      22.987 -23.965  35.861  1.00  0.00     0.180 C 
HETATM   14  S2  UNL     1      21.382 -24.667  36.382  1.00  0.00    -0.066 SA
HETATM   15  S3  UNL     1      21.363 -26.470  37.523  1.00  0.00    -0.005 SA
HETATM   16  N8  UNL     1      23.128 -26.690  38.019  1.00  0.00    -0.222 NA
HETATM   17  C16 UNL     1      23.508 -28.044  37.800  1.00  0.00     0.128 C 
HETATM   18  C17 UNL     1      23.695 -25.696  37.304  1.00  0.00     0.255 C 
HETATM   19  C18 UNL     1      24.197 -24.605  36.580  1.00  0.00     0.247 C 
HETATM   20  F1  UNL     1      24.889 -23.666  37.330  1.00  0.00    -0.226 F 
BRANCH  18  21
HETATM   21  O6  UNL     1      23.256 -26.327  36.093  1.00  0.00    -0.376 OA
ATOM     22  H6  UNL     1      24.079 -26.092  35.678  1.00  0.00     0.211 HD
ENDBRANCH  18  21
BRANCH  19  23
HETATM   23  C19 UNL     1      25.217 -25.068  35.559  1.00  0.00     0.304 C 
HETATM   24  O7  UNL     1      25.293 -24.581  34.405  1.00  0.00    -0.261 OA
BRANCH  23  25
HETATM   25  O8  UNL     1      26.123 -26.065  35.861  1.00  0.00    -0.324 OA
HETATM   26  C20 UNL     1      27.391 -25.792  36.456  1.00  0.00     0.213 C 
ENDBRANCH  23  25
ENDBRANCH  19  23
ENDBRANCH   4  13
ENDBRANCH   2   4
ENDBRANCH   1   2
BRANCH   1  27
HETATM   27  O3  UNL     1      20.887 -22.280  33.677  1.00  0.00    -0.344 OA
ATOM     28  H3  UNL     1      20.107 -22.083  33.172  1.00  0.00     0.219 HD
ENDBRANCH   1  27
BRANCH   1  29
HETATM   29  C5  UNL     1      20.943 -20.075  34.216  1.00  0.00     0.126 C 
BRANCH  29  30
HETATM   30  N2  UNL     1      21.163 -19.736  32.992  1.00  0.00    -0.293 N 
ATOM     31  H2  UNL     1      20.361 -19.515  32.403  1.00  0.00     0.187 HD
BRANCH  30  32
HETATM   32  N3  UNL     1      22.405 -19.656  32.440  1.00  0.00    -0.284 N 
ATOM     33  H3  UNL     1      22.908 -20.525  32.262  1.00  0.00     0.188 HD
BRANCH  32  34
HETATM   34  C6  UNL     1      22.981 -18.545  32.130  1.00  0.00     0.134 A 
HETATM   35  C7  UNL     1      24.263 -18.337  32.595  1.00  0.00     0.054 A 
HETATM   36  C8  UNL     1      24.905 -17.147  32.274  1.00  0.00     0.047 A 
HETATM   37  C9  UNL     1      24.263 -16.201  31.505  1.00  0.00     0.118 A 
HETATM   38 CL1  UNL     1      25.078 -14.684  31.094  1.00  0.00    -0.063 Cl
HETATM   39  N4  UNL     1      23.016 -16.463  31.082  1.00  0.00    -0.288 N 
HETATM   40  N5  UNL     1      22.389 -17.606  31.386  1.00  0.00    -0.283 N 
ATOM     41  H4  UNL     1      22.532 -15.770  30.511  1.00  0.00     0.188 HD
ATOM     42  H5  UNL     1      21.441 -17.763  31.044  1.00  0.00     0.188 HD
ENDBRANCH  32  34
ENDBRANCH  30  32
ENDBRANCH  29  30
BRANCH  29  43
HETATM   43  C10 UNL     1      20.517 -18.940  35.101  1.00  0.00     0.073 A 
HETATM   44  C11 UNL     1      21.419 -18.208  35.808  1.00  0.00     0.085 A 
HETATM   45  S1  UNL     1      20.419 -16.996  36.543  1.00  0.00    -0.064 SA
HETATM   46  C12 UNL     1      18.940 -17.506  35.906  1.00  0.00     0.142 A 
HETATM   47  N7  UNL     1      19.255 -18.559  35.170  1.00  0.00    -0.335 N 
ATOM     48  H7  UNL     1      18.532 -19.069  34.662  1.00  0.00     0.168 HD
BRANCH  46  49
HETATM   49  N6  UNL     1      17.746 -16.982  36.093  1.00  0.00    -0.380 N 
ATOM     50  H62 UNL     1      17.249 -16.859  36.976  1.00  0.00     0.158 HD
ATOM     51  H61 UNL     1      17.103 -16.607  35.396  1.00  0.00     0.158 HD
ENDBRANCH  46  49
ENDBRANCH  29  43
ENDBRANCH   1  29
TORSDOF 17
ENDMDL
MODEL 4
REMARK VINA RESULT: -5.869092732      3.761      6.983
REMARK  17 active torsions:
REMARK  status: ('A' for Active; 'I' for Inactive)
REMARK    1  A    between atoms: O1_2  and  C2_3 
REMARK    2  A    between atoms: C2_3  and  C3_5 
REMARK    3  A    between atoms: C3_5  and  N1_6 
REMARK    4  A    between atoms: C3_5  and  O4_34 
REMARK    5  A    between atoms: C3_5  and  C15_38 
REMARK    6  A    between atoms: N1_6  and  C4_8 
REMARK    7  A    between atoms: C4_8  and  O3_9 
REMARK    8  A    between atoms: C4_8  and  C5_11 
REMARK    9  A    between atoms: C5_11  and  N2_12 
REMARK   10  A    between atoms: C5_11  and  C10_25 
REMARK   11  A    between atoms: N2_12  and  N3_14 
REMARK   12  A    between atoms: N3_14  and  C6_16 
REMARK   13  A    between atoms: C12_28  and  N6_29 
REMARK   14  A    between atoms: O4_34  and  C13_35 
REMARK   15  A    between atoms: C17_43  and  O6_44 
REMARK   16  A    between atoms: C18_46  and  C19_48 
REMARK   17  A    between atoms: C19_48  and  O8_50 
ROOT
HETATM    1  C4  UNL     1      21.875 -20.587  34.113  1.00  0.00     0.169 C 
ENDROOT
BRANCH   1   2
HETATM    2  N1  UNL     1      22.480 -21.694  34.714  1.00  0.00    -0.328 N 
ATOM      3  H1  UNL     1      23.252 -22.166  34.243  1.00  0.00     0.165 HD
BRANCH   2   4
HETATM    4  C3  UNL     1      22.016 -22.180  36.008  1.00  0.00     0.251 C 
BRANCH   4   5
HETATM    5  C2  UNL     1      21.892 -21.050  36.994  1.00  0.00     0.317 C 
HETATM    6  O2  UNL     1      22.873 -20.478  37.533  1.00  0.00    -0.260 OA
BRANCH   5   7
HETATM    7  O1  UNL     1      20.653 -20.551  37.381  1.00  0.00    -0.323 OA
HETATM    8  C1  UNL     1      20.452 -19.887  38.621  1.00  0.00     0.213 C 
ENDBRANCH   5   7
ENDBRANCH   4   5
BRANCH   4   9
HETATM    9  O4  UNL     1      20.707 -22.654  35.834  1.00  0.00    -0.278 OA
BRANCH   9  10
HETATM   10  C13 UNL     1      20.294 -23.748  35.140  1.00  0.00     0.257 C 
HETATM   11  C14 UNL     1      19.817 -24.988  35.841  1.00  0.00     0.126 C 
HETATM   12  O5  UNL     1      20.319 -23.707  33.902  1.00  0.00    -0.266 OA
ENDBRANCH   9  10
ENDBRANCH   4   9
BRANCH   4  13
HETATM   13  C15 UNL     1      22.857 -23.268  36.561  1.00  0.00     0.180 C 
HETATM   14  S2  UNL     1      22.521 -23.320  38.357  1.00  0.00    -0.066 SA
HETATM   15  S3  UNL     1      24.144 -23.639  39.705  1.00  0.00    -0.005 SA
HETATM   16  N8  UNL     1      25.639 -23.424  38.643  1.00  0.00    -0.222 NA
HETATM   17  C16 UNL     1      26.555 -24.480  38.910  1.00  0.00     0.128 C 
HETATM   18  C17 UNL     1      25.051 -23.319  37.433  1.00  0.00     0.255 C 
HETATM   19  C18 UNL     1      24.361 -23.155  36.223  1.00  0.00     0.247 C 
HETATM   20  F1  UNL     1      24.635 -21.980  35.541  1.00  0.00    -0.226 F 
BRANCH  18  21
HETATM   21  O6  UNL     1      24.521 -24.643  37.584  1.00  0.00    -0.376 OA
ATOM     22  H6  UNL     1      24.780 -24.843  36.692  1.00  0.00     0.211 HD
ENDBRANCH  18  21
BRANCH  19  23
HETATM   23  C19 UNL     1      24.750 -24.239  35.239  1.00  0.00     0.304 C 
HETATM   24  O7  UNL     1      24.016 -25.225  34.986  1.00  0.00    -0.261 OA
BRANCH  23  25
HETATM   25  O8  UNL     1      25.954 -24.188  34.565  1.00  0.00    -0.324 OA
HETATM   26  C20 UNL     1      27.030 -25.082  34.852  1.00  0.00     0.213 C 
ENDBRANCH  23  25
ENDBRANCH  19  23
ENDBRANCH   4  13
ENDBRANCH   2   4
ENDBRANCH   1   2
BRANCH   1  27
HETATM   27  O3  UNL     1      20.881 -20.897  33.304  1.00  0.00    -0.344 OA
ATOM     28  H3  UNL     1      20.891 -21.802  33.014  1.00  0.00     0.219 HD
ENDBRANCH   1  27
BRANCH   1  29
HETATM   29  C5  UNL     1      22.093 -19.194  34.189  1.00  0.00     0.126 C 
BRANCH  29  30
HETATM   30  N2  UNL     1      21.288 -18.440  34.854  1.00  0.00    -0.293 N 
ATOM     31  H2  UNL     1      21.675 -17.626  35.331  1.00  0.00     0.187 HD
BRANCH  30  32
HETATM   32  N3  UNL     1      19.950 -18.667  34.958  1.00  0.00    -0.284 N 
ATOM     33  H3  UNL     1      19.556 -19.457  34.447  1.00  0.00     0.188 HD
BRANCH  32  34
HETATM   34  C6  UNL     1      19.152 -17.940  35.664  1.00  0.00     0.134 A 
HETATM   35  C7  UNL     1      17.979 -18.519  36.103  1.00  0.00     0.054 A 
HETATM   36  C8  UNL     1      17.103 -17.756  36.866  1.00  0.00     0.047 A 
HETATM   37  C9  UNL     1      17.412 -16.449  37.172  1.00  0.00     0.118 A 
HETATM   38 CL1  UNL     1      16.299 -15.474  38.145  1.00  0.00    -0.063 Cl
HETATM   39  N4  UNL     1      18.569 -15.943  36.716  1.00  0.00    -0.288 N 
HETATM   40  N5  UNL     1      19.419 -16.669  35.980  1.00  0.00    -0.283 N 
ATOM     41  H4  UNL     1      18.808 -14.976  36.937  1.00  0.00     0.188 HD
ATOM     42  H5  UNL     1      20.288 -16.245  35.654  1.00  0.00     0.188 HD
ENDBRANCH  32  34
ENDBRANCH  30  32
ENDBRANCH  29  30
BRANCH  29  43
HETATM   43  C10 UNL     1      23.211 -18.454  33.513  1.00  0.00     0.073 A 
HETATM   44  C11 UNL     1      24.515 -18.773  33.733  1.00  0.00     0.085 A 
HETATM   45  S1  UNL     1      25.346 -17.709  32.644  1.00  0.00    -0.064 SA
HETATM   46  C12 UNL     1      23.988 -16.940  31.997  1.00  0.00     0.142 A 
HETATM   47  N7  UNL     1      22.971 -17.511  32.620  1.00  0.00    -0.335 N 
ATOM     48  H7  UNL     1      22.013 -17.227  32.414  1.00  0.00     0.168 HD
BRANCH  46  49
HETATM   49  N6  UNL     1      23.944 -15.992  31.084  1.00  0.00    -0.380 N 
ATOM     50  H62 UNL     1      23.148 -15.714  30.510  1.00  0.00     0.158 HD
ATOM     51  H61 UNL     1      24.693 -15.367  30.784  1.00  0.00     0.158 HD
ENDBRANCH  46  49
ENDBRANCH  29  43
ENDBRANCH   1  29
TORSDOF 17
ENDMDL
MODEL 5
REMARK VINA RESULT: -5.817658417      4.097      7.547
REMARK  17 active torsions:
REMARK  status: ('A' for Active; 'I' for Inactive)
REMARK    1  A    between atoms: O1_2  and  C2_3 
REMARK    2  A    between atoms: C2_3  and  C3_5 
REMARK    3  A    between atoms: C3_5  and  N1_6 
REMARK    4  A    between atoms: C3_5  and  O4_34 
REMARK    5  A    between atoms: C3_5  and  C15_38 
REMARK    6  A    between atoms: N1_6  and  C4_8 
REMARK    7  A    between atoms: C4_8  and  O3_9 
REMARK    8  A    between atoms: C4_8  and  C5_11 
REMARK    9  A    between atoms: C5_11  and  N2_12 
REMARK   10  A    between atoms: C5_11  and  C10_25 
REMARK   11  A    between atoms: N2_12  and  N3_14 
REMARK   12  A    between atoms: N3_14  and  C6_16 
REMARK   13  A    between atoms: C12_28  and  N6_29 
REMARK   14  A    between atoms: O4_34  and  C13_35 
REMARK   15  A    between atoms: C17_43  and  O6_44 
REMARK   16  A    between atoms: C18_46  and  C19_48 
REMARK   17  A    between atoms: C19_48  and  O8_50 
ROOT
HETATM    1  C4  UNL     1      20.797 -19.737  34.313  1.00  0.00     0.169 C 
ENDROOT
BRANCH   1   2
HETATM    2  N1  UNL     1      20.145 -19.251  35.450  1.00  0.00    -0.328 N 
ATOM      3  H1  UNL     1      19.126 -19.271  35.495  1.00  0.00     0.165 HD
BRANCH   2   4
HETATM    4  C3  UNL     1      20.909 -18.715  36.570  1.00  0.00     0.251 C 
BRANCH   4   5
HETATM    5  C2  UNL     1      21.300 -19.808  37.527  1.00  0.00     0.317 C 
HETATM    6  O2  UNL     1      20.486 -20.620  38.034  1.00  0.00    -0.260 OA
BRANCH   5   7
HETATM    7  O1  UNL     1      22.621 -19.996  37.921  1.00  0.00    -0.323 OA
HETATM    8  C1  UNL     1      22.990 -20.924  38.930  1.00  0.00     0.213 C 
ENDBRANCH   5   7
ENDBRANCH   4   5
BRANCH   4   9
HETATM    9  O4  UNL     1      22.122 -18.231  36.057  1.00  0.00    -0.278 OA
BRANCH   9  10
HETATM   10  C13 UNL     1      22.392 -16.994  35.561  1.00  0.00     0.257 C 
HETATM   11  C14 UNL     1      23.320 -16.049  36.270  1.00  0.00     0.126 C 
HETATM   12  O5  UNL     1      21.853 -16.653  34.499  1.00  0.00    -0.266 OA
ENDBRANCH   9  10
ENDBRANCH   4   9
BRANCH   4  13
HETATM   13  C15 UNL     1      20.213 -17.618  37.283  1.00  0.00     0.180 C 
HETATM   14  S2  UNL     1      20.845 -17.633  38.998  1.00  0.00    -0.066 SA
HETATM   15  S3  UNL     1      19.481 -17.304  40.607  1.00  0.00    -0.005 SA
HETATM   16  N8  UNL     1      17.823 -17.439  39.805  1.00  0.00    -0.222 NA
HETATM   17  C16 UNL     1      17.004 -16.363  40.249  1.00  0.00     0.128 C 
HETATM   18  C17 UNL     1      18.198 -17.525  38.512  1.00  0.00     0.255 C 
HETATM   19  C18 UNL     1      18.670 -17.673  37.200  1.00  0.00     0.247 C 
HETATM   20  F1  UNL     1      18.244 -18.817  36.543  1.00  0.00    -0.226 F 
BRANCH  18  21
HETATM   21  O6  UNL     1      18.792 -16.224  38.605  1.00  0.00    -0.376 OA
ATOM     22  H6  UNL     1      18.165 -15.990  39.279  1.00  0.00     0.211 HD
ENDBRANCH  18  21
BRANCH  19  23
HETATM   23  C19 UNL     1      18.161 -16.547  36.322  1.00  0.00     0.304 C 
HETATM   24  O7  UNL     1      16.982 -16.499  35.894  1.00  0.00    -0.261 OA
BRANCH  23  25
HETATM   25  O8  UNL     1      18.989 -15.508  35.947  1.00  0.00    -0.324 OA
HETATM   26  C20 UNL     1      18.570 -14.144  35.987  1.00  0.00     0.213 C 
ENDBRANCH  23  25
ENDBRANCH  19  23
ENDBRANCH   4  13
ENDBRANCH   2   4
ENDBRANCH   1   2
BRANCH   1  27
HETATM   27  O3  UNL     1      20.568 -19.030  33.225  1.00  0.00    -0.344 OA
ATOM     28  H3  UNL     1      20.818 -18.116  33.302  1.00  0.00     0.219 HD
ENDBRANCH   1  27
BRANCH   1  29
HETATM   29  C5  UNL     1      21.662 -20.828  34.076  1.00  0.00     0.126 C 
BRANCH  29  30
HETATM   30  N2  UNL     1      22.586 -20.749  33.181  1.00  0.00    -0.293 N 
ATOM     31  H2  UNL     1      22.445 -21.244  32.301  1.00  0.00     0.187 HD
BRANCH  30  32
HETATM   32  N3  UNL     1      23.738 -20.042  33.343  1.00  0.00    -0.284 N 
ATOM     33  H3  UNL     1      24.482 -20.458  33.901  1.00  0.00     0.188 HD
BRANCH  32  34
HETATM   34  C6  UNL     1      23.941 -18.877  32.829  1.00  0.00     0.134 A 
HETATM   35  C7  UNL     1      25.175 -18.294  33.033  1.00  0.00     0.054 A 
HETATM   36  C8  UNL     1      25.419 -17.039  32.490  1.00  0.00     0.047 A 
HETATM   37  C9  UNL     1      24.440 -16.399  31.762  1.00  0.00     0.118 A 
HETATM   38 CL1  UNL     1      24.747 -14.799  31.067  1.00  0.00    -0.063 Cl
HETATM   39  N4  UNL     1      23.260 -17.019  31.597  1.00  0.00    -0.288 N 
HETATM   40  N5  UNL     1      23.015 -18.228  32.117  1.00  0.00    -0.283 N 
ATOM     41  H4  UNL     1      22.528 -16.555  31.059  1.00  0.00     0.188 HD
ATOM     42  H5  UNL     1      22.104 -18.662  31.968  1.00  0.00     0.188 HD
ENDBRANCH  32  34
ENDBRANCH  30  32
ENDBRANCH  29  30
BRANCH  29  43
HETATM   43  C10 UNL     1      21.596 -22.155  34.775  1.00  0.00     0.073 A 
HETATM   44  C11 UNL     1      22.631 -22.620  35.525  1.00  0.00     0.085 A 
HETATM   45  S1  UNL     1      21.988 -24.095  36.171  1.00  0.00    -0.064 SA
HETATM   46  C12 UNL     1      20.464 -24.016  35.446  1.00  0.00     0.142 A 
HETATM   47  N7  UNL     1      20.500 -22.890  34.753  1.00  0.00    -0.335 N 
ATOM     48  H7  UNL     1      19.690 -22.594  34.207  1.00  0.00     0.168 HD
BRANCH  46  49
HETATM   49  N6  UNL     1      19.468 -24.872  35.543  1.00  0.00    -0.380 N 
ATOM     50  H62 UNL     1      19.350 -25.618  36.230  1.00  0.00     0.158 HD
ATOM     51  H61 UNL     1      18.638 -24.946  34.955  1.00  0.00     0.158 HD
ENDBRANCH  46  49
ENDBRANCH  29  43
ENDBRANCH   1  29
TORSDOF 17
ENDMDL
