MODEL 1
REMARK VINA RESULT: -6.157582316      0.000      0.000
REMARK  11 active torsions:
REMARK  status: ('A' for Active; 'I' for Inactive)
REMARK    1  A    between atoms: O1_2  and  C2_3 
REMARK    2  A    between atoms: C2_3  and  C3_5 
REMARK    3  A    between atoms: C3_5  and  N1_6 
REMARK    4  A    between atoms: N1_6  and  N2_8 
REMARK    5  A    between atoms: N2_8  and  C4_10 
REMARK    6  A    between atoms: C5_13  and  O3_14 
REMARK    7  A    between atoms: C6_16  and  N4_17 
REMARK       I    between atoms: N5_19  and  C7_21 
REMARK       I    between atoms: C7_21  and  N6_23 
REMARK    8  A    between atoms: N6_23  and  S1_25 
REMARK    9  A    between atoms: S1_25  and  O7_28 
REMARK   10  A    between atoms: O7_28  and  C8_29 
REMARK   11  A    between atoms: N7_32  and  C11_33 
ROOT
HETATM    1  N4  UNL     1      22.987 -21.411  33.397  1.00  0.00    -0.286 N 
ATOM      2  H4  UNL     1      23.529 -22.262  33.251  1.00  0.00     0.188 HD
HETATM    3  N5  UNL     1      23.144 -20.563  32.553  1.00  0.00    -0.250 N 
ATOM      4  H5  UNL     1      23.804 -20.847  31.828  1.00  0.00     0.192 HD
HETATM    5  C7  UNL     1      22.629 -19.278  32.339  1.00  0.00     0.349 C 
HETATM    6  O4  UNL     1      21.380 -19.042  32.305  1.00  0.00    -0.244 OA
HETATM    7  N6  UNL     1      23.529 -18.205  32.152  1.00  0.00    -0.212 N 
ATOM      8  H6  UNL     1      24.534 -18.381  32.181  1.00  0.00     0.185 HD
ENDROOT
BRANCH   7   9
HETATM    9  S1  UNL     1      22.965 -16.624  31.881  1.00  0.00     0.366 S 
HETATM   10  O5  UNL     1      22.025 -16.666  30.678  1.00  0.00    -0.175 OA
HETATM   11  O6  UNL     1      24.057 -15.633  31.602  1.00  0.00    -0.175 OA
BRANCH   9  12
HETATM   12  O7  UNL     1      22.025 -16.159  33.193  1.00  0.00    -0.253 OA
BRANCH  12  13
HETATM   13  C8  UNL     1      22.829 -15.957  34.343  1.00  0.00     0.161 C 
HETATM   14  C9  UNL     1      22.528 -17.074  35.280  1.00  0.00     0.055 C 
HETATM   15  C10 UNL     1      21.681 -16.752  36.455  1.00  0.00     0.144 C 
HETATM   16  N7  UNL     1      20.780 -15.648  36.303  1.00  0.00    -0.216 N 
HETATM   17  C15 UNL     1      20.869 -14.784  35.167  1.00  0.00     0.159 C 
HETATM   18  C16 UNL     1      22.375 -14.619  34.908  1.00  0.00     0.107 C 
HETATM   19 BR1  UNL     1      22.734 -13.190  33.677  1.00  0.00    -0.087 Br
BRANCH  16  20
HETATM   20  C11 UNL     1      19.786 -15.423  37.282  1.00  0.00     0.696 A 
HETATM   21  N8  UNL     1      20.090 -15.386  38.600  1.00  0.00    -0.180 N 
HETATM   22  C12 UNL     1      19.155 -15.170  39.537  1.00  0.00     0.109 A 
ATOM     23  H8  UNL     1      21.058 -15.528  38.890  1.00  0.00     0.185 HD
HETATM   24  C13 UNL     1      19.479 -15.134  40.981  1.00  0.00     0.090 C 
HETATM   25  N9  UNL     1      17.893 -14.987  39.154  1.00  0.00    -0.180 N 
HETATM   26  C14 UNL     1      17.522 -15.013  37.837  1.00  0.00     0.691 A 
ATOM     27  H9  UNL     1      17.180 -14.822  39.864  1.00  0.00     0.185 HD
HETATM   28  N10 UNL     1      16.398 -14.847  37.495  1.00  0.00    -0.234 N 
HETATM   29  N11 UNL     1      18.520 -15.238  36.931  1.00  0.00    -0.022 N 
ATOM     30 2H10 UNL     1      15.653 -14.680  38.171  1.00  0.00     0.174 HD
ATOM     31 1H10 UNL     1      16.122 -14.867  36.514  1.00  0.00     0.174 HD
ATOM     32  H11 UNL     1      18.282 -15.264  35.940  1.00  0.00     0.203 HD
ENDBRANCH  16  20
ENDBRANCH  12  13
ENDBRANCH   9  12
ENDBRANCH   7   9
BRANCH   1  33
HETATM   33  C6  UNL     1      22.168 -21.419  34.564  1.00  0.00     0.143 A 
HETATM   34  C5  UNL     1      21.012 -22.114  34.797  1.00  0.00     0.178 A 
HETATM   35  N3  UNL     1      20.411 -21.953  35.937  1.00  0.00    -0.314 N 
HETATM   36  C4  UNL     1      20.916 -21.128  36.847  1.00  0.00     0.167 A 
ATOM     37  H3  UNL     1      19.549 -22.461  36.133  1.00  0.00     0.170 HD
HETATM   38  S2  UNL     1      22.341 -20.547  36.026  1.00  0.00    -0.029 SA
BRANCH  34  39
HETATM   39  O3  UNL     1      20.525 -22.988  33.770  1.00  0.00    -0.344 OA
ATOM     40  H3  UNL     1      20.777 -22.908  32.857  1.00  0.00     0.219 HD
ENDBRANCH  34  39
BRANCH  36  41
HETATM   41  N2  UNL     1      20.522 -20.782  38.008  1.00  0.00    -0.283 N 
ATOM     42  H2  UNL     1      20.048 -21.556  38.473  1.00  0.00     0.188 HD
BRANCH  41  43
HETATM   43  N1  UNL     1      20.549 -19.710  38.790  1.00  0.00    -0.325 N 
ATOM     44  H1  UNL     1      21.444 -19.240  38.924  1.00  0.00     0.180 HD
BRANCH  43  45
HETATM   45  C3  UNL     1      19.396 -19.167  39.461  1.00  0.00     0.250 C 
BRANCH  45  46
HETATM   46  C2  UNL     1      18.389 -18.607  38.495  1.00  0.00     0.277 C 
HETATM   47  O2  UNL     1      17.266 -18.206  38.925  1.00  0.00    -0.263 OA
BRANCH  46  48
HETATM   48  O1  UNL     1      18.628 -18.507  37.144  1.00  0.00    -0.325 OA
HETATM   49  C1  UNL     1      17.595 -18.594  36.162  1.00  0.00     0.213 C 
ENDBRANCH  46  48
ENDBRANCH  45  46
ENDBRANCH  43  45
ENDBRANCH  41  43
ENDBRANCH  36  41
ENDBRANCH   1  33
TORSDOF 11
ENDMDL
MODEL 2
REMARK VINA RESULT: -6.091706443      0.639      1.388
REMARK  11 active torsions:
REMARK  status: ('A' for Active; 'I' for Inactive)
REMARK    1  A    between atoms: O1_2  and  C2_3 
REMARK    2  A    between atoms: C2_3  and  C3_5 
REMARK    3  A    between atoms: C3_5  and  N1_6 
REMARK    4  A    between atoms: N1_6  and  N2_8 
REMARK    5  A    between atoms: N2_8  and  C4_10 
REMARK    6  A    between atoms: C5_13  and  O3_14 
REMARK    7  A    between atoms: C6_16  and  N4_17 
REMARK       I    between atoms: N5_19  and  C7_21 
REMARK       I    between atoms: C7_21  and  N6_23 
REMARK    8  A    between atoms: N6_23  and  S1_25 
REMARK    9  A    between atoms: S1_25  and  O7_28 
REMARK   10  A    between atoms: O7_28  and  C8_29 
REMARK   11  A    between atoms: N7_32  and  C11_33 
ROOT
HETATM    1  N4  UNL     1      23.017 -21.482  33.352  1.00  0.00    -0.286 N 
ATOM      2  H4  UNL     1      23.543 -22.338  33.175  1.00  0.00     0.188 HD
HETATM    3  N5  UNL     1      23.140 -20.631  32.505  1.00  0.00    -0.250 N 
ATOM      4  H5  UNL     1      23.760 -20.918  31.747  1.00  0.00     0.192 HD
HETATM    5  C7  UNL     1      22.628 -19.340  32.323  1.00  0.00     0.349 C 
HETATM    6  O4  UNL     1      21.381 -19.092  32.353  1.00  0.00    -0.244 OA
HETATM    7  N6  UNL     1      23.528 -18.275  32.096  1.00  0.00    -0.212 N 
ATOM      8  H6  UNL     1      24.531 -18.462  32.074  1.00  0.00     0.185 HD
ENDROOT
BRANCH   7   9
HETATM    9  S1  UNL     1      22.967 -16.687  31.861  1.00  0.00     0.366 S 
HETATM   10  O5  UNL     1      21.915 -16.725  30.755  1.00  0.00    -0.175 OA
HETATM   11  O6  UNL     1      24.043 -15.719  31.467  1.00  0.00    -0.175 OA
BRANCH   9  12
HETATM   12  O7  UNL     1      22.165 -16.192  33.252  1.00  0.00    -0.253 OA
BRANCH  12  13
HETATM   13  C8  UNL     1      23.084 -15.942  34.301  1.00  0.00     0.161 C 
HETATM   14  C9  UNL     1      22.956 -17.071  35.263  1.00  0.00     0.055 C 
HETATM   15  C10 UNL     1      22.235 -16.794  36.529  1.00  0.00     0.144 C 
HETATM   16  N7  UNL     1      21.261 -15.742  36.486  1.00  0.00    -0.216 N 
HETATM   17  C15 UNL     1      21.170 -14.878  35.351  1.00  0.00     0.159 C 
HETATM   18  C16 UNL     1      22.625 -14.629  34.920  1.00  0.00     0.107 C 
HETATM   19 BR1  UNL     1      22.758 -13.186  33.661  1.00  0.00    -0.087 Br
BRANCH  16  20
HETATM   20  C11 UNL     1      20.377 -15.570  37.574  1.00  0.00     0.696 A 
HETATM   21  N8  UNL     1      19.091 -15.190  37.386  1.00  0.00    -0.180 N 
HETATM   22  C12 UNL     1      18.243 -15.027  38.412  1.00  0.00     0.109 A 
ATOM     23  H8  UNL     1      18.758 -15.022  36.436  1.00  0.00     0.185 HD
HETATM   24  C13 UNL     1      16.838 -14.607  38.214  1.00  0.00     0.090 C 
HETATM   25  N9  UNL     1      18.683 -15.247  39.649  1.00  0.00    -0.180 N 
HETATM   26  C14 UNL     1      19.970 -15.631  39.905  1.00  0.00     0.691 A 
ATOM     27  H9  UNL     1      18.040 -15.124  40.431  1.00  0.00     0.185 HD
HETATM   28  N10 UNL     1      20.362 -15.829  41.008  1.00  0.00    -0.234 N 
HETATM   29  N11 UNL     1      20.786 -15.780  38.819  1.00  0.00    -0.022 N 
ATOM     30 2H10 UNL     1      19.754 -15.718  41.819  1.00  0.00     0.174 HD
ATOM     31 1H10 UNL     1      21.322 -16.116  41.198  1.00  0.00     0.174 HD
ATOM     32  H11 UNL     1      21.753 -16.066  38.971  1.00  0.00     0.203 HD
ENDBRANCH  16  20
ENDBRANCH  12  13
ENDBRANCH   9  12
ENDBRANCH   7   9
BRANCH   1  33
HETATM   33  C6  UNL     1      22.257 -21.489  34.559  1.00  0.00     0.143 A 
HETATM   34  C5  UNL     1      21.117 -22.186  34.851  1.00  0.00     0.178 A 
HETATM   35  N3  UNL     1      20.573 -22.022  36.020  1.00  0.00    -0.314 N 
HETATM   36  C4  UNL     1      21.120 -21.193  36.901  1.00  0.00     0.167 A 
ATOM     37  H3  UNL     1      19.723 -22.531  36.260  1.00  0.00     0.170 HD
HETATM   38  S2  UNL     1      22.501 -20.611  36.008  1.00  0.00    -0.029 SA
BRANCH  34  39
HETATM   39  O3  UNL     1      20.581 -23.064  33.853  1.00  0.00    -0.344 OA
ATOM     40  H3  UNL     1      20.721 -22.939  32.921  1.00  0.00     0.219 HD
ENDBRANCH  34  39
BRANCH  36  41
HETATM   41  N2  UNL     1      20.784 -20.844  38.078  1.00  0.00    -0.283 N 
ATOM     42  H2  UNL     1      20.512 -21.656  38.631  1.00  0.00     0.188 HD
BRANCH  41  43
HETATM   43  N1  UNL     1      20.685 -19.732  38.797  1.00  0.00    -0.325 N 
ATOM     44  H1  UNL     1      21.499 -19.119  38.842  1.00  0.00     0.180 HD
BRANCH  43  45
HETATM   45  C3  UNL     1      19.502 -19.335  39.519  1.00  0.00     0.250 C 
BRANCH  45  46
HETATM   46  C2  UNL     1      18.492 -18.670  38.627  1.00  0.00     0.277 C 
HETATM   47  O2  UNL     1      17.427 -18.201  39.129  1.00  0.00    -0.263 OA
BRANCH  46  48
HETATM   48  O1  UNL     1      18.666 -18.542  37.268  1.00  0.00    -0.325 OA
HETATM   49  C1  UNL     1      17.582 -18.353  36.358  1.00  0.00     0.213 C 
ENDBRANCH  46  48
ENDBRANCH  45  46
ENDBRANCH  43  45
ENDBRANCH  41  43
ENDBRANCH  36  41
ENDBRANCH   1  33
TORSDOF 11
ENDMDL
MODEL 3
REMARK VINA RESULT: -6.083569945      2.599      3.948
REMARK  11 active torsions:
REMARK  status: ('A' for Active; 'I' for Inactive)
REMARK    1  A    between atoms: O1_2  and  C2_3 
REMARK    2  A    between atoms: C2_3  and  C3_5 
REMARK    3  A    between atoms: C3_5  and  N1_6 
REMARK    4  A    between atoms: N1_6  and  N2_8 
REMARK    5  A    between atoms: N2_8  and  C4_10 
REMARK    6  A    between atoms: C5_13  and  O3_14 
REMARK    7  A    between atoms: C6_16  and  N4_17 
REMARK       I    between atoms: N5_19  and  C7_21 
REMARK       I    between atoms: C7_21  and  N6_23 
REMARK    8  A    between atoms: N6_23  and  S1_25 
REMARK    9  A    between atoms: S1_25  and  O7_28 
REMARK   10  A    between atoms: O7_28  and  C8_29 
REMARK   11  A    between atoms: N7_32  and  C11_33 
ROOT
HETATM    1  N4  UNL     1      24.288 -18.054  32.557  1.00  0.00    -0.286 N 
ATOM      2  H4  UNL     1      25.008 -18.701  32.237  1.00  0.00     0.188 HD
HETATM    3  N5  UNL     1      24.569 -16.887  32.435  1.00  0.00    -0.250 N 
ATOM      4  H5  UNL     1      25.494 -16.746  32.028  1.00  0.00     0.192 HD
HETATM    5  C7  UNL     1      23.918 -15.681  32.723  1.00  0.00     0.349 C 
HETATM    6  O4  UNL     1      22.751 -15.417  32.291  1.00  0.00    -0.244 OA
HETATM    7  N6  UNL     1      24.581 -14.721  33.520  1.00  0.00    -0.212 N 
ATOM      8  H6  UNL     1      25.516 -14.923  33.875  1.00  0.00     0.185 HD
ENDROOT
BRANCH   7   9
HETATM    9  S1  UNL     1      23.846 -13.235  33.898  1.00  0.00     0.366 S 
HETATM   10  O5  UNL     1      23.658 -12.464  32.593  1.00  0.00    -0.175 OA
HETATM   11  O6  UNL     1      24.646 -12.389  34.844  1.00  0.00    -0.175 OA
BRANCH   9  12
HETATM   12  O7  UNL     1      22.302 -13.537  34.488  1.00  0.00    -0.253 OA
BRANCH  12  13
HETATM   13  C8  UNL     1      22.143 -12.991  35.786  1.00  0.00     0.161 C 
HETATM   14  C9  UNL     1      22.171 -14.133  36.740  1.00  0.00     0.055 C 
HETATM   15  C10 UNL     1      20.873 -14.551  37.323  1.00  0.00     0.144 C 
HETATM   16  N7  UNL     1      19.706 -14.268  36.539  1.00  0.00    -0.216 N 
HETATM   17  C15 UNL     1      19.789 -13.432  35.383  1.00  0.00     0.159 C 
HETATM   18  C16 UNL     1      20.778 -12.318  35.764  1.00  0.00     0.107 C 
HETATM   19 BR1  UNL     1      20.740 -10.870  34.504  1.00  0.00    -0.087 Br
BRANCH  16  20
HETATM   20  C11 UNL     1      18.466 -14.833  36.912  1.00  0.00     0.696 A 
HETATM   21  N8  UNL     1      18.244 -16.166  36.829  1.00  0.00    -0.180 N 
HETATM   22  C12 UNL     1      17.071 -16.711  37.184  1.00  0.00     0.109 A 
ATOM     23  H8  UNL     1      18.990 -16.772  36.488  1.00  0.00     0.185 HD
HETATM   24  C13 UNL     1      16.819 -18.167  37.091  1.00  0.00     0.090 C 
HETATM   25  N9  UNL     1      16.101 -15.915  37.628  1.00  0.00    -0.180 N 
HETATM   26  C14 UNL     1      16.263 -14.561  37.734  1.00  0.00     0.691 A 
ATOM     27  H9  UNL     1      15.208 -16.329  37.899  1.00  0.00     0.185 HD
HETATM   28  N10 UNL     1      15.399 -13.852  38.133  1.00  0.00    -0.234 N 
HETATM   29  N11 UNL     1      17.480 -14.065  37.358  1.00  0.00    -0.022 N 
ATOM     30 2H10 UNL     1      14.491 -14.222  38.413  1.00  0.00     0.174 HD
ATOM     31 1H10 UNL     1      15.520 -12.843  38.211  1.00  0.00     0.174 HD
ATOM     32  H11 UNL     1      17.637 -13.060  37.423  1.00  0.00     0.203 HD
ENDBRANCH  16  20
ENDBRANCH  12  13
ENDBRANCH   9  12
ENDBRANCH   7   9
BRANCH   1  33
HETATM   33  C6  UNL     1      23.114 -18.678  33.074  1.00  0.00     0.143 A 
HETATM   34  C5  UNL     1      21.870 -18.766  32.512  1.00  0.00     0.178 A 
HETATM   35  N3  UNL     1      20.930 -19.367  33.177  1.00  0.00    -0.314 N 
HETATM   36  C4  UNL     1      21.184 -19.879  34.376  1.00  0.00     0.167 A 
ATOM     37  H3  UNL     1      19.996 -19.446  32.778  1.00  0.00     0.170 HD
HETATM   38  S2  UNL     1      22.871 -19.481  34.566  1.00  0.00    -0.029 SA
BRANCH  34  39
HETATM   39  O3  UNL     1      21.668 -18.191  31.214  1.00  0.00    -0.344 OA
ATOM     40  H3  UNL     1      22.382 -17.909  30.654  1.00  0.00     0.219 HD
ENDBRANCH  34  39
BRANCH  36  41
HETATM   41  N2  UNL     1      20.453 -20.485  35.225  1.00  0.00    -0.283 N 
ATOM     42  H2  UNL     1      19.466 -20.376  34.994  1.00  0.00     0.188 HD
BRANCH  41  43
HETATM   43  N1  UNL     1      20.601 -21.219  36.322  1.00  0.00    -0.325 N 
ATOM     44  H1  UNL     1      20.433 -20.769  37.222  1.00  0.00     0.180 HD
BRANCH  43  45
HETATM   45  C3  UNL     1      20.982 -22.608  36.324  1.00  0.00     0.250 C 
BRANCH  45  46
HETATM   46  C2  UNL     1      20.277 -23.391  35.252  1.00  0.00     0.277 C 
HETATM   47  O2  UNL     1      20.536 -23.157  34.033  1.00  0.00    -0.263 OA
BRANCH  46  48
HETATM   48  O1  UNL     1      19.346 -24.365  35.530  1.00  0.00    -0.325 OA
HETATM   49  C1  UNL     1      19.328 -25.634  34.875  1.00  0.00     0.213 C 
ENDBRANCH  46  48
ENDBRANCH  45  46
ENDBRANCH  43  45
ENDBRANCH  41  43
ENDBRANCH  36  41
ENDBRANCH   1  33
TORSDOF 11
ENDMDL
MODEL 4
REMARK VINA RESULT: -6.062337190      2.083      3.377
REMARK  11 active torsions:
REMARK  status: ('A' for Active; 'I' for Inactive)
REMARK    1  A    between atoms: O1_2  and  C2_3 
REMARK    2  A    between atoms: C2_3  and  C3_5 
REMARK    3  A    between atoms: C3_5  and  N1_6 
REMARK    4  A    between atoms: N1_6  and  N2_8 
REMARK    5  A    between atoms: N2_8  and  C4_10 
REMARK    6  A    between atoms: C5_13  and  O3_14 
REMARK    7  A    between atoms: C6_16  and  N4_17 
REMARK       I    between atoms: N5_19  and  C7_21 
REMARK       I    between atoms: C7_21  and  N6_23 
REMARK    8  A    between atoms: N6_23  and  S1_25 
REMARK    9  A    between atoms: S1_25  and  O7_28 
REMARK   10  A    between atoms: O7_28  and  C8_29 
REMARK   11  A    between atoms: N7_32  and  C11_33 
ROOT
HETATM    1  N4  UNL     1      24.319 -18.014  32.385  1.00  0.00    -0.286 N 
ATOM      2  H4  UNL     1      25.127 -18.507  32.006  1.00  0.00     0.188 HD
HETATM    3  N5  UNL     1      24.406 -16.810  32.362  1.00  0.00    -0.250 N 
ATOM      4  H5  UNL     1      25.287 -16.488  31.962  1.00  0.00     0.192 HD
HETATM    5  C7  UNL     1      23.576 -15.754  32.759  1.00  0.00     0.349 C 
HETATM    6  O4  UNL     1      22.373 -15.648  32.360  1.00  0.00    -0.244 OA
HETATM    7  N6  UNL     1      24.093 -14.770  33.631  1.00  0.00    -0.212 N 
ATOM      8  H6  UNL     1      25.056 -14.847  33.959  1.00  0.00     0.185 HD
ENDROOT
BRANCH   7   9
HETATM    9  S1  UNL     1      23.137 -13.460  34.141  1.00  0.00     0.366 S 
HETATM   10  O5  UNL     1      22.693 -12.696  32.896  1.00  0.00    -0.175 OA
HETATM   11  O6  UNL     1      23.853 -12.511  35.056  1.00  0.00    -0.175 OA
BRANCH   9  12
HETATM   12  O7  UNL     1      21.736 -14.063  34.844  1.00  0.00    -0.253 OA
BRANCH  12  13
HETATM   13  C8  UNL     1      21.687 -13.745  36.225  1.00  0.00     0.161 C 
HETATM   14  C9  UNL     1      21.611 -15.036  36.961  1.00  0.00     0.055 C 
HETATM   15  C10 UNL     1      20.292 -15.405  37.532  1.00  0.00     0.144 C 
HETATM   16  N7  UNL     1      19.142 -14.856  36.875  1.00  0.00    -0.216 N 
HETATM   17  C15 UNL     1      19.285 -13.841  35.880  1.00  0.00     0.159 C 
HETATM   18  C16 UNL     1      20.412 -12.931  36.395  1.00  0.00     0.107 C 
HETATM   19 BR1  UNL     1      20.505 -11.285  35.412  1.00  0.00    -0.087 Br
BRANCH  16  20
HETATM   20  C11 UNL     1      17.856 -15.337  37.211  1.00  0.00     0.696 A 
HETATM   21  N8  UNL     1      17.550 -16.652  37.123  1.00  0.00    -0.180 N 
HETATM   22  C12 UNL     1      16.333 -17.118  37.443  1.00  0.00     0.109 A 
ATOM     23  H8  UNL     1      18.264 -17.308  36.805  1.00  0.00     0.185 HD
HETATM   24  C13 UNL     1      15.989 -18.554  37.344  1.00  0.00     0.090 C 
HETATM   25  N9  UNL     1      15.405 -16.259  37.856  1.00  0.00    -0.180 N 
HETATM   26  C14 UNL     1      15.652 -14.918  37.965  1.00  0.00     0.691 A 
ATOM     27  H9  UNL     1      14.479 -16.611  38.100  1.00  0.00     0.185 HD
HETATM   28  N10 UNL     1      14.826 -14.151  38.336  1.00  0.00    -0.234 N 
HETATM   29  N11 UNL     1      16.910 -14.504  37.625  1.00  0.00    -0.022 N 
ATOM     30 2H10 UNL     1      13.887 -14.459  38.589  1.00  0.00     0.174 HD
ATOM     31 1H10 UNL     1      15.011 -13.152  38.417  1.00  0.00     0.174 HD
ATOM     32  H11 UNL     1      17.132 -13.511  37.694  1.00  0.00     0.203 HD
ENDBRANCH  16  20
ENDBRANCH  12  13
ENDBRANCH   9  12
ENDBRANCH   7   9
BRANCH   1  33
HETATM   33  C6  UNL     1      23.272 -18.861  32.856  1.00  0.00     0.143 A 
HETATM   34  C5  UNL     1      22.002 -19.008  32.368  1.00  0.00     0.178 A 
HETATM   35  N3  UNL     1      21.197 -19.828  32.973  1.00  0.00    -0.314 N 
HETATM   36  C4  UNL     1      21.608 -20.502  34.041  1.00  0.00     0.167 A 
ATOM     37  H3  UNL     1      20.247 -19.955  32.626  1.00  0.00     0.170 HD
HETATM   38  S2  UNL     1      23.250 -19.931  34.191  1.00  0.00    -0.029 SA
BRANCH  34  39
HETATM   39  O3  UNL     1      21.626 -18.250  31.211  1.00  0.00    -0.344 OA
ATOM     40  H3  UNL     1      21.295 -18.647  30.414  1.00  0.00     0.219 HD
ENDBRANCH  34  39
BRANCH  36  41
HETATM   41  N2  UNL     1      21.026 -21.332  34.811  1.00  0.00    -0.283 N 
ATOM     42  H2  UNL     1      20.895 -22.228  34.342  1.00  0.00     0.188 HD
BRANCH  41  43
HETATM   43  N1  UNL     1      20.541 -21.373  36.046  1.00  0.00    -0.325 N 
ATOM     44  H1  UNL     1      19.907 -22.135  36.285  1.00  0.00     0.180 HD
BRANCH  43  45
HETATM   45  C3  UNL     1      20.852 -20.410  37.072  1.00  0.00     0.250 C 
BRANCH  45  46
HETATM   46  C2  UNL     1      19.851 -19.289  37.119  1.00  0.00     0.277 C 
HETATM   47  O2  UNL     1      19.281 -18.915  36.052  1.00  0.00    -0.263 OA
BRANCH  46  48
HETATM   48  O1  UNL     1      19.517 -18.637  38.283  1.00  0.00    -0.325 OA
HETATM   49  C1  UNL     1      19.105 -19.320  39.468  1.00  0.00     0.213 C 
ENDBRANCH  46  48
ENDBRANCH  45  46
ENDBRANCH  43  45
ENDBRANCH  41  43
ENDBRANCH  36  41
ENDBRANCH   1  33
TORSDOF 11
ENDMDL
MODEL 5
REMARK VINA RESULT: -6.044256184      3.741      8.248
REMARK  11 active torsions:
REMARK  status: ('A' for Active; 'I' for Inactive)
REMARK    1  A    between atoms: O1_2  and  C2_3 
REMARK    2  A    between atoms: C2_3  and  C3_5 
REMARK    3  A    between atoms: C3_5  and  N1_6 
REMARK    4  A    between atoms: N1_6  and  N2_8 
REMARK    5  A    between atoms: N2_8  and  C4_10 
REMARK    6  A    between atoms: C5_13  and  O3_14 
REMARK    7  A    between atoms: C6_16  and  N4_17 
REMARK       I    between atoms: N5_19  and  C7_21 
REMARK       I    between atoms: C7_21  and  N6_23 
REMARK    8  A    between atoms: N6_23  and  S1_25 
REMARK    9  A    between atoms: S1_25  and  O7_28 
REMARK   10  A    between atoms: O7_28  and  C8_29 
REMARK   11  A    between atoms: N7_32  and  C11_33 
ROOT
HETATM    1  N4  UNL     1      16.436 -13.021  37.206  1.00  0.00    -0.286 N 
ATOM      2  H4  UNL     1      15.834 -12.308  37.618  1.00  0.00     0.188 HD
HETATM    3  N5  UNL     1      16.100 -14.158  37.435  1.00  0.00    -0.250 N 
ATOM      4  H5  UNL     1      15.260 -14.211  38.011  1.00  0.00     0.192 HD
HETATM    5  C7  UNL     1      16.599 -15.421  37.091  1.00  0.00     0.349 C 
HETATM    6  O4  UNL     1      16.826 -15.758  35.887  1.00  0.00    -0.244 OA
HETATM    7  N6  UNL     1      16.858 -16.354  38.120  1.00  0.00    -0.212 N 
ATOM      8  H6  UNL     1      16.683 -16.093  39.090  1.00  0.00     0.185 HD
ENDROOT
BRANCH   7   9
HETATM    9  S1  UNL     1      17.457 -17.906  37.765  1.00  0.00     0.366 S 
HETATM   10  O5  UNL     1      16.427 -18.612  36.887  1.00  0.00    -0.175 OA
HETATM   11  O6  UNL     1      17.709 -18.747  38.981  1.00  0.00    -0.175 OA
BRANCH   9  12
HETATM   12  O7  UNL     1      18.840 -17.743  36.824  1.00  0.00    -0.253 OA
BRANCH  12  13
HETATM   13  C8  UNL     1      19.965 -17.440  37.631  1.00  0.00     0.161 C 
HETATM   14  C9  UNL     1      20.293 -16.008  37.389  1.00  0.00     0.055 C 
HETATM   15  C10 UNL     1      21.478 -15.726  36.542  1.00  0.00     0.144 C 
HETATM   16  N7  UNL     1      21.831 -16.739  35.591  1.00  0.00    -0.216 N 
HETATM   17  C15 UNL     1      21.210 -18.026  35.629  1.00  0.00     0.159 C 
HETATM   18  C16 UNL     1      21.069 -18.357  37.124  1.00  0.00     0.107 C 
HETATM   19 BR1  UNL     1      20.620 -20.202  37.406  1.00  0.00    -0.087 Br
BRANCH  16  20
HETATM   20  C11 UNL     1      22.796 -16.453  34.599  1.00  0.00     0.696 A 
HETATM   21  N8  UNL     1      24.054 -16.075  34.925  1.00  0.00    -0.180 N 
HETATM   22  C12 UNL     1      24.977 -15.805  33.991  1.00  0.00     0.109 A 
ATOM     23  H8  UNL     1      24.307 -15.993  35.911  1.00  0.00     0.185 HD
HETATM   24  C13 UNL     1      26.353 -15.385  34.341  1.00  0.00     0.090 C 
HETATM   25  N9  UNL     1      24.642 -15.913  32.707  1.00  0.00    -0.180 N 
HETATM   26  C14 UNL     1      23.388 -16.289  32.313  1.00  0.00     0.691 A 
ATOM     27  H9  UNL     1      25.343 -15.708  31.995  1.00  0.00     0.185 HD
HETATM   28  N10 UNL     1      23.089 -16.388  31.169  1.00  0.00    -0.234 N 
HETATM   29  N11 UNL     1      22.491 -16.551  33.311  1.00  0.00    -0.022 N 
ATOM     30 2H10 UNL     1      23.757 -16.193  30.423  1.00  0.00     0.174 HD
ATOM     31 1H10 UNL     1      22.154 -16.669  30.875  1.00  0.00     0.174 HD
ATOM     32  H11 UNL     1      21.546 -16.835  33.055  1.00  0.00     0.203 HD
ENDBRANCH  16  20
ENDBRANCH  12  13
ENDBRANCH   9  12
ENDBRANCH   7   9
BRANCH   1  33
HETATM   33  C6  UNL     1      17.536 -12.510  36.456  1.00  0.00     0.143 A 
HETATM   34  C5  UNL     1      17.785 -12.621  35.115  1.00  0.00     0.178 A 
HETATM   35  N3  UNL     1      18.872 -12.092  34.641  1.00  0.00    -0.314 N 
HETATM   36  C4  UNL     1      19.716 -11.461  35.449  1.00  0.00     0.167 A 
ATOM     37  H3  UNL     1      19.079 -12.161  33.645  1.00  0.00     0.170 HD
HETATM   38  S2  UNL     1      18.905 -11.631  36.985  1.00  0.00    -0.029 SA
BRANCH  34  39
HETATM   39  O3  UNL     1      16.830 -13.315  34.301  1.00  0.00    -0.344 OA
ATOM     40  H3  UNL     1      16.683 -14.252  34.356  1.00  0.00     0.219 HD
ENDBRANCH  34  39
BRANCH  36  41
HETATM   41  N2  UNL     1      20.834 -10.887  35.249  1.00  0.00    -0.283 N 
ATOM     42  H2  UNL     1      20.698  -9.969  34.826  1.00  0.00     0.188 HD
BRANCH  41  43
HETATM   43  N1  UNL     1      22.126 -11.133  35.428  1.00  0.00    -0.325 N 
ATOM     44  H1  UNL     1      22.725 -10.357  35.711  1.00  0.00     0.180 HD
BRANCH  43  45
HETATM   45  C3  UNL     1      22.739 -12.425  35.250  1.00  0.00     0.250 C 
BRANCH  45  46
HETATM   46  C2  UNL     1      22.608 -12.923  33.838  1.00  0.00     0.277 C 
HETATM   47  O2  UNL     1      21.518 -13.444  33.457  1.00  0.00    -0.263 OA
BRANCH  46  48
HETATM   48  O1  UNL     1      23.631 -12.842  32.921  1.00  0.00    -0.325 OA
HETATM   49  C1  UNL     1      23.969 -11.635  32.236  1.00  0.00     0.213 C 
ENDBRANCH  46  48
ENDBRANCH  45  46
ENDBRANCH  43  45
ENDBRANCH  41  43
ENDBRANCH  36  41
ENDBRANCH   1  33
TORSDOF 11
ENDMDL
