MODEL 1
REMARK VINA RESULT: -6.823501189      0.000      0.000
REMARK  10 active torsions:
REMARK  status: ('A' for Active; 'I' for Inactive)
REMARK       I    between atoms: C2_2  and  N1_4 
REMARK    1  A    between atoms: N2_7  and  C5_8 
REMARK    2  A    between atoms: C6_11  and  N4_12 
REMARK    3  A    between atoms: C7_17  and  N6_18 
REMARK    4  A    between atoms: C8_21  and  N7_22 
REMARK    5  A    between atoms: C9_26  and  C10_27 
REMARK       I    between atoms: C10_27  and  N10_29 
REMARK    6  A    between atoms: N10_29  and  C11_31 
REMARK    7  A    between atoms: C11_31  and  C12_32 
REMARK    8  A    between atoms: C13_38  and  N13_39 
REMARK    9  A    between atoms: N13_39  and  C14_41 
REMARK   10  A    between atoms: C14_41  and  C15_42 
ROOT
HETATM    1  N7  UNL     1       4.899  -6.338   2.738  1.00  0.00    -0.171 N 
HETATM    2  N8  UNL     1       4.527  -7.126   3.732  1.00  0.00     0.003 NA
HETATM    3  N9  UNL     1       3.367  -7.704   3.467  1.00  0.00    -0.262 N 
ATOM      4  H9  UNL     1       2.864  -8.356   4.069  1.00  0.00     0.186 HD
HETATM    5  C9  UNL     1       2.977  -7.276   2.263  1.00  0.00     0.203 A 
HETATM    6  N14 UNL     1       3.934  -6.440   1.839  1.00  0.00    -0.260 N 
ATOM      7  H14 UNL     1       3.920  -5.949   0.945  1.00  0.00     0.190 HD
ENDROOT
BRANCH   1   8
HETATM    8  C8  UNL     1       6.072  -5.540   2.628  1.00  0.00     0.161 A 
HETATM    9  C5  UNL     1       7.160  -6.016   1.926  1.00  0.00     0.153 A 
HETATM   10  N3  UNL     1       8.274  -5.254   1.823  1.00  0.00    -0.174 N 
HETATM   11  C6  UNL     1       8.368  -4.041   2.381  1.00  0.00     0.679 A 
ATOM     12  H3  UNL     1       9.071  -5.617   1.301  1.00  0.00     0.186 HD
HETATM   13  N5  UNL     1       7.300  -3.591   3.062  1.00  0.00    -0.175 N 
HETATM   14  C7  UNL     1       6.157  -4.291   3.208  1.00  0.00     0.148 A 
ATOM     15  H5  UNL     1       7.358  -2.668   3.493  1.00  0.00     0.186 HD
BRANCH   9  16
HETATM   16  N2  UNL     1       7.074  -7.302   1.331  1.00  0.00    -0.362 N 
HETATM   17  C4  UNL     1       6.456  -7.542   0.031  1.00  0.00     0.144 C 
HETATM   18  C3  UNL     1       7.297  -8.388  -0.857  1.00  0.00     0.145 C 
HETATM   19  N1  UNL     1       8.246  -9.238  -0.180  1.00  0.00    -0.349 N 
HETATM   20  C2  UNL     1       8.668 -10.418  -0.837  1.00  0.00     0.215 C 
HETATM   21  C17 UNL     1       8.779  -8.934   1.134  1.00  0.00     0.145 C 
HETATM   22  C1  UNL     1       9.641 -11.308  -0.169  1.00  0.00     0.117 C 
HETATM   23  O1  UNL     1       8.230 -10.722  -1.979  1.00  0.00    -0.274 OA
HETATM   24  C16 UNL     1       7.608  -8.477   1.994  1.00  0.00     0.144 C 
ENDBRANCH   9  16
BRANCH  11  25
HETATM   25  N4  UNL     1       9.402  -3.283   2.310  1.00  0.00    -0.234 N 
ATOM     26  H42 UNL     1      10.216  -3.628   1.803  1.00  0.00     0.174 HD
ATOM     27  H41 UNL     1       9.470  -2.355   2.727  1.00  0.00     0.174 HD
ENDBRANCH  11  25
BRANCH  14  28
HETATM   28  N6  UNL     1       5.151  -3.828   3.871  1.00  0.00    -0.383 N 
ATOM     29  H62 UNL     1       5.292  -3.475   4.817  1.00  0.00     0.157 HD
ATOM     30  H61 UNL     1       4.211  -3.800   3.477  1.00  0.00     0.157 HD
ENDBRANCH  14  28
ENDBRANCH   1   8
BRANCH   5  31
HETATM   31  C10 UNL     1       1.754  -7.639   1.547  1.00  0.00     0.288 C 
HETATM   32  O2  UNL     1       1.708  -7.754   0.306  1.00  0.00    -0.264 OA
HETATM   33  N10 UNL     1       0.555  -7.876   2.286  1.00  0.00    -0.349 N 
ATOM     34  H10 UNL     1       0.571  -7.789   3.303  1.00  0.00     0.163 HD
BRANCH  33  35
HETATM   35  C11 UNL     1      -0.676  -8.238   1.631  1.00  0.00     0.186 C 
BRANCH  35  36
HETATM   36  C12 UNL     1      -1.400  -7.004   1.266  1.00  0.00     0.097 A 
HETATM   37  N11 UNL     1      -0.939  -5.964   0.570  1.00  0.00    -0.240 N 
HETATM   38  O3  UNL     1      -1.864  -5.084   0.457  1.00  0.00    -0.155 OA
ATOM     39  H11 UNL     1       0.003  -5.881   0.187  1.00  0.00     0.196 HD
HETATM   40  N12 UNL     1      -2.952  -5.479   1.051  1.00  0.00    -0.224 N 
HETATM   41  C13 UNL     1      -2.745  -6.683   1.588  1.00  0.00     0.153 A 
ATOM     42  H12 UNL     1      -3.824  -4.952   1.098  1.00  0.00     0.198 HD
BRANCH  41  43
HETATM   43  N13 UNL     1      -3.421  -7.496   2.247  1.00  0.00    -0.352 N 
ATOM     44  H13 UNL     1      -3.189  -8.461   2.011  1.00  0.00     0.166 HD
BRANCH  43  45
HETATM   45  C14 UNL     1      -4.397  -7.426   3.208  1.00  0.00     0.077 C 
BRANCH  45  46
HETATM   46  C15 UNL     1      -5.810  -7.464   2.732  1.00  0.00     0.159 C 
HETATM   47 CL1  UNL     1      -6.313  -5.812   2.186  1.00  0.00    -0.125 Cl
ENDBRANCH  45  46
ENDBRANCH  43  45
ENDBRANCH  41  43
ENDBRANCH  35  36
ENDBRANCH  33  35
ENDBRANCH   5  31
TORSDOF 10
ENDMDL
MODEL 2
REMARK VINA RESULT: -6.810101183      3.675      4.355
REMARK  10 active torsions:
REMARK  status: ('A' for Active; 'I' for Inactive)
REMARK       I    between atoms: C2_2  and  N1_4 
REMARK    1  A    between atoms: N2_7  and  C5_8 
REMARK    2  A    between atoms: C6_11  and  N4_12 
REMARK    3  A    between atoms: C7_17  and  N6_18 
REMARK    4  A    between atoms: C8_21  and  N7_22 
REMARK    5  A    between atoms: C9_26  and  C10_27 
REMARK       I    between atoms: C10_27  and  N10_29 
REMARK    6  A    between atoms: N10_29  and  C11_31 
REMARK    7  A    between atoms: C11_31  and  C12_32 
REMARK    8  A    between atoms: C13_38  and  N13_39 
REMARK    9  A    between atoms: N13_39  and  C14_41 
REMARK   10  A    between atoms: C14_41  and  C15_42 
ROOT
HETATM    1  N7  UNL     1       5.245  -7.332   2.024  1.00  0.00    -0.171 N 
HETATM    2  N8  UNL     1       4.809  -8.104   3.005  1.00  0.00     0.003 NA
HETATM    3  N9  UNL     1       3.655  -8.665   2.685  1.00  0.00    -0.262 N 
ATOM      4  H9  UNL     1       3.110  -9.302   3.266  1.00  0.00     0.186 HD
HETATM    5  C9  UNL     1       3.334  -8.242   1.458  1.00  0.00     0.203 A 
HETATM    6  N14 UNL     1       4.326  -7.426   1.077  1.00  0.00    -0.260 N 
ATOM      7  H14 UNL     1       4.367  -6.944   0.180  1.00  0.00     0.190 HD
ENDROOT
BRANCH   1   8
HETATM    8  C8  UNL     1       6.436  -6.555   1.968  1.00  0.00     0.161 A 
HETATM    9  C5  UNL     1       7.547  -7.051   1.320  1.00  0.00     0.153 A 
HETATM   10  N3  UNL     1       8.678  -6.308   1.268  1.00  0.00    -0.174 N 
HETATM   11  C6  UNL     1       8.766  -5.095   1.827  1.00  0.00     0.679 A 
ATOM     12  H3  UNL     1       9.492  -6.686   0.785  1.00  0.00     0.186 HD
HETATM   13  N5  UNL     1       7.675  -4.625   2.456  1.00  0.00    -0.175 N 
HETATM   14  C7  UNL     1       6.515  -5.305   2.549  1.00  0.00     0.148 A 
ATOM     15  H5  UNL     1       7.728  -3.703   2.887  1.00  0.00     0.186 HD
BRANCH   9  16
HETATM   16  N2  UNL     1       7.467  -8.337   0.724  1.00  0.00    -0.362 N 
HETATM   17  C4  UNL     1       7.000  -8.559  -0.641  1.00  0.00     0.144 C 
HETATM   18  C3  UNL     1       7.897  -9.456  -1.417  1.00  0.00     0.145 C 
HETATM   19  N1  UNL     1       8.711 -10.346  -0.625  1.00  0.00    -0.349 N 
HETATM   20  C2  UNL     1       9.148 -11.553  -1.221  1.00  0.00     0.215 C 
HETATM   21  C17 UNL     1       9.096 -10.056   0.742  1.00  0.00     0.145 C 
HETATM   22  C1  UNL     1       9.985 -12.485  -0.435  1.00  0.00     0.117 C 
HETATM   23  O1  UNL     1       8.837 -11.846  -2.406  1.00  0.00    -0.274 OA
HETATM   24  C16 UNL     1       7.855  -9.531   1.451  1.00  0.00     0.144 C 
ENDBRANCH   9  16
BRANCH  11  25
HETATM   25  N4  UNL     1       9.815  -4.355   1.804  1.00  0.00    -0.234 N 
ATOM     26  H42 UNL     1      10.392  -4.367   0.963  1.00  0.00     0.174 HD
ATOM     27  H41 UNL     1      10.117  -3.752   2.569  1.00  0.00     0.174 HD
ENDBRANCH  11  25
BRANCH  14  28
HETATM   28  N6  UNL     1       5.487  -4.823   3.162  1.00  0.00    -0.383 N 
ATOM     29  H62 UNL     1       5.434  -4.885   4.179  1.00  0.00     0.157 HD
ATOM     30  H61 UNL     1       4.719  -4.376   2.661  1.00  0.00     0.157 HD
ENDBRANCH  14  28
ENDBRANCH   1   8
BRANCH   5  31
HETATM   31  C10 UNL     1       2.144  -8.592   0.683  1.00  0.00     0.288 C 
HETATM   32  O2  UNL     1       1.510  -7.758   0.007  1.00  0.00    -0.264 OA
HETATM   33  N10 UNL     1       1.676  -9.942   0.691  1.00  0.00    -0.349 N 
ATOM     34  H10 UNL     1       2.180 -10.641   1.238  1.00  0.00     0.163 HD
BRANCH  33  35
HETATM   35  C11 UNL     1       0.510 -10.340  -0.055  1.00  0.00     0.186 C 
BRANCH  35  36
HETATM   36  C12 UNL     1       0.931 -10.764  -1.405  1.00  0.00     0.097 A 
HETATM   37  N11 UNL     1       1.757 -10.130  -2.237  1.00  0.00    -0.240 N 
HETATM   38  O3  UNL     1       1.877 -10.810  -3.316  1.00  0.00    -0.155 OA
ATOM     39  H11 UNL     1       2.220  -9.241  -2.045  1.00  0.00     0.196 HD
HETATM   40  N12 UNL     1       1.163 -11.896  -3.260  1.00  0.00    -0.224 N 
HETATM   41  C13 UNL     1       0.532 -11.944  -2.086  1.00  0.00     0.153 A 
ATOM     42  H12 UNL     1       1.095 -12.597  -3.997  1.00  0.00     0.198 HD
BRANCH  41  43
HETATM   43  N13 UNL     1      -0.253 -12.732  -1.525  1.00  0.00    -0.352 N 
ATOM     44  H13 UNL     1      -0.364 -12.515  -0.534  1.00  0.00     0.166 HD
BRANCH  43  45
HETATM   45  C14 UNL     1      -1.006 -13.816  -1.897  1.00  0.00     0.077 C 
BRANCH  45  46
HETATM   46  C15 UNL     1      -1.918 -13.630  -3.062  1.00  0.00     0.159 C 
HETATM   47 CL1  UNL     1      -1.119 -14.247  -4.565  1.00  0.00    -0.125 Cl
ENDBRANCH  45  46
ENDBRANCH  43  45
ENDBRANCH  41  43
ENDBRANCH  35  36
ENDBRANCH  33  35
ENDBRANCH   5  31
TORSDOF 10
ENDMDL
MODEL 3
REMARK VINA RESULT: -6.513630896      3.260      8.816
REMARK  10 active torsions:
REMARK  status: ('A' for Active; 'I' for Inactive)
REMARK       I    between atoms: C2_2  and  N1_4 
REMARK    1  A    between atoms: N2_7  and  C5_8 
REMARK    2  A    between atoms: C6_11  and  N4_12 
REMARK    3  A    between atoms: C7_17  and  N6_18 
REMARK    4  A    between atoms: C8_21  and  N7_22 
REMARK    5  A    between atoms: C9_26  and  C10_27 
REMARK       I    between atoms: C10_27  and  N10_29 
REMARK    6  A    between atoms: N10_29  and  C11_31 
REMARK    7  A    between atoms: C11_31  and  C12_32 
REMARK    8  A    between atoms: C13_38  and  N13_39 
REMARK    9  A    between atoms: N13_39  and  C14_41 
REMARK   10  A    between atoms: C14_41  and  C15_42 
ROOT
HETATM    1  N7  UNL     1      -0.032  -7.572   0.930  1.00  0.00    -0.171 N 
HETATM    2  N8  UNL     1       0.493  -7.781  -0.265  1.00  0.00     0.003 NA
HETATM    3  N9  UNL     1       1.801  -7.952  -0.183  1.00  0.00    -0.262 N 
ATOM      4  H9  UNL     1       2.438  -8.129  -0.960  1.00  0.00     0.186 HD
HETATM    5  C9  UNL     1       2.134  -7.850   1.107  1.00  0.00     0.203 A 
HETATM    6  N14 UNL     1       0.992  -7.617   1.767  1.00  0.00    -0.260 N 
ATOM      7  H14 UNL     1       0.921  -7.492   2.777  1.00  0.00     0.190 HD
ENDROOT
BRANCH   1   8
HETATM    8  C8  UNL     1      -1.393  -7.343   1.276  1.00  0.00     0.161 A 
HETATM    9  C5  UNL     1      -2.134  -8.357   1.846  1.00  0.00     0.153 A 
HETATM   10  N3  UNL     1      -3.429  -8.134   2.174  1.00  0.00    -0.174 N 
HETATM   11  C6  UNL     1      -4.031  -6.957   1.966  1.00  0.00     0.679 A 
ATOM     12  H3  UNL     1      -3.965  -8.892   2.595  1.00  0.00     0.186 HD
HETATM   13  N5  UNL     1      -3.295  -5.979   1.410  1.00  0.00    -0.175 N 
HETATM   14  C7  UNL     1      -2.003  -6.124   1.057  1.00  0.00     0.148 A 
ATOM     15  H5  UNL     1      -3.741  -5.076   1.245  1.00  0.00     0.186 HD
BRANCH   9  16
HETATM   16  N2  UNL     1      -1.509  -9.611   2.069  1.00  0.00    -0.362 N 
HETATM   17  C4  UNL     1      -1.187 -10.547   0.996  1.00  0.00     0.144 C 
HETATM   18  C3  UNL     1       0.202 -11.069   1.087  1.00  0.00     0.145 C 
HETATM   19  N1  UNL     1       0.791 -11.027   2.403  1.00  0.00    -0.349 N 
HETATM   20  C2  UNL     1       1.816 -11.955   2.703  1.00  0.00     0.215 C 
HETATM   21  C17 UNL     1       0.378 -10.080   3.421  1.00  0.00     0.145 C 
HETATM   22  C1  UNL     1       2.440 -11.934   4.043  1.00  0.00     0.117 C 
HETATM   23  O1  UNL     1       2.207 -12.795   1.849  1.00  0.00    -0.274 OA
HETATM   24  C16 UNL     1      -1.145 -10.046   3.404  1.00  0.00     0.144 C 
ENDBRANCH   9  16
BRANCH  11  25
HETATM   25  N4  UNL     1      -5.253  -6.700   2.261  1.00  0.00    -0.234 N 
ATOM     26  H42 UNL     1      -5.849  -7.474   2.556  1.00  0.00     0.174 HD
ATOM     27  H41 UNL     1      -5.677  -5.774   2.221  1.00  0.00     0.174 HD
ENDBRANCH  11  25
BRANCH  14  28
HETATM   28  N6  UNL     1      -1.327  -5.162   0.523  1.00  0.00    -0.383 N 
ATOM     29  H62 UNL     1      -0.309  -5.216   0.501  1.00  0.00     0.157 HD
ATOM     30  H61 UNL     1      -1.780  -4.344   0.116  1.00  0.00     0.157 HD
ENDBRANCH  14  28
ENDBRANCH   1   8
BRANCH   5  31
HETATM   31  C10 UNL     1       3.471  -7.967   1.689  1.00  0.00     0.288 C 
HETATM   32  O2  UNL     1       4.163  -9.000   1.588  1.00  0.00    -0.264 OA
HETATM   33  N10 UNL     1       4.022  -6.860   2.405  1.00  0.00    -0.349 N 
ATOM     34  H10 UNL     1       3.473  -6.005   2.499  1.00  0.00     0.163 HD
BRANCH  33  35
HETATM   35  C11 UNL     1       5.334  -6.921   2.996  1.00  0.00     0.186 C 
BRANCH  35  36
HETATM   36  C12 UNL     1       6.330  -6.510   1.987  1.00  0.00     0.097 A 
HETATM   37  N11 UNL     1       6.462  -6.962   0.740  1.00  0.00    -0.240 N 
HETATM   38  O3  UNL     1       7.442  -6.364   0.172  1.00  0.00    -0.155 OA
ATOM     39  H11 UNL     1       5.874  -7.674   0.306  1.00  0.00     0.196 HD
HETATM   40  N12 UNL     1       7.995  -5.510   0.984  1.00  0.00    -0.224 N 
HETATM   41  C13 UNL     1       7.353  -5.539   2.153  1.00  0.00     0.153 A 
ATOM     42  H12 UNL     1       8.792  -4.913   0.761  1.00  0.00     0.198 HD
BRANCH  41  43
HETATM   43  N13 UNL     1       7.458  -4.950   3.245  1.00  0.00    -0.352 N 
ATOM     44  H13 UNL     1       7.618  -5.602   4.014  1.00  0.00     0.166 HD
BRANCH  43  45
HETATM   45  C14 UNL     1       7.415  -3.649   3.680  1.00  0.00     0.077 C 
BRANCH  45  46
HETATM   46  C15 UNL     1       6.387  -3.322   4.710  1.00  0.00     0.159 C 
HETATM   47 CL1  UNL     1       4.732  -3.536   4.009  1.00  0.00    -0.125 Cl
ENDBRANCH  45  46
ENDBRANCH  43  45
ENDBRANCH  41  43
ENDBRANCH  35  36
ENDBRANCH  33  35
ENDBRANCH   5  31
TORSDOF 10
ENDMDL
MODEL 4
REMARK VINA RESULT: -6.487025431      5.507      9.672
REMARK  10 active torsions:
REMARK  status: ('A' for Active; 'I' for Inactive)
REMARK       I    between atoms: C2_2  and  N1_4 
REMARK    1  A    between atoms: N2_7  and  C5_8 
REMARK    2  A    between atoms: C6_11  and  N4_12 
REMARK    3  A    between atoms: C7_17  and  N6_18 
REMARK    4  A    between atoms: C8_21  and  N7_22 
REMARK    5  A    between atoms: C9_26  and  C10_27 
REMARK       I    between atoms: C10_27  and  N10_29 
REMARK    6  A    between atoms: N10_29  and  C11_31 
REMARK    7  A    between atoms: C11_31  and  C12_32 
REMARK    8  A    between atoms: C13_38  and  N13_39 
REMARK    9  A    between atoms: N13_39  and  C14_41 
REMARK   10  A    between atoms: C14_41  and  C15_42 
ROOT
HETATM    1  N7  UNL     1       5.107  -5.856   3.285  1.00  0.00    -0.171 N 
HETATM    2  N8  UNL     1       4.690  -4.760   2.674  1.00  0.00     0.003 NA
HETATM    3  N9  UNL     1       5.611  -3.812   2.726  1.00  0.00    -0.262 N 
ATOM      4  H9  UNL     1       5.536  -2.875   2.331  1.00  0.00     0.186 HD
HETATM    5  C9  UNL     1       6.656  -4.310   3.393  1.00  0.00     0.203 A 
HETATM    6  N14 UNL     1       6.321  -5.564   3.724  1.00  0.00    -0.260 N 
ATOM      7  H14 UNL     1       6.919  -6.206   4.243  1.00  0.00     0.190 HD
ENDROOT
BRANCH   1   8
HETATM    8  C8  UNL     1       4.426  -7.094   3.454  1.00  0.00     0.161 A 
HETATM    9  C5  UNL     1       4.751  -8.169   2.654  1.00  0.00     0.153 A 
HETATM   10  N3  UNL     1       4.101  -9.345   2.819  1.00  0.00    -0.174 N 
HETATM   11  C6  UNL     1       3.140  -9.512   3.736  1.00  0.00     0.679 A 
ATOM     12  H3  UNL     1       4.351 -10.132   2.222  1.00  0.00     0.186 HD
HETATM   13  N5  UNL     1       2.834  -8.455   4.508  1.00  0.00    -0.175 N 
HETATM   14  C7  UNL     1       3.436  -7.254   4.403  1.00  0.00     0.148 A 
ATOM     15  H5  UNL     1       2.103  -8.567   5.210  1.00  0.00     0.186 HD
BRANCH   9  16
HETATM   16  N2  UNL     1       5.766  -8.004   1.676  1.00  0.00    -0.362 N 
HETATM   17  C4  UNL     1       7.147  -8.436   1.875  1.00  0.00     0.144 C 
HETATM   18  C3  UNL     1       7.680  -9.207   0.720  1.00  0.00     0.145 C 
HETATM   19  N1  UNL     1       7.024  -8.958  -0.541  1.00  0.00    -0.349 N 
HETATM   20  C2  UNL     1       7.760  -9.183  -1.728  1.00  0.00     0.215 C 
HETATM   21  C17 UNL     1       5.654  -8.493  -0.638  1.00  0.00     0.145 C 
HETATM   22  C1  UNL     1       7.114  -8.939  -3.035  1.00  0.00     0.117 C 
HETATM   23  O1  UNL     1       8.953  -9.587  -1.690  1.00  0.00    -0.274 OA
HETATM   24  C16 UNL     1       5.486  -7.386   0.394  1.00  0.00     0.144 C 
ENDBRANCH   9  16
BRANCH  11  25
HETATM   25  N4  UNL     1       2.497 -10.606   3.928  1.00  0.00    -0.234 N 
ATOM     26  H42 UNL     1       2.727 -11.159   4.754  1.00  0.00     0.174 HD
ATOM     27  H41 UNL     1       1.769 -10.967   3.312  1.00  0.00     0.174 HD
ENDBRANCH  11  25
BRANCH  14  28
HETATM   28  N6  UNL     1       3.115  -6.259   5.161  1.00  0.00    -0.383 N 
ATOM     29  H62 UNL     1       3.540  -6.173   6.084  1.00  0.00     0.157 HD
ATOM     30  H61 UNL     1       2.446  -5.548   4.865  1.00  0.00     0.157 HD
ENDBRANCH  14  28
ENDBRANCH   1   8
BRANCH   5  31
HETATM   31  C10 UNL     1       7.914  -3.631   3.704  1.00  0.00     0.288 C 
HETATM   32  O2  UNL     1       7.958  -2.523   4.277  1.00  0.00    -0.264 OA
HETATM   33  N10 UNL     1       9.150  -4.248   3.343  1.00  0.00    -0.349 N 
ATOM     34  H10 UNL     1       9.137  -5.154   2.874  1.00  0.00     0.163 HD
BRANCH  33  35
HETATM   35  C11 UNL     1      10.417  -3.623   3.627  1.00  0.00     0.186 C 
BRANCH  35  36
HETATM   36  C12 UNL     1      11.215  -3.580   2.385  1.00  0.00     0.097 A 
HETATM   37  N11 UNL     1      10.794  -3.795   1.138  1.00  0.00    -0.240 N 
HETATM   38  O3  UNL     1      11.780  -3.669   0.330  1.00  0.00    -0.155 OA
ATOM     39  H11 UNL     1       9.837  -4.025   0.870  1.00  0.00     0.196 HD
HETATM   40  N12 UNL     1      12.871  -3.372   0.974  1.00  0.00    -0.224 N 
HETATM   41  C13 UNL     1      12.602  -3.297   2.278  1.00  0.00     0.153 A 
ATOM     42  H12 UNL     1      13.785  -3.221   0.548  1.00  0.00     0.198 HD
BRANCH  41  43
HETATM   43  N13 UNL     1      13.252  -3.055   3.312  1.00  0.00    -0.352 N 
ATOM     44  H13 UNL     1      13.589  -3.909   3.758  1.00  0.00     0.166 HD
BRANCH  43  45
HETATM   45  C14 UNL     1      13.632  -1.934   4.007  1.00  0.00     0.077 C 
BRANCH  45  46
HETATM   46  C15 UNL     1      12.995  -0.648   3.603  1.00  0.00     0.159 C 
HETATM   47 CL1  UNL     1      13.120   0.546   4.959  1.00  0.00    -0.125 Cl
ENDBRANCH  45  46
ENDBRANCH  43  45
ENDBRANCH  41  43
ENDBRANCH  35  36
ENDBRANCH  33  35
ENDBRANCH   5  31
TORSDOF 10
ENDMDL
MODEL 5
REMARK VINA RESULT: -6.469832766      3.344      8.859
REMARK  10 active torsions:
REMARK  status: ('A' for Active; 'I' for Inactive)
REMARK       I    between atoms: C2_2  and  N1_4 
REMARK    1  A    between atoms: N2_7  and  C5_8 
REMARK    2  A    between atoms: C6_11  and  N4_12 
REMARK    3  A    between atoms: C7_17  and  N6_18 
REMARK    4  A    between atoms: C8_21  and  N7_22 
REMARK    5  A    between atoms: C9_26  and  C10_27 
REMARK       I    between atoms: C10_27  and  N10_29 
REMARK    6  A    between atoms: N10_29  and  C11_31 
REMARK    7  A    between atoms: C11_31  and  C12_32 
REMARK    8  A    between atoms: C13_38  and  N13_39 
REMARK    9  A    between atoms: N13_39  and  C14_41 
REMARK   10  A    between atoms: C14_41  and  C15_42 
ROOT
HETATM    1  N7  UNL     1       0.025  -7.720   0.829  1.00  0.00    -0.171 N 
HETATM    2  N8  UNL     1       0.535  -7.835  -0.385  1.00  0.00     0.003 NA
HETATM    3  N9  UNL     1       1.829  -8.102  -0.330  1.00  0.00    -0.262 N 
ATOM      4  H9  UNL     1       2.452  -8.238  -1.126  1.00  0.00     0.186 HD
HETATM    5  C9  UNL     1       2.167  -8.162   0.961  1.00  0.00     0.203 A 
HETATM    6  N14 UNL     1       1.044  -7.924   1.650  1.00  0.00    -0.260 N 
ATOM      7  H14 UNL     1       0.981  -7.902   2.667  1.00  0.00     0.190 HD
ENDROOT
BRANCH   1   8
HETATM    8  C8  UNL     1      -1.317  -7.438   1.207  1.00  0.00     0.161 A 
HETATM    9  C5  UNL     1      -2.104  -8.439   1.735  1.00  0.00     0.153 A 
HETATM   10  N3  UNL     1      -3.381  -8.166   2.094  1.00  0.00    -0.174 N 
HETATM   11  C6  UNL     1      -3.922  -6.950   1.956  1.00  0.00     0.679 A 
ATOM     12  H3  UNL     1      -3.952  -8.916   2.484  1.00  0.00     0.186 HD
HETATM   13  N5  UNL     1      -3.142  -5.984   1.439  1.00  0.00    -0.175 N 
HETATM   14  C7  UNL     1      -1.864  -6.179   1.059  1.00  0.00     0.148 A 
ATOM     15  H5  UNL     1      -3.541  -5.052   1.327  1.00  0.00     0.186 HD
BRANCH   9  16
HETATM   16  N2  UNL     1      -1.544  -9.735   1.885  1.00  0.00    -0.362 N 
HETATM   17  C4  UNL     1      -1.271 -10.623   0.759  1.00  0.00     0.144 C 
HETATM   18  C3  UNL     1       0.090 -11.220   0.816  1.00  0.00     0.145 C 
HETATM   19  N1  UNL     1       0.680 -11.283   2.132  1.00  0.00    -0.349 N 
HETATM   20  C2  UNL     1       1.656 -12.278   2.375  1.00  0.00     0.215 C 
HETATM   21  C17 UNL     1       0.315 -10.377   3.203  1.00  0.00     0.145 C 
HETATM   22  C1  UNL     1       2.280 -12.366   3.712  1.00  0.00     0.117 C 
HETATM   23  O1  UNL     1       2.003 -13.087   1.473  1.00  0.00    -0.274 OA
HETATM   24  C16 UNL     1      -1.203 -10.263   3.192  1.00  0.00     0.144 C 
ENDBRANCH   9  16
BRANCH  11  25
HETATM   25  N4  UNL     1      -5.125  -6.644   2.281  1.00  0.00    -0.234 N 
ATOM     26  H42 UNL     1      -5.564  -7.166   3.040  1.00  0.00     0.174 HD
ATOM     27  H41 UNL     1      -5.680  -5.914   1.834  1.00  0.00     0.174 HD
ENDBRANCH  11  25
BRANCH  14  28
HETATM   28  N6  UNL     1      -1.144  -5.228   0.565  1.00  0.00    -0.383 N 
ATOM     29  H62 UNL     1      -1.599  -4.448   0.091  1.00  0.00     0.157 HD
ATOM     30  H61 UNL     1      -0.126  -5.228   0.634  1.00  0.00     0.157 HD
ENDBRANCH  14  28
ENDBRANCH   1   8
BRANCH   5  31
HETATM   31  C10 UNL     1       3.493  -8.430   1.518  1.00  0.00     0.288 C 
HETATM   32  O2  UNL     1       4.135  -9.468   1.260  1.00  0.00    -0.264 OA
HETATM   33  N10 UNL     1       4.091  -7.472   2.393  1.00  0.00    -0.349 N 
ATOM     34  H10 UNL     1       3.583  -6.616   2.616  1.00  0.00     0.163 HD
BRANCH  33  35
HETATM   35  C11 UNL     1       5.395  -7.686   2.968  1.00  0.00     0.186 C 
BRANCH  35  36
HETATM   36  C12 UNL     1       6.361  -6.788   2.303  1.00  0.00     0.097 A 
HETATM   37  N11 UNL     1       6.800  -5.604   2.731  1.00  0.00    -0.240 N 
HETATM   38  O3  UNL     1       7.632  -5.128   1.881  1.00  0.00    -0.155 OA
ATOM     39  H11 UNL     1       6.518  -5.149   3.599  1.00  0.00     0.196 HD
HETATM   40  N12 UNL     1       7.785  -5.942   0.878  1.00  0.00    -0.224 N 
HETATM   41  C13 UNL     1       7.017  -7.017   1.065  1.00  0.00     0.153 A 
ATOM     42  H12 UNL     1       8.395  -5.784   0.076  1.00  0.00     0.198 HD
BRANCH  41  43
HETATM   43  N13 UNL     1       6.783  -8.069   0.441  1.00  0.00    -0.352 N 
ATOM     44  H13 UNL     1       5.826  -8.391   0.586  1.00  0.00     0.166 HD
BRANCH  43  45
HETATM   45  C14 UNL     1       7.482  -8.905  -0.393  1.00  0.00     0.077 C 
BRANCH  45  46
HETATM   46  C15 UNL     1       7.001  -9.003  -1.801  1.00  0.00     0.159 C 
HETATM   47 CL1  UNL     1       5.222  -8.676  -1.861  1.00  0.00    -0.125 Cl
ENDBRANCH  45  46
ENDBRANCH  43  45
ENDBRANCH  41  43
ENDBRANCH  35  36
ENDBRANCH  33  35
ENDBRANCH   5  31
TORSDOF 10
ENDMDL
