MODEL 1
REMARK VINA RESULT: -9.174026247      0.000      0.000
REMARK  6 active torsions:
REMARK  status: ('A' for Active; 'I' for Inactive)
REMARK    1  A    between atoms: C4_4  and  C5_5 
REMARK    2  A    between atoms: C5_5  and  C6_6 
REMARK    3  A    between atoms: C6_6  and  C7_7 
REMARK    4  A    between atoms: C6_6  and  C15_15 
REMARK    5  A    between atoms: C7_7  and  C8_8 
REMARK    6  A    between atoms: C8_8  and  C9_9 
ROOT
HETATM    1  C1  UNL     1       4.665  -3.773  16.410  1.00  0.00     0.113 C 
HETATM    2  C2  UNL     1       4.535  -3.010  15.459  1.00  0.00    -0.098 C 
HETATM    3  C3  UNL     1       4.390  -2.149  14.347  1.00  0.00    -0.029 C 
HETATM    4  C4  UNL     1       4.273  -1.428  13.382  1.00  0.00    -0.093 C 
ENDROOT
BRANCH   4   5
HETATM    5  C5  UNL     1       4.125  -0.568  12.213  1.00  0.00     0.104 C 
BRANCH   5   6
HETATM    6  C6  UNL     1       2.978  -1.143  11.331  1.00  0.00     0.032 C 
BRANCH   6   7
HETATM    7  C7  UNL     1       3.737  -2.024  10.362  1.00  0.00     0.015 C 
BRANCH   7   8
HETATM    8  C8  UNL     1       3.115  -3.313  10.000  1.00  0.00     0.039 C 
BRANCH   8   9
HETATM    9  C9  UNL     1       3.348  -4.229  11.188  1.00  0.00    -0.058 A 
HETATM   10  C10 UNL     1       4.577  -4.779  11.450  1.00  0.00     0.007 A 
HETATM   11  C11 UNL     1       4.806  -5.598  12.538  1.00  0.00     0.001 A 
HETATM   12  C12 UNL     1       3.777  -5.887  13.408  1.00  0.00     0.000 A 
HETATM   13  C13 UNL     1       2.531  -5.332  13.147  1.00  0.00     0.001 A 
HETATM   14  C14 UNL     1       2.309  -4.520  12.064  1.00  0.00     0.007 A 
ENDBRANCH   8   9
ENDBRANCH   7   8
ENDBRANCH   6   7
BRANCH   6  15
HETATM   15  C15 UNL     1       2.345   0.016  10.664  1.00  0.00    -0.025 A 
HETATM   16  C16 UNL     1       2.787   1.342  10.750  1.00  0.00     0.096 A 
HETATM   17  N1  UNL     1       2.003   2.128   9.992  1.00  0.00    -0.365 N 
HETATM   18  C17 UNL     1       1.055   1.369   9.407  1.00  0.00     0.042 A 
ATOM     19  H1  UNL     1       2.109   3.136   9.878  1.00  0.00     0.165 HD
HETATM   20  C18 UNL     1       0.003   1.695   8.554  1.00  0.00     0.030 A 
HETATM   21  C22 UNL     1       1.257   0.088   9.811  1.00  0.00    -0.001 A 
HETATM   22  C19 UNL     1      -0.877   0.737   8.087  1.00  0.00     0.002 A 
HETATM   23  C20 UNL     1      -0.652  -0.555   8.512  1.00  0.00     0.001 A 
HETATM   24  C21 UNL     1       0.390  -0.876   9.355  1.00  0.00     0.014 A 
ENDBRANCH   6  15
ENDBRANCH   5   6
ENDBRANCH   4   5
TORSDOF 6
ENDMDL
MODEL 2
REMARK VINA RESULT: -8.610595776      1.516      2.376
REMARK  6 active torsions:
REMARK  status: ('A' for Active; 'I' for Inactive)
REMARK    1  A    between atoms: C4_4  and  C5_5 
REMARK    2  A    between atoms: C5_5  and  C6_6 
REMARK    3  A    between atoms: C6_6  and  C7_7 
REMARK    4  A    between atoms: C6_6  and  C15_15 
REMARK    5  A    between atoms: C7_7  and  C8_8 
REMARK    6  A    between atoms: C8_8  and  C9_9 
ROOT
HETATM    1  C1  UNL     1       5.364  -1.111  16.423  1.00  0.00     0.113 C 
HETATM    2  C2  UNL     1       4.961  -1.088  15.265  1.00  0.00    -0.098 C 
HETATM    3  C3  UNL     1       4.472  -1.066  13.939  1.00  0.00    -0.029 C 
HETATM    4  C4  UNL     1       4.034  -1.054  12.811  1.00  0.00    -0.093 C 
ENDROOT
BRANCH   4   5
HETATM    5  C5  UNL     1       3.497  -1.031  11.455  1.00  0.00     0.104 C 
BRANCH   5   6
HETATM    6  C6  UNL     1       2.034  -1.562  11.504  1.00  0.00     0.032 C 
BRANCH   6   7
HETATM    7  C7  UNL     1       2.240  -3.059  11.437  1.00  0.00     0.015 C 
BRANCH   7   8
HETATM    8  C8  UNL     1       1.534  -3.879  12.442  1.00  0.00     0.039 C 
BRANCH   8   9
HETATM    9  C9  UNL     1       2.570  -4.212  13.501  1.00  0.00    -0.058 A 
HETATM   10  C10 UNL     1       3.822  -4.664  13.174  1.00  0.00     0.007 A 
HETATM   11  C11 UNL     1       4.779  -4.951  14.128  1.00  0.00     0.001 A 
HETATM   12  C12 UNL     1       4.488  -4.784  15.464  1.00  0.00     0.000 A 
HETATM   13  C13 UNL     1       3.221  -4.325  15.800  1.00  0.00     0.001 A 
HETATM   14  C14 UNL     1       2.275  -4.043  14.848  1.00  0.00     0.007 A 
ENDBRANCH   8   9
ENDBRANCH   7   8
ENDBRANCH   6   7
BRANCH   6  15
HETATM   15  C15 UNL     1       1.358  -1.030  10.301  1.00  0.00    -0.025 A 
HETATM   16  C16 UNL     1       0.719  -1.800   9.322  1.00  0.00     0.096 A 
HETATM   17  N1  UNL     1       0.180  -0.992   8.393  1.00  0.00    -0.365 N 
HETATM   18  C17 UNL     1       0.441   0.289   8.721  1.00  0.00     0.042 A 
ATOM     19  H1  UNL     1      -0.341  -1.298   7.571  1.00  0.00     0.165 HD
HETATM   20  C18 UNL     1       0.125   1.491   8.090  1.00  0.00     0.030 A 
HETATM   21  C22 UNL     1       1.154   0.273   9.877  1.00  0.00    -0.001 A 
HETATM   22  C19 UNL     1       0.524   2.709   8.606  1.00  0.00     0.002 A 
HETATM   23  C20 UNL     1       1.248   2.665   9.779  1.00  0.00     0.001 A 
HETATM   24  C21 UNL     1       1.558   1.476  10.403  1.00  0.00     0.014 A 
ENDBRANCH   6  15
ENDBRANCH   5   6
ENDBRANCH   4   5
TORSDOF 6
ENDMDL
MODEL 3
REMARK VINA RESULT: -8.475221548      1.653      2.523
REMARK  6 active torsions:
REMARK  status: ('A' for Active; 'I' for Inactive)
REMARK    1  A    between atoms: C4_4  and  C5_5 
REMARK    2  A    between atoms: C5_5  and  C6_6 
REMARK    3  A    between atoms: C6_6  and  C7_7 
REMARK    4  A    between atoms: C6_6  and  C15_15 
REMARK    5  A    between atoms: C7_7  and  C8_8 
REMARK    6  A    between atoms: C8_8  and  C9_9 
ROOT
HETATM    1  C1  UNL     1       5.304  -1.296  16.685  1.00  0.00     0.113 C 
HETATM    2  C2  UNL     1       4.942  -1.227  15.516  1.00  0.00    -0.098 C 
HETATM    3  C3  UNL     1       4.539  -1.127  14.164  1.00  0.00    -0.029 C 
HETATM    4  C4  UNL     1       4.206  -1.023  13.006  1.00  0.00    -0.093 C 
ENDROOT
BRANCH   4   5
HETATM    5  C5  UNL     1       3.816  -0.896  11.606  1.00  0.00     0.104 C 
BRANCH   5   6
HETATM    6  C6  UNL     1       2.745  -1.984  11.299  1.00  0.00     0.032 C 
BRANCH   6   7
HETATM    7  C7  UNL     1       3.552  -3.259  11.406  1.00  0.00     0.015 C 
BRANCH   7   8
HETATM    8  C8  UNL     1       2.844  -4.462  11.890  1.00  0.00     0.039 C 
BRANCH   8   9
HETATM    9  C9  UNL     1       3.049  -4.482  13.394  1.00  0.00    -0.058 A 
HETATM   10  C10 UNL     1       2.051  -4.130  14.267  1.00  0.00     0.007 A 
HETATM   11  C11 UNL     1       2.219  -4.164  15.637  1.00  0.00     0.001 A 
HETATM   12  C12 UNL     1       3.425  -4.561  16.172  1.00  0.00     0.000 A 
HETATM   13  C13 UNL     1       4.439  -4.918  15.291  1.00  0.00     0.001 A 
HETATM   14  C14 UNL     1       4.266  -4.882  13.931  1.00  0.00     0.007 A 
ENDBRANCH   8   9
ENDBRANCH   7   8
ENDBRANCH   6   7
BRANCH   6  15
HETATM   15  C15 UNL     1       2.274  -1.727   9.921  1.00  0.00    -0.025 A 
HETATM   16  C16 UNL     1       2.644  -2.461   8.787  1.00  0.00     0.096 A 
HETATM   17  N1  UNL     1       2.000  -1.980   7.710  1.00  0.00    -0.365 N 
HETATM   18  C17 UNL     1       1.217  -0.951   8.089  1.00  0.00     0.042 A 
ATOM     19  H1  UNL     1       2.090  -2.336   6.758  1.00  0.00     0.165 HD
HETATM   20  C18 UNL     1       0.373  -0.112   7.364  1.00  0.00     0.030 A 
HETATM   21  C22 UNL     1       1.379  -0.793   9.428  1.00  0.00    -0.001 A 
HETATM   22  C19 UNL     1      -0.328   0.913   7.971  1.00  0.00     0.002 A 
HETATM   23  C20 UNL     1      -0.146   1.053   9.330  1.00  0.00     0.001 A 
HETATM   24  C21 UNL     1       0.688   0.222  10.046  1.00  0.00     0.014 A 
ENDBRANCH   6  15
ENDBRANCH   5   6
ENDBRANCH   4   5
TORSDOF 6
ENDMDL
MODEL 4
REMARK VINA RESULT: -8.281774977      1.451      3.266
REMARK  6 active torsions:
REMARK  status: ('A' for Active; 'I' for Inactive)
REMARK    1  A    between atoms: C4_4  and  C5_5 
REMARK    2  A    between atoms: C5_5  and  C6_6 
REMARK    3  A    between atoms: C6_6  and  C7_7 
REMARK    4  A    between atoms: C6_6  and  C15_15 
REMARK    5  A    between atoms: C7_7  and  C8_8 
REMARK    6  A    between atoms: C8_8  and  C9_9 
ROOT
HETATM    1  C1  UNL     1       5.597  -5.807  12.668  1.00  0.00     0.113 C 
HETATM    2  C2  UNL     1       4.937  -5.127  11.889  1.00  0.00    -0.098 C 
HETATM    3  C3  UNL     1       4.186  -4.321  11.003  1.00  0.00    -0.029 C 
HETATM    4  C4  UNL     1       3.549  -3.614  10.256  1.00  0.00    -0.093 C 
ENDROOT
BRANCH   4   5
HETATM    5  C5  UNL     1       2.793  -2.754   9.352  1.00  0.00     0.104 C 
BRANCH   5   6
HETATM    6  C6  UNL     1       2.733  -1.329   9.975  1.00  0.00     0.032 C 
BRANCH   6   7
HETATM    7  C7  UNL     1       2.690  -1.633  11.456  1.00  0.00     0.015 C 
BRANCH   7   8
HETATM    8  C8  UNL     1       3.569  -0.833  12.331  1.00  0.00     0.039 C 
BRANCH   8   9
HETATM    9  C9  UNL     1       3.882  -1.721  13.522  1.00  0.00    -0.058 A 
HETATM   10  C10 UNL     1       5.108  -1.705  14.137  1.00  0.00     0.007 A 
HETATM   11  C11 UNL     1       5.397  -2.494  15.233  1.00  0.00     0.001 A 
HETATM   12  C12 UNL     1       4.435  -3.335  15.747  1.00  0.00     0.000 A 
HETATM   13  C13 UNL     1       3.192  -3.354  15.128  1.00  0.00     0.001 A 
HETATM   14  C14 UNL     1       2.910  -2.569  14.039  1.00  0.00     0.007 A 
ENDBRANCH   8   9
ENDBRANCH   7   8
ENDBRANCH   6   7
BRANCH   6  15
HETATM   15  C15 UNL     1       1.480  -0.713   9.487  1.00  0.00    -0.025 A 
HETATM   16  C16 UNL     1       0.447  -1.390   8.827  1.00  0.00     0.096 A 
HETATM   17  N1  UNL     1      -0.554  -0.534   8.560  1.00  0.00    -0.365 N 
HETATM   18  C17 UNL     1      -0.221   0.689   9.019  1.00  0.00     0.042 A 
ATOM     19  H1  UNL     1      -1.426  -0.771   8.086  1.00  0.00     0.165 HD
HETATM   20  C18 UNL     1      -0.892   1.909   8.979  1.00  0.00     0.030 A 
HETATM   21  C22 UNL     1       1.012   0.586   9.582  1.00  0.00    -0.001 A 
HETATM   22  C19 UNL     1      -0.337   3.061   9.503  1.00  0.00     0.002 A 
HETATM   23  C20 UNL     1       0.914   2.931  10.066  1.00  0.00     0.001 A 
HETATM   24  C21 UNL     1       1.577   1.724  10.107  1.00  0.00     0.014 A 
ENDBRANCH   6  15
ENDBRANCH   5   6
ENDBRANCH   4   5
TORSDOF 6
ENDMDL
MODEL 5
REMARK VINA RESULT: -8.222005773      0.997      2.798
REMARK  6 active torsions:
REMARK  status: ('A' for Active; 'I' for Inactive)
REMARK    1  A    between atoms: C4_4  and  C5_5 
REMARK    2  A    between atoms: C5_5  and  C6_6 
REMARK    3  A    between atoms: C6_6  and  C7_7 
REMARK    4  A    between atoms: C6_6  and  C15_15 
REMARK    5  A    between atoms: C7_7  and  C8_8 
REMARK    6  A    between atoms: C8_8  and  C9_9 
ROOT
HETATM    1  C1  UNL     1       4.251  -6.668  12.654  1.00  0.00     0.113 C 
HETATM    2  C2  UNL     1       4.067  -5.629  12.029  1.00  0.00    -0.098 C 
HETATM    3  C3  UNL     1       3.866  -4.418  11.329  1.00  0.00    -0.029 C 
HETATM    4  C4  UNL     1       3.699  -3.370  10.747  1.00  0.00    -0.093 C 
ENDROOT
BRANCH   4   5
HETATM    5  C5  UNL     1       3.511  -2.103  10.048  1.00  0.00     0.104 C 
BRANCH   5   6
HETATM    6  C6  UNL     1       3.642  -0.952  11.088  1.00  0.00     0.032 C 
BRANCH   6   7
HETATM    7  C7  UNL     1       3.153  -1.615  12.357  1.00  0.00     0.015 C 
BRANCH   7   8
HETATM    8  C8  UNL     1       3.947  -1.388  13.581  1.00  0.00     0.039 C 
BRANCH   8   9
HETATM    9  C9  UNL     1       3.771  -2.640  14.422  1.00  0.00    -0.058 A 
HETATM   10  C10 UNL     1       2.534  -3.178  14.671  1.00  0.00     0.007 A 
HETATM   11  C11 UNL     1       2.363  -4.327  15.418  1.00  0.00     0.001 A 
HETATM   12  C12 UNL     1       3.460  -4.975  15.942  1.00  0.00     0.000 A 
HETATM   13  C13 UNL     1       4.715  -4.434  15.691  1.00  0.00     0.001 A 
HETATM   14  C14 UNL     1       4.878  -3.292  14.950  1.00  0.00     0.007 A 
ENDBRANCH   8   9
ENDBRANCH   7   8
ENDBRANCH   6   7
BRANCH   6  15
HETATM   15  C15 UNL     1       2.741   0.127  10.630  1.00  0.00    -0.025 A 
HETATM   16  C16 UNL     1       2.949   1.498  10.828  1.00  0.00     0.096 A 
HETATM   17  N1  UNL     1       1.955   2.193  10.250  1.00  0.00    -0.365 N 
HETATM   18  C17 UNL     1       1.092   1.331   9.676  1.00  0.00     0.042 A 
ATOM     19  H1  UNL     1       1.867   3.210  10.246  1.00  0.00     0.165 HD
HETATM   20  C18 UNL     1      -0.095   1.536   8.976  1.00  0.00     0.030 A 
HETATM   21  C22 UNL     1       1.563   0.077   9.903  1.00  0.00    -0.001 A 
HETATM   22  C19 UNL     1      -0.842   0.480   8.488  1.00  0.00     0.002 A 
HETATM   23  C20 UNL     1      -0.344  -0.781   8.733  1.00  0.00     0.001 A 
HETATM   24  C21 UNL     1       0.831  -0.983   9.424  1.00  0.00     0.014 A 
ENDBRANCH   6  15
ENDBRANCH   5   6
ENDBRANCH   4   5
TORSDOF 6
ENDMDL
