MODEL 1
REMARK VINA RESULT: -9.181674835      0.000      0.000
REMARK  5 active torsions:
REMARK  status: ('A' for Active; 'I' for Inactive)
REMARK    1  A    between atoms: C4_7  and  C5_8 
REMARK    2  A    between atoms: C5_8  and  C6_9 
REMARK    3  A    between atoms: C6_9  and  C7_10 
REMARK    4  A    between atoms: C7_10  and  C8_11 
REMARK    5  A    between atoms: C11_14  and  C12_15 
ROOT
HETATM    1  C8  UNL     1       3.970  -1.105  12.495  1.00  0.00    -0.058 A 
HETATM    2  C9  UNL     1       2.890  -1.934  12.237  1.00  0.00     0.008 A 
HETATM    3  C10 UNL     1       1.922  -1.589  11.317  1.00  0.00     0.013 A 
HETATM    4  C11 UNL     1       1.976  -0.408  10.606  1.00  0.00    -0.026 A 
HETATM    5  C18 UNL     1       3.063   0.422  10.869  1.00  0.00     0.013 A 
HETATM    6  C19 UNL     1       4.030   0.079  11.789  1.00  0.00     0.008 A 
ENDROOT
BRANCH   1   7
HETATM    7  C7  UNL     1       4.993  -1.500  13.489  1.00  0.00     0.039 C 
BRANCH   7   8
HETATM    8  C6  UNL     1       4.630  -1.179  14.901  1.00  0.00     0.011 C 
BRANCH   8   9
HETATM    9  C5  UNL     1       4.688  -2.367  15.813  1.00  0.00     0.057 C 
BRANCH   9  10
HETATM   10  C4  UNL     1       3.593  -3.309  15.385  1.00  0.00     0.012 A 
HETATM   11  N1  UNL     1       2.332  -2.912  15.608  1.00  0.00    -0.369 N 
HETATM   12  C3  UNL     1       1.346  -3.765  15.219  1.00  0.00     0.092 A 
ATOM     13  H1  UNL     1       2.123  -2.016  16.048  1.00  0.00     0.165 HD
HETATM   14  C2  UNL     1       1.614  -4.976  14.626  1.00  0.00     0.072 A 
HETATM   15  C1  UNL     1       2.917  -5.363  14.406  1.00  0.00     0.175 A 
HETATM   16  O1  UNL     1       3.168  -6.471  13.863  1.00  0.00    -0.288 OA
HETATM   17  C20 UNL     1       3.937  -4.505  14.797  1.00  0.00     0.079 A 
ENDBRANCH   9  10
ENDBRANCH   8   9
ENDBRANCH   7   8
ENDBRANCH   1   7
BRANCH   4  18
HETATM   18  C12 UNL     1       0.953  -0.054   9.637  1.00  0.00    -0.026 A 
HETATM   19  C13 UNL     1       0.775   1.259   9.246  1.00  0.00     0.012 A 
HETATM   20  C14 UNL     1      -0.187   1.643   8.325  1.00  0.00     0.001 A 
HETATM   21  C15 UNL     1      -1.009   0.687   7.765  1.00  0.00     0.000 A 
HETATM   22  C16 UNL     1      -0.856  -0.646   8.138  1.00  0.00     0.001 A 
HETATM   23  C17 UNL     1       0.112  -0.994   9.058  1.00  0.00     0.012 A 
ENDBRANCH   4  18
TORSDOF 5
ENDMDL
MODEL 2
REMARK VINA RESULT: -9.181389130      1.435      2.242
REMARK  5 active torsions:
REMARK  status: ('A' for Active; 'I' for Inactive)
REMARK    1  A    between atoms: C4_7  and  C5_8 
REMARK    2  A    between atoms: C5_8  and  C6_9 
REMARK    3  A    between atoms: C6_9  and  C7_10 
REMARK    4  A    between atoms: C7_10  and  C8_11 
REMARK    5  A    between atoms: C11_14  and  C12_15 
ROOT
HETATM    1  C8  UNL     1       2.795  -0.061  10.825  1.00  0.00    -0.058 A 
HETATM    2  C9  UNL     1       2.404  -1.237  10.205  1.00  0.00     0.008 A 
HETATM    3  C10 UNL     1       1.439  -1.244   9.219  1.00  0.00     0.013 A 
HETATM    4  C11 UNL     1       0.815  -0.089   8.798  1.00  0.00    -0.026 A 
HETATM    5  C18 UNL     1       1.211   1.090   9.424  1.00  0.00     0.013 A 
HETATM    6  C19 UNL     1       2.174   1.099  10.410  1.00  0.00     0.008 A 
ENDROOT
BRANCH   1   7
HETATM    7  C7  UNL     1       3.832  -0.084  11.881  1.00  0.00     0.039 C 
BRANCH   7   8
HETATM    8  C6  UNL     1       4.086  -1.436  12.458  1.00  0.00     0.011 C 
BRANCH   8   9
HETATM    9  C5  UNL     1       4.023  -1.462  13.956  1.00  0.00     0.057 C 
BRANCH   9  10
HETATM   10  C4  UNL     1       3.166  -2.639  14.343  1.00  0.00     0.012 A 
HETATM   11  N1  UNL     1       3.322  -3.119  15.584  1.00  0.00    -0.369 N 
HETATM   12  C3  UNL     1       2.545  -4.181  15.930  1.00  0.00     0.092 A 
ATOM     13  H1  UNL     1       3.990  -2.709  16.237  1.00  0.00     0.165 HD
HETATM   14  C2  UNL     1       1.641  -4.744  15.060  1.00  0.00     0.072 A 
HETATM   15  C1  UNL     1       1.497  -4.234  13.790  1.00  0.00     0.175 A 
HETATM   16  O1  UNL     1       0.670  -4.745  12.989  1.00  0.00    -0.288 OA
HETATM   17  C20 UNL     1       2.282  -3.149  13.420  1.00  0.00     0.079 A 
ENDBRANCH   9  10
ENDBRANCH   8   9
ENDBRANCH   7   8
ENDBRANCH   1   7
BRANCH   4  18
HETATM   18  C12 UNL     1      -0.199  -0.106   7.758  1.00  0.00    -0.026 A 
HETATM   19  C13 UNL     1       0.019   0.525   6.548  1.00  0.00     0.012 A 
HETATM   20  C14 UNL     1      -0.918   0.535   5.527  1.00  0.00     0.001 A 
HETATM   21  C15 UNL     1      -2.125  -0.109   5.710  1.00  0.00     0.000 A 
HETATM   22  C16 UNL     1      -2.377  -0.756   6.917  1.00  0.00     0.001 A 
HETATM   23  C17 UNL     1      -1.421  -0.746   7.913  1.00  0.00     0.012 A 
ENDBRANCH   4  18
TORSDOF 5
ENDMDL
MODEL 3
REMARK VINA RESULT: -9.166753111      0.038      1.013
REMARK  5 active torsions:
REMARK  status: ('A' for Active; 'I' for Inactive)
REMARK    1  A    between atoms: C4_7  and  C5_8 
REMARK    2  A    between atoms: C5_8  and  C6_9 
REMARK    3  A    between atoms: C6_9  and  C7_10 
REMARK    4  A    between atoms: C7_10  and  C8_11 
REMARK    5  A    between atoms: C11_14  and  C12_15 
ROOT
HETATM    1  C8  UNL     1       3.966  -1.089  12.479  1.00  0.00    -0.058 A 
HETATM    2  C9  UNL     1       2.874  -1.902  12.220  1.00  0.00     0.008 A 
HETATM    3  C10 UNL     1       1.912  -1.541  11.300  1.00  0.00     0.013 A 
HETATM    4  C11 UNL     1       1.983  -0.361  10.591  1.00  0.00    -0.026 A 
HETATM    5  C18 UNL     1       3.081   0.453  10.854  1.00  0.00     0.013 A 
HETATM    6  C19 UNL     1       4.044   0.095  11.774  1.00  0.00     0.008 A 
ENDROOT
BRANCH   1   7
HETATM    7  C7  UNL     1       4.983  -1.500  13.473  1.00  0.00     0.039 C 
BRANCH   7   8
HETATM    8  C6  UNL     1       4.620  -1.183  14.886  1.00  0.00     0.011 C 
BRANCH   8   9
HETATM    9  C5  UNL     1       4.679  -2.375  15.794  1.00  0.00     0.057 C 
BRANCH   9  10
HETATM   10  C4  UNL     1       3.579  -3.312  15.367  1.00  0.00     0.012 A 
HETATM   11  N1  UNL     1       2.321  -2.914  15.599  1.00  0.00    -0.369 N 
HETATM   12  C3  UNL     1       1.331  -3.763  15.211  1.00  0.00     0.092 A 
ATOM     13  H1  UNL     1       2.116  -2.020  16.044  1.00  0.00     0.165 HD
HETATM   14  C2  UNL     1       1.593  -4.972  14.611  1.00  0.00     0.072 A 
HETATM   15  C1  UNL     1       2.894  -5.360  14.382  1.00  0.00     0.175 A 
HETATM   16  O1  UNL     1       3.140  -6.467  13.832  1.00  0.00    -0.288 OA
HETATM   17  C20 UNL     1       3.918  -4.506  14.771  1.00  0.00     0.079 A 
ENDBRANCH   9  10
ENDBRANCH   8   9
ENDBRANCH   7   8
ENDBRANCH   1   7
BRANCH   4  18
HETATM   18  C12 UNL     1       0.965   0.009   9.622  1.00  0.00    -0.026 A 
HETATM   19  C13 UNL     1       0.146  -0.949   9.057  1.00  0.00     0.012 A 
HETATM   20  C14 UNL     1      -0.838  -0.643   8.130  1.00  0.00     0.001 A 
HETATM   21  C15 UNL     1      -1.021   0.669   7.746  1.00  0.00     0.000 A 
HETATM   22  C16 UNL     1      -0.213   1.660   8.297  1.00  0.00     0.001 A 
HETATM   23  C17 UNL     1       0.758   1.320   9.217  1.00  0.00     0.012 A 
ENDBRANCH   4  18
TORSDOF 5
ENDMDL
MODEL 4
REMARK VINA RESULT: -9.157820805      1.439      1.726
REMARK  5 active torsions:
REMARK  status: ('A' for Active; 'I' for Inactive)
REMARK    1  A    between atoms: C4_7  and  C5_8 
REMARK    2  A    between atoms: C5_8  and  C6_9 
REMARK    3  A    between atoms: C6_9  and  C7_10 
REMARK    4  A    between atoms: C7_10  and  C8_11 
REMARK    5  A    between atoms: C11_14  and  C12_15 
ROOT
HETATM    1  C8  UNL     1       3.756  -1.227  12.582  1.00  0.00    -0.058 A 
HETATM    2  C9  UNL     1       2.646  -2.012  12.310  1.00  0.00     0.008 A 
HETATM    3  C10 UNL     1       1.726  -1.649  11.349  1.00  0.00     0.013 A 
HETATM    4  C11 UNL     1       1.859  -0.494  10.608  1.00  0.00    -0.026 A 
HETATM    5  C18 UNL     1       2.975   0.292  10.884  1.00  0.00     0.013 A 
HETATM    6  C19 UNL     1       3.895  -0.069  11.845  1.00  0.00     0.008 A 
ENDROOT
BRANCH   1   7
HETATM    7  C7  UNL     1       4.727  -1.640  13.620  1.00  0.00     0.039 C 
BRANCH   7   8
HETATM    8  C6  UNL     1       4.099  -2.158  14.871  1.00  0.00     0.011 C 
BRANCH   8   9
HETATM    9  C5  UNL     1       4.735  -3.419  15.375  1.00  0.00     0.057 C 
BRANCH   9  10
HETATM   10  C4  UNL     1       4.508  -4.479  14.329  1.00  0.00     0.012 A 
HETATM   11  N1  UNL     1       3.287  -5.028  14.279  1.00  0.00    -0.369 N 
HETATM   12  C3  UNL     1       3.085  -5.983  13.332  1.00  0.00     0.092 A 
ATOM     13  H1  UNL     1       2.545  -4.743  14.919  1.00  0.00     0.165 HD
HETATM   14  C2  UNL     1       4.076  -6.377  12.463  1.00  0.00     0.072 A 
HETATM   15  C1  UNL     1       5.323  -5.799  12.533  1.00  0.00     0.175 A 
HETATM   16  O1  UNL     1       6.235  -6.155  11.739  1.00  0.00    -0.288 OA
HETATM   17  C20 UNL     1       5.547  -4.821  13.493  1.00  0.00     0.079 A 
ENDBRANCH   9  10
ENDBRANCH   8   9
ENDBRANCH   7   8
ENDBRANCH   1   7
BRANCH   4  18
HETATM   18  C12 UNL     1       0.885  -0.121   9.596  1.00  0.00    -0.026 A 
HETATM   19  C13 UNL     1       0.777   1.188   9.169  1.00  0.00     0.012 A 
HETATM   20  C14 UNL     1      -0.136   1.590   8.206  1.00  0.00     0.001 A 
HETATM   21  C15 UNL     1      -0.978   0.655   7.640  1.00  0.00     0.000 A 
HETATM   22  C16 UNL     1      -0.894  -0.674   8.047  1.00  0.00     0.001 A 
HETATM   23  C17 UNL     1       0.026  -1.039   9.009  1.00  0.00     0.012 A 
ENDBRANCH   4  18
TORSDOF 5
ENDMDL
MODEL 5
REMARK VINA RESULT: -9.140932221      1.436      2.404
REMARK  5 active torsions:
REMARK  status: ('A' for Active; 'I' for Inactive)
REMARK    1  A    between atoms: C4_7  and  C5_8 
REMARK    2  A    between atoms: C5_8  and  C6_9 
REMARK    3  A    between atoms: C6_9  and  C7_10 
REMARK    4  A    between atoms: C7_10  and  C8_11 
REMARK    5  A    between atoms: C11_14  and  C12_15 
ROOT
HETATM    1  C8  UNL     1       2.788  -0.152  10.819  1.00  0.00    -0.058 A 
HETATM    2  C9  UNL     1       2.164   1.017  10.412  1.00  0.00     0.008 A 
HETATM    3  C10 UNL     1       1.196   1.012   9.429  1.00  0.00     0.013 A 
HETATM    4  C11 UNL     1       0.798  -0.149   8.800  1.00  0.00    -0.026 A 
HETATM    5  C18 UNL     1       1.427  -1.321   9.212  1.00  0.00     0.013 A 
HETATM    6  C19 UNL     1       2.395  -1.317  10.194  1.00  0.00     0.008 A 
ENDROOT
BRANCH   1   7
HETATM    7  C7  UNL     1       3.823  -0.116  11.876  1.00  0.00     0.039 C 
BRANCH   7   8
HETATM    8  C6  UNL     1       4.118  -1.445  12.486  1.00  0.00     0.011 C 
BRANCH   8   9
HETATM    9  C5  UNL     1       4.014  -1.446  13.982  1.00  0.00     0.057 C 
BRANCH   9  10
HETATM   10  C4  UNL     1       3.169  -2.631  14.368  1.00  0.00     0.012 A 
HETATM   11  N1  UNL     1       3.332  -3.115  15.607  1.00  0.00    -0.369 N 
HETATM   12  C3  UNL     1       2.565  -4.184  15.951  1.00  0.00     0.092 A 
ATOM     13  H1  UNL     1       3.998  -2.701  16.259  1.00  0.00     0.165 HD
HETATM   14  C2  UNL     1       1.663  -4.752  15.081  1.00  0.00     0.072 A 
HETATM   15  C1  UNL     1       1.512  -4.238  13.813  1.00  0.00     0.175 A 
HETATM   16  O1  UNL     1       0.687  -4.754  13.012  1.00  0.00    -0.288 OA
HETATM   17  C20 UNL     1       2.287  -3.146  13.444  1.00  0.00     0.079 A 
ENDBRANCH   9  10
ENDBRANCH   8   9
ENDBRANCH   7   8
ENDBRANCH   1   7
BRANCH   4  18
HETATM   18  C12 UNL     1      -0.223  -0.146   7.767  1.00  0.00    -0.026 A 
HETATM   19  C13 UNL     1      -0.005   0.493   6.561  1.00  0.00     0.012 A 
HETATM   20  C14 UNL     1      -0.949   0.522   5.547  1.00  0.00     0.001 A 
HETATM   21  C15 UNL     1      -2.162  -0.109   5.732  1.00  0.00     0.000 A 
HETATM   22  C16 UNL     1      -2.414  -0.763   6.936  1.00  0.00     0.001 A 
HETATM   23  C17 UNL     1      -1.451  -0.772   7.926  1.00  0.00     0.012 A 
ENDBRANCH   4  18
TORSDOF 5
ENDMDL
