MODEL 1
REMARK VINA RESULT: -9.544820626      0.000      0.000
REMARK  6 active torsions:
REMARK  status: ('A' for Active; 'I' for Inactive)
REMARK    1  A    between atoms: N1_1  and  C1_5 
REMARK    2  A    between atoms: C1_5  and  C2_6 
REMARK    3  A    between atoms: C2_6  and  C3_7 
REMARK    4  A    between atoms: C8_12  and  C9_13 
REMARK    5  A    between atoms: C9_13  and  C10_14 
REMARK    6  A    between atoms: C9_13  and  C16_20 
ROOT
HETATM    1  C9  UNL     1       3.420  -2.514  13.315  1.00  0.00    -0.005 C 
ENDROOT
BRANCH   1   2
HETATM    2  C8  UNL     1       3.519  -3.935  12.990  1.00  0.00    -0.018 A 
HETATM    3  C3  UNL     1       2.546  -4.857  13.245  1.00  0.00    -0.045 A 
HETATM    4  C4  UNL     1       2.799  -6.228  12.941  1.00  0.00     0.008 A 
HETATM    5  C5  UNL     1       3.964  -6.674  12.407  1.00  0.00     0.001 A 
HETATM    6  C6  UNL     1       4.945  -5.750  12.148  1.00  0.00     0.001 A 
HETATM    7  C7  UNL     1       4.715  -4.452  12.431  1.00  0.00     0.013 A 
BRANCH   3   8
HETATM    8  C2  UNL     1       1.205  -4.638  13.733  1.00  0.00     0.066 C 
BRANCH   8   9
HETATM    9  C1  UNL     1       1.199  -4.506  15.252  1.00  0.00     0.234 C 
BRANCH   9  10
HETATM   10  N1  UNL     1       0.461  -3.305  15.638  1.00  0.00    -0.079 N 
ATOM     11  H13 UNL     1      -0.426  -3.222  15.142  1.00  0.00     0.274 HD
ATOM     12  H12 UNL     1       0.094  -3.367  16.588  1.00  0.00     0.274 HD
ATOM     13  H11 UNL     1       1.052  -2.483  15.508  1.00  0.00     0.274 HD
ENDBRANCH   9  10
ENDBRANCH   8   9
ENDBRANCH   3   8
ENDBRANCH   1   2
BRANCH   1  14
HETATM   14  C10 UNL     1       4.217  -2.077  14.455  1.00  0.00    -0.024 A 
HETATM   15  C11 UNL     1       4.568  -3.015  15.397  1.00  0.00     0.012 A 
HETATM   16  C12 UNL     1       5.290  -2.731  16.528  1.00  0.00     0.001 A 
HETATM   17  C13 UNL     1       5.672  -1.417  16.699  1.00  0.00     0.000 A 
HETATM   18  C14 UNL     1       5.344  -0.444  15.784  1.00  0.00     0.001 A 
HETATM   19  C15 UNL     1       4.616  -0.785  14.670  1.00  0.00     0.012 A 
ENDBRANCH   1  14
BRANCH   1  20
HETATM   20  C16 UNL     1       3.119  -1.581  12.236  1.00  0.00    -0.024 A 
HETATM   21  C17 UNL     1       3.779  -0.487  11.788  1.00  0.00     0.012 A 
HETATM   22  C18 UNL     1       3.356   0.320  10.747  1.00  0.00     0.001 A 
HETATM   23  C19 UNL     1       2.184   0.016  10.095  1.00  0.00     0.000 A 
HETATM   24  C20 UNL     1       1.463  -1.080  10.496  1.00  0.00     0.001 A 
HETATM   25  C21 UNL     1       1.919  -1.847  11.530  1.00  0.00     0.012 A 
ENDBRANCH   1  20
TORSDOF 6
ENDMDL
MODEL 2
REMARK VINA RESULT: -9.013546423      1.883      4.827
REMARK  6 active torsions:
REMARK  status: ('A' for Active; 'I' for Inactive)
REMARK    1  A    between atoms: N1_1  and  C1_5 
REMARK    2  A    between atoms: C1_5  and  C2_6 
REMARK    3  A    between atoms: C2_6  and  C3_7 
REMARK    4  A    between atoms: C8_12  and  C9_13 
REMARK    5  A    between atoms: C9_13  and  C10_14 
REMARK    6  A    between atoms: C9_13  and  C16_20 
ROOT
HETATM    1  C9  UNL     1       3.748  -2.409  12.893  1.00  0.00    -0.005 C 
ENDROOT
BRANCH   1   2
HETATM    2  C8  UNL     1       3.033  -3.682  12.825  1.00  0.00    -0.018 A 
HETATM    3  C3  UNL     1       3.479  -4.784  12.156  1.00  0.00    -0.045 A 
HETATM    4  C4  UNL     1       2.648  -5.944  12.108  1.00  0.00     0.008 A 
HETATM    5  C5  UNL     1       1.427  -6.015  12.697  1.00  0.00     0.001 A 
HETATM    6  C6  UNL     1       0.976  -4.909  13.372  1.00  0.00     0.001 A 
HETATM    7  C7  UNL     1       1.755  -3.809  13.423  1.00  0.00     0.013 A 
BRANCH   3   8
HETATM    8  C2  UNL     1       4.756  -4.994  11.516  1.00  0.00     0.066 C 
BRANCH   8   9
HETATM    9  C1  UNL     1       5.712  -5.729  12.450  1.00  0.00     0.234 C 
BRANCH   9  10
HETATM   10  N1  UNL     1       6.832  -6.269  11.681  1.00  0.00    -0.079 N 
ATOM     11  H13 UNL     1       7.531  -6.711  12.278  1.00  0.00     0.274 HD
ATOM     12  H12 UNL     1       6.565  -7.088  11.135  1.00  0.00     0.274 HD
ATOM     13  H11 UNL     1       7.234  -5.534  11.099  1.00  0.00     0.274 HD
ENDBRANCH   9  10
ENDBRANCH   8   9
ENDBRANCH   3   8
ENDBRANCH   1   2
BRANCH   1  14
HETATM   14  C10 UNL     1       3.267  -1.373  11.987  1.00  0.00    -0.024 A 
HETATM   15  C11 UNL     1       2.124  -1.624  11.265  1.00  0.00     0.012 A 
HETATM   16  C12 UNL     1       1.583  -0.748  10.360  1.00  0.00     0.001 A 
HETATM   17  C13 UNL     1       2.249   0.448  10.188  1.00  0.00     0.000 A 
HETATM   18  C14 UNL     1       3.395   0.743  10.887  1.00  0.00     0.001 A 
HETATM   19  C15 UNL     1       3.894  -0.174  11.780  1.00  0.00     0.012 A 
ENDBRANCH   1  14
BRANCH   1  20
HETATM   20  C16 UNL     1       4.373  -2.039  14.157  1.00  0.00    -0.024 A 
HETATM   21  C17 UNL     1       4.650  -0.828  14.698  1.00  0.00     0.012 A 
HETATM   22  C18 UNL     1       5.269  -0.632  15.920  1.00  0.00     0.001 A 
HETATM   23  C19 UNL     1       5.643  -1.725  16.666  1.00  0.00     0.000 A 
HETATM   24  C20 UNL     1       5.392  -2.982  16.179  1.00  0.00     0.001 A 
HETATM   25  C21 UNL     1       4.780  -3.128  14.967  1.00  0.00     0.012 A 
ENDBRANCH   1  20
TORSDOF 6
ENDMDL
MODEL 3
REMARK VINA RESULT: -8.860659662      0.710      4.129
REMARK  6 active torsions:
REMARK  status: ('A' for Active; 'I' for Inactive)
REMARK    1  A    between atoms: N1_1  and  C1_5 
REMARK    2  A    between atoms: C1_5  and  C2_6 
REMARK    3  A    between atoms: C2_6  and  C3_7 
REMARK    4  A    between atoms: C8_12  and  C9_13 
REMARK    5  A    between atoms: C9_13  and  C10_14 
REMARK    6  A    between atoms: C9_13  and  C16_20 
ROOT
HETATM    1  C9  UNL     1       3.975  -2.286  12.879  1.00  0.00    -0.005 C 
ENDROOT
BRANCH   1   2
HETATM    2  C8  UNL     1       3.353  -3.602  12.747  1.00  0.00    -0.018 A 
HETATM    3  C3  UNL     1       2.175  -3.962  13.335  1.00  0.00    -0.045 A 
HETATM    4  C4  UNL     1       1.712  -5.304  13.184  1.00  0.00     0.008 A 
HETATM    5  C5  UNL     1       2.382  -6.252  12.480  1.00  0.00     0.001 A 
HETATM    6  C6  UNL     1       3.566  -5.893  11.887  1.00  0.00     0.001 A 
HETATM    7  C7  UNL     1       4.011  -4.627  12.024  1.00  0.00     0.013 A 
BRANCH   3   8
HETATM    8  C2  UNL     1       1.242  -3.136  14.064  1.00  0.00     0.066 C 
BRANCH   8   9
HETATM    9  C1  UNL     1       0.916  -3.756  15.418  1.00  0.00     0.234 C 
BRANCH   9  10
HETATM   10  N1  UNL     1      -0.171  -3.012  16.050  1.00  0.00    -0.079 N 
ATOM     11  H13 UNL     1      -0.409  -2.165  15.534  1.00  0.00     0.274 HD
ATOM     12  H12 UNL     1      -1.067  -3.493  15.964  1.00  0.00     0.274 HD
ATOM     13  H11 UNL     1       0.068  -2.815  17.022  1.00  0.00     0.274 HD
ENDBRANCH   9  10
ENDBRANCH   8   9
ENDBRANCH   3   8
ENDBRANCH   1   2
BRANCH   1  14
HETATM   14  C10 UNL     1       3.454  -1.257  11.988  1.00  0.00    -0.024 A 
HETATM   15  C11 UNL     1       2.366  -1.567  11.207  1.00  0.00     0.012 A 
HETATM   16  C12 UNL     1       1.797  -0.702  10.308  1.00  0.00     0.001 A 
HETATM   17  C13 UNL     1       2.374   0.547  10.208  1.00  0.00     0.000 A 
HETATM   18  C14 UNL     1       3.463   0.903  10.968  1.00  0.00     0.001 A 
HETATM   19  C15 UNL     1       3.994  -0.006  11.851  1.00  0.00     0.012 A 
ENDBRANCH   1  14
BRANCH   1  20
HETATM   20  C16 UNL     1       4.530  -1.915  14.175  1.00  0.00    -0.024 A 
HETATM   21  C17 UNL     1       4.754  -0.704  14.740  1.00  0.00     0.012 A 
HETATM   22  C18 UNL     1       5.309  -0.507  15.992  1.00  0.00     0.001 A 
HETATM   23  C19 UNL     1       5.671  -1.598  16.746  1.00  0.00     0.000 A 
HETATM   24  C20 UNL     1       5.471  -2.856  16.236  1.00  0.00     0.001 A 
HETATM   25  C21 UNL     1       4.921  -3.003  14.995  1.00  0.00     0.012 A 
ENDBRANCH   1  20
TORSDOF 6
ENDMDL
MODEL 4
REMARK VINA RESULT: -8.854929425      0.728      4.155
REMARK  6 active torsions:
REMARK  status: ('A' for Active; 'I' for Inactive)
REMARK    1  A    between atoms: N1_1  and  C1_5 
REMARK    2  A    between atoms: C1_5  and  C2_6 
REMARK    3  A    between atoms: C2_6  and  C3_7 
REMARK    4  A    between atoms: C8_12  and  C9_13 
REMARK    5  A    between atoms: C9_13  and  C10_14 
REMARK    6  A    between atoms: C9_13  and  C16_20 
ROOT
HETATM    1  C9  UNL     1       3.971  -2.347  12.882  1.00  0.00    -0.005 C 
ENDROOT
BRANCH   1   2
HETATM    2  C8  UNL     1       3.344  -3.662  12.760  1.00  0.00    -0.018 A 
HETATM    3  C3  UNL     1       2.154  -4.006  13.332  1.00  0.00    -0.045 A 
HETATM    4  C4  UNL     1       1.687  -5.348  13.195  1.00  0.00     0.008 A 
HETATM    5  C5  UNL     1       2.365  -6.312  12.520  1.00  0.00     0.001 A 
HETATM    6  C6  UNL     1       3.561  -5.968  11.943  1.00  0.00     0.001 A 
HETATM    7  C7  UNL     1       4.010  -4.702  12.067  1.00  0.00     0.013 A 
BRANCH   3   8
HETATM    8  C2  UNL     1       1.212  -3.163  14.029  1.00  0.00     0.066 C 
BRANCH   8   9
HETATM    9  C1  UNL     1       0.920  -3.716  15.420  1.00  0.00     0.234 C 
BRANCH   9  10
HETATM   10  N1  UNL     1      -0.188  -2.976  16.021  1.00  0.00    -0.079 N 
ATOM     11  H13 UNL     1      -0.945  -3.591  16.319  1.00  0.00     0.274 HD
ATOM     12  H12 UNL     1       0.057  -2.591  16.933  1.00  0.00     0.274 HD
ATOM     13  H11 UNL     1      -0.510  -2.256  15.373  1.00  0.00     0.274 HD
ENDBRANCH   9  10
ENDBRANCH   8   9
ENDBRANCH   3   8
ENDBRANCH   1   2
BRANCH   1  14
HETATM   14  C10 UNL     1       3.462  -1.327  11.972  1.00  0.00    -0.024 A 
HETATM   15  C11 UNL     1       4.086  -0.101  11.960  1.00  0.00     0.012 A 
HETATM   16  C12 UNL     1       3.691   0.951  11.175  1.00  0.00     0.001 A 
HETATM   17  C13 UNL     1       2.600   0.733  10.359  1.00  0.00     0.000 A 
HETATM   18  C14 UNL     1       1.944  -0.475  10.337  1.00  0.00     0.001 A 
HETATM   19  C15 UNL     1       2.382  -1.494  11.148  1.00  0.00     0.012 A 
ENDBRANCH   1  14
BRANCH   1  20
HETATM   20  C16 UNL     1       4.515  -1.961  14.178  1.00  0.00    -0.024 A 
HETATM   21  C17 UNL     1       4.720  -0.745  14.737  1.00  0.00     0.012 A 
HETATM   22  C18 UNL     1       5.267  -0.534  15.991  1.00  0.00     0.001 A 
HETATM   23  C19 UNL     1       5.640  -1.616  16.751  1.00  0.00     0.000 A 
HETATM   24  C20 UNL     1       5.460  -2.879  16.247  1.00  0.00     0.001 A 
HETATM   25  C21 UNL     1       4.917  -3.040  15.004  1.00  0.00     0.012 A 
ENDBRANCH   1  20
TORSDOF 6
ENDMDL
MODEL 5
REMARK VINA RESULT: -8.703849535      1.830      2.770
REMARK  6 active torsions:
REMARK  status: ('A' for Active; 'I' for Inactive)
REMARK    1  A    between atoms: N1_1  and  C1_5 
REMARK    2  A    between atoms: C1_5  and  C2_6 
REMARK    3  A    between atoms: C2_6  and  C3_7 
REMARK    4  A    between atoms: C8_12  and  C9_13 
REMARK    5  A    between atoms: C9_13  and  C10_14 
REMARK    6  A    between atoms: C9_13  and  C16_20 
ROOT
HETATM    1  C9  UNL     1       3.063  -2.464  13.392  1.00  0.00    -0.005 C 
ENDROOT
BRANCH   1   2
HETATM    2  C8  UNL     1       2.660  -3.828  13.055  1.00  0.00    -0.018 A 
HETATM    3  C3  UNL     1       3.438  -4.719  12.375  1.00  0.00    -0.045 A 
HETATM    4  C4  UNL     1       2.895  -5.998  12.048  1.00  0.00     0.008 A 
HETATM    5  C5  UNL     1       1.637  -6.385  12.380  1.00  0.00     0.001 A 
HETATM    6  C6  UNL     1       0.852  -5.492  13.065  1.00  0.00     0.001 A 
HETATM    7  C7  UNL     1       1.357  -4.281  13.379  1.00  0.00     0.013 A 
BRANCH   3   8
HETATM    8  C2  UNL     1       4.819  -4.587  11.976  1.00  0.00     0.066 C 
BRANCH   8   9
HETATM    9  C1  UNL     1       5.701  -5.553  12.760  1.00  0.00     0.234 C 
BRANCH   9  10
HETATM   10  N1  UNL     1       6.642  -6.206  11.853  1.00  0.00    -0.079 N 
ATOM     11  H13 UNL     1       7.021  -5.560  11.161  1.00  0.00     0.274 HD
ATOM     12  H12 UNL     1       7.517  -6.452  12.318  1.00  0.00     0.274 HD
ATOM     13  H11 UNL     1       6.196  -7.015  11.420  1.00  0.00     0.274 HD
ENDBRANCH   9  10
ENDBRANCH   8   9
ENDBRANCH   3   8
ENDBRANCH   1   2
BRANCH   1  14
HETATM   14  C10 UNL     1       3.935  -2.340  14.554  1.00  0.00    -0.024 A 
HETATM   15  C11 UNL     1       4.525  -1.122  14.794  1.00  0.00     0.012 A 
HETATM   16  C12 UNL     1       5.386  -0.879  15.833  1.00  0.00     0.001 A 
HETATM   17  C13 UNL     1       5.654  -1.942  16.670  1.00  0.00     0.000 A 
HETATM   18  C14 UNL     1       5.088  -3.179  16.471  1.00  0.00     0.001 A 
HETATM   19  C15 UNL     1       4.233  -3.366  15.411  1.00  0.00     0.012 A 
ENDBRANCH   1  14
BRANCH   1  20
HETATM   20  C16 UNL     1       3.141  -1.484  12.316  1.00  0.00    -0.024 A 
HETATM   21  C17 UNL     1       4.057  -0.525  12.042  1.00  0.00     0.012 A 
HETATM   22  C18 UNL     1       3.987   0.353  10.975  1.00  0.00     0.001 A 
HETATM   23  C19 UNL     1       2.923   0.272  10.108  1.00  0.00     0.000 A 
HETATM   24  C20 UNL     1       1.958  -0.678  10.323  1.00  0.00     0.001 A 
HETATM   25  C21 UNL     1       2.068  -1.523  11.391  1.00  0.00     0.012 A 
ENDBRANCH   1  20
TORSDOF 6
ENDMDL
