MODEL 1
REMARK VINA RESULT: -8.966506633      0.000      0.000
REMARK  5 active torsions:
REMARK  status: ('A' for Active; 'I' for Inactive)
REMARK    1  A    between atoms: C3_3  and  C4_4 
REMARK    2  A    between atoms: C3_3  and  C11_11 
REMARK    3  A    between atoms: C4_4  and  C5_5 
REMARK    4  A    between atoms: C11_11  and  C12_12 
REMARK    5  A    between atoms: C11_11  and  C18_18 
ROOT
HETATM    1  C1  UNL     1       2.276  -2.234   7.534  1.00  0.00     0.012 C 
HETATM    2  C2  UNL     1       1.928  -1.637   8.525  1.00  0.00    -0.107 C 
HETATM    3  C3  UNL     1       1.540  -0.948   9.712  1.00  0.00     0.103 C 
ENDROOT
BRANCH   3   4
HETATM    4  C4  UNL     1       1.024  -1.906  10.801  1.00  0.00     0.060 C 
BRANCH   4   5
HETATM    5  C5  UNL     1       2.012  -1.972  11.890  1.00  0.00    -0.057 A 
HETATM    6  C6  UNL     1       1.774  -2.832  12.941  1.00  0.00     0.007 A 
HETATM    7  C7  UNL     1       2.707  -2.898  13.965  1.00  0.00     0.001 A 
HETATM    8  C8  UNL     1       3.850  -2.127  13.946  1.00  0.00     0.000 A 
HETATM    9  C9  UNL     1       4.060  -1.284  12.895  1.00  0.00     0.001 A 
HETATM   10  C10 UNL     1       3.167  -1.183  11.855  1.00  0.00     0.007 A 
ENDBRANCH   4   5
ENDBRANCH   3   4
BRANCH   3  11
HETATM   11  C11 UNL     1       0.509   0.089   9.513  1.00  0.00    -0.020 C 
BRANCH  11  12
HETATM   12  C12 UNL     1      -0.228   0.046   8.227  1.00  0.00    -0.028 A 
HETATM   13  C13 UNL     1       0.196   0.720   7.085  1.00  0.00     0.012 A 
HETATM   14  C14 UNL     1      -0.463   0.683   5.880  1.00  0.00     0.001 A 
HETATM   15  C15 UNL     1      -1.622  -0.090   5.842  1.00  0.00     0.000 A 
HETATM   16  C16 UNL     1      -2.066  -0.768   6.954  1.00  0.00     0.001 A 
HETATM   17  C17 UNL     1      -1.382  -0.708   8.143  1.00  0.00     0.012 A 
ENDBRANCH  11  12
BRANCH  11  18
HETATM   18  C18 UNL     1       0.813   1.448   9.996  1.00  0.00    -0.011 A 
HETATM   19  C19 UNL     1      -0.077   2.496  10.075  1.00  0.00     0.030 A 
HETATM   20  C20 UNL     1       0.609   3.585  10.580  1.00  0.00     0.088 A 
HETATM   21  N1  UNL     1       1.889   3.252  10.816  1.00  0.00    -0.374 N 
HETATM   22  C21 UNL     1       2.033   1.961  10.469  1.00  0.00     0.099 A 
ATOM     23  H1  UNL     1       2.615   3.864  11.189  1.00  0.00     0.164 HD
ENDBRANCH  11  18
ENDBRANCH   3  11
TORSDOF 5
ENDMDL
MODEL 2
REMARK VINA RESULT: -8.944922476      0.049      1.022
REMARK  5 active torsions:
REMARK  status: ('A' for Active; 'I' for Inactive)
REMARK    1  A    between atoms: C3_3  and  C4_4 
REMARK    2  A    between atoms: C3_3  and  C11_11 
REMARK    3  A    between atoms: C4_4  and  C5_5 
REMARK    4  A    between atoms: C11_11  and  C12_12 
REMARK    5  A    between atoms: C11_11  and  C18_18 
ROOT
HETATM    1  C1  UNL     1       2.298  -2.234   7.553  1.00  0.00     0.012 C 
HETATM    2  C2  UNL     1       1.936  -1.642   8.542  1.00  0.00    -0.107 C 
HETATM    3  C3  UNL     1       1.533  -0.957   9.727  1.00  0.00     0.103 C 
ENDROOT
BRANCH   3   4
HETATM    4  C4  UNL     1       1.014  -1.922  10.809  1.00  0.00     0.060 C 
BRANCH   4   5
HETATM    5  C5  UNL     1       1.991  -1.981  11.908  1.00  0.00    -0.057 A 
HETATM    6  C6  UNL     1       1.747  -2.841  12.958  1.00  0.00     0.007 A 
HETATM    7  C7  UNL     1       2.670  -2.900  13.991  1.00  0.00     0.001 A 
HETATM    8  C8  UNL     1       3.809  -2.123  13.983  1.00  0.00     0.000 A 
HETATM    9  C9  UNL     1       4.025  -1.280  12.933  1.00  0.00     0.001 A 
HETATM   10  C10 UNL     1       3.142  -1.185  11.884  1.00  0.00     0.007 A 
ENDBRANCH   4   5
ENDBRANCH   3   4
BRANCH   3  11
HETATM   11  C11 UNL     1       0.495   0.072   9.520  1.00  0.00    -0.020 C 
BRANCH  11  12
HETATM   12  C12 UNL     1      -0.244   0.013   8.237  1.00  0.00    -0.028 A 
HETATM   13  C13 UNL     1      -1.416  -0.719   8.067  1.00  0.00     0.012 A 
HETATM   14  C14 UNL     1      -2.125  -0.775   6.892  1.00  0.00     0.001 A 
HETATM   15  C15 UNL     1      -1.604  -0.040   5.828  1.00  0.00     0.000 A 
HETATM   16  C16 UNL     1      -0.447   0.694   5.966  1.00  0.00     0.001 A 
HETATM   17  C17 UNL     1       0.235   0.727   7.156  1.00  0.00     0.012 A 
ENDBRANCH  11  12
BRANCH  11  18
HETATM   18  C18 UNL     1       0.794   1.437   9.989  1.00  0.00    -0.011 A 
HETATM   19  C19 UNL     1      -0.103   2.479  10.070  1.00  0.00     0.030 A 
HETATM   20  C20 UNL     1       0.579   3.577  10.558  1.00  0.00     0.088 A 
HETATM   21  N1  UNL     1       1.865   3.257  10.782  1.00  0.00    -0.374 N 
HETATM   22  C21 UNL     1       2.015   1.964  10.444  1.00  0.00     0.099 A 
ATOM     23  H1  UNL     1       2.590   3.878  11.141  1.00  0.00     0.164 HD
ENDBRANCH  11  18
ENDBRANCH   3  11
TORSDOF 5
ENDMDL
MODEL 3
REMARK VINA RESULT: -8.862273232      3.081      5.371
REMARK  5 active torsions:
REMARK  status: ('A' for Active; 'I' for Inactive)
REMARK    1  A    between atoms: C3_3  and  C4_4 
REMARK    2  A    between atoms: C3_3  and  C11_11 
REMARK    3  A    between atoms: C4_4  and  C5_5 
REMARK    4  A    between atoms: C11_11  and  C12_12 
REMARK    5  A    between atoms: C11_11  and  C18_18 
ROOT
HETATM    1  C1  UNL     1       3.971   0.681  11.515  1.00  0.00     0.012 C 
HETATM    2  C2  UNL     1       3.856  -0.357  12.121  1.00  0.00    -0.107 C 
HETATM    3  C3  UNL     1       3.735  -1.569  12.864  1.00  0.00     0.103 C 
ENDROOT
BRANCH   3   4
HETATM    4  C4  UNL     1       5.106  -2.162  13.242  1.00  0.00     0.060 C 
BRANCH   4   5
HETATM    5  C5  UNL     1       4.972  -2.916  14.498  1.00  0.00    -0.057 A 
HETATM    6  C6  UNL     1       4.762  -2.215  15.666  1.00  0.00     0.007 A 
HETATM    7  C7  UNL     1       4.631  -2.926  16.850  1.00  0.00     0.001 A 
HETATM    8  C8  UNL     1       4.708  -4.303  16.873  1.00  0.00     0.000 A 
HETATM    9  C9  UNL     1       4.917  -4.972  15.703  1.00  0.00     0.001 A 
HETATM   10  C10 UNL     1       5.052  -4.313  14.504  1.00  0.00     0.007 A 
ENDBRANCH   4   5
ENDBRANCH   3   4
BRANCH   3  11
HETATM   11  C11 UNL     1       2.969  -2.632  12.186  1.00  0.00    -0.020 C 
BRANCH  11  12
HETATM   12  C12 UNL     1       2.330  -2.265  10.899  1.00  0.00    -0.028 A 
HETATM   13  C13 UNL     1       1.056  -1.711  10.813  1.00  0.00     0.012 A 
HETATM   14  C14 UNL     1       0.452  -1.351   9.633  1.00  0.00     0.001 A 
HETATM   15  C15 UNL     1       1.196  -1.569   8.474  1.00  0.00     0.000 A 
HETATM   16  C16 UNL     1       2.459  -2.114   8.528  1.00  0.00     0.001 A 
HETATM   17  C17 UNL     1       3.031  -2.463   9.725  1.00  0.00     0.012 A 
ENDBRANCH  11  12
BRANCH  11  18
HETATM   18  C18 UNL     1       2.161  -3.529  13.032  1.00  0.00    -0.011 A 
HETATM   19  C19 UNL     1       1.578  -3.198  14.235  1.00  0.00     0.030 A 
HETATM   20  C20 UNL     1       0.913  -4.318  14.696  1.00  0.00     0.088 A 
HETATM   21  N1  UNL     1       1.061  -5.331  13.825  1.00  0.00    -0.374 N 
HETATM   22  C21 UNL     1       1.814  -4.873  12.810  1.00  0.00     0.099 A 
ATOM     23  H1  UNL     1       0.675  -6.271  13.918  1.00  0.00     0.164 HD
ENDBRANCH  11  18
ENDBRANCH   3  11
TORSDOF 5
ENDMDL
MODEL 4
REMARK VINA RESULT: -8.851053951      3.125      5.346
REMARK  5 active torsions:
REMARK  status: ('A' for Active; 'I' for Inactive)
REMARK    1  A    between atoms: C3_3  and  C4_4 
REMARK    2  A    between atoms: C3_3  and  C11_11 
REMARK    3  A    between atoms: C4_4  and  C5_5 
REMARK    4  A    between atoms: C11_11  and  C12_12 
REMARK    5  A    between atoms: C11_11  and  C18_18 
ROOT
HETATM    1  C1  UNL     1       3.969   0.689  11.551  1.00  0.00     0.012 C 
HETATM    2  C2  UNL     1       3.863  -0.345  12.168  1.00  0.00    -0.107 C 
HETATM    3  C3  UNL     1       3.752  -1.551  12.922  1.00  0.00     0.103 C 
ENDROOT
BRANCH   3   4
HETATM    4  C4  UNL     1       5.127  -2.120  13.318  1.00  0.00     0.060 C 
BRANCH   4   5
HETATM    5  C5  UNL     1       4.975  -2.943  14.529  1.00  0.00    -0.057 A 
HETATM    6  C6  UNL     1       4.728  -2.309  15.728  1.00  0.00     0.007 A 
HETATM    7  C7  UNL     1       4.580  -3.085  16.868  1.00  0.00     0.001 A 
HETATM    8  C8  UNL     1       4.676  -4.460  16.819  1.00  0.00     0.000 A 
HETATM    9  C9  UNL     1       4.921  -5.061  15.619  1.00  0.00     0.001 A 
HETATM   10  C10 UNL     1       5.075  -4.338  14.461  1.00  0.00     0.007 A 
ENDBRANCH   4   5
ENDBRANCH   3   4
BRANCH   3  11
HETATM   11  C11 UNL     1       3.006  -2.631  12.249  1.00  0.00    -0.020 C 
BRANCH  11  12
HETATM   12  C12 UNL     1       2.399  -2.295  10.940  1.00  0.00    -0.028 A 
HETATM   13  C13 UNL     1       3.059  -2.473   9.727  1.00  0.00     0.012 A 
HETATM   14  C14 UNL     1       2.509  -2.182   8.502  1.00  0.00     0.001 A 
HETATM   15  C15 UNL     1       1.209  -1.680   8.518  1.00  0.00     0.000 A 
HETATM   16  C16 UNL     1       0.530  -1.494   9.702  1.00  0.00     0.001 A 
HETATM   17  C17 UNL     1       1.110  -1.796  10.908  1.00  0.00     0.012 A 
ENDBRANCH  11  12
BRANCH  11  18
HETATM   18  C18 UNL     1       2.180  -3.512  13.095  1.00  0.00    -0.011 A 
HETATM   19  C19 UNL     1       1.592  -3.166  14.291  1.00  0.00     0.030 A 
HETATM   20  C20 UNL     1       0.909  -4.274  14.754  1.00  0.00     0.088 A 
HETATM   21  N1  UNL     1       1.051  -5.295  13.891  1.00  0.00    -0.374 N 
HETATM   22  C21 UNL     1       1.818  -4.852  12.878  1.00  0.00     0.099 A 
ATOM     23  H1  UNL     1       0.652  -6.229  13.987  1.00  0.00     0.164 HD
ENDBRANCH  11  18
ENDBRANCH   3  11
TORSDOF 5
ENDMDL
MODEL 5
REMARK VINA RESULT: -8.766043902      3.076      5.576
REMARK  5 active torsions:
REMARK  status: ('A' for Active; 'I' for Inactive)
REMARK    1  A    between atoms: C3_3  and  C4_4 
REMARK    2  A    between atoms: C3_3  and  C11_11 
REMARK    3  A    between atoms: C4_4  and  C5_5 
REMARK    4  A    between atoms: C11_11  and  C12_12 
REMARK    5  A    between atoms: C11_11  and  C18_18 
ROOT
HETATM    1  C1  UNL     1       4.187   0.270  11.835  1.00  0.00     0.012 C 
HETATM    2  C2  UNL     1       3.951  -0.855  12.207  1.00  0.00    -0.107 C 
HETATM    3  C3  UNL     1       3.683  -2.175  12.677  1.00  0.00     0.103 C 
ENDROOT
BRANCH   3   4
HETATM    4  C4  UNL     1       4.952  -2.883  13.186  1.00  0.00     0.060 C 
BRANCH   4   5
HETATM    5  C5  UNL     1       4.726  -3.342  14.566  1.00  0.00    -0.057 A 
HETATM    6  C6  UNL     1       4.572  -2.394  15.556  1.00  0.00     0.007 A 
HETATM    7  C7  UNL     1       4.353  -2.826  16.856  1.00  0.00     0.001 A 
HETATM    8  C8  UNL     1       4.290  -4.169  17.166  1.00  0.00     0.000 A 
HETATM    9  C9  UNL     1       4.446  -5.084  16.167  1.00  0.00     0.001 A 
HETATM   10  C10 UNL     1       4.663  -4.708  14.863  1.00  0.00     0.007 A 
ENDBRANCH   4   5
ENDBRANCH   3   4
BRANCH   3  11
HETATM   11  C11 UNL     1       3.051  -3.065  11.685  1.00  0.00    -0.020 C 
BRANCH  11  12
HETATM   12  C12 UNL     1       2.328  -2.403  10.573  1.00  0.00    -0.028 A 
HETATM   13  C13 UNL     1       1.131  -1.713  10.748  1.00  0.00     0.012 A 
HETATM   14  C14 UNL     1       0.453  -1.080   9.735  1.00  0.00     0.001 A 
HETATM   15  C15 UNL     1       1.032  -1.157   8.469  1.00  0.00     0.000 A 
HETATM   16  C16 UNL     1       2.215  -1.832   8.266  1.00  0.00     0.001 A 
HETATM   17  C17 UNL     1       2.866  -2.453   9.302  1.00  0.00     0.012 A 
ENDBRANCH  11  12
BRANCH  11  18
HETATM   18  C18 UNL     1       2.402  -4.289  12.189  1.00  0.00    -0.011 A 
HETATM   19  C19 UNL     1       2.736  -5.581  11.848  1.00  0.00     0.030 A 
HETATM   20  C20 UNL     1       1.890  -6.425  12.541  1.00  0.00     0.088 A 
HETATM   21  N1  UNL     1       1.044  -5.707  13.299  1.00  0.00    -0.374 N 
HETATM   22  C21 UNL     1       1.339  -4.410  13.100  1.00  0.00     0.099 A 
ATOM     23  H1  UNL     1       0.316  -6.077  13.910  1.00  0.00     0.164 HD
ENDBRANCH  11  18
ENDBRANCH   3  11
TORSDOF 5
ENDMDL
