MODEL 1
REMARK VINA RESULT: -5.797580988      0.000      0.000
REMARK  6 active torsions:
REMARK  status: ('A' for Active; 'I' for Inactive)
REMARK    1  A    between atoms: C1_4  and  N2_5 
REMARK    2  A    between atoms: N2_5  and  C2_7 
REMARK    3  A    between atoms: C4_9  and  C5_10 
REMARK       I    between atoms: C5_10  and  N3_12 
REMARK    4  A    between atoms: N3_12  and  C6_13 
REMARK    5  A    between atoms: C6_13  and  C7_14 
REMARK    6  A    between atoms: C8_20  and  N6_21 
ROOT
HETATM    1  C2  UNL     1      24.763  27.293  11.497  1.00  0.00     0.135 C 
HETATM    2  C3  UNL     1      26.005  26.571  10.992  1.00  0.00     0.073 C 
HETATM    3  C4  UNL     1      26.027  26.868   9.520  1.00  0.00     0.296 C 
HETATM    4  N5  UNL     1      25.351  28.149   9.383  1.00  0.00    -0.038 N 
ATOM      5  H51 UNL     1      25.120  28.412   8.425  1.00  0.00     0.280 HD
ATOM      6  H52 UNL     1      25.933  28.964   9.573  1.00  0.00     0.280 HD
HETATM    7  C8  UNL     1      24.191  27.996  10.278  1.00  0.00     0.309 C 
ENDROOT
BRANCH   3   8
HETATM    8  C5  UNL     1      27.468  27.086   9.099  1.00  0.00     0.322 C 
HETATM    9  O1  UNL     1      27.873  28.257   9.372  1.00  0.00    -0.255 OA
HETATM   10  N3  UNL     1      28.188  26.082   8.489  1.00  0.00    -0.377 NA
BRANCH  10  11
HETATM   11  C6  UNL     1      28.904  25.100   7.889  1.00  0.00     0.257 C 
BRANCH  11  12
HETATM   12  C7  UNL     1      30.230  24.795   8.456  1.00  0.00     0.283 C 
HETATM   13  N4  UNL     1      31.360  25.662   8.191  1.00  0.00    -0.056 NA
HETATM   14  O2  UNL     1      30.484  23.803   9.177  1.00  0.00    -0.269 OA
ENDBRANCH  11  12
ENDBRANCH  10  11
ENDBRANCH   3   8
BRANCH   1  15
HETATM   15  N2  UNL     1      25.186  28.245  12.488  1.00  0.00    -0.378 N 
ATOM     16  H2  UNL     1      24.484  28.697  13.074  1.00  0.00     0.160 HD
BRANCH  15  17
HETATM   17  C1  UNL     1      26.541  28.568  12.673  1.00  0.00     0.169 C 
HETATM   18  N1  UNL     1      27.147  29.574  12.151  1.00  0.00    -0.396 N 
ATOM     19  H12 UNL     1      26.583  30.179  11.556  1.00  0.00     0.156 HD
ATOM     20  H11 UNL     1      28.131  29.809  12.285  1.00  0.00     0.156 HD
ENDBRANCH  15  17
ENDBRANCH   1  15
BRANCH   7  21
HETATM   21  N6  UNL     1      23.255  27.122   9.627  1.00  0.00    -0.338 N 
HETATM   22  C9  UNL     1      22.423  27.454   8.733  1.00  0.00     0.198 C 
HETATM   23  N7  UNL     1      22.345  28.812   8.270  1.00  0.00    -0.067 NA
HETATM   24  N8  UNL     1      21.538  26.459   8.172  1.00  0.00    -0.067 NA
ATOM     25  H6  UNL     1      23.262  26.143   9.911  1.00  0.00     0.164 HD
ENDBRANCH   7  21
TORSDOF 6
ENDMDL
MODEL 2
REMARK VINA RESULT: -5.571001649      1.557      1.949
REMARK  6 active torsions:
REMARK  status: ('A' for Active; 'I' for Inactive)
REMARK    1  A    between atoms: C1_4  and  N2_5 
REMARK    2  A    between atoms: N2_5  and  C2_7 
REMARK    3  A    between atoms: C4_9  and  C5_10 
REMARK       I    between atoms: C5_10  and  N3_12 
REMARK    4  A    between atoms: N3_12  and  C6_13 
REMARK    5  A    between atoms: C6_13  and  C7_14 
REMARK    6  A    between atoms: C8_20  and  N6_21 
ROOT
HETATM    1  C2  UNL     1      25.237  26.683  10.343  1.00  0.00     0.135 C 
HETATM    2  C3  UNL     1      26.532  26.577   9.550  1.00  0.00     0.073 C 
HETATM    3  C4  UNL     1      26.586  27.856   8.766  1.00  0.00     0.296 C 
HETATM    4  N5  UNL     1      25.845  28.821   9.565  1.00  0.00    -0.038 N 
ATOM      5  H51 UNL     1      25.632  29.698   9.089  1.00  0.00     0.280 HD
ATOM      6  H52 UNL     1      26.375  29.246  10.325  1.00  0.00     0.280 HD
HETATM    7  C8  UNL     1      24.667  28.047   9.991  1.00  0.00     0.309 C 
ENDROOT
BRANCH   3   8
HETATM    8  C5  UNL     1      28.026  28.333   8.728  1.00  0.00     0.322 C 
HETATM    9  O1  UNL     1      28.110  29.598   8.780  1.00  0.00    -0.255 OA
HETATM   10  N3  UNL     1      29.068  27.436   8.640  1.00  0.00    -0.377 NA
BRANCH  10  11
HETATM   11  C6  UNL     1      30.099  26.561   8.555  1.00  0.00     0.257 C 
BRANCH  11  12
HETATM   12  C7  UNL     1      29.759  25.145   8.324  1.00  0.00     0.283 C 
HETATM   13  N4  UNL     1      30.456  24.096   9.038  1.00  0.00    -0.056 NA
HETATM   14  O2  UNL     1      28.883  24.746   7.522  1.00  0.00    -0.269 OA
ENDBRANCH  11  12
ENDBRANCH  10  11
ENDBRANCH   3   8
BRANCH   1  15
HETATM   15  N2  UNL     1      25.575  26.612  11.740  1.00  0.00    -0.378 N 
ATOM     16  H2  UNL     1      26.526  26.359  12.009  1.00  0.00     0.160 HD
BRANCH  15  17
HETATM   17  C1  UNL     1      24.629  26.883  12.744  1.00  0.00     0.169 C 
HETATM   18  N1  UNL     1      23.486  26.311  12.868  1.00  0.00    -0.396 N 
ATOM     19  H12 UNL     1      23.260  25.603  12.169  1.00  0.00     0.156 HD
ATOM     20  H11 UNL     1      22.799  26.507  13.596  1.00  0.00     0.156 HD
ENDBRANCH  15  17
ENDBRANCH   1  15
BRANCH   7  21
HETATM   21  N6  UNL     1      23.802  27.914   8.851  1.00  0.00    -0.338 N 
HETATM   22  C9  UNL     1      22.600  27.518   8.871  1.00  0.00     0.198 C 
HETATM   23  N7  UNL     1      21.968  27.149  10.107  1.00  0.00    -0.067 NA
HETATM   24  N8  UNL     1      21.855  27.431   7.636  1.00  0.00    -0.067 NA
ATOM     25  H6  UNL     1      24.193  28.161   7.942  1.00  0.00     0.164 HD
ENDBRANCH   7  21
TORSDOF 6
ENDMDL
MODEL 3
REMARK VINA RESULT: -5.505748949      1.972      2.816
REMARK  6 active torsions:
REMARK  status: ('A' for Active; 'I' for Inactive)
REMARK    1  A    between atoms: C1_4  and  N2_5 
REMARK    2  A    between atoms: N2_5  and  C2_7 
REMARK    3  A    between atoms: C4_9  and  C5_10 
REMARK       I    between atoms: C5_10  and  N3_12 
REMARK    4  A    between atoms: N3_12  and  C6_13 
REMARK    5  A    between atoms: C6_13  and  C7_14 
REMARK    6  A    between atoms: C8_20  and  N6_21 
ROOT
HETATM    1  C2  UNL     1      25.364  27.809  10.636  1.00  0.00     0.135 C 
HETATM    2  C3  UNL     1      26.464  26.765  10.506  1.00  0.00     0.073 C 
HETATM    3  C4  UNL     1      26.510  26.464   9.035  1.00  0.00     0.296 C 
HETATM    4  N5  UNL     1      26.047  27.682   8.386  1.00  0.00    -0.038 N 
ATOM      5  H51 UNL     1      25.847  27.586   7.390  1.00  0.00     0.280 HD
ATOM      6  H52 UNL     1      26.757  28.405   8.276  1.00  0.00     0.280 HD
HETATM    7  C8  UNL     1      24.893  28.068   9.215  1.00  0.00     0.309 C 
ENDROOT
BRANCH   3   8
HETATM    8  C5  UNL     1      27.960  26.275   8.631  1.00  0.00     0.322 C 
HETATM    9  O1  UNL     1      28.159  25.150   8.081  1.00  0.00    -0.255 OA
HETATM   10  N3  UNL     1      28.896  27.257   8.870  1.00  0.00    -0.377 NA
BRANCH  10  11
HETATM   11  C6  UNL     1      29.823  28.218   9.102  1.00  0.00     0.257 C 
BRANCH  11  12
HETATM   12  C7  UNL     1      29.411  29.616   8.877  1.00  0.00     0.283 C 
HETATM   13  N4  UNL     1      28.018  29.997   8.980  1.00  0.00    -0.056 NA
HETATM   14  O2  UNL     1      30.193  30.549   8.584  1.00  0.00    -0.269 OA
ENDBRANCH  11  12
ENDBRANCH  10  11
ENDBRANCH   3   8
BRANCH   1  15
HETATM   15  N2  UNL     1      25.952  28.992  11.206  1.00  0.00    -0.378 N 
ATOM     16  H2  UNL     1      26.901  28.945  11.577  1.00  0.00     0.160 HD
BRANCH  15  17
HETATM   17  C1  UNL     1      25.254  30.210  11.265  1.00  0.00     0.169 C 
HETATM   18  N1  UNL     1      25.599  31.299  10.679  1.00  0.00    -0.396 N 
ATOM     19  H12 UNL     1      26.456  31.260  10.128  1.00  0.00     0.156 HD
ATOM     20  H11 UNL     1      25.093  32.183  10.722  1.00  0.00     0.156 HD
ENDBRANCH  15  17
ENDBRANCH   1  15
BRANCH   7  21
HETATM   21  N6  UNL     1      23.818  27.168   8.905  1.00  0.00    -0.338 N 
HETATM   22  C9  UNL     1      22.668  27.495   8.490  1.00  0.00     0.198 C 
HETATM   23  N7  UNL     1      22.328  28.876   8.281  1.00  0.00    -0.067 NA
HETATM   24  N8  UNL     1      21.683  26.472   8.224  1.00  0.00    -0.067 NA
ATOM     25  H6  UNL     1      23.997  26.172   9.032  1.00  0.00     0.164 HD
ENDBRANCH   7  21
TORSDOF 6
ENDMDL
MODEL 4
REMARK VINA RESULT: -5.496775812      2.152      4.076
REMARK  6 active torsions:
REMARK  status: ('A' for Active; 'I' for Inactive)
REMARK    1  A    between atoms: C1_4  and  N2_5 
REMARK    2  A    between atoms: N2_5  and  C2_7 
REMARK    3  A    between atoms: C4_9  and  C5_10 
REMARK       I    between atoms: C5_10  and  N3_12 
REMARK    4  A    between atoms: N3_12  and  C6_13 
REMARK    5  A    between atoms: C6_13  and  C7_14 
REMARK    6  A    between atoms: C8_20  and  N6_21 
ROOT
HETATM    1  C2  UNL     1      26.138  27.336   8.628  1.00  0.00     0.135 C 
HETATM    2  C3  UNL     1      26.620  28.671   9.179  1.00  0.00     0.073 C 
HETATM    3  C4  UNL     1      25.469  29.161  10.009  1.00  0.00     0.296 C 
HETATM    4  N5  UNL     1      24.782  27.955  10.451  1.00  0.00    -0.038 N 
ATOM      5  H51 UNL     1      23.870  28.115  10.879  1.00  0.00     0.280 HD
ATOM      6  H52 UNL     1      25.196  27.500  11.265  1.00  0.00     0.280 HD
HETATM    7  C8  UNL     1      24.757  27.134   9.229  1.00  0.00     0.309 C 
ENDROOT
BRANCH   3   8
HETATM    8  C5  UNL     1      26.026  29.828  11.252  1.00  0.00     0.322 C 
HETATM    9  O1  UNL     1      25.686  31.048  11.331  1.00  0.00    -0.255 OA
HETATM   10  N3  UNL     1      26.808  29.127  12.144  1.00  0.00    -0.377 NA
BRANCH  10  11
HETATM   11  C6  UNL     1      27.578  28.444  13.026  1.00  0.00     0.257 C 
BRANCH  11  12
HETATM   12  C7  UNL     1      27.706  26.990  12.819  1.00  0.00     0.283 C 
HETATM   13  N4  UNL     1      26.625  26.235  12.219  1.00  0.00    -0.056 NA
HETATM   14  O2  UNL     1      28.711  26.313  13.135  1.00  0.00    -0.269 OA
ENDBRANCH  11  12
ENDBRANCH  10  11
ENDBRANCH   3   8
BRANCH   1  15
HETATM   15  N2  UNL     1      27.050  26.322   9.085  1.00  0.00    -0.378 N 
ATOM     16  H2  UNL     1      26.806  25.767   9.906  1.00  0.00     0.160 HD
BRANCH  15  17
HETATM   17  C1  UNL     1      28.269  26.074   8.430  1.00  0.00     0.169 C 
HETATM   18  N1  UNL     1      28.406  25.449   7.317  1.00  0.00    -0.396 N 
ATOM     19  H12 UNL     1      27.547  25.109   6.884  1.00  0.00     0.156 HD
ATOM     20  H11 UNL     1      29.290  25.269   6.841  1.00  0.00     0.156 HD
ENDBRANCH  15  17
ENDBRANCH   1  15
BRANCH   7  21
HETATM   21  N6  UNL     1      23.775  27.701   8.348  1.00  0.00    -0.338 N 
HETATM   22  C9  UNL     1      22.524  27.720   8.541  1.00  0.00     0.198 C 
HETATM   23  N7  UNL     1      21.955  27.144   9.727  1.00  0.00    -0.067 NA
HETATM   24  N8  UNL     1      21.656  28.325   7.557  1.00  0.00    -0.067 NA
ATOM     25  H6  UNL     1      24.116  28.127   7.486  1.00  0.00     0.164 HD
ENDBRANCH   7  21
TORSDOF 6
ENDMDL
MODEL 5
REMARK VINA RESULT: -5.413369680      2.663      6.073
REMARK  6 active torsions:
REMARK  status: ('A' for Active; 'I' for Inactive)
REMARK    1  A    between atoms: C1_4  and  N2_5 
REMARK    2  A    between atoms: N2_5  and  C2_7 
REMARK    3  A    between atoms: C4_9  and  C5_10 
REMARK       I    between atoms: C5_10  and  N3_12 
REMARK    4  A    between atoms: N3_12  and  C6_13 
REMARK    5  A    between atoms: C6_13  and  C7_14 
REMARK    6  A    between atoms: C8_20  and  N6_21 
ROOT
HETATM    1  C2  UNL     1      29.116  28.091   9.462  1.00  0.00     0.135 C 
HETATM    2  C3  UNL     1      28.022  27.147   9.941  1.00  0.00     0.073 C 
HETATM    3  C4  UNL     1      26.751  27.909   9.700  1.00  0.00     0.296 C 
HETATM    4  N5  UNL     1      27.047  28.795   8.584  1.00  0.00    -0.038 N 
ATOM      5  H51 UNL     1      26.344  29.512   8.408  1.00  0.00     0.280 HD
ATOM      6  H52 UNL     1      26.981  28.362   7.663  1.00  0.00     0.280 HD
HETATM    7  C8  UNL     1      28.382  29.311   8.930  1.00  0.00     0.309 C 
ENDROOT
BRANCH   3   8
HETATM    8  C5  UNL     1      25.693  26.934   9.217  1.00  0.00     0.322 C 
HETATM    9  O1  UNL     1      26.200  25.948   8.601  1.00  0.00    -0.255 OA
HETATM   10  N3  UNL     1      24.356  27.165   9.452  1.00  0.00    -0.377 NA
BRANCH  10  11
HETATM   11  C6  UNL     1      23.038  27.384   9.679  1.00  0.00     0.257 C 
BRANCH  11  12
HETATM   12  C7  UNL     1      22.138  27.331   8.512  1.00  0.00     0.283 C 
HETATM   13  N4  UNL     1      21.973  28.489   7.659  1.00  0.00    -0.056 NA
HETATM   14  O2  UNL     1      21.466  26.329   8.178  1.00  0.00    -0.269 OA
ENDBRANCH  11  12
ENDBRANCH  10  11
ENDBRANCH   3   8
BRANCH   1  15
HETATM   15  N2  UNL     1      29.835  27.424   8.409  1.00  0.00    -0.378 N 
ATOM     16  H2  UNL     1      30.598  27.914   7.941  1.00  0.00     0.160 HD
BRANCH  15  17
HETATM   17  C1  UNL     1      29.514  26.116   8.008  1.00  0.00     0.169 C 
HETATM   18  N1  UNL     1      28.907  25.795   6.922  1.00  0.00    -0.396 N 
ATOM     19  H12 UNL     1      28.642  26.566   6.310  1.00  0.00     0.156 HD
ATOM     20  H11 UNL     1      28.674  24.845   6.630  1.00  0.00     0.156 HD
ENDBRANCH  15  17
ENDBRANCH   1  15
BRANCH   7  21
HETATM   21  N6  UNL     1      28.216  30.259   9.996  1.00  0.00    -0.338 N 
HETATM   22  C9  UNL     1      27.782  31.442   9.879  1.00  0.00     0.198 C 
HETATM   23  N7  UNL     1      27.398  31.960   8.595  1.00  0.00    -0.067 NA
HETATM   24  N8  UNL     1      27.675  32.285  11.047  1.00  0.00    -0.067 NA
ATOM     25  H6  UNL     1      28.471  29.951  10.934  1.00  0.00     0.164 HD
ENDBRANCH   7  21
TORSDOF 6
ENDMDL
