MODEL 1
REMARK VINA RESULT: -5.852814001      0.000      0.000
REMARK  6 active torsions:
REMARK  status: ('A' for Active; 'I' for Inactive)
REMARK    1  A    between atoms: C2_2  and  C4_10 
REMARK    2  A    between atoms: N1_3  and  N2_5 
REMARK    3  A    between atoms: C4_10  and  C5_11 
REMARK    4  A    between atoms: C4_10  and  N9_19 
REMARK    5  A    between atoms: C5_11  and  N5_12 
REMARK    6  A    between atoms: N5_12  and  N6_14 
ROOT
HETATM    1  C4  UNL     1      26.472  27.481   9.323  1.00  0.00     0.149 C 
ENDROOT
BRANCH   1   2
HETATM    2  C2  UNL     1      27.928  27.524   8.940  1.00  0.00     0.024 C 
HETATM    3  C1  UNL     1      28.454  28.870   8.573  1.00  0.00     0.067 C 
HETATM    4  N1  UNL     1      28.629  26.460   8.943  1.00  0.00    -0.305 N 
ATOM      5  H1  UNL     1      28.215  25.566   9.206  1.00  0.00     0.186 HD
BRANCH   4   6
HETATM    6  N2  UNL     1      29.966  26.541   8.584  1.00  0.00    -0.276 N 
HETATM    7  C3  UNL     1      30.675  25.473   8.545  1.00  0.00     0.215 C 
HETATM    8  N3  UNL     1      30.083  24.231   8.871  1.00  0.00    -0.065 NA
HETATM    9  N4  UNL     1      32.043  25.600   8.171  1.00  0.00    -0.065 NA
ATOM     10  H2  UNL     1      30.381  27.444   8.351  1.00  0.00     0.189 HD
ENDBRANCH   4   6
ENDBRANCH   1   2
BRANCH   1  11
HETATM   11  C5  UNL     1      25.948  26.154   8.817  1.00  0.00     0.170 C 
BRANCH  11  12
HETATM   12  N5  UNL     1      24.703  26.343   8.114  1.00  0.00    -0.332 N 
ATOM     13  H5  UNL     1      24.280  25.573   7.596  1.00  0.00     0.180 HD
BRANCH  12  14
HETATM   14  N6  UNL     1      24.089  27.587   8.152  1.00  0.00    -0.280 N 
HETATM   15  C6  UNL     1      22.808  27.683   8.190  1.00  0.00     0.215 C 
HETATM   16  N7  UNL     1      22.057  26.462   8.190  1.00  0.00    -0.065 NA
HETATM   17  N8  UNL     1      22.138  28.942   8.230  1.00  0.00    -0.065 NA
ATOM     18  H6  UNL     1      24.659  28.433   8.149  1.00  0.00     0.189 HD
ENDBRANCH  12  14
ENDBRANCH  11  12
ENDBRANCH   1  11
BRANCH   1  19
HETATM   19  N9  UNL     1      26.440  27.493  10.773  1.00  0.00    -0.355 N 
HETATM   20  C7  UNL     1      25.684  28.302  11.415  1.00  0.00     0.197 C 
HETATM   21  N10 UNL     1      24.865  29.202  10.700  1.00  0.00    -0.067 NA
HETATM   22  N11 UNL     1      25.659  28.306  12.825  1.00  0.00    -0.067 NA
ATOM     23  H9  UNL     1      27.031  26.843  11.293  1.00  0.00     0.162 HD
ENDBRANCH   1  19
TORSDOF 6
ENDMDL
MODEL 2
REMARK VINA RESULT: -5.784190887      1.099      1.346
REMARK  6 active torsions:
REMARK  status: ('A' for Active; 'I' for Inactive)
REMARK    1  A    between atoms: C2_2  and  C4_10 
REMARK    2  A    between atoms: N1_3  and  N2_5 
REMARK    3  A    between atoms: C4_10  and  C5_11 
REMARK    4  A    between atoms: C4_10  and  N9_19 
REMARK    5  A    between atoms: C5_11  and  N5_12 
REMARK    6  A    between atoms: N5_12  and  N6_14 
ROOT
HETATM    1  C4  UNL     1      26.645  27.320   9.853  1.00  0.00     0.149 C 
ENDROOT
BRANCH   1   2
HETATM    2  C2  UNL     1      28.130  27.323   9.600  1.00  0.00     0.024 C 
HETATM    3  C1  UNL     1      28.894  28.402  10.288  1.00  0.00     0.067 C 
HETATM    4  N1  UNL     1      28.658  26.443   8.843  1.00  0.00    -0.305 N 
ATOM      5  H1  UNL     1      28.084  25.727   8.399  1.00  0.00     0.186 HD
BRANCH   4   6
HETATM    6  N2  UNL     1      30.028  26.480   8.635  1.00  0.00    -0.276 N 
HETATM    7  C3  UNL     1      30.692  25.383   8.605  1.00  0.00     0.215 C 
HETATM    8  N3  UNL     1      30.015  24.154   8.785  1.00  0.00    -0.065 NA
HETATM    9  N4  UNL     1      32.097  25.464   8.389  1.00  0.00    -0.065 NA
ATOM     10  H2  UNL     1      30.505  27.373   8.507  1.00  0.00     0.189 HD
ENDBRANCH   4   6
ENDBRANCH   1   2
BRANCH   1  11
HETATM   11  C5  UNL     1      26.018  26.665   8.641  1.00  0.00     0.170 C 
BRANCH  11  12
HETATM   12  N5  UNL     1      24.844  27.394   8.229  1.00  0.00    -0.332 N 
ATOM     13  H5  UNL     1      24.916  28.368   7.934  1.00  0.00     0.180 HD
BRANCH  12  14
HETATM   14  N6  UNL     1      23.613  26.752   8.239  1.00  0.00    -0.280 N 
HETATM   15  C6  UNL     1      22.525  27.427   8.347  1.00  0.00     0.215 C 
HETATM   16  N7  UNL     1      22.643  28.852   8.456  1.00  0.00    -0.065 NA
HETATM   17  N8  UNL     1      21.241  26.806   8.361  1.00  0.00    -0.065 NA
ATOM     18  H6  UNL     1      23.572  25.736   8.160  1.00  0.00     0.189 HD
ENDBRANCH  12  14
ENDBRANCH  11  12
ENDBRANCH   1  11
BRANCH   1  19
HETATM   19  N9  UNL     1      26.439  26.481  11.018  1.00  0.00    -0.355 N 
HETATM   20  C7  UNL     1      25.389  26.593  11.740  1.00  0.00     0.197 C 
HETATM   21  N10 UNL     1      24.411  27.551  11.400  1.00  0.00    -0.067 NA
HETATM   22  N11 UNL     1      25.197  25.772  12.871  1.00  0.00    -0.067 NA
ATOM     23  H9  UNL     1      27.146  25.788  11.266  1.00  0.00     0.162 HD
ENDBRANCH   1  19
TORSDOF 6
ENDMDL
MODEL 3
REMARK VINA RESULT: -5.519248907      1.745      6.257
REMARK  6 active torsions:
REMARK  status: ('A' for Active; 'I' for Inactive)
REMARK    1  A    between atoms: C2_2  and  C4_10 
REMARK    2  A    between atoms: N1_3  and  N2_5 
REMARK    3  A    between atoms: C4_10  and  C5_11 
REMARK    4  A    between atoms: C4_10  and  N9_19 
REMARK    5  A    between atoms: C5_11  and  N5_12 
REMARK    6  A    between atoms: N5_12  and  N6_14 
ROOT
HETATM    1  C4  UNL     1      27.211  28.466   9.169  1.00  0.00     0.149 C 
ENDROOT
BRANCH   1   2
HETATM    2  C2  UNL     1      25.986  27.592   9.117  1.00  0.00     0.024 C 
HETATM    3  C1  UNL     1      25.922  26.517  10.148  1.00  0.00     0.067 C 
HETATM    4  N1  UNL     1      25.086  27.792   8.237  1.00  0.00    -0.305 N 
ATOM      5  H1  UNL     1      25.183  28.545   7.556  1.00  0.00     0.186 HD
BRANCH   4   6
HETATM    6  N2  UNL     1      23.973  26.965   8.222  1.00  0.00    -0.276 N 
HETATM    7  C3  UNL     1      22.803  27.480   8.322  1.00  0.00     0.215 C 
HETATM    8  N3  UNL     1      22.667  28.883   8.447  1.00  0.00    -0.065 NA
HETATM    9  N4  UNL     1      21.686  26.596   8.304  1.00  0.00    -0.065 NA
ATOM     10  H2  UNL     1      24.084  25.954   8.132  1.00  0.00     0.189 HD
ENDBRANCH   4   6
ENDBRANCH   1   2
BRANCH   1  11
HETATM   11  C5  UNL     1      28.098  28.006   8.032  1.00  0.00     0.170 C 
BRANCH  11  12
HETATM   12  N5  UNL     1      29.335  27.472   8.547  1.00  0.00    -0.332 N 
ATOM     13  H5  UNL     1      30.166  28.060   8.610  1.00  0.00     0.180 HD
BRANCH  12  14
HETATM   14  N6  UNL     1      29.379  26.146   8.955  1.00  0.00    -0.280 N 
HETATM   15  C6  UNL     1      30.401  25.414   8.689  1.00  0.00     0.215 C 
HETATM   16  N7  UNL     1      31.475  26.023   7.961  1.00  0.00    -0.065 NA
HETATM   17  N8  UNL     1      30.485  24.047   9.090  1.00  0.00    -0.065 NA
ATOM     18  H6  UNL     1      28.593  25.749   9.470  1.00  0.00     0.189 HD
ENDBRANCH  12  14
ENDBRANCH  11  12
ENDBRANCH   1  11
BRANCH   1  19
HETATM   19  N9  UNL     1      26.750  29.816   8.908  1.00  0.00    -0.355 N 
HETATM   20  C7  UNL     1      27.487  30.831   9.163  1.00  0.00     0.197 C 
HETATM   21  N10 UNL     1      28.773  30.636   9.710  1.00  0.00    -0.067 NA
HETATM   22  N11 UNL     1      27.031  32.141   8.906  1.00  0.00    -0.067 NA
ATOM     23  H9  UNL     1      25.820  29.960   8.513  1.00  0.00     0.162 HD
ENDBRANCH   1  19
TORSDOF 6
ENDMDL
MODEL 4
REMARK VINA RESULT: -5.395539069      2.180      5.610
REMARK  6 active torsions:
REMARK  status: ('A' for Active; 'I' for Inactive)
REMARK    1  A    between atoms: C2_2  and  C4_10 
REMARK    2  A    between atoms: N1_3  and  N2_5 
REMARK    3  A    between atoms: C4_10  and  C5_11 
REMARK    4  A    between atoms: C4_10  and  N9_19 
REMARK    5  A    between atoms: C5_11  and  N5_12 
REMARK    6  A    between atoms: N5_12  and  N6_14 
ROOT
HETATM    1  C4  UNL     1      25.825  26.851  10.282  1.00  0.00     0.149 C 
ENDROOT
BRANCH   1   2
HETATM    2  C2  UNL     1      25.078  26.822  11.589  1.00  0.00     0.024 C 
HETATM    3  C1  UNL     1      25.819  26.227  12.737  1.00  0.00     0.067 C 
HETATM    4  N1  UNL     1      23.894  27.287  11.667  1.00  0.00    -0.305 N 
ATOM      5  H1  UNL     1      23.437  27.685  10.846  1.00  0.00     0.186 HD
BRANCH   4   6
HETATM    6  N2  UNL     1      23.239  27.242  12.888  1.00  0.00    -0.276 N 
HETATM    7  C3  UNL     1      21.963  27.114  12.917  1.00  0.00     0.215 C 
HETATM    8  N3  UNL     1      21.245  27.021  11.701  1.00  0.00    -0.065 NA
HETATM    9  N4  UNL     1      21.329  27.072  14.191  1.00  0.00    -0.065 NA
ATOM     10  H2  UNL     1      23.768  27.310  13.758  1.00  0.00     0.189 HD
ENDBRANCH   4   6
ENDBRANCH   1   2
BRANCH   1  11
HETATM   11  C5  UNL     1      25.298  28.053   9.528  1.00  0.00     0.170 C 
BRANCH  11  12
HETATM   12  N5  UNL     1      24.783  27.651   8.242  1.00  0.00    -0.332 N 
ATOM     13  H5  UNL     1      25.227  27.975   7.382  1.00  0.00     0.180 HD
BRANCH  12  14
HETATM   14  N6  UNL     1      23.675  26.817   8.189  1.00  0.00    -0.280 N 
HETATM   15  C6  UNL     1      22.487  27.306   8.221  1.00  0.00     0.215 C 
HETATM   16  N7  UNL     1      22.365  28.731   8.313  1.00  0.00    -0.065 NA
HETATM   17  N8  UNL     1      21.322  26.484   8.170  1.00  0.00    -0.065 NA
ATOM     18  H6  UNL     1      23.804  25.807   8.125  1.00  0.00     0.189 HD
ENDBRANCH  12  14
ENDBRANCH  11  12
ENDBRANCH   1  11
BRANCH   1  19
HETATM   19  N9  UNL     1      27.218  27.065  10.622  1.00  0.00    -0.355 N 
HETATM   20  C7  UNL     1      28.159  26.680   9.845  1.00  0.00     0.197 C 
HETATM   21  N10 UNL     1      27.838  26.032   8.633  1.00  0.00    -0.067 NA
HETATM   22  N11 UNL     1      29.512  26.893  10.183  1.00  0.00    -0.067 NA
ATOM     23  H9  UNL     1      27.453  27.532  11.498  1.00  0.00     0.162 HD
ENDBRANCH   1  19
TORSDOF 6
ENDMDL
MODEL 5
REMARK VINA RESULT: -5.362306926      2.866      4.935
REMARK  6 active torsions:
REMARK  status: ('A' for Active; 'I' for Inactive)
REMARK    1  A    between atoms: C2_2  and  C4_10 
REMARK    2  A    between atoms: N1_3  and  N2_5 
REMARK    3  A    between atoms: C4_10  and  C5_11 
REMARK    4  A    between atoms: C4_10  and  N9_19 
REMARK    5  A    between atoms: C5_11  and  N5_12 
REMARK    6  A    between atoms: N5_12  and  N6_14 
ROOT
HETATM    1  C4  UNL     1      25.621  27.985  10.255  1.00  0.00     0.149 C 
ENDROOT
BRANCH   1   2
HETATM    2  C2  UNL     1      25.969  29.420   9.955  1.00  0.00     0.024 C 
HETATM    3  C1  UNL     1      27.383  29.664   9.550  1.00  0.00     0.067 C 
HETATM    4  N1  UNL     1      25.085  30.333  10.051  1.00  0.00    -0.305 N 
ATOM      5  H1  UNL     1      24.131  30.105  10.332  1.00  0.00     0.186 HD
BRANCH   4   6
HETATM    6  N2  UNL     1      25.445  31.641   9.768  1.00  0.00    -0.276 N 
HETATM    7  C3  UNL     1      24.557  32.462   9.338  1.00  0.00     0.215 C 
HETATM    8  N3  UNL     1      23.226  32.017   9.160  1.00  0.00    -0.065 NA
HETATM    9  N4  UNL     1      24.968  33.796   9.058  1.00  0.00    -0.065 NA
ATOM     10  H2  UNL     1      26.409  31.950   9.900  1.00  0.00     0.189 HD
ENDBRANCH   4   6
ENDBRANCH   1   2
BRANCH   1  11
HETATM   11  C5  UNL     1      25.823  27.229   8.959  1.00  0.00     0.170 C 
BRANCH  11  12
HETATM   12  N5  UNL     1      24.750  27.517   8.039  1.00  0.00    -0.332 N 
ATOM     13  H5  UNL     1      24.861  28.235   7.323  1.00  0.00     0.180 HD
BRANCH  12  14
HETATM   14  N6  UNL     1      23.564  26.803   8.141  1.00  0.00    -0.280 N 
HETATM   15  C6  UNL     1      22.446  27.413   8.316  1.00  0.00     0.215 C 
HETATM   16  N7  UNL     1      22.485  28.843   8.400  1.00  0.00    -0.065 NA
HETATM   17  N8  UNL     1      21.206  26.716   8.426  1.00  0.00    -0.065 NA
ATOM     18  H6  UNL     1      23.579  25.784   8.077  1.00  0.00     0.189 HD
ENDBRANCH  12  14
ENDBRANCH  11  12
ENDBRANCH   1  11
BRANCH   1  19
HETATM   19  N9  UNL     1      26.590  27.535  11.235  1.00  0.00    -0.355 N 
HETATM   20  C7  UNL     1      26.251  26.769  12.202  1.00  0.00     0.197 C 
HETATM   21  N10 UNL     1      24.907  26.353  12.321  1.00  0.00    -0.067 NA
HETATM   22  N11 UNL     1      27.201  26.335  13.151  1.00  0.00    -0.067 NA
ATOM     23  H9  UNL     1      27.562  27.835  11.152  1.00  0.00     0.162 HD
ENDBRANCH   1  19
TORSDOF 6
ENDMDL
