MODEL 1
REMARK VINA RESULT: -4.925408325      0.000      0.000
REMARK  8 active torsions:
REMARK  status: ('A' for Active; 'I' for Inactive)
REMARK    1  A    between atoms: N1_1  and  N2_4 
REMARK    2  A    between atoms: C1_6  and  C2_7 
REMARK    3  A    between atoms: C2_7  and  N4_11 
REMARK    4  A    between atoms: N4_11  and  C3_13 
REMARK    5  A    between atoms: C3_13  and  C4_14 
REMARK    6  A    between atoms: C4_14  and  N5_15 
REMARK    7  A    between atoms: N5_15  and  C5_18 
REMARK    8  A    between atoms: C5_18  and  N6_19 
ROOT
HETATM    1  C4  UNL     1      28.021  27.863  10.279  1.00  0.00     0.253 C 
ENDROOT
BRANCH   1   2
HETATM    2  C3  UNL     1      29.378  27.782   9.625  1.00  0.00     0.149 C 
BRANCH   2   3
HETATM    3  N4  UNL     1      30.010  26.528   9.858  1.00  0.00    -0.374 N 
ATOM      4  H4  UNL     1      30.186  26.195  10.807  1.00  0.00     0.161 HD
BRANCH   3   5
HETATM    5  C2  UNL     1      30.397  25.735   8.696  1.00  0.00     0.111 C 
HETATM    6  N3  UNL     1      31.090  24.725   8.898  1.00  0.00    -0.385 N 
ATOM      7  H32 UNL     1      31.361  24.170   8.086  1.00  0.00     0.157 HD
ATOM      8  H31 UNL     1      31.433  24.368   9.790  1.00  0.00     0.157 HD
BRANCH   5   9
HETATM    9  C1  UNL     1      29.909  26.243   7.426  1.00  0.00     0.154 C 
HETATM   10  N2  UNL     1      28.906  25.782   6.793  1.00  0.00    -0.315 N 
ATOM     11  H2  UNL     1      28.648  26.214   5.906  1.00  0.00     0.185 HD
BRANCH  10  12
HETATM   12  N1  UNL     1      28.158  24.727   7.252  1.00  0.00    -0.345 N 
ATOM     13  H12 UNL     1      28.544  23.789   7.141  1.00  0.00     0.176 HD
ATOM     14  H11 UNL     1      27.246  24.848   7.693  1.00  0.00     0.176 HD
ENDBRANCH  10  12
ENDBRANCH   5   9
ENDBRANCH   3   5
ENDBRANCH   2   3
ENDBRANCH   1   2
BRANCH   1  15
HETATM   15  N5  UNL     1      27.060  26.975   9.689  1.00  0.00    -0.056 N 
ATOM     16  H52 UNL     1      27.500  26.188   9.212  1.00  0.00     0.279 HD
ATOM     17  H51 UNL     1      26.539  26.446  10.389  1.00  0.00     0.279 HD
BRANCH  15  18
HETATM   18  C5  UNL     1      26.200  27.727   8.821  1.00  0.00     0.383 C 
BRANCH  18  19
HETATM   19  N6  UNL     1      24.789  27.492   9.056  1.00  0.00    -0.234 N 
HETATM   20  N7  UNL     1      23.911  27.155   8.122  1.00  0.00    -0.245 N 
HETATM   21  C6  UNL     1      22.686  27.006   8.644  1.00  0.00     0.341 A 
ATOM     22  H7  UNL     1      24.139  27.026   7.136  1.00  0.00     0.192 HD
HETATM   23  O1  UNL     1      21.635  26.685   7.994  1.00  0.00    -0.245 OA
HETATM   24  N8  UNL     1      22.813  27.263   9.951  1.00  0.00    -0.280 N 
HETATM   25  C7  UNL     1      24.092  27.558  10.202  1.00  0.00     0.215 A 
ATOM     26  H8  UNL     1      22.061  27.236  10.639  1.00  0.00     0.173 HD
HETATM   27  N9  UNL     1      24.630  27.886  11.461  1.00  0.00    -0.061 NA
ENDBRANCH  18  19
ENDBRANCH  15  18
ENDBRANCH   1  15
TORSDOF 8
ENDMDL
MODEL 2
REMARK VINA RESULT: -4.887205377      1.445      2.158
REMARK  8 active torsions:
REMARK  status: ('A' for Active; 'I' for Inactive)
REMARK    1  A    between atoms: N1_1  and  N2_4 
REMARK    2  A    between atoms: C1_6  and  C2_7 
REMARK    3  A    between atoms: C2_7  and  N4_11 
REMARK    4  A    between atoms: N4_11  and  C3_13 
REMARK    5  A    between atoms: C3_13  and  C4_14 
REMARK    6  A    between atoms: C4_14  and  N5_15 
REMARK    7  A    between atoms: N5_15  and  C5_18 
REMARK    8  A    between atoms: C5_18  and  N6_19 
ROOT
HETATM    1  C4  UNL     1      27.118  27.873  11.652  1.00  0.00     0.253 C 
ENDROOT
BRANCH   1   2
HETATM    2  C3  UNL     1      27.883  28.387  10.457  1.00  0.00     0.149 C 
BRANCH   2   3
HETATM    3  N4  UNL     1      28.482  27.333   9.712  1.00  0.00    -0.374 N 
ATOM      4  H4  UNL     1      28.883  26.519  10.179  1.00  0.00     0.161 HD
BRANCH   3   5
HETATM    5  C2  UNL     1      28.504  27.455   8.258  1.00  0.00     0.111 C 
HETATM    6  N3  UNL     1      27.793  28.335   7.747  1.00  0.00    -0.385 N 
ATOM      7  H32 UNL     1      27.808  28.420   6.730  1.00  0.00     0.157 HD
ATOM      8  H31 UNL     1      27.181  29.000   8.220  1.00  0.00     0.157 HD
BRANCH   5   9
HETATM    9  C1  UNL     1      29.375  26.509   7.584  1.00  0.00     0.154 C 
HETATM   10  N2  UNL     1      29.019  25.364   7.158  1.00  0.00    -0.315 N 
ATOM     11  H2  UNL     1      29.713  24.776   6.697  1.00  0.00     0.185 HD
BRANCH  10  12
HETATM   12  N1  UNL     1      27.739  24.885   7.294  1.00  0.00    -0.345 N 
ATOM     13  H12 UNL     1      26.979  25.566   7.309  1.00  0.00     0.176 HD
ATOM     14  H11 UNL     1      27.528  23.891   7.378  1.00  0.00     0.176 HD
ENDBRANCH  10  12
ENDBRANCH   5   9
ENDBRANCH   3   5
ENDBRANCH   2   3
ENDBRANCH   1   2
BRANCH   1  15
HETATM   15  N5  UNL     1      25.701  27.822  11.431  1.00  0.00    -0.056 N 
ATOM     16  H52 UNL     1      25.373  26.876  11.230  1.00  0.00     0.279 HD
ATOM     17  H51 UNL     1      25.169  27.979  12.287  1.00  0.00     0.279 HD
BRANCH  15  18
HETATM   18  C5  UNL     1      25.355  28.750  10.394  1.00  0.00     0.383 C 
BRANCH  18  19
HETATM   19  N6  UNL     1      24.420  28.216   9.424  1.00  0.00    -0.234 N 
HETATM   20  N7  UNL     1      23.273  28.787   9.083  1.00  0.00    -0.245 N 
HETATM   21  C6  UNL     1      22.627  28.058   8.162  1.00  0.00     0.341 A 
ATOM     22  H7  UNL     1      22.928  29.665   9.471  1.00  0.00     0.192 HD
HETATM   23  O1  UNL     1      21.500  28.350   7.639  1.00  0.00    -0.245 OA
HETATM   24  N8  UNL     1      23.406  26.996   7.927  1.00  0.00    -0.280 N 
HETATM   25  C7  UNL     1      24.496  27.091   8.694  1.00  0.00     0.215 A 
ATOM     26  H8  UNL     1      23.202  26.241   7.272  1.00  0.00     0.173 HD
HETATM   27  N9  UNL     1      25.558  26.167   8.737  1.00  0.00    -0.061 NA
ENDBRANCH  18  19
ENDBRANCH  15  18
ENDBRANCH   1  15
TORSDOF 8
ENDMDL
MODEL 3
REMARK VINA RESULT: -4.874721548      4.239      5.687
REMARK  8 active torsions:
REMARK  status: ('A' for Active; 'I' for Inactive)
REMARK    1  A    between atoms: N1_1  and  N2_4 
REMARK    2  A    between atoms: C1_6  and  C2_7 
REMARK    3  A    between atoms: C2_7  and  N4_11 
REMARK    4  A    between atoms: N4_11  and  C3_13 
REMARK    5  A    between atoms: C3_13  and  C4_14 
REMARK    6  A    between atoms: C4_14  and  N5_15 
REMARK    7  A    between atoms: N5_15  and  C5_18 
REMARK    8  A    between atoms: C5_18  and  N6_19 
ROOT
HETATM    1  C4  UNL     1      25.798  26.090  13.096  1.00  0.00     0.253 C 
ENDROOT
BRANCH   1   2
HETATM    2  C3  UNL     1      24.760  25.289  13.843  1.00  0.00     0.149 C 
BRANCH   2   3
HETATM    3  N4  UNL     1      24.710  23.937  13.402  1.00  0.00    -0.374 N 
ATOM      4  H4  UNL     1      24.482  23.706  12.434  1.00  0.00     0.161 HD
BRANCH   3   5
HETATM    5  C2  UNL     1      24.994  22.891  14.380  1.00  0.00     0.111 C 
HETATM    6  N3  UNL     1      26.080  22.947  14.978  1.00  0.00    -0.385 N 
ATOM      7  H32 UNL     1      26.279  22.217  15.662  1.00  0.00     0.157 HD
ATOM      8  H31 UNL     1      26.819  23.643  14.872  1.00  0.00     0.157 HD
BRANCH   5   9
HETATM    9  C1  UNL     1      23.943  21.901  14.530  1.00  0.00     0.154 C 
HETATM   10  N2  UNL     1      23.848  20.829  13.851  1.00  0.00    -0.315 N 
ATOM     11  H2  UNL     1      23.068  20.199  14.038  1.00  0.00     0.185 HD
BRANCH  10  12
HETATM   12  N1  UNL     1      24.752  20.483  12.878  1.00  0.00    -0.345 N 
ATOM     13  H12 UNL     1      25.307  21.231  12.462  1.00  0.00     0.176 HD
ATOM     14  H11 UNL     1      24.885  19.522  12.564  1.00  0.00     0.176 HD
ENDBRANCH  10  12
ENDBRANCH   5   9
ENDBRANCH   3   5
ENDBRANCH   2   3
ENDBRANCH   1   2
BRANCH   1  15
HETATM   15  N5  UNL     1      25.510  26.214  11.696  1.00  0.00    -0.056 N 
ATOM     16  H52 UNL     1      26.347  26.397  11.142  1.00  0.00     0.279 HD
ATOM     17  H51 UNL     1      25.251  25.323  11.273  1.00  0.00     0.279 HD
BRANCH  15  18
HETATM   18  C5  UNL     1      24.504  27.219  11.512  1.00  0.00     0.383 C 
BRANCH  18  19
HETATM   19  N6  UNL     1      23.972  27.269  10.165  1.00  0.00    -0.234 N 
HETATM   20  N7  UNL     1      22.682  27.276   9.860  1.00  0.00    -0.245 N 
HETATM   21  C6  UNL     1      22.501  27.328   8.533  1.00  0.00     0.341 A 
ATOM     22  H7  UNL     1      21.927  27.246  10.545  1.00  0.00     0.192 HD
HETATM   23  O1  UNL     1      21.373  27.348   7.936  1.00  0.00    -0.245 OA
HETATM   24  N8  UNL     1      23.728  27.353   7.999  1.00  0.00    -0.280 N 
HETATM   25  C7  UNL     1      24.623  27.317   8.992  1.00  0.00     0.215 A 
ATOM     26  H8  UNL     1      23.944  27.393   7.003  1.00  0.00     0.173 HD
HETATM   27  N9  UNL     1      26.023  27.328   8.840  1.00  0.00    -0.061 NA
ENDBRANCH  18  19
ENDBRANCH  15  18
ENDBRANCH   1  15
TORSDOF 8
ENDMDL
MODEL 4
REMARK VINA RESULT: -4.835293041      1.388      2.145
REMARK  8 active torsions:
REMARK  status: ('A' for Active; 'I' for Inactive)
REMARK    1  A    between atoms: N1_1  and  N2_4 
REMARK    2  A    between atoms: C1_6  and  C2_7 
REMARK    3  A    between atoms: C2_7  and  N4_11 
REMARK    4  A    between atoms: N4_11  and  C3_13 
REMARK    5  A    between atoms: C3_13  and  C4_14 
REMARK    6  A    between atoms: C4_14  and  N5_15 
REMARK    7  A    between atoms: N5_15  and  C5_18 
REMARK    8  A    between atoms: C5_18  and  N6_19 
ROOT
HETATM    1  C4  UNL     1      27.450  29.143   9.096  1.00  0.00     0.253 C 
ENDROOT
BRANCH   1   2
HETATM    2  C3  UNL     1      28.460  28.413   8.245  1.00  0.00     0.149 C 
BRANCH   2   3
HETATM    3  N4  UNL     1      28.740  27.111   8.748  1.00  0.00    -0.374 N 
ATOM      4  H4  UNL     1      28.562  26.873   9.724  1.00  0.00     0.161 HD
BRANCH   3   5
HETATM    5  C2  UNL     1      29.292  26.128   7.820  1.00  0.00     0.111 C 
HETATM    6  N3  UNL     1      28.490  25.380   7.237  1.00  0.00    -0.385 N 
ATOM      7  H32 UNL     1      28.875  24.693   6.588  1.00  0.00     0.157 HD
ATOM      8  H31 UNL     1      27.474  25.361   7.323  1.00  0.00     0.157 HD
BRANCH   5   9
HETATM    9  C1  UNL     1      30.738  26.156   7.697  1.00  0.00     0.154 C 
HETATM   10  N2  UNL     1      31.542  25.439   8.374  1.00  0.00    -0.315 N 
ATOM     11  H2  UNL     1      32.543  25.537   8.208  1.00  0.00     0.185 HD
BRANCH  10  12
HETATM   12  N1  UNL     1      31.118  24.538   9.319  1.00  0.00    -0.345 N 
ATOM     13  H12 UNL     1      30.625  23.706   8.992  1.00  0.00     0.176 HD
ATOM     14  H11 UNL     1      31.277  24.670  10.318  1.00  0.00     0.176 HD
ENDBRANCH  10  12
ENDBRANCH   5   9
ENDBRANCH   3   5
ENDBRANCH   2   3
ENDBRANCH   1   2
BRANCH   1  15
HETATM   15  N5  UNL     1      26.902  28.326  10.140  1.00  0.00    -0.056 N 
ATOM     16  H52 UNL     1      26.983  27.330   9.937  1.00  0.00     0.279 HD
ATOM     17  H51 UNL     1      27.470  28.347  10.987  1.00  0.00     0.279 HD
BRANCH  15  18
HETATM   18  C5  UNL     1      25.546  28.725  10.383  1.00  0.00     0.383 C 
BRANCH  18  19
HETATM   19  N6  UNL     1      24.600  28.175   9.432  1.00  0.00    -0.234 N 
HETATM   20  N7  UNL     1      23.454  28.745   9.089  1.00  0.00    -0.245 N 
HETATM   21  C6  UNL     1      22.796  28.000   8.189  1.00  0.00     0.341 A 
ATOM     22  H7  UNL     1      23.117  29.633   9.460  1.00  0.00     0.192 HD
HETATM   23  O1  UNL     1      21.666  28.287   7.669  1.00  0.00    -0.245 OA
HETATM   24  N8  UNL     1      23.567  26.928   7.971  1.00  0.00    -0.280 N 
HETATM   25  C7  UNL     1      24.664  27.034   8.727  1.00  0.00     0.215 A 
ATOM     26  H8  UNL     1      23.353  26.160   7.334  1.00  0.00     0.173 HD
HETATM   27  N9  UNL     1      25.721  26.105   8.780  1.00  0.00    -0.061 NA
ENDBRANCH  18  19
ENDBRANCH  15  18
ENDBRANCH   1  15
TORSDOF 8
ENDMDL
MODEL 5
REMARK VINA RESULT: -4.818482088      3.171      6.850
REMARK  8 active torsions:
REMARK  status: ('A' for Active; 'I' for Inactive)
REMARK    1  A    between atoms: N1_1  and  N2_4 
REMARK    2  A    between atoms: C1_6  and  C2_7 
REMARK    3  A    between atoms: C2_7  and  N4_11 
REMARK    4  A    between atoms: N4_11  and  C3_13 
REMARK    5  A    between atoms: C3_13  and  C4_14 
REMARK    6  A    between atoms: C4_14  and  N5_15 
REMARK    7  A    between atoms: N5_15  and  C5_18 
REMARK    8  A    between atoms: C5_18  and  N6_19 
ROOT
HETATM    1  C4  UNL     1      27.580  26.606   9.109  1.00  0.00     0.253 C 
ENDROOT
BRANCH   1   2
HETATM    2  C3  UNL     1      26.164  26.210   8.771  1.00  0.00     0.149 C 
BRANCH   2   3
HETATM    3  N4  UNL     1      25.401  27.313   8.294  1.00  0.00    -0.374 N 
ATOM      4  H4  UNL     1      25.537  27.681   7.352  1.00  0.00     0.161 HD
BRANCH   3   5
HETATM    5  C2  UNL     1      24.416  27.900   9.198  1.00  0.00     0.111 C 
HETATM    6  N3  UNL     1      24.692  28.998   9.708  1.00  0.00    -0.385 N 
ATOM      7  H32 UNL     1      24.004  29.409  10.339  1.00  0.00     0.157 HD
ATOM      8  H31 UNL     1      25.535  29.557   9.576  1.00  0.00     0.157 HD
BRANCH   5   9
HETATM    9  C1  UNL     1      23.216  27.105   9.385  1.00  0.00     0.154 C 
HETATM   10  N2  UNL     1      22.219  27.091   8.594  1.00  0.00    -0.315 N 
ATOM     11  H2  UNL     1      21.424  26.494   8.821  1.00  0.00     0.185 HD
BRANCH  10  12
HETATM   12  N1  UNL     1      22.169  27.844   7.448  1.00  0.00    -0.345 N 
ATOM     13  H12 UNL     1      21.268  28.241   7.183  1.00  0.00     0.176 HD
ATOM     14  H11 UNL     1      22.988  28.016   6.864  1.00  0.00     0.176 HD
ENDBRANCH  10  12
ENDBRANCH   5   9
ENDBRANCH   3   5
ENDBRANCH   2   3
ENDBRANCH   1   2
BRANCH   1  15
HETATM   15  N5  UNL     1      28.308  27.104   7.977  1.00  0.00    -0.056 N 
ATOM     16  H52 UNL     1      27.694  27.466   7.249  1.00  0.00     0.279 HD
ATOM     17  H51 UNL     1      28.807  27.969   8.187  1.00  0.00     0.279 HD
BRANCH  15  18
HETATM   18  C5  UNL     1      29.181  26.074   7.493  1.00  0.00     0.383 C 
BRANCH  18  19
HETATM   19  N6  UNL     1      30.315  25.819   8.358  1.00  0.00    -0.234 N 
HETATM   20  N7  UNL     1      30.728  24.615   8.729  1.00  0.00    -0.245 N 
HETATM   21  C6  UNL     1      31.800  24.699   9.530  1.00  0.00     0.341 A 
ATOM     22  H7  UNL     1      30.289  23.740   8.443  1.00  0.00     0.192 HD
HETATM   23  O1  UNL     1      32.423  23.711  10.046  1.00  0.00    -0.245 OA
HETATM   24  N8  UNL     1      32.056  26.006   9.658  1.00  0.00    -0.280 N 
HETATM   25  C7  UNL     1      31.153  26.687   8.946  1.00  0.00     0.215 A 
ATOM     26  H8  UNL     1      32.814  26.414  10.207  1.00  0.00     0.173 HD
HETATM   27  N9  UNL     1      31.085  28.089   8.825  1.00  0.00    -0.061 NA
ENDBRANCH  18  19
ENDBRANCH  15  18
ENDBRANCH   1  15
TORSDOF 8
ENDMDL
