MODEL 1
REMARK VINA RESULT: -5.540758278      0.000      0.000
REMARK  5 active torsions:
REMARK  status: ('A' for Active; 'I' for Inactive)
REMARK       I    between atoms: C1_4  and  N3_6 
REMARK    1  A    between atoms: C4_12  and  C5_13 
REMARK    2  A    between atoms: C4_12  and  C7_19 
REMARK    3  A    between atoms: C5_13  and  N5_14 
REMARK    4  A    between atoms: C7_19  and  N8_20 
REMARK    5  A    between atoms: N8_20  and  C8_22 
ROOT
HETATM    1  N1  UNL     1      26.695  31.003   9.277  1.00  0.00    -0.373 N 
ATOM      2  H11 UNL     1      26.033  30.782   8.532  1.00  0.00     0.158 HD
ATOM      3  H12 UNL     1      26.761  31.970   9.597  1.00  0.00     0.158 HD
HETATM    4  C1  UNL     1      27.436  30.120   9.820  1.00  0.00     0.200 C 
HETATM    5  N2  UNL     1      28.355  30.428  10.855  1.00  0.00    -0.062 NA
HETATM    6  N3  UNL     1      27.344  28.775   9.375  1.00  0.00    -0.258 N 
HETATM    7  C2  UNL     1      28.559  27.997   9.287  1.00  0.00     0.250 C 
HETATM    8  C3  UNL     1      28.320  26.777   8.478  1.00  0.00     0.238 C 
HETATM    9  O1  UNL     1      29.257  26.294   7.783  1.00  0.00    -0.272 OA
HETATM   10  N4  UNL     1      27.019  26.205   8.525  1.00  0.00    -0.332 N 
ATOM     11  H4  UNL     1      26.850  25.304   8.079  1.00  0.00     0.164 HD
HETATM   12  C4  UNL     1      25.932  26.881   9.197  1.00  0.00     0.156 C 
HETATM   13  N9  UNL     1      26.075  28.314   9.057  1.00  0.00    -0.100 NA
ENDROOT
BRANCH  12  14
HETATM   14  C5  UNL     1      24.619  26.511   8.549  1.00  0.00     0.174 C 
BRANCH  14  15
HETATM   15  N5  UNL     1      23.864  27.720   8.287  1.00  0.00    -0.363 N 
HETATM   16  C6  UNL     1      22.586  27.626   8.151  1.00  0.00     0.197 C 
HETATM   17  N6  UNL     1      21.881  26.398   8.247  1.00  0.00    -0.067 NA
HETATM   18  N7  UNL     1      21.836  28.807   7.894  1.00  0.00    -0.067 NA
ATOM     19  H5  UNL     1      24.332  28.623   8.210  1.00  0.00     0.161 HD
ENDBRANCH  14  15
ENDBRANCH  12  14
BRANCH  12  20
HETATM   20  C7  UNL     1      25.924  26.582  10.684  1.00  0.00     0.174 C 
BRANCH  20  21
HETATM   21  N8  UNL     1      25.133  27.524  11.422  1.00  0.00    -0.364 N 
ATOM     22  H8  UNL     1      25.446  28.490  11.522  1.00  0.00     0.161 HD
BRANCH  21  23
HETATM   23  C8  UNL     1      23.931  27.110  12.004  1.00  0.00     0.348 C 
HETATM   24  O2  UNL     1      22.840  27.391  11.460  1.00  0.00    -0.284 OA
ENDBRANCH  21  23
ENDBRANCH  20  21
ENDBRANCH  12  20
TORSDOF 5
ENDMDL
MODEL 2
REMARK VINA RESULT: -5.530459160      1.947      4.034
REMARK  5 active torsions:
REMARK  status: ('A' for Active; 'I' for Inactive)
REMARK       I    between atoms: C1_4  and  N3_6 
REMARK    1  A    between atoms: C4_12  and  C5_13 
REMARK    2  A    between atoms: C4_12  and  C7_19 
REMARK    3  A    between atoms: C5_13  and  N5_14 
REMARK    4  A    between atoms: C7_19  and  N8_20 
REMARK    5  A    between atoms: N8_20  and  C8_22 
ROOT
HETATM    1  N1  UNL     1      24.044  26.054  13.083  1.00  0.00    -0.373 N 
ATOM      2  H11 UNL     1      23.423  26.700  12.596  1.00  0.00     0.158 HD
ATOM      3  H12 UNL     1      23.647  25.446  13.800  1.00  0.00     0.158 HD
HETATM    4  C1  UNL     1      25.291  25.979  12.830  1.00  0.00     0.200 C 
HETATM    5  N2  UNL     1      26.154  25.081  13.507  1.00  0.00    -0.062 NA
HETATM    6  N3  UNL     1      25.844  26.825  11.832  1.00  0.00    -0.258 N 
HETATM    7  C2  UNL     1      27.157  27.382  12.057  1.00  0.00     0.250 C 
HETATM    8  C3  UNL     1      27.401  28.498  11.110  1.00  0.00     0.238 C 
HETATM    9  O1  UNL     1      28.129  29.469  11.461  1.00  0.00    -0.272 OA
HETATM   10  N4  UNL     1      26.788  28.415   9.830  1.00  0.00    -0.332 N 
ATOM     11  H4  UNL     1      27.027  29.101   9.113  1.00  0.00     0.164 HD
HETATM   12  C4  UNL     1      25.831  27.375   9.528  1.00  0.00     0.156 C 
HETATM   13  N9  UNL     1      25.061  27.049  10.709  1.00  0.00    -0.100 NA
ENDROOT
BRANCH  12  14
HETATM   14  C5  UNL     1      24.849  27.866   8.491  1.00  0.00     0.174 C 
BRANCH  14  15
HETATM   15  N5  UNL     1      23.748  26.928   8.401  1.00  0.00    -0.363 N 
HETATM   16  C6  UNL     1      22.552  27.396   8.296  1.00  0.00     0.197 C 
HETATM   17  N6  UNL     1      22.259  28.784   8.264  1.00  0.00    -0.067 NA
HETATM   18  N7  UNL     1      21.465  26.483   8.206  1.00  0.00    -0.067 NA
ATOM     19  H5  UNL     1      23.914  25.921   8.420  1.00  0.00     0.161 HD
ENDBRANCH  14  15
ENDBRANCH  12  14
BRANCH  12  20
HETATM   20  C7  UNL     1      26.518  26.098   9.084  1.00  0.00     0.174 C 
BRANCH  20  21
HETATM   21  N8  UNL     1      27.510  26.338   8.076  1.00  0.00    -0.364 N 
ATOM     22  H8  UNL     1      27.242  26.741   7.178  1.00  0.00     0.161 HD
BRANCH  21  23
HETATM   23  C8  UNL     1      28.846  26.014   8.331  1.00  0.00     0.348 C 
HETATM   24  O2  UNL     1      29.325  26.183   9.475  1.00  0.00    -0.284 OA
ENDBRANCH  21  23
ENDBRANCH  20  21
ENDBRANCH  12  20
TORSDOF 5
ENDMDL
MODEL 3
REMARK VINA RESULT: -5.525848130      1.248      1.633
REMARK  5 active torsions:
REMARK  status: ('A' for Active; 'I' for Inactive)
REMARK       I    between atoms: C1_4  and  N3_6 
REMARK    1  A    between atoms: C4_12  and  C5_13 
REMARK    2  A    between atoms: C4_12  and  C7_19 
REMARK    3  A    between atoms: C5_13  and  N5_14 
REMARK    4  A    between atoms: C7_19  and  N8_20 
REMARK    5  A    between atoms: N8_20  and  C8_22 
ROOT
HETATM    1  N1  UNL     1      29.493  29.967   9.574  1.00  0.00    -0.373 N 
ATOM      2  H11 UNL     1      28.857  30.319   8.857  1.00  0.00     0.158 HD
ATOM      3  H12 UNL     1      30.162  30.615   9.990  1.00  0.00     0.158 HD
HETATM    4  C1  UNL     1      29.480  28.754   9.965  1.00  0.00     0.200 C 
HETATM    5  N2  UNL     1      30.363  28.265  10.961  1.00  0.00    -0.062 NA
HETATM    6  N3  UNL     1      28.549  27.853   9.385  1.00  0.00    -0.258 N 
HETATM    7  C2  UNL     1      28.976  26.497   9.130  1.00  0.00     0.250 C 
HETATM    8  C3  UNL     1      28.020  25.830   8.212  1.00  0.00     0.238 C 
HETATM    9  O1  UNL     1      28.435  24.951   7.406  1.00  0.00    -0.272 OA
HETATM   10  N4  UNL     1      26.656  26.227   8.288  1.00  0.00    -0.332 N 
ATOM     11  H4  UNL     1      25.953  25.711   7.760  1.00  0.00     0.164 HD
HETATM   12  C4  UNL     1      26.251  27.350   9.103  1.00  0.00     0.156 C 
HETATM   13  N9  UNL     1      27.288  28.360   9.109  1.00  0.00    -0.100 NA
ENDROOT
BRANCH  12  14
HETATM   14  C5  UNL     1      25.021  27.996   8.512  1.00  0.00     0.174 C 
BRANCH  14  15
HETATM   15  N5  UNL     1      23.964  27.007   8.423  1.00  0.00    -0.363 N 
HETATM   16  C6  UNL     1      22.747  27.419   8.329  1.00  0.00     0.197 C 
HETATM   17  N6  UNL     1      22.388  28.792   8.309  1.00  0.00    -0.067 NA
HETATM   18  N7  UNL     1      21.704  26.456   8.242  1.00  0.00    -0.067 NA
ATOM     19  H5  UNL     1      24.178  26.009   8.435  1.00  0.00     0.161 HD
ENDBRANCH  14  15
ENDBRANCH  12  14
BRANCH  12  20
HETATM   20  C7  UNL     1      26.027  26.940  10.545  1.00  0.00     0.174 C 
BRANCH  20  21
HETATM   21  N8  UNL     1      25.580  28.035  11.357  1.00  0.00    -0.364 N 
ATOM     22  H8  UNL     1      26.107  28.908  11.375  1.00  0.00     0.161 HD
BRANCH  21  23
HETATM   23  C8  UNL     1      24.419  27.897  12.124  1.00  0.00     0.348 C 
HETATM   24  O2  UNL     1      23.331  27.623  11.571  1.00  0.00    -0.284 OA
ENDBRANCH  21  23
ENDBRANCH  20  21
ENDBRANCH  12  20
TORSDOF 5
ENDMDL
MODEL 4
REMARK VINA RESULT: -5.425110873      2.045      3.330
REMARK  5 active torsions:
REMARK  status: ('A' for Active; 'I' for Inactive)
REMARK       I    between atoms: C1_4  and  N3_6 
REMARK    1  A    between atoms: C4_12  and  C5_13 
REMARK    2  A    between atoms: C4_12  and  C7_19 
REMARK    3  A    between atoms: C5_13  and  N5_14 
REMARK    4  A    between atoms: C7_19  and  N8_20 
REMARK    5  A    between atoms: N8_20  and  C8_22 
ROOT
HETATM    1  N1  UNL     1      28.346  24.735   7.235  1.00  0.00    -0.373 N 
ATOM      2  H11 UNL     1      27.489  24.291   7.565  1.00  0.00     0.158 HD
ATOM      3  H12 UNL     1      28.825  24.329   6.431  1.00  0.00     0.158 HD
HETATM    4  C1  UNL     1      28.837  25.775   7.785  1.00  0.00     0.200 C 
HETATM    5  N2  UNL     1      30.027  26.392   7.325  1.00  0.00    -0.062 NA
HETATM    6  N3  UNL     1      28.170  26.341   8.904  1.00  0.00    -0.258 N 
HETATM    7  C2  UNL     1      28.971  26.873   9.982  1.00  0.00     0.250 C 
HETATM    8  C3  UNL     1      28.128  27.076  11.185  1.00  0.00     0.238 C 
HETATM    9  O1  UNL     1      28.634  26.945  12.335  1.00  0.00    -0.272 OA
HETATM   10  N4  UNL     1      26.762  27.413  10.977  1.00  0.00    -0.332 N 
ATOM     11  H4  UNL     1      26.182  27.676  11.774  1.00  0.00     0.164 HD
HETATM   12  C4  UNL     1      26.182  27.389   9.653  1.00  0.00     0.156 C 
HETATM   13  N9  UNL     1      26.783  26.335   8.865  1.00  0.00    -0.100 NA
ENDROOT
BRANCH  12  14
HETATM   14  C5  UNL     1      24.708  27.076   9.744  1.00  0.00     0.174 C 
BRANCH  14  15
HETATM   15  N5  UNL     1      24.048  27.549   8.543  1.00  0.00    -0.363 N 
HETATM   16  C6  UNL     1      22.760  27.589   8.527  1.00  0.00     0.197 C 
HETATM   17  N6  UNL     1      21.955  27.191   9.626  1.00  0.00    -0.067 NA
HETATM   18  N7  UNL     1      22.105  28.052   7.353  1.00  0.00    -0.067 NA
ATOM     19  H5  UNL     1      24.590  27.844   7.730  1.00  0.00     0.161 HD
ENDBRANCH  14  15
ENDBRANCH  12  14
BRANCH  12  20
HETATM   20  C7  UNL     1      26.431  28.689   8.912  1.00  0.00     0.174 C 
BRANCH  20  21
HETATM   21  N8  UNL     1      26.626  29.794   9.806  1.00  0.00    -0.364 N 
ATOM     22  H8  UNL     1      27.491  29.874  10.341  1.00  0.00     0.161 HD
BRANCH  21  23
HETATM   23  C8  UNL     1      25.624  30.760   9.939  1.00  0.00     0.348 C 
HETATM   24  O2  UNL     1      24.421  30.416   9.971  1.00  0.00    -0.284 OA
ENDBRANCH  21  23
ENDBRANCH  20  21
ENDBRANCH  12  20
TORSDOF 5
ENDMDL
MODEL 5
REMARK VINA RESULT: -5.369891222      1.265      1.326
REMARK  5 active torsions:
REMARK  status: ('A' for Active; 'I' for Inactive)
REMARK       I    between atoms: C1_4  and  N3_6 
REMARK    1  A    between atoms: C4_12  and  C5_13 
REMARK    2  A    between atoms: C4_12  and  C7_19 
REMARK    3  A    between atoms: C5_13  and  N5_14 
REMARK    4  A    between atoms: C7_19  and  N8_20 
REMARK    5  A    between atoms: N8_20  and  C8_22 
ROOT
HETATM    1  N1  UNL     1      24.774  31.361   9.867  1.00  0.00    -0.373 N 
ATOM      2  H11 UNL     1      24.198  30.967   9.123  1.00  0.00     0.158 HD
ATOM      3  H12 UNL     1      24.490  32.248  10.284  1.00  0.00     0.158 HD
HETATM    4  C1  UNL     1      25.829  30.787  10.294  1.00  0.00     0.200 C 
HETATM    5  N2  UNL     1      26.630  31.335  11.328  1.00  0.00    -0.062 NA
HETATM    6  N3  UNL     1      26.225  29.553   9.714  1.00  0.00    -0.258 N 
HETATM    7  C2  UNL     1      27.634  29.311   9.511  1.00  0.00     0.250 C 
HETATM    8  C3  UNL     1      27.822  28.167   8.586  1.00  0.00     0.238 C 
HETATM    9  O1  UNL     1      28.824  28.140   7.818  1.00  0.00    -0.272 OA
HETATM   10  N4  UNL     1      26.841  27.137   8.611  1.00  0.00    -0.332 N 
ATOM     11  H4  UNL     1      26.997  26.282   8.079  1.00  0.00     0.164 HD
HETATM   12  C4  UNL     1      25.626  27.285   9.381  1.00  0.00     0.156 C 
HETATM   13  N9  UNL     1      25.206  28.669   9.387  1.00  0.00    -0.100 NA
ENDROOT
BRANCH  12  14
HETATM   14  C5  UNL     1      24.512  26.496   8.737  1.00  0.00     0.174 C 
BRANCH  14  15
HETATM   15  N5  UNL     1      23.668  27.400   7.980  1.00  0.00    -0.363 N 
HETATM   16  C6  UNL     1      22.492  27.663   8.435  1.00  0.00     0.197 C 
HETATM   17  N6  UNL     1      21.980  27.113   9.639  1.00  0.00    -0.067 NA
HETATM   18  N7  UNL     1      21.657  28.550   7.700  1.00  0.00    -0.067 NA
ATOM     19  H5  UNL     1      23.997  27.818   7.110  1.00  0.00     0.161 HD
ENDBRANCH  14  15
ENDBRANCH  12  14
BRANCH  12  20
HETATM   20  C7  UNL     1      25.831  26.880  10.828  1.00  0.00     0.174 C 
BRANCH  20  21
HETATM   21  N8  UNL     1      24.609  26.910  11.578  1.00  0.00    -0.364 N 
ATOM     22  H8  UNL     1      23.830  26.307  11.313  1.00  0.00     0.161 HD
BRANCH  21  23
HETATM   23  C8  UNL     1      24.492  27.772  12.673  1.00  0.00     0.348 C 
HETATM   24  O2  UNL     1      23.871  28.852  12.558  1.00  0.00    -0.284 OA
ENDBRANCH  21  23
ENDBRANCH  20  21
ENDBRANCH  12  20
TORSDOF 5
ENDMDL
