MODEL 1
REMARK VINA RESULT: -6.174083510      0.000      0.000
REMARK  5 active torsions:
REMARK  status: ('A' for Active; 'I' for Inactive)
REMARK       I    between atoms: C1_4  and  N3_6 
REMARK    1  A    between atoms: N3_6  and  C2_8 
REMARK    2  A    between atoms: C3_9  and  C4_10 
REMARK    3  A    between atoms: C4_10  and  C5_11 
REMARK    4  A    between atoms: C6_17  and  N6_18 
REMARK       I    between atoms: C7_20  and  N8_22 
REMARK    5  A    between atoms: N8_22  and  C8_24 
ROOT
HETATM    1  C2  UNL     1      27.598  27.180   9.884  1.00  0.00     0.165 C 
HETATM    2  C3  UNL     1      28.542  27.039   8.746  1.00  0.00     0.223 C 
HETATM    3  N5  UNL     1      27.908  28.101   7.993  1.00  0.00    -0.045 N 
ATOM      4  H51 UNL     1      27.779  28.027   6.984  1.00  0.00     0.280 HD
ATOM      5  H52 UNL     1      28.377  28.994   7.845  1.00  0.00     0.280 HD
HETATM    6  C6  UNL     1      26.776  27.989   8.906  1.00  0.00     0.311 C 
ENDROOT
BRANCH   6   7
HETATM    7  N6  UNL     1      25.685  27.301   8.282  1.00  0.00    -0.335 N 
HETATM    8  C7  UNL     1      24.478  27.635   8.614  1.00  0.00     0.192 C 
HETATM    9  N7  UNL     1      24.224  28.657   9.568  1.00  0.00    -0.063 NA
HETATM   10  N8  UNL     1      23.374  26.969   8.010  1.00  0.00    -0.309 N 
ATOM     11  H8  UNL     1      23.549  26.235   7.324  1.00  0.00     0.170 HD
ATOM     12  H6  UNL     1      25.855  26.567   7.595  1.00  0.00     0.164 HD
BRANCH  10  13
HETATM   13  C8  UNL     1      22.044  27.300   8.340  1.00  0.00     0.355 C 
HETATM   14  O2  UNL     1      21.456  28.256   7.786  1.00  0.00    -0.283 OA
ENDBRANCH  10  13
ENDBRANCH   6   7
BRANCH   1  15
HETATM   15  N3  UNL     1      28.115  28.040  10.918  1.00  0.00    -0.354 N 
HETATM   16  C1  UNL     1      27.278  28.877  11.710  1.00  0.00     0.182 C 
HETATM   17  N1  UNL     1      26.142  28.499  12.163  1.00  0.00    -0.374 N 
HETATM   18  N2  UNL     1      27.734  30.181  12.003  1.00  0.00    -0.064 NA
ATOM     19  H12 UNL     1      25.542  29.099  12.730  1.00  0.00     0.158 HD
ATOM     20  H11 UNL     1      25.812  27.557  11.951  1.00  0.00     0.158 HD
ATOM     21  H3  UNL     1      29.121  28.050  11.090  1.00  0.00     0.162 HD
ENDBRANCH   1  15
BRANCH   2  22
HETATM   22  C4  UNL     1      28.579  25.702   8.059  1.00  0.00     0.134 C 
BRANCH  22  23
HETATM   23  C5  UNL     1      29.925  25.117   8.324  1.00  0.00     0.233 C 
HETATM   24  N4  UNL     1      31.112  25.837   7.974  1.00  0.00    -0.062 NA
HETATM   25  O1  UNL     1      30.093  23.991   8.855  1.00  0.00    -0.277 OA
ENDBRANCH  22  23
ENDBRANCH   2  22
TORSDOF 5
ENDMDL
MODEL 2
REMARK VINA RESULT: -5.858867318      1.031      1.353
REMARK  5 active torsions:
REMARK  status: ('A' for Active; 'I' for Inactive)
REMARK       I    between atoms: C1_4  and  N3_6 
REMARK    1  A    between atoms: N3_6  and  C2_8 
REMARK    2  A    between atoms: C3_9  and  C4_10 
REMARK    3  A    between atoms: C4_10  and  C5_11 
REMARK    4  A    between atoms: C6_17  and  N6_18 
REMARK       I    between atoms: C7_20  and  N8_22 
REMARK    5  A    between atoms: N8_22  and  C8_24 
ROOT
HETATM    1  C2  UNL     1      27.833  27.312   9.796  1.00  0.00     0.165 C 
HETATM    2  C3  UNL     1      28.698  27.194   8.596  1.00  0.00     0.223 C 
HETATM    3  N5  UNL     1      27.959  28.209   7.873  1.00  0.00    -0.045 N 
ATOM      4  H51 UNL     1      27.761  28.108   6.877  1.00  0.00     0.280 HD
ATOM      5  H52 UNL     1      28.372  29.120   7.676  1.00  0.00     0.280 HD
HETATM    6  C6  UNL     1      26.903  28.061   8.868  1.00  0.00     0.311 C 
ENDROOT
BRANCH   6   7
HETATM    7  N6  UNL     1      25.806  27.308   8.337  1.00  0.00    -0.335 N 
HETATM    8  C7  UNL     1      24.605  27.633   8.701  1.00  0.00     0.192 C 
HETATM    9  N7  UNL     1      24.364  28.705   9.600  1.00  0.00    -0.063 NA
HETATM   10  N8  UNL     1      23.495  26.903   8.189  1.00  0.00    -0.309 N 
ATOM     11  H8  UNL     1      23.661  26.132   7.542  1.00  0.00     0.170 HD
ATOM     12  H6  UNL     1      25.966  26.537   7.690  1.00  0.00     0.164 HD
BRANCH  10  13
HETATM   13  C8  UNL     1      22.172  27.222   8.557  1.00  0.00     0.355 C 
HETATM   14  O2  UNL     1      21.486  28.027   7.886  1.00  0.00    -0.283 OA
ENDBRANCH  10  13
ENDBRANCH   6   7
BRANCH   1  15
HETATM   15  N3  UNL     1      28.379  28.217  10.776  1.00  0.00    -0.354 N 
HETATM   16  C1  UNL     1      29.326  27.806  11.758  1.00  0.00     0.182 C 
HETATM   17  N1  UNL     1      30.293  27.007  11.503  1.00  0.00    -0.374 N 
HETATM   18  N2  UNL     1      29.180  28.311  13.068  1.00  0.00    -0.064 NA
ATOM     19  H12 UNL     1      30.971  26.713  12.206  1.00  0.00     0.158 HD
ATOM     20  H11 UNL     1      30.398  26.643  10.556  1.00  0.00     0.158 HD
ATOM     21  H3  UNL     1      28.076  29.191  10.765  1.00  0.00     0.162 HD
ENDBRANCH   1  15
BRANCH   2  22
HETATM   22  C4  UNL     1      28.752  25.847   7.930  1.00  0.00     0.134 C 
BRANCH  22  23
HETATM   23  C5  UNL     1      29.989  25.172   8.419  1.00  0.00     0.233 C 
HETATM   24  N4  UNL     1      31.217  25.899   8.531  1.00  0.00    -0.062 NA
HETATM   25  O1  UNL     1      30.026  23.961   8.751  1.00  0.00    -0.277 OA
ENDBRANCH  22  23
ENDBRANCH   2  22
TORSDOF 5
ENDMDL
MODEL 3
REMARK VINA RESULT: -5.845770214      2.875      5.341
REMARK  5 active torsions:
REMARK  status: ('A' for Active; 'I' for Inactive)
REMARK       I    between atoms: C1_4  and  N3_6 
REMARK    1  A    between atoms: N3_6  and  C2_8 
REMARK    2  A    between atoms: C3_9  and  C4_10 
REMARK    3  A    between atoms: C4_10  and  C5_11 
REMARK    4  A    between atoms: C6_17  and  N6_18 
REMARK       I    between atoms: C7_20  and  N8_22 
REMARK    5  A    between atoms: N8_22  and  C8_24 
ROOT
HETATM    1  C2  UNL     1      25.796  26.751   9.641  1.00  0.00     0.165 C 
HETATM    2  C3  UNL     1      24.845  27.390   8.698  1.00  0.00     0.223 C 
HETATM    3  N5  UNL     1      24.571  28.488   9.602  1.00  0.00    -0.045 N 
ATOM      4  H51 UNL     1      23.627  28.861   9.707  1.00  0.00     0.280 HD
ATOM      5  H52 UNL     1      24.897  29.432   9.397  1.00  0.00     0.280 HD
HETATM    6  C6  UNL     1      25.187  27.692  10.657  1.00  0.00     0.311 C 
ENDROOT
BRANCH   6   7
HETATM    7  N6  UNL     1      24.189  27.127  11.516  1.00  0.00    -0.335 N 
HETATM    8  C7  UNL     1      23.663  27.884  12.428  1.00  0.00     0.192 C 
HETATM    9  N7  UNL     1      24.053  29.241  12.584  1.00  0.00    -0.063 NA
HETATM   10  N8  UNL     1      22.669  27.351  13.296  1.00  0.00    -0.309 N 
ATOM     11  H8  UNL     1      22.384  26.377  13.189  1.00  0.00     0.170 HD
ATOM     12  H6  UNL     1      23.900  26.155  11.413  1.00  0.00     0.164 HD
BRANCH  10  13
HETATM   13  C8  UNL     1      22.070  28.138  14.300  1.00  0.00     0.355 C 
HETATM   14  O2  UNL     1      21.110  28.900  14.043  1.00  0.00    -0.283 OA
ENDBRANCH  10  13
ENDBRANCH   6   7
BRANCH   1  15
HETATM   15  N3  UNL     1      27.161  27.131   9.381  1.00  0.00    -0.354 N 
HETATM   16  C1  UNL     1      28.084  26.274   8.715  1.00  0.00     0.182 C 
HETATM   17  N1  UNL     1      27.765  25.557   7.704  1.00  0.00    -0.374 N 
HETATM   18  N2  UNL     1      29.408  26.221   9.204  1.00  0.00    -0.064 NA
ATOM     19  H12 UNL     1      28.425  24.943   7.227  1.00  0.00     0.158 HD
ATOM     20  H11 UNL     1      26.808  25.595   7.351  1.00  0.00     0.158 HD
ATOM     21  H3  UNL     1      27.480  28.052   9.685  1.00  0.00     0.162 HD
ENDBRANCH   1  15
BRANCH   2  22
HETATM   22  C4  UNL     1      23.644  26.580   8.294  1.00  0.00     0.134 C 
BRANCH  22  23
HETATM   23  C5  UNL     1      22.441  27.400   8.615  1.00  0.00     0.233 C 
HETATM   24  N4  UNL     1      22.034  28.464   7.749  1.00  0.00    -0.062 NA
HETATM   25  O1  UNL     1      21.733  27.211   9.636  1.00  0.00    -0.277 OA
ENDBRANCH  22  23
ENDBRANCH   2  22
TORSDOF 5
ENDMDL
MODEL 4
REMARK VINA RESULT: -5.722055854      2.909      5.777
REMARK  5 active torsions:
REMARK  status: ('A' for Active; 'I' for Inactive)
REMARK       I    between atoms: C1_4  and  N3_6 
REMARK    1  A    between atoms: N3_6  and  C2_8 
REMARK    2  A    between atoms: C3_9  and  C4_10 
REMARK    3  A    between atoms: C4_10  and  C5_11 
REMARK    4  A    between atoms: C6_17  and  N6_18 
REMARK       I    between atoms: C7_20  and  N8_22 
REMARK    5  A    between atoms: N8_22  and  C8_24 
ROOT
HETATM    1  C2  UNL     1      26.128  26.682   9.129  1.00  0.00     0.165 C 
HETATM    2  C3  UNL     1      24.981  27.454   8.589  1.00  0.00     0.223 C 
HETATM    3  N5  UNL     1      24.932  28.330   9.743  1.00  0.00    -0.045 N 
ATOM      4  H51 UNL     1      24.041  28.627  10.141  1.00  0.00     0.280 HD
ATOM      5  H52 UNL     1      25.203  29.310   9.671  1.00  0.00     0.280 HD
HETATM    6  C6  UNL     1      25.780  27.364  10.433  1.00  0.00     0.311 C 
ENDROOT
BRANCH   6   7
HETATM    7  N6  UNL     1      25.014  26.588  11.362  1.00  0.00    -0.335 N 
HETATM    8  C7  UNL     1      25.626  26.066  12.378  1.00  0.00     0.192 C 
HETATM    9  N7  UNL     1      27.020  26.250  12.582  1.00  0.00    -0.063 NA
HETATM   10  N8  UNL     1      24.891  25.290  13.318  1.00  0.00    -0.309 N 
ATOM     11  H8  UNL     1      23.890  25.155  13.178  1.00  0.00     0.170 HD
ATOM     12  H6  UNL     1      24.013  26.450  11.228  1.00  0.00     0.164 HD
BRANCH  10  13
HETATM   13  C8  UNL     1      25.516  24.704  14.438  1.00  0.00     0.355 C 
HETATM   14  O2  UNL     1      25.411  23.479  14.674  1.00  0.00    -0.283 OA
ENDBRANCH  10  13
ENDBRANCH   6   7
BRANCH   1  15
HETATM   15  N3  UNL     1      27.393  27.173   8.643  1.00  0.00    -0.354 N 
HETATM   16  C1  UNL     1      28.436  26.306   8.206  1.00  0.00     0.182 C 
HETATM   17  N1  UNL     1      28.223  25.257   7.504  1.00  0.00    -0.374 N 
HETATM   18  N2  UNL     1      29.762  26.632   8.568  1.00  0.00    -0.064 NA
ATOM     19  H12 UNL     1      28.970  24.637   7.191  1.00  0.00     0.158 HD
ATOM     20  H11 UNL     1      27.265  25.022   7.243  1.00  0.00     0.158 HD
ATOM     21  H3  UNL     1      27.548  28.180   8.612  1.00  0.00     0.162 HD
ENDBRANCH   1  15
BRANCH   2  22
HETATM   22  C4  UNL     1      23.717  26.687   8.314  1.00  0.00     0.134 C 
BRANCH  22  23
HETATM   23  C5  UNL     1      22.590  27.510   8.839  1.00  0.00     0.233 C 
HETATM   24  N4  UNL     1      22.004  28.538   8.034  1.00  0.00    -0.062 NA
HETATM   25  O1  UNL     1      22.101  27.354   9.986  1.00  0.00    -0.277 OA
ENDBRANCH  22  23
ENDBRANCH   2  22
TORSDOF 5
ENDMDL
MODEL 5
REMARK VINA RESULT: -5.712490958      1.720      5.690
REMARK  5 active torsions:
REMARK  status: ('A' for Active; 'I' for Inactive)
REMARK       I    between atoms: C1_4  and  N3_6 
REMARK    1  A    between atoms: N3_6  and  C2_8 
REMARK    2  A    between atoms: C3_9  and  C4_10 
REMARK    3  A    between atoms: C4_10  and  C5_11 
REMARK    4  A    between atoms: C6_17  and  N6_18 
REMARK       I    between atoms: C7_20  and  N8_22 
REMARK    5  A    between atoms: N8_22  and  C8_24 
ROOT
HETATM    1  C2  UNL     1      25.288  28.815   9.321  1.00  0.00     0.165 C 
HETATM    2  C3  UNL     1      24.347  27.739   9.721  1.00  0.00     0.223 C 
HETATM    3  N5  UNL     1      25.368  27.017  10.452  1.00  0.00    -0.045 N 
ATOM      4  H51 UNL     1      25.418  25.998  10.420  1.00  0.00     0.280 HD
ATOM      5  H52 UNL     1      25.347  26.963  11.470  1.00  0.00     0.280 HD
HETATM    6  C6  UNL     1      26.356  27.840   9.763  1.00  0.00     0.311 C 
ENDROOT
BRANCH   6   7
HETATM    7  N6  UNL     1      26.998  27.097   8.721  1.00  0.00    -0.335 N 
HETATM    8  C7  UNL     1      28.121  26.507   8.989  1.00  0.00     0.192 C 
HETATM    9  N7  UNL     1      28.712  26.582  10.278  1.00  0.00    -0.063 NA
HETATM   10  N8  UNL     1      28.782  25.761   7.973  1.00  0.00    -0.309 N 
ATOM     11  H8  UNL     1      28.363  25.702   7.044  1.00  0.00     0.170 HD
ATOM     12  H6  UNL     1      26.584  27.034   7.791  1.00  0.00     0.164 HD
BRANCH  10  13
HETATM   13  C8  UNL     1      30.004  25.103   8.220  1.00  0.00     0.355 C 
HETATM   14  O2  UNL     1      30.034  23.957   8.725  1.00  0.00    -0.283 OA
ENDBRANCH  10  13
ENDBRANCH   6   7
BRANCH   1  15
HETATM   15  N3  UNL     1      25.247  29.939  10.223  1.00  0.00    -0.354 N 
HETATM   16  C1  UNL     1      26.283  30.914  10.281  1.00  0.00     0.182 C 
HETATM   17  N1  UNL     1      26.865  31.377   9.239  1.00  0.00    -0.374 N 
HETATM   18  N2  UNL     1      26.677  31.386  11.553  1.00  0.00    -0.064 NA
ATOM     19  H12 UNL     1      27.607  32.076   9.280  1.00  0.00     0.158 HD
ATOM     20  H11 UNL     1      26.580  31.037   8.320  1.00  0.00     0.158 HD
ATOM     21  H3  UNL     1      24.445  30.038  10.845  1.00  0.00     0.162 HD
ENDBRANCH   1  15
BRANCH   2  22
HETATM   22  C4  UNL     1      23.689  26.967   8.610  1.00  0.00     0.134 C 
BRANCH  22  23
HETATM   23  C5  UNL     1      22.258  27.384   8.584  1.00  0.00     0.233 C 
HETATM   24  N4  UNL     1      21.789  28.313   7.601  1.00  0.00    -0.062 NA
HETATM   25  O1  UNL     1      21.402  26.957   9.399  1.00  0.00    -0.277 OA
ENDBRANCH  22  23
ENDBRANCH   2  22
TORSDOF 5
ENDMDL
