MODEL 1
REMARK VINA RESULT: -8.513242791      0.000      0.000
REMARK  6 active torsions:
REMARK  status: ('A' for Active; 'I' for Inactive)
REMARK    1  A    between atoms: N1_1  and  C1_4 
REMARK    2  A    between atoms: C3_8  and  C4_9 
REMARK    3  A    between atoms: C4_9  and  C5_10 
REMARK    4  A    between atoms: C5_10  and  C6_11 
REMARK    5  A    between atoms: C6_11  and  C7_12 
REMARK    6  A    between atoms: C7_12  and  C8_13 
ROOT
HETATM    1  C6  UNL     1      14.773  -3.367  -9.718  1.00  0.00     0.005 C 
ENDROOT
BRANCH   1   2
HETATM    2  C5  UNL     1      15.525  -2.284  -9.030  1.00  0.00     0.005 C 
BRANCH   2   3
HETATM    3  C4  UNL     1      16.745  -1.814  -9.762  1.00  0.00     0.048 C 
BRANCH   3   4
HETATM    4  C3  UNL     1      16.758  -0.351 -10.003  1.00  0.00     0.001 A 
HETATM    5  C2  UNL     1      15.802   0.423 -10.585  1.00  0.00     0.104 A 
HETATM    6  N2  UNL     1      16.027   1.708 -10.697  1.00  0.00    -0.346 N 
HETATM    7  C1  UNL     1      17.180   2.192 -10.237  1.00  0.00     0.142 A 
ATOM      8  H2  UNL     1      15.336   2.324 -11.126  1.00  0.00     0.167 HD
HETATM    9  S1  UNL     1      17.962   0.797  -9.632  1.00  0.00    -0.058 SA
BRANCH   7  10
HETATM   10  N1  UNL     1      17.598   3.442 -10.252  1.00  0.00    -0.380 N 
ATOM     11  H12 UNL     1      17.445   4.181  -9.566  1.00  0.00     0.158 HD
ATOM     12  H11 UNL     1      18.160   3.906 -10.965  1.00  0.00     0.158 HD
ENDBRANCH   7  10
ENDBRANCH   3   4
ENDBRANCH   2   3
ENDBRANCH   1   2
BRANCH   1  13
HETATM   13  C7  UNL     1      15.497  -3.893 -10.903  1.00  0.00     0.038 C 
BRANCH  13  14
HETATM   14  C8  UNL     1      14.859  -3.678 -12.197  1.00  0.00    -0.057 A 
HETATM   15  C9  UNL     1      14.281  -4.743 -12.846  1.00  0.00     0.008 A 
HETATM   16  C10 UNL     1      13.671  -4.579 -14.068  1.00  0.00     0.013 A 
HETATM   17  C11 UNL     1      13.609  -3.351 -14.697  1.00  0.00    -0.026 A 
HETATM   18  C12 UNL     1      13.007  -3.160 -15.915  1.00  0.00     0.012 A 
HETATM   19  C16 UNL     1      14.180  -2.278 -14.064  1.00  0.00    -0.025 A 
HETATM   20  C13 UNL     1      12.952  -1.938 -16.527  1.00  0.00     0.001 A 
HETATM   21  C14 UNL     1      13.529  -0.863 -15.886  1.00  0.00     0.001 A 
HETATM   22  C15 UNL     1      14.138  -1.035 -14.660  1.00  0.00     0.012 A 
HETATM   23  C17 UNL     1      14.790  -2.449 -12.839  1.00  0.00     0.019 A 
ENDBRANCH  13  14
ENDBRANCH   1  13
TORSDOF 6
ENDMDL
MODEL 2
REMARK VINA RESULT: -8.481232165      3.698      6.648
REMARK  6 active torsions:
REMARK  status: ('A' for Active; 'I' for Inactive)
REMARK    1  A    between atoms: N1_1  and  C1_4 
REMARK    2  A    between atoms: C3_8  and  C4_9 
REMARK    3  A    between atoms: C4_9  and  C5_10 
REMARK    4  A    between atoms: C5_10  and  C6_11 
REMARK    5  A    between atoms: C6_11  and  C7_12 
REMARK    6  A    between atoms: C7_12  and  C8_13 
ROOT
HETATM    1  C6  UNL     1      14.254  -1.967 -15.680  1.00  0.00     0.005 C 
ENDROOT
BRANCH   1   2
HETATM    2  C5  UNL     1      13.824  -3.127 -16.507  1.00  0.00     0.005 C 
BRANCH   2   3
HETATM    3  C4  UNL     1      14.928  -4.075 -16.865  1.00  0.00     0.048 C 
BRANCH   3   4
HETATM    4  C3  UNL     1      15.674  -4.580 -15.687  1.00  0.00     0.001 A 
HETATM    5  C2  UNL     1      16.979  -4.382 -15.359  1.00  0.00     0.104 A 
HETATM    6  N2  UNL     1      17.433  -4.929 -14.259  1.00  0.00    -0.346 N 
HETATM    7  C1  UNL     1      16.593  -5.652 -13.518  1.00  0.00     0.142 A 
ATOM      8  H2  UNL     1      18.404  -4.805 -13.976  1.00  0.00     0.167 HD
HETATM    9  S1  UNL     1      15.131  -5.554 -14.399  1.00  0.00    -0.058 SA
BRANCH   7  10
HETATM   10  N1  UNL     1      16.846  -6.280 -12.388  1.00  0.00    -0.380 N 
ATOM     11  H12 UNL     1      17.491  -7.050 -12.207  1.00  0.00     0.158 HD
ATOM     12  H11 UNL     1      16.435  -6.109 -11.470  1.00  0.00     0.158 HD
ENDBRANCH   7  10
ENDBRANCH   3   4
ENDBRANCH   2   3
ENDBRANCH   1   2
BRANCH   1  13
HETATM   13  C7  UNL     1      13.636  -1.976 -14.331  1.00  0.00     0.038 C 
BRANCH  13  14
HETATM   14  C8  UNL     1      14.441  -1.422 -13.247  1.00  0.00    -0.057 A 
HETATM   15  C9  UNL     1      14.105  -0.199 -12.717  1.00  0.00     0.008 A 
HETATM   16  C10 UNL     1      14.841   0.354 -11.695  1.00  0.00     0.013 A 
HETATM   17  C11 UNL     1      15.941  -0.284 -11.156  1.00  0.00    -0.026 A 
HETATM   18  C12 UNL     1      16.692   0.246 -10.138  1.00  0.00     0.012 A 
HETATM   19  C16 UNL     1      16.290  -1.504 -11.673  1.00  0.00    -0.025 A 
HETATM   20  C13 UNL     1      17.779  -0.396  -9.612  1.00  0.00     0.001 A 
HETATM   21  C14 UNL     1      18.126  -1.622 -10.136  1.00  0.00     0.001 A 
HETATM   22  C15 UNL     1      17.383  -2.171 -11.161  1.00  0.00     0.012 A 
HETATM   23  C17 UNL     1      15.549  -2.053 -12.697  1.00  0.00     0.019 A 
ENDBRANCH  13  14
ENDBRANCH   1  13
TORSDOF 6
ENDMDL
MODEL 3
REMARK VINA RESULT: -8.361582708      2.890      3.370
REMARK  6 active torsions:
REMARK  status: ('A' for Active; 'I' for Inactive)
REMARK    1  A    between atoms: N1_1  and  C1_4 
REMARK    2  A    between atoms: C3_8  and  C4_9 
REMARK    3  A    between atoms: C4_9  and  C5_10 
REMARK    4  A    between atoms: C5_10  and  C6_11 
REMARK    5  A    between atoms: C6_11  and  C7_12 
REMARK    6  A    between atoms: C7_12  and  C8_13 
ROOT
HETATM    1  C6  UNL     1      16.849  -1.476  -9.808  1.00  0.00     0.005 C 
ENDROOT
BRANCH   1   2
HETATM    2  C5  UNL     1      17.992  -0.616 -10.219  1.00  0.00     0.005 C 
BRANCH   2   3
HETATM    3  C4  UNL     1      18.195   0.595  -9.359  1.00  0.00     0.048 C 
BRANCH   3   4
HETATM    4  C3  UNL     1      18.979   0.318  -8.131  1.00  0.00     0.001 A 
HETATM    5  C2  UNL     1      20.134  -0.389  -8.001  1.00  0.00     0.104 A 
HETATM    6  N2  UNL     1      20.658  -0.509  -6.807  1.00  0.00    -0.346 N 
HETATM    7  C1  UNL     1      20.032   0.065  -5.781  1.00  0.00     0.142 A 
ATOM      8  H2  UNL     1      21.523  -1.029  -6.666  1.00  0.00     0.167 HD
HETATM    9  S1  UNL     1      18.673   0.791  -6.522  1.00  0.00    -0.058 SA
BRANCH   7  10
HETATM   10  N1  UNL     1      20.388   0.064  -4.512  1.00  0.00    -0.380 N 
ATOM     11  H12 UNL     1      21.080  -0.515  -4.036  1.00  0.00     0.158 HD
ATOM     12  H11 UNL     1      20.029   0.652  -3.759  1.00  0.00     0.158 HD
ENDBRANCH   7  10
ENDBRANCH   3   4
ENDBRANCH   2   3
ENDBRANCH   1   2
BRANCH   1  13
HETATM   13  C7  UNL     1      15.566  -1.034 -10.409  1.00  0.00     0.038 C 
BRANCH  13  14
HETATM   14  C8  UNL     1      15.148  -1.727 -11.623  1.00  0.00    -0.057 A 
HETATM   15  C9  UNL     1      15.184  -3.101 -11.659  1.00  0.00     0.008 A 
HETATM   16  C10 UNL     1      14.798  -3.788 -12.787  1.00  0.00     0.013 A 
HETATM   17  C11 UNL     1      14.359  -3.141 -13.925  1.00  0.00    -0.026 A 
HETATM   18  C12 UNL     1      13.969  -3.802 -15.062  1.00  0.00     0.012 A 
HETATM   19  C16 UNL     1      14.317  -1.771 -13.906  1.00  0.00    -0.025 A 
HETATM   20  C13 UNL     1      13.537  -3.149 -16.183  1.00  0.00     0.001 A 
HETATM   21  C14 UNL     1      13.496  -1.772 -16.158  1.00  0.00     0.001 A 
HETATM   22  C15 UNL     1      13.884  -1.089 -15.024  1.00  0.00     0.012 A 
HETATM   23  C17 UNL     1      14.705  -1.088 -12.773  1.00  0.00     0.019 A 
ENDBRANCH  13  14
ENDBRANCH   1  13
TORSDOF 6
ENDMDL
MODEL 4
REMARK VINA RESULT: -8.247059585      3.537      7.367
REMARK  6 active torsions:
REMARK  status: ('A' for Active; 'I' for Inactive)
REMARK    1  A    between atoms: N1_1  and  C1_4 
REMARK    2  A    between atoms: C3_8  and  C4_9 
REMARK    3  A    between atoms: C4_9  and  C5_10 
REMARK    4  A    between atoms: C5_10  and  C6_11 
REMARK    5  A    between atoms: C6_11  and  C7_12 
REMARK    6  A    between atoms: C7_12  and  C8_13 
ROOT
HETATM    1  C6  UNL     1      14.773  -1.341 -12.309  1.00  0.00     0.005 C 
ENDROOT
BRANCH   1   2
HETATM    2  C5  UNL     1      14.482  -1.417 -13.767  1.00  0.00     0.005 C 
BRANCH   2   3
HETATM    3  C4  UNL     1      14.199  -2.799 -14.271  1.00  0.00     0.048 C 
BRANCH   3   4
HETATM    4  C3  UNL     1      15.269  -3.773 -13.946  1.00  0.00     0.001 A 
HETATM    5  C2  UNL     1      16.479  -3.939 -14.547  1.00  0.00     0.104 A 
HETATM    6  N2  UNL     1      17.275  -4.872 -14.090  1.00  0.00    -0.346 N 
HETATM    7  C1  UNL     1      16.861  -5.612 -13.062  1.00  0.00     0.142 A 
ATOM      8  H2  UNL     1      18.191  -5.029 -14.511  1.00  0.00     0.167 HD
HETATM    9  S1  UNL     1      15.310  -4.972 -12.735  1.00  0.00    -0.058 SA
BRANCH   7  10
HETATM   10  N1  UNL     1      17.503  -6.592 -12.459  1.00  0.00    -0.380 N 
ATOM     11  H12 UNL     1      18.477  -6.636 -12.157  1.00  0.00     0.158 HD
ATOM     12  H11 UNL     1      17.137  -7.502 -12.178  1.00  0.00     0.158 HD
ENDBRANCH   7  10
ENDBRANCH   3   4
ENDBRANCH   2   3
ENDBRANCH   1   2
BRANCH   1  13
HETATM   13  C7  UNL     1      14.729   0.051 -11.796  1.00  0.00     0.038 C 
BRANCH  13  14
HETATM   14  C8  UNL     1      15.873   0.483 -11.001  1.00  0.00    -0.057 A 
HETATM   15  C9  UNL     1      16.140   1.826 -10.882  1.00  0.00     0.008 A 
HETATM   16  C10 UNL     1      17.210   2.271 -10.141  1.00  0.00     0.013 A 
HETATM   17  C11 UNL     1      18.060   1.401  -9.486  1.00  0.00    -0.026 A 
HETATM   18  C12 UNL     1      19.133   1.817  -8.741  1.00  0.00     0.012 A 
HETATM   19  C16 UNL     1      17.808   0.058  -9.594  1.00  0.00    -0.025 A 
HETATM   20  C13 UNL     1      19.967   0.946  -8.097  1.00  0.00     0.001 A 
HETATM   21  C14 UNL     1      19.710  -0.404  -8.209  1.00  0.00     0.001 A 
HETATM   22  C15 UNL     1      18.635  -0.842  -8.954  1.00  0.00     0.012 A 
HETATM   23  C17 UNL     1      16.734  -0.382 -10.338  1.00  0.00     0.019 A 
ENDBRANCH  13  14
ENDBRANCH   1  13
TORSDOF 6
ENDMDL
MODEL 5
REMARK VINA RESULT: -8.243626692      3.646      6.561
REMARK  6 active torsions:
REMARK  status: ('A' for Active; 'I' for Inactive)
REMARK    1  A    between atoms: N1_1  and  C1_4 
REMARK    2  A    between atoms: C3_8  and  C4_9 
REMARK    3  A    between atoms: C4_9  and  C5_10 
REMARK    4  A    between atoms: C5_10  and  C6_11 
REMARK    5  A    between atoms: C6_11  and  C7_12 
REMARK    6  A    between atoms: C7_12  and  C8_13 
ROOT
HETATM    1  C6  UNL     1      14.143  -1.906 -15.414  1.00  0.00     0.005 C 
ENDROOT
BRANCH   1   2
HETATM    2  C5  UNL     1      13.606  -3.067 -16.174  1.00  0.00     0.005 C 
BRANCH   2   3
HETATM    3  C4  UNL     1      14.653  -4.009 -16.688  1.00  0.00     0.048 C 
BRANCH   3   4
HETATM    4  C3  UNL     1      15.521  -4.560 -15.619  1.00  0.00     0.001 A 
HETATM    5  C2  UNL     1      16.856  -4.378 -15.431  1.00  0.00     0.104 A 
HETATM    6  N2  UNL     1      17.425  -4.968 -14.410  1.00  0.00    -0.346 N 
HETATM    7  C1  UNL     1      16.668  -5.716 -13.608  1.00  0.00     0.142 A 
ATOM      8  H2  UNL     1      18.423  -4.857 -14.232  1.00  0.00     0.167 HD
HETATM    9  S1  UNL     1      15.118  -5.582 -14.316  1.00  0.00    -0.058 SA
BRANCH   7  10
HETATM   10  N1  UNL     1      17.040  -6.388 -12.537  1.00  0.00    -0.380 N 
ATOM     11  H12 UNL     1      16.690  -6.324 -11.581  1.00  0.00     0.158 HD
ATOM     12  H11 UNL     1      17.760  -7.108 -12.466  1.00  0.00     0.158 HD
ENDBRANCH   7  10
ENDBRANCH   3   4
ENDBRANCH   2   3
ENDBRANCH   1   2
BRANCH   1  13
HETATM   13  C7  UNL     1      13.665  -1.882 -14.009  1.00  0.00     0.038 C 
BRANCH  13  14
HETATM   14  C8  UNL     1      14.656  -1.534 -12.996  1.00  0.00    -0.057 A 
HETATM   15  C9  UNL     1      15.548  -2.490 -12.571  1.00  0.00     0.008 A 
HETATM   16  C10 UNL     1      16.495  -2.198 -11.617  1.00  0.00     0.013 A 
HETATM   17  C11 UNL     1      16.598  -0.945 -11.046  1.00  0.00    -0.026 A 
HETATM   18  C12 UNL     1      17.533  -0.628 -10.094  1.00  0.00     0.012 A 
HETATM   19  C16 UNL     1      15.717   0.020 -11.458  1.00  0.00    -0.025 A 
HETATM   20  C13 UNL     1      17.624   0.617  -9.536  1.00  0.00     0.001 A 
HETATM   21  C14 UNL     1      16.736   1.584  -9.953  1.00  0.00     0.001 A 
HETATM   22  C15 UNL     1      15.788   1.284 -10.910  1.00  0.00     0.012 A 
HETATM   23  C17 UNL     1      14.769  -0.278 -12.414  1.00  0.00     0.019 A 
ENDBRANCH  13  14
ENDBRANCH   1  13
TORSDOF 6
ENDMDL
