MODEL 1
REMARK VINA RESULT: -9.623374630      0.000      0.000
REMARK  5 active torsions:
REMARK  status: ('A' for Active; 'I' for Inactive)
REMARK    1  A    between atoms: C2_2  and  N1_3 
REMARK    2  A    between atoms: C2_2  and  C16_18 
REMARK    3  A    between atoms: N1_3  and  C3_5 
REMARK    4  A    between atoms: C7_9  and  C8_10 
REMARK    5  A    between atoms: C8_10  and  C9_11 
ROOT
HETATM    1  C3  UNL     1      16.116  -2.578 -11.138  1.00  0.00     0.029 A 
HETATM    2  C4  UNL     1      15.410  -3.065 -10.066  1.00  0.00     0.029 A 
HETATM    3  C5  UNL     1      15.600  -2.543  -8.780  1.00  0.00     0.003 A 
HETATM    4  C6  UNL     1      16.507  -1.525  -8.581  1.00  0.00     0.007 A 
HETATM    5  C7  UNL     1      17.217  -1.029  -9.631  1.00  0.00    -0.052 A 
HETATM    6  C15 UNL     1      17.010  -1.561 -10.891  1.00  0.00     0.036 A 
ENDROOT
BRANCH   1   7
HETATM    7  N1  UNL     1      15.904  -3.135 -12.420  1.00  0.00    -0.382 N 
ATOM      8  H1  UNL     1      16.708  -3.166 -13.047  1.00  0.00     0.160 HD
BRANCH   7   9
HETATM    9  C2  UNL     1      14.677  -3.658 -12.924  1.00  0.00     0.111 C 
HETATM   10  C1  UNL     1      14.734  -5.113 -13.271  1.00  0.00     0.037 C 
BRANCH   9  11
HETATM   11  C16 UNL     1      14.206  -2.881 -14.089  1.00  0.00    -0.036 A 
HETATM   12  C17 UNL     1      13.690  -3.604 -15.170  1.00  0.00     0.009 A 
HETATM   13  C18 UNL     1      13.236  -2.957 -16.288  1.00  0.00     0.001 A 
HETATM   14  C19 UNL     1      13.263  -1.585 -16.408  1.00  0.00     0.000 A 
HETATM   15  C20 UNL     1      13.776  -0.889 -15.334  1.00  0.00     0.001 A 
HETATM   16  C21 UNL     1      14.235  -1.527 -14.205  1.00  0.00     0.009 A 
ENDBRANCH   9  11
ENDBRANCH   7   9
ENDBRANCH   1   7
BRANCH   5  17
HETATM   17  C8  UNL     1      18.213   0.061  -9.527  1.00  0.00     0.077 C 
BRANCH  17  18
HETATM   18  C9  UNL     1      18.919   0.084  -8.241  1.00  0.00    -0.054 A 
HETATM   19  C10 UNL     1      20.096  -0.619  -8.135  1.00  0.00     0.007 A 
HETATM   20  C11 UNL     1      20.820  -0.642  -6.944  1.00  0.00     0.001 A 
HETATM   21  C12 UNL     1      20.327   0.061  -5.870  1.00  0.00     0.000 A 
HETATM   22  C13 UNL     1      19.150   0.762  -5.978  1.00  0.00     0.001 A 
HETATM   23  C14 UNL     1      18.454   0.772  -7.156  1.00  0.00     0.007 A 
ENDBRANCH  17  18
ENDBRANCH   5  17
TORSDOF 5
ENDMDL
MODEL 2
REMARK VINA RESULT: -9.609342213      0.031      1.013
REMARK  5 active torsions:
REMARK  status: ('A' for Active; 'I' for Inactive)
REMARK    1  A    between atoms: C2_2  and  N1_3 
REMARK    2  A    between atoms: C2_2  and  C16_18 
REMARK    3  A    between atoms: N1_3  and  C3_5 
REMARK    4  A    between atoms: C7_9  and  C8_10 
REMARK    5  A    between atoms: C8_10  and  C9_11 
ROOT
HETATM    1  C3  UNL     1      16.118  -2.573 -11.157  1.00  0.00     0.029 A 
HETATM    2  C4  UNL     1      15.420  -3.075 -10.088  1.00  0.00     0.029 A 
HETATM    3  C5  UNL     1      15.611  -2.561  -8.798  1.00  0.00     0.003 A 
HETATM    4  C6  UNL     1      16.511  -1.538  -8.594  1.00  0.00     0.007 A 
HETATM    5  C7  UNL     1      17.213  -1.027  -9.642  1.00  0.00    -0.052 A 
HETATM    6  C15 UNL     1      17.005  -1.551 -10.906  1.00  0.00     0.036 A 
ENDROOT
BRANCH   1   7
HETATM    7  N1  UNL     1      15.906  -3.121 -12.444  1.00  0.00    -0.382 N 
ATOM      8  H1  UNL     1      16.707  -3.136 -13.075  1.00  0.00     0.160 HD
BRANCH   7   9
HETATM    9  C2  UNL     1      14.682  -3.655 -12.945  1.00  0.00     0.111 C 
HETATM   10  C1  UNL     1      14.750  -5.110 -13.288  1.00  0.00     0.037 C 
BRANCH   9  11
HETATM   11  C16 UNL     1      14.205  -2.885 -14.112  1.00  0.00    -0.036 A 
HETATM   12  C17 UNL     1      13.691  -3.614 -15.190  1.00  0.00     0.009 A 
HETATM   13  C18 UNL     1      13.232  -2.974 -16.309  1.00  0.00     0.001 A 
HETATM   14  C19 UNL     1      13.249  -1.602 -16.433  1.00  0.00     0.000 A 
HETATM   15  C20 UNL     1      13.759  -0.899 -15.362  1.00  0.00     0.001 A 
HETATM   16  C21 UNL     1      14.224  -1.531 -14.232  1.00  0.00     0.009 A 
ENDBRANCH   9  11
ENDBRANCH   7   9
ENDBRANCH   1   7
BRANCH   5  17
HETATM   17  C8  UNL     1      18.200   0.070  -9.534  1.00  0.00     0.077 C 
BRANCH  17  18
HETATM   18  C9  UNL     1      18.958   0.048  -8.278  1.00  0.00    -0.054 A 
HETATM   19  C10 UNL     1      18.452   0.741  -7.203  1.00  0.00     0.007 A 
HETATM   20  C11 UNL     1      19.118   0.765  -5.979  1.00  0.00     0.001 A 
HETATM   21  C12 UNL     1      20.302   0.074  -5.869  1.00  0.00     0.000 A 
HETATM   22  C13 UNL     1      20.806  -0.618  -6.945  1.00  0.00     0.001 A 
HETATM   23  C14 UNL     1      20.137  -0.629  -8.138  1.00  0.00     0.007 A 
ENDBRANCH  17  18
ENDBRANCH   5  17
TORSDOF 5
ENDMDL
MODEL 3
REMARK VINA RESULT: -9.581410043      1.276      8.356
REMARK  5 active torsions:
REMARK  status: ('A' for Active; 'I' for Inactive)
REMARK    1  A    between atoms: C2_2  and  N1_3 
REMARK    2  A    between atoms: C2_2  and  C16_18 
REMARK    3  A    between atoms: N1_3  and  C3_5 
REMARK    4  A    between atoms: C7_9  and  C8_10 
REMARK    5  A    between atoms: C8_10  and  C9_11 
ROOT
HETATM    1  C3  UNL     1      17.245  -1.342 -10.082  1.00  0.00     0.029 A 
HETATM    2  C4  UNL     1      16.308  -1.683  -9.139  1.00  0.00     0.029 A 
HETATM    3  C5  UNL     1      15.310  -2.626  -9.423  1.00  0.00     0.003 A 
HETATM    4  C6  UNL     1      15.263  -3.221 -10.664  1.00  0.00     0.007 A 
HETATM    5  C7  UNL     1      16.184  -2.895 -11.612  1.00  0.00    -0.052 A 
HETATM    6  C15 UNL     1      17.158  -1.962 -11.307  1.00  0.00     0.036 A 
ENDROOT
BRANCH   1   7
HETATM    7  N1  UNL     1      18.232  -0.381  -9.763  1.00  0.00    -0.382 N 
ATOM      8  H1  UNL     1      19.096  -0.412 -10.304  1.00  0.00     0.160 HD
BRANCH   7   9
HETATM    9  C2  UNL     1      18.140   0.627  -8.758  1.00  0.00     0.111 C 
HETATM   10  C1  UNL     1      18.394   2.012  -9.263  1.00  0.00     0.037 C 
BRANCH   9  11
HETATM   11  C16 UNL     1      19.041   0.332  -7.624  1.00  0.00    -0.036 A 
HETATM   12  C17 UNL     1      20.175  -0.441  -7.896  1.00  0.00     0.009 A 
HETATM   13  C18 UNL     1      21.056  -0.760  -6.900  1.00  0.00     0.001 A 
HETATM   14  C19 UNL     1      20.878  -0.347  -5.597  1.00  0.00     0.000 A 
HETATM   15  C20 UNL     1      19.755   0.413  -5.347  1.00  0.00     0.001 A 
HETATM   16  C21 UNL     1      18.862   0.741  -6.340  1.00  0.00     0.009 A 
ENDBRANCH   9  11
ENDBRANCH   7   9
ENDBRANCH   1   7
BRANCH   5  17
HETATM   17  C8  UNL     1      16.223  -3.473 -12.974  1.00  0.00     0.077 C 
BRANCH  17  18
HETATM   18  C9  UNL     1      15.168  -2.962 -13.855  1.00  0.00    -0.054 A 
HETATM   19  C10 UNL     1      14.531  -3.852 -14.689  1.00  0.00     0.007 A 
HETATM   20  C11 UNL     1      13.519  -3.437 -15.552  1.00  0.00     0.001 A 
HETATM   21  C12 UNL     1      13.168  -2.108 -15.552  1.00  0.00     0.000 A 
HETATM   22  C13 UNL     1      13.806  -1.220 -14.719  1.00  0.00     0.001 A 
HETATM   23  C14 UNL     1      14.797  -1.647 -13.878  1.00  0.00     0.007 A 
ENDBRANCH  17  18
ENDBRANCH   5  17
TORSDOF 5
ENDMDL
MODEL 4
REMARK VINA RESULT: -9.521800501      1.386      8.444
REMARK  5 active torsions:
REMARK  status: ('A' for Active; 'I' for Inactive)
REMARK    1  A    between atoms: C2_2  and  N1_3 
REMARK    2  A    between atoms: C2_2  and  C16_18 
REMARK    3  A    between atoms: N1_3  and  C3_5 
REMARK    4  A    between atoms: C7_9  and  C8_10 
REMARK    5  A    between atoms: C8_10  and  C9_11 
ROOT
HETATM    1  C3  UNL     1      17.491  -1.215  -9.847  1.00  0.00     0.029 A 
HETATM    2  C4  UNL     1      16.524  -1.464  -8.906  1.00  0.00     0.029 A 
HETATM    3  C5  UNL     1      15.469  -2.348  -9.174  1.00  0.00     0.003 A 
HETATM    4  C6  UNL     1      15.397  -2.980 -10.396  1.00  0.00     0.007 A 
HETATM    5  C7  UNL     1      16.348  -2.745 -11.342  1.00  0.00    -0.052 A 
HETATM    6  C15 UNL     1      17.378  -1.869 -11.053  1.00  0.00     0.036 A 
ENDROOT
BRANCH   1   7
HETATM    7  N1  UNL     1      18.536  -0.310  -9.546  1.00  0.00    -0.382 N 
ATOM      8  H1  UNL     1      19.404  -0.419 -10.070  1.00  0.00     0.160 HD
BRANCH   7   9
HETATM    9  C2  UNL     1      18.496   0.738  -8.580  1.00  0.00     0.111 C 
HETATM   10  C1  UNL     1      18.948   2.064  -9.105  1.00  0.00     0.037 C 
BRANCH   9  11
HETATM   11  C16 UNL     1      19.274   0.382  -7.376  1.00  0.00    -0.036 A 
HETATM   12  C17 UNL     1      20.417  -0.402  -7.565  1.00  0.00     0.009 A 
HETATM   13  C18 UNL     1      21.190  -0.777  -6.500  1.00  0.00     0.001 A 
HETATM   14  C19 UNL     1      20.891  -0.409  -5.206  1.00  0.00     0.000 A 
HETATM   15  C20 UNL     1      19.761   0.363  -5.038  1.00  0.00     0.001 A 
HETATM   16  C21 UNL     1      18.976   0.746  -6.101  1.00  0.00     0.009 A 
ENDBRANCH   9  11
ENDBRANCH   7   9
ENDBRANCH   1   7
BRANCH   5  17
HETATM   17  C8  UNL     1      16.365  -3.369 -12.684  1.00  0.00     0.077 C 
BRANCH  17  18
HETATM   18  C9  UNL     1      15.192  -3.033 -13.498  1.00  0.00    -0.054 A 
HETATM   19  C10 UNL     1      15.037  -1.728 -13.905  1.00  0.00     0.007 A 
HETATM   20  C11 UNL     1      13.948  -1.336 -14.680  1.00  0.00     0.001 A 
HETATM   21  C12 UNL     1      13.024  -2.291 -15.032  1.00  0.00     0.000 A 
HETATM   22  C13 UNL     1      13.179  -3.595 -14.624  1.00  0.00     0.001 A 
HETATM   23  C14 UNL     1      14.256  -3.960 -13.863  1.00  0.00     0.007 A 
ENDBRANCH  17  18
ENDBRANCH   5  17
TORSDOF 5
ENDMDL
MODEL 5
REMARK VINA RESULT: -9.442994122      2.055      8.422
REMARK  5 active torsions:
REMARK  status: ('A' for Active; 'I' for Inactive)
REMARK    1  A    between atoms: C2_2  and  N1_3 
REMARK    2  A    between atoms: C2_2  and  C16_18 
REMARK    3  A    between atoms: N1_3  and  C3_5 
REMARK    4  A    between atoms: C7_9  and  C8_10 
REMARK    5  A    between atoms: C8_10  and  C9_11 
ROOT
HETATM    1  C3  UNL     1      17.174  -0.537 -10.274  1.00  0.00     0.029 A 
HETATM    2  C4  UNL     1      16.268   0.416 -10.667  1.00  0.00     0.029 A 
HETATM    3  C5  UNL     1      15.113   0.063 -11.379  1.00  0.00     0.003 A 
HETATM    4  C6  UNL     1      14.879  -1.258 -11.693  1.00  0.00     0.007 A 
HETATM    5  C7  UNL     1      15.766  -2.218 -11.311  1.00  0.00    -0.052 A 
HETATM    6  C15 UNL     1      16.897  -1.843 -10.609  1.00  0.00     0.036 A 
ENDROOT
BRANCH   1   7
HETATM    7  N1  UNL     1      18.331  -0.143  -9.563  1.00  0.00    -0.382 N 
ATOM      8  H1  UNL     1      19.191  -0.654  -9.765  1.00  0.00     0.160 HD
BRANCH   7   9
HETATM    9  C2  UNL     1      18.416   0.898  -8.592  1.00  0.00     0.111 C 
HETATM   10  C1  UNL     1      18.944   2.190  -9.132  1.00  0.00     0.037 C 
BRANCH   9  11
HETATM   11  C16 UNL     1      19.219   0.474  -7.427  1.00  0.00    -0.036 A 
HETATM   12  C17 UNL     1      20.334  -0.333  -7.681  1.00  0.00     0.009 A 
HETATM   13  C18 UNL     1      21.126  -0.769  -6.655  1.00  0.00     0.001 A 
HETATM   14  C19 UNL     1      20.876  -0.444  -5.339  1.00  0.00     0.000 A 
HETATM   15  C20 UNL     1      19.774   0.352  -5.107  1.00  0.00     0.001 A 
HETATM   16  C21 UNL     1      18.969   0.797  -6.130  1.00  0.00     0.009 A 
ENDBRANCH   9  11
ENDBRANCH   7   9
ENDBRANCH   1   7
BRANCH   5  17
HETATM   17  C8  UNL     1      15.610  -3.662 -11.595  1.00  0.00     0.077 C 
BRANCH  17  18
HETATM   18  C9  UNL     1      15.849  -4.008 -13.001  1.00  0.00    -0.054 A 
HETATM   19  C10 UNL     1      14.784  -4.451 -13.750  1.00  0.00     0.007 A 
HETATM   20  C11 UNL     1      14.937  -4.797 -15.091  1.00  0.00     0.001 A 
HETATM   21  C12 UNL     1      16.187  -4.684 -15.653  1.00  0.00     0.000 A 
HETATM   22  C13 UNL     1      17.250  -4.242 -14.903  1.00  0.00     0.001 A 
HETATM   23  C14 UNL     1      17.079  -3.906 -13.587  1.00  0.00     0.007 A 
ENDBRANCH  17  18
ENDBRANCH   5  17
TORSDOF 5
ENDMDL
