MODEL 1
REMARK VINA RESULT: -9.187734905      0.000      0.000
REMARK  5 active torsions:
REMARK  status: ('A' for Active; 'I' for Inactive)
REMARK    1  A    between atoms: C2_2  and  C3_3 
REMARK    2  A    between atoms: C8_8  and  N1_9 
REMARK    3  A    between atoms: N1_9  and  C9_11 
REMARK    4  A    between atoms: C9_11  and  C10_12 
REMARK    5  A    between atoms: C13_15  and  C14_16 
ROOT
HETATM    1  C10 UNL     1      15.615  -3.963 -11.730  1.00  0.00    -0.041 A 
HETATM    2  C11 UNL     1      15.144  -3.395 -10.582  1.00  0.00     0.009 A 
HETATM    3  C12 UNL     1      15.742  -2.303  -9.967  1.00  0.00     0.013 A 
HETATM    4  C13 UNL     1      16.875  -1.743 -10.530  1.00  0.00    -0.026 A 
HETATM    5  C20 UNL     1      17.372  -2.297 -11.692  1.00  0.00     0.013 A 
HETATM    6  C21 UNL     1      16.760  -3.378 -12.279  1.00  0.00     0.009 A 
ENDROOT
BRANCH   1   7
HETATM    7  C9  UNL     1      15.069  -5.102 -12.454  1.00  0.00     0.158 C 
BRANCH   7   8
HETATM    8  N1  UNL     1      13.945  -4.840 -13.306  1.00  0.00    -0.385 N 
ATOM      9  H1  UNL     1      12.996  -4.825 -12.932  1.00  0.00     0.160 HD
BRANCH   8  10
HETATM   10  C8  UNL     1      14.190  -4.603 -14.675  1.00  0.00     0.034 A 
HETATM   11  C3  UNL     1      13.882  -3.367 -15.190  1.00  0.00    -0.032 A 
HETATM   12  C4  UNL     1      14.115  -3.133 -16.529  1.00  0.00     0.009 A 
HETATM   13  C5  UNL     1      14.647  -4.109 -17.349  1.00  0.00     0.001 A 
HETATM   14  C6  UNL     1      14.960  -5.362 -16.832  1.00  0.00     0.002 A 
HETATM   15  C7  UNL     1      14.732  -5.608 -15.494  1.00  0.00     0.029 A 
BRANCH  11  16
HETATM   16  C2  UNL     1      13.330  -2.334 -14.336  1.00  0.00     0.036 C 
HETATM   17  C1  UNL     1      14.286  -1.257 -13.920  1.00  0.00     0.010 C 
ENDBRANCH  11  16
ENDBRANCH   8  10
ENDBRANCH   7   8
ENDBRANCH   1   7
BRANCH   4  18
HETATM   18  C14 UNL     1      17.522  -0.592  -9.899  1.00  0.00    -0.026 A 
HETATM   19  C15 UNL     1      18.587  -0.732  -9.036  1.00  0.00     0.012 A 
HETATM   20  C16 UNL     1      19.186   0.368  -8.449  1.00  0.00     0.001 A 
HETATM   21  C17 UNL     1      18.727   1.645  -8.713  1.00  0.00     0.000 A 
HETATM   22  C18 UNL     1      17.662   1.797  -9.574  1.00  0.00     0.001 A 
HETATM   23  C19 UNL     1      17.083   0.702 -10.146  1.00  0.00     0.012 A 
ENDBRANCH   4  18
TORSDOF 5
ENDMDL
MODEL 2
REMARK VINA RESULT: -9.183462973      0.052      1.009
REMARK  5 active torsions:
REMARK  status: ('A' for Active; 'I' for Inactive)
REMARK    1  A    between atoms: C2_2  and  C3_3 
REMARK    2  A    between atoms: C8_8  and  N1_9 
REMARK    3  A    between atoms: N1_9  and  C9_11 
REMARK    4  A    between atoms: C9_11  and  C10_12 
REMARK    5  A    between atoms: C13_15  and  C14_16 
ROOT
HETATM    1  C10 UNL     1      15.607  -3.971 -11.733  1.00  0.00    -0.041 A 
HETATM    2  C11 UNL     1      15.142  -3.410 -10.578  1.00  0.00     0.009 A 
HETATM    3  C12 UNL     1      15.742  -2.323  -9.959  1.00  0.00     0.013 A 
HETATM    4  C13 UNL     1      16.873  -1.760 -10.524  1.00  0.00    -0.026 A 
HETATM    5  C20 UNL     1      17.365  -2.306 -11.692  1.00  0.00     0.013 A 
HETATM    6  C21 UNL     1      16.749  -3.383 -12.283  1.00  0.00     0.009 A 
ENDROOT
BRANCH   1   7
HETATM    7  C9  UNL     1      15.058  -5.106 -12.461  1.00  0.00     0.158 C 
BRANCH   7   8
HETATM    8  N1  UNL     1      13.933  -4.837 -13.309  1.00  0.00    -0.385 N 
ATOM      9  H1  UNL     1      12.984  -4.825 -12.934  1.00  0.00     0.160 HD
BRANCH   8  10
HETATM   10  C8  UNL     1      14.176  -4.590 -14.677  1.00  0.00     0.034 A 
HETATM   11  C3  UNL     1      13.873  -3.349 -15.182  1.00  0.00    -0.032 A 
HETATM   12  C4  UNL     1      14.104  -3.105 -16.519  1.00  0.00     0.009 A 
HETATM   13  C5  UNL     1      14.630  -4.077 -17.348  1.00  0.00     0.001 A 
HETATM   14  C6  UNL     1      14.938  -5.335 -16.842  1.00  0.00     0.002 A 
HETATM   15  C7  UNL     1      14.711  -5.591 -15.505  1.00  0.00     0.029 A 
BRANCH  11  16
HETATM   16  C2  UNL     1      13.327  -2.320 -14.318  1.00  0.00     0.036 C 
HETATM   17  C1  UNL     1      14.287  -1.245 -13.905  1.00  0.00     0.010 C 
ENDBRANCH  11  16
ENDBRANCH   8  10
ENDBRANCH   7   8
ENDBRANCH   1   7
BRANCH   4  18
HETATM   18  C14 UNL     1      17.523  -0.613  -9.888  1.00  0.00    -0.026 A 
HETATM   19  C15 UNL     1      17.109   0.682 -10.113  1.00  0.00     0.012 A 
HETATM   20  C16 UNL     1      17.735   1.754  -9.502  1.00  0.00     0.001 A 
HETATM   21  C17 UNL     1      18.802   1.552  -8.646  1.00  0.00     0.000 A 
HETATM   22  C18 UNL     1      19.225   0.261  -8.414  1.00  0.00     0.001 A 
HETATM   23  C19 UNL     1      18.596  -0.785  -9.023  1.00  0.00     0.012 A 
ENDBRANCH   4  18
TORSDOF 5
ENDMDL
MODEL 3
REMARK VINA RESULT: -9.160913161      0.099      1.427
REMARK  5 active torsions:
REMARK  status: ('A' for Active; 'I' for Inactive)
REMARK    1  A    between atoms: C2_2  and  C3_3 
REMARK    2  A    between atoms: C8_8  and  N1_9 
REMARK    3  A    between atoms: N1_9  and  C9_11 
REMARK    4  A    between atoms: C9_11  and  C10_12 
REMARK    5  A    between atoms: C13_15  and  C14_16 
ROOT
HETATM    1  C10 UNL     1      15.673  -3.992 -11.869  1.00  0.00    -0.041 A 
HETATM    2  C11 UNL     1      16.803  -3.398 -12.353  1.00  0.00     0.009 A 
HETATM    3  C12 UNL     1      17.423  -2.318 -11.741  1.00  0.00     0.013 A 
HETATM    4  C13 UNL     1      16.886  -1.798 -10.577  1.00  0.00    -0.026 A 
HETATM    5  C20 UNL     1      15.745  -2.379 -10.064  1.00  0.00     0.013 A 
HETATM    6  C21 UNL     1      15.152  -3.448 -10.692  1.00  0.00     0.009 A 
ENDROOT
BRANCH   1   7
HETATM    7  C9  UNL     1      14.946  -5.122 -12.428  1.00  0.00     0.158 C 
BRANCH   7   8
HETATM    8  N1  UNL     1      13.854  -4.809 -13.305  1.00  0.00    -0.385 N 
ATOM      9  H1  UNL     1      12.899  -4.747 -12.951  1.00  0.00     0.160 HD
BRANCH   8  10
HETATM   10  C8  UNL     1      14.140  -4.589 -14.669  1.00  0.00     0.034 A 
HETATM   11  C3  UNL     1      13.868  -3.354 -15.204  1.00  0.00    -0.032 A 
HETATM   12  C4  UNL     1      14.140  -3.137 -16.538  1.00  0.00     0.009 A 
HETATM   13  C5  UNL     1      14.676  -4.130 -17.335  1.00  0.00     0.001 A 
HETATM   14  C6  UNL     1      14.952  -5.383 -16.798  1.00  0.00     0.002 A 
HETATM   15  C7  UNL     1      14.684  -5.612 -15.464  1.00  0.00     0.029 A 
BRANCH  11  16
HETATM   16  C2  UNL     1      13.311  -2.302 -14.374  1.00  0.00     0.036 C 
HETATM   17  C1  UNL     1      14.278  -1.244 -13.935  1.00  0.00     0.010 C 
ENDBRANCH  11  16
ENDBRANCH   8  10
ENDBRANCH   7   8
ENDBRANCH   1   7
BRANCH   4  18
HETATM   18  C14 UNL     1      17.523  -0.658  -9.915  1.00  0.00    -0.026 A 
HETATM   19  C15 UNL     1      17.108   0.638 -10.127  1.00  0.00     0.012 A 
HETATM   20  C16 UNL     1      17.722   1.703  -9.492  1.00  0.00     0.001 A 
HETATM   21  C17 UNL     1      18.776   1.492  -8.623  1.00  0.00     0.000 A 
HETATM   22  C18 UNL     1      19.200   0.200  -8.404  1.00  0.00     0.001 A 
HETATM   23  C19 UNL     1      18.584  -0.840  -9.036  1.00  0.00     0.012 A 
ENDBRANCH   4  18
TORSDOF 5
ENDMDL
MODEL 4
REMARK VINA RESULT: -9.145052145      0.082      1.008
REMARK  5 active torsions:
REMARK  status: ('A' for Active; 'I' for Inactive)
REMARK    1  A    between atoms: C2_2  and  C3_3 
REMARK    2  A    between atoms: C8_8  and  N1_9 
REMARK    3  A    between atoms: N1_9  and  C9_11 
REMARK    4  A    between atoms: C9_11  and  C10_12 
REMARK    5  A    between atoms: C13_15  and  C14_16 
ROOT
HETATM    1  C10 UNL     1      15.677  -3.985 -11.865  1.00  0.00    -0.041 A 
HETATM    2  C11 UNL     1      16.820  -3.409 -12.339  1.00  0.00     0.009 A 
HETATM    3  C12 UNL     1      17.443  -2.329 -11.729  1.00  0.00     0.013 A 
HETATM    4  C13 UNL     1      16.895  -1.790 -10.579  1.00  0.00    -0.026 A 
HETATM    5  C20 UNL     1      15.739  -2.353 -10.077  1.00  0.00     0.013 A 
HETATM    6  C21 UNL     1      15.144  -3.422 -10.702  1.00  0.00     0.009 A 
ENDROOT
BRANCH   1   7
HETATM    7  C9  UNL     1      14.945  -5.113 -12.423  1.00  0.00     0.158 C 
BRANCH   7   8
HETATM    8  N1  UNL     1      13.858  -4.797 -13.305  1.00  0.00    -0.385 N 
ATOM      9  H1  UNL     1      12.902  -4.732 -12.955  1.00  0.00     0.160 HD
BRANCH   8  10
HETATM   10  C8  UNL     1      14.150  -4.579 -14.668  1.00  0.00     0.034 A 
HETATM   11  C3  UNL     1      13.877  -3.345 -15.206  1.00  0.00    -0.032 A 
HETATM   12  C4  UNL     1      14.156  -3.130 -16.539  1.00  0.00     0.009 A 
HETATM   13  C5  UNL     1      14.699  -4.123 -17.331  1.00  0.00     0.001 A 
HETATM   14  C6  UNL     1      14.976  -5.374 -16.791  1.00  0.00     0.002 A 
HETATM   15  C7  UNL     1      14.701  -5.602 -15.458  1.00  0.00     0.029 A 
BRANCH  11  16
HETATM   16  C2  UNL     1      13.314  -2.294 -14.381  1.00  0.00     0.036 C 
HETATM   17  C1  UNL     1      14.276  -1.234 -13.936  1.00  0.00     0.010 C 
ENDBRANCH  11  16
ENDBRANCH   8  10
ENDBRANCH   7   8
ENDBRANCH   1   7
BRANCH   4  18
HETATM   18  C14 UNL     1      17.534  -0.651  -9.920  1.00  0.00    -0.026 A 
HETATM   19  C15 UNL     1      18.586  -0.806  -9.045  1.00  0.00     0.012 A 
HETATM   20  C16 UNL     1      19.179   0.284  -8.431  1.00  0.00     0.001 A 
HETATM   21  C17 UNL     1      18.726   1.565  -8.682  1.00  0.00     0.000 A 
HETATM   22  C18 UNL     1      17.674   1.733  -9.556  1.00  0.00     0.001 A 
HETATM   23  C19 UNL     1      17.101   0.649 -10.153  1.00  0.00     0.012 A 
ENDBRANCH   4  18
TORSDOF 5
ENDMDL
MODEL 5
REMARK VINA RESULT: -8.926980874      1.139      2.378
REMARK  5 active torsions:
REMARK  status: ('A' for Active; 'I' for Inactive)
REMARK    1  A    between atoms: C2_2  and  C3_3 
REMARK    2  A    between atoms: C8_8  and  N1_9 
REMARK    3  A    between atoms: N1_9  and  C9_11 
REMARK    4  A    between atoms: C9_11  and  C10_12 
REMARK    5  A    between atoms: C13_15  and  C14_16 
ROOT
HETATM    1  C10 UNL     1      14.936  -1.210 -12.609  1.00  0.00    -0.041 A 
HETATM    2  C11 UNL     1      14.809  -0.038 -11.922  1.00  0.00     0.009 A 
HETATM    3  C12 UNL     1      15.716   0.389 -10.962  1.00  0.00     0.013 A 
HETATM    4  C13 UNL     1      16.814  -0.399 -10.668  1.00  0.00    -0.026 A 
HETATM    5  C20 UNL     1      16.968  -1.590 -11.348  1.00  0.00     0.013 A 
HETATM    6  C21 UNL     1      16.054  -1.987 -12.295  1.00  0.00     0.009 A 
ENDROOT
BRANCH   1   7
HETATM    7  C9  UNL     1      14.048  -1.750 -13.629  1.00  0.00     0.158 C 
BRANCH   7   8
HETATM    8  N1  UNL     1      13.855  -3.171 -13.622  1.00  0.00    -0.385 N 
ATOM      9  H1  UNL     1      13.453  -3.642 -12.810  1.00  0.00     0.160 HD
BRANCH   8  10
HETATM   10  C8  UNL     1      14.237  -3.900 -14.768  1.00  0.00     0.034 A 
HETATM   11  C3  UNL     1      14.774  -5.153 -14.599  1.00  0.00    -0.032 A 
HETATM   12  C4  UNL     1      15.153  -5.866 -15.716  1.00  0.00     0.009 A 
HETATM   13  C5  UNL     1      15.001  -5.347 -16.988  1.00  0.00     0.001 A 
HETATM   14  C6  UNL     1      14.458  -4.079 -17.164  1.00  0.00     0.002 A 
HETATM   15  C7  UNL     1      14.075  -3.356 -16.053  1.00  0.00     0.029 A 
BRANCH  11  16
HETATM   16  C2  UNL     1      14.932  -5.709 -13.268  1.00  0.00     0.036 C 
HETATM   17  C1  UNL     1      16.332  -5.723 -12.734  1.00  0.00     0.010 C 
ENDBRANCH  11  16
ENDBRANCH   8  10
ENDBRANCH   7   8
ENDBRANCH   1   7
BRANCH   4  18
HETATM   18  C14 UNL     1      17.783   0.031  -9.659  1.00  0.00    -0.026 A 
HETATM   19  C15 UNL     1      18.648  -0.852  -9.051  1.00  0.00     0.012 A 
HETATM   20  C16 UNL     1      19.558  -0.428  -8.098  1.00  0.00     0.001 A 
HETATM   21  C17 UNL     1      19.621   0.903  -7.729  1.00  0.00     0.000 A 
HETATM   22  C18 UNL     1      18.760   1.795  -8.330  1.00  0.00     0.001 A 
HETATM   23  C19 UNL     1      17.870   1.361  -9.268  1.00  0.00     0.012 A 
ENDBRANCH   4  18
TORSDOF 5
ENDMDL
