MODEL 1
REMARK VINA RESULT: -7.468792125      0.000      0.000
REMARK  5 active torsions:
REMARK  status: ('A' for Active; 'I' for Inactive)
REMARK    1  A    between atoms: C1_2  and  C2_4 
REMARK    2  A    between atoms: C2_4  and  C3_5 
REMARK    3  A    between atoms: C3_5  and  N1_6 
REMARK       I    between atoms: N1_6  and  C4_8 
REMARK       I    between atoms: C4_8  and  N2_10 
REMARK    4  A    between atoms: C7_13  and  C8_14 
REMARK       I    between atoms: C8_14  and  N3_16 
REMARK    5  A    between atoms: N3_16  and  C9_18 
ROOT
HETATM    1  N1  UNL     1      21.776   3.847  56.197  1.00  0.00    -0.342 N 
ATOM      2  H1  UNL     1      21.421   4.357  57.006  1.00  0.00     0.164 HD
HETATM    3  C4  UNL     1      22.323   2.579  56.428  1.00  0.00     0.318 C 
HETATM    4  O3  UNL     1      22.772   1.917  55.471  1.00  0.00    -0.247 OA
HETATM    5  N2  UNL     1      22.384   2.023  57.726  1.00  0.00    -0.334 N 
HETATM    6  C5  UNL     1      22.952   0.703  57.981  1.00  0.00     0.128 C 
HETATM    7  C6  UNL     1      23.896   0.713  59.163  1.00  0.00     0.034 C 
HETATM    8  C7  UNL     1      23.337   1.434  60.345  1.00  0.00     0.081 C 
HETATM    9  C15 UNL     1      21.888   1.825  60.060  1.00  0.00     0.034 C 
HETATM   10  C16 UNL     1      21.880   2.742  58.885  1.00  0.00     0.128 C 
ENDROOT
BRANCH   8  11
HETATM   11  C8  UNL     1      24.066   2.688  60.657  1.00  0.00     0.222 C 
HETATM   12  O4  UNL     1      23.569   3.467  61.507  1.00  0.00    -0.273 OA
HETATM   13  N3  UNL     1      25.280   3.045  60.052  1.00  0.00    -0.356 N 
ATOM     14  H3  UNL     1      25.679   2.407  59.363  1.00  0.00     0.162 HD
BRANCH  13  15
HETATM   15  C9  UNL     1      26.001   4.267  60.347  1.00  0.00     0.084 C 
HETATM   16  C10 UNL     1      25.663   5.267  59.288  1.00  0.00     0.025 C 
HETATM   17  C11 UNL     1      26.634   6.438  59.304  1.00  0.00     0.002 C 
HETATM   18  C12 UNL     1      27.986   5.844  58.943  1.00  0.00     0.000 C 
HETATM   19  C13 UNL     1      28.407   4.970  60.068  1.00  0.00     0.002 C 
HETATM   20  C14 UNL     1      27.434   3.951  60.501  1.00  0.00     0.025 C 
ENDBRANCH  13  15
ENDBRANCH   8  11
BRANCH   1  21
HETATM   21  C3  UNL     1      21.673   4.488  54.922  1.00  0.00     0.135 C 
BRANCH  21  22
HETATM   22  C2  UNL     1      22.546   5.699  54.763  1.00  0.00     0.133 C 
BRANCH  22  23
HETATM   23  C1  UNL     1      23.819   5.294  54.150  1.00  0.00     0.174 C 
HETATM   24  O1  UNL     1      24.628   4.585  54.773  1.00  0.00    -0.648 OA
HETATM   25  O2  UNL     1      24.119   5.702  52.869  1.00  0.00    -0.648 OA
ENDBRANCH  22  23
ENDBRANCH  21  22
ENDBRANCH   1  21
TORSDOF 5
ENDMDL
MODEL 2
REMARK VINA RESULT: -7.448781433      5.642      8.778
REMARK  5 active torsions:
REMARK  status: ('A' for Active; 'I' for Inactive)
REMARK    1  A    between atoms: C1_2  and  C2_4 
REMARK    2  A    between atoms: C2_4  and  C3_5 
REMARK    3  A    between atoms: C3_5  and  N1_6 
REMARK       I    between atoms: N1_6  and  C4_8 
REMARK       I    between atoms: C4_8  and  N2_10 
REMARK    4  A    between atoms: C7_13  and  C8_14 
REMARK       I    between atoms: C8_14  and  N3_16 
REMARK    5  A    between atoms: N3_16  and  C9_18 
ROOT
HETATM    1  N1  UNL     1      27.343   6.030  60.014  1.00  0.00    -0.342 N 
ATOM      2  H1  UNL     1      28.187   5.762  60.520  1.00  0.00     0.164 HD
HETATM    3  C4  UNL     1      27.426   7.149  59.177  1.00  0.00     0.318 C 
HETATM    4  O3  UNL     1      26.419   7.518  58.538  1.00  0.00    -0.247 OA
HETATM    5  N2  UNL     1      28.626   7.883  59.035  1.00  0.00    -0.334 N 
HETATM    6  C5  UNL     1      28.725   9.052  58.166  1.00  0.00     0.128 C 
HETATM    7  C6  UNL     1      29.423  10.206  58.851  1.00  0.00     0.034 C 
HETATM    8  C7  UNL     1      30.674   9.793  59.553  1.00  0.00     0.081 C 
HETATM    9  C15 UNL     1      30.969   8.327  59.239  1.00  0.00     0.034 C 
HETATM   10  C16 UNL     1      29.834   7.509  59.751  1.00  0.00     0.128 C 
ENDROOT
BRANCH   8  11
HETATM   11  C8  UNL     1      30.574   9.905  61.029  1.00  0.00     0.222 C 
HETATM   12  O4  UNL     1      29.497  10.325  61.520  1.00  0.00    -0.273 OA
HETATM   13  N3  UNL     1      31.618   9.564  61.901  1.00  0.00    -0.356 N 
ATOM     14  H3  UNL     1      32.489   9.223  61.496  1.00  0.00     0.162 HD
BRANCH  13  15
HETATM   15  C9  UNL     1      31.533   9.670  63.344  1.00  0.00     0.084 C 
HETATM   16  C10 UNL     1      32.621  10.588  63.803  1.00  0.00     0.025 C 
HETATM   17  C11 UNL     1      32.841  10.477  65.304  1.00  0.00     0.002 C 
HETATM   18  C12 UNL     1      33.327   9.056  65.536  1.00  0.00     0.000 C 
HETATM   19  C13 UNL     1      32.196   8.140  65.235  1.00  0.00     0.002 C 
HETATM   20  C14 UNL     1      31.547   8.314  63.923  1.00  0.00     0.025 C 
ENDBRANCH  13  15
ENDBRANCH   8  11
BRANCH   1  21
HETATM   21  C3  UNL     1      26.175   5.230  60.219  1.00  0.00     0.135 C 
BRANCH  21  22
HETATM   22  C2  UNL     1      26.389   4.032  61.099  1.00  0.00     0.133 C 
BRANCH  22  23
HETATM   23  C1  UNL     1      27.163   3.027  60.356  1.00  0.00     0.174 C 
HETATM   24  O1  UNL     1      28.309   3.282  59.947  1.00  0.00    -0.648 OA
HETATM   25  O2  UNL     1      26.614   1.788  60.112  1.00  0.00    -0.648 OA
ENDBRANCH  22  23
ENDBRANCH  21  22
ENDBRANCH   1  21
TORSDOF 5
ENDMDL
MODEL 3
REMARK VINA RESULT: -7.415670979      5.661      9.008
REMARK  5 active torsions:
REMARK  status: ('A' for Active; 'I' for Inactive)
REMARK    1  A    between atoms: C1_2  and  C2_4 
REMARK    2  A    between atoms: C2_4  and  C3_5 
REMARK    3  A    between atoms: C3_5  and  N1_6 
REMARK       I    between atoms: N1_6  and  C4_8 
REMARK       I    between atoms: C4_8  and  N2_10 
REMARK    4  A    between atoms: C7_13  and  C8_14 
REMARK       I    between atoms: C8_14  and  N3_16 
REMARK    5  A    between atoms: N3_16  and  C9_18 
ROOT
HETATM    1  N1  UNL     1      27.735   6.123  59.991  1.00  0.00    -0.342 N 
ATOM      2  H1  UNL     1      28.624   5.903  60.443  1.00  0.00     0.164 HD
HETATM    3  C4  UNL     1      27.675   7.300  59.237  1.00  0.00     0.318 C 
HETATM    4  O3  UNL     1      26.610   7.614  58.667  1.00  0.00    -0.247 OA
HETATM    5  N2  UNL     1      28.794   8.154  59.102  1.00  0.00    -0.334 N 
HETATM    6  C5  UNL     1      28.744   9.384  58.319  1.00  0.00     0.128 C 
HETATM    7  C6  UNL     1      29.362  10.550  59.059  1.00  0.00     0.034 C 
HETATM    8  C7  UNL     1      30.678  10.211  59.679  1.00  0.00     0.081 C 
HETATM    9  C15 UNL     1      31.093   8.806  59.247  1.00  0.00     0.034 C 
HETATM   10  C16 UNL     1      30.064   7.848  59.741  1.00  0.00     0.128 C 
ENDROOT
BRANCH   8  11
HETATM   11  C8  UNL     1      30.635  10.210  61.162  1.00  0.00     0.222 C 
HETATM   12  O4  UNL     1      29.585  10.604  61.725  1.00  0.00    -0.273 OA
HETATM   13  N3  UNL     1      31.707   9.791  61.964  1.00  0.00    -0.356 N 
ATOM     14  H3  UNL     1      32.557   9.471  61.500  1.00  0.00     0.162 HD
BRANCH  13  15
HETATM   15  C9  UNL     1      31.678   9.786  63.413  1.00  0.00     0.084 C 
HETATM   16  C10 UNL     1      32.937  10.430  63.900  1.00  0.00     0.025 C 
HETATM   17  C11 UNL     1      33.166  10.149  65.377  1.00  0.00     0.002 C 
HETATM   18  C12 UNL     1      33.367   8.645  65.474  1.00  0.00     0.000 C 
HETATM   19  C13 UNL     1      32.070   7.998  65.147  1.00  0.00     0.002 C 
HETATM   20  C14 UNL     1      31.437   8.408  63.881  1.00  0.00     0.025 C 
ENDBRANCH  13  15
ENDBRANCH   8  11
BRANCH   1  21
HETATM   21  C3  UNL     1      26.658   5.202  60.183  1.00  0.00     0.135 C 
BRANCH  21  22
HETATM   22  C2  UNL     1      27.059   3.896  60.807  1.00  0.00     0.133 C 
BRANCH  22  23
HETATM   23  C1  UNL     1      25.847   3.156  61.186  1.00  0.00     0.174 C 
HETATM   24  O1  UNL     1      25.832   1.913  61.171  1.00  0.00    -0.648 OA
HETATM   25  O2  UNL     1      24.718   3.846  61.565  1.00  0.00    -0.648 OA
ENDBRANCH  22  23
ENDBRANCH  21  22
ENDBRANCH   1  21
TORSDOF 5
ENDMDL
MODEL 4
REMARK VINA RESULT: -7.373551542      5.918      9.014
REMARK  5 active torsions:
REMARK  status: ('A' for Active; 'I' for Inactive)
REMARK    1  A    between atoms: C1_2  and  C2_4 
REMARK    2  A    between atoms: C2_4  and  C3_5 
REMARK    3  A    between atoms: C3_5  and  N1_6 
REMARK       I    between atoms: N1_6  and  C4_8 
REMARK       I    between atoms: C4_8  and  N2_10 
REMARK    4  A    between atoms: C7_13  and  C8_14 
REMARK       I    between atoms: C8_14  and  N3_16 
REMARK    5  A    between atoms: N3_16  and  C9_18 
ROOT
HETATM    1  N1  UNL     1      27.176   6.604  59.649  1.00  0.00    -0.342 N 
ATOM      2  H1  UNL     1      27.997   6.157  60.059  1.00  0.00     0.164 HD
HETATM    3  C4  UNL     1      27.338   7.899  59.143  1.00  0.00     0.318 C 
HETATM    4  O3  UNL     1      26.363   8.489  58.633  1.00  0.00    -0.247 OA
HETATM    5  N2  UNL     1      28.583   8.567  59.195  1.00  0.00    -0.334 N 
HETATM    6  C5  UNL     1      28.765   9.917  58.672  1.00  0.00     0.128 C 
HETATM    7  C6  UNL     1      29.527  10.798  59.638  1.00  0.00     0.034 C 
HETATM    8  C7  UNL     1      30.742  10.133  60.194  1.00  0.00     0.081 C 
HETATM    9  C15 UNL     1      30.948   8.790  59.496  1.00  0.00     0.034 C 
HETATM   10  C16 UNL     1      29.758   7.938  59.777  1.00  0.00     0.128 C 
ENDROOT
BRANCH   8  11
HETATM   11  C8  UNL     1      30.633   9.851  61.646  1.00  0.00     0.222 C 
HETATM   12  O4  UNL     1      29.496   9.902  62.177  1.00  0.00    -0.273 OA
HETATM   13  N3  UNL     1      31.734   9.530  62.455  1.00  0.00    -0.356 N 
ATOM     14  H3  UNL     1      32.654   9.489  62.018  1.00  0.00     0.162 HD
BRANCH  13  15
HETATM   15  C9  UNL     1      31.640   9.252  63.875  1.00  0.00     0.084 C 
HETATM   16  C10 UNL     1      31.618  10.562  64.597  1.00  0.00     0.025 C 
HETATM   17  C11 UNL     1      31.885  10.376  66.083  1.00  0.00     0.002 C 
HETATM   18  C12 UNL     1      33.305   9.840  66.173  1.00  0.00     0.000 C 
HETATM   19  C13 UNL     1      33.303   8.469  65.600  1.00  0.00     0.002 C 
HETATM   20  C14 UNL     1      32.724   8.326  64.252  1.00  0.00     0.025 C 
ENDBRANCH  13  15
ENDBRANCH   8  11
BRANCH   1  21
HETATM   21  C3  UNL     1      25.958   5.854  59.640  1.00  0.00     0.135 C 
BRANCH  21  22
HETATM   22  C2  UNL     1      26.146   4.365  59.590  1.00  0.00     0.133 C 
BRANCH  22  23
HETATM   23  C1  UNL     1      27.003   3.955  60.712  1.00  0.00     0.174 C 
HETATM   24  O1  UNL     1      26.515   3.413  61.719  1.00  0.00    -0.648 OA
HETATM   25  O2  UNL     1      28.361   4.170  60.647  1.00  0.00    -0.648 OA
ENDBRANCH  22  23
ENDBRANCH  21  22
ENDBRANCH   1  21
TORSDOF 5
ENDMDL
MODEL 5
REMARK VINA RESULT: -7.370165415      5.443      8.641
REMARK  5 active torsions:
REMARK  status: ('A' for Active; 'I' for Inactive)
REMARK    1  A    between atoms: C1_2  and  C2_4 
REMARK    2  A    between atoms: C2_4  and  C3_5 
REMARK    3  A    between atoms: C3_5  and  N1_6 
REMARK       I    between atoms: N1_6  and  C4_8 
REMARK       I    between atoms: C4_8  and  N2_10 
REMARK    4  A    between atoms: C7_13  and  C8_14 
REMARK       I    between atoms: C8_14  and  N3_16 
REMARK    5  A    between atoms: N3_16  and  C9_18 
ROOT
HETATM    1  N1  UNL     1      28.469   4.606  60.117  1.00  0.00    -0.342 N 
ATOM      2  H1  UNL     1      29.395   4.580  60.546  1.00  0.00     0.164 HD
HETATM    3  C4  UNL     1      28.113   5.775  59.434  1.00  0.00     0.318 C 
HETATM    4  O3  UNL     1      26.991   5.856  58.894  1.00  0.00    -0.247 OA
HETATM    5  N2  UNL     1      28.994   6.877  59.338  1.00  0.00    -0.334 N 
HETATM    6  C5  UNL     1      28.634   8.101  58.630  1.00  0.00     0.128 C 
HETATM    7  C6  UNL     1      28.976   9.338  59.431  1.00  0.00     0.034 C 
HETATM    8  C7  UNL     1      30.348   9.289  60.016  1.00  0.00     0.081 C 
HETATM    9  C15 UNL     1      31.075   8.049  59.497  1.00  0.00     0.034 C 
HETATM   10  C16 UNL     1      30.315   6.848  59.945  1.00  0.00     0.128 C 
ENDROOT
BRANCH   8  11
HETATM   11  C8  UNL     1      30.343   9.196  61.496  1.00  0.00     0.222 C 
HETATM   12  O4  UNL     1      29.252   8.962  62.072  1.00  0.00    -0.273 OA
HETATM   13  N3  UNL     1      31.493   9.356  62.284  1.00  0.00    -0.356 N 
ATOM     14  H3  UNL     1      32.376   9.546  61.810  1.00  0.00     0.162 HD
BRANCH  13  15
HETATM   15  C9  UNL     1      31.500   9.269  63.731  1.00  0.00     0.084 C 
HETATM   16  C10 UNL     1      31.436  10.661  64.275  1.00  0.00     0.025 C 
HETATM   17  C11 UNL     1      31.801  10.693  65.752  1.00  0.00     0.002 C 
HETATM   18  C12 UNL     1      33.255  10.254  65.816  1.00  0.00     0.000 C 
HETATM   19  C13 UNL     1      33.308   8.820  65.430  1.00  0.00     0.002 C 
HETATM   20  C14 UNL     1      32.661   8.464  64.154  1.00  0.00     0.025 C 
ENDBRANCH  13  15
ENDBRANCH   8  11
BRANCH   1  21
HETATM   21  C3  UNL     1      27.646   3.446  60.265  1.00  0.00     0.135 C 
BRANCH  21  22
HETATM   22  C2  UNL     1      26.723   3.486  61.449  1.00  0.00     0.133 C 
BRANCH  22  23
HETATM   23  C1  UNL     1      25.342   3.649  60.971  1.00  0.00     0.174 C 
HETATM   24  O1  UNL     1      24.476   4.167  61.697  1.00  0.00    -0.648 OA
HETATM   25  O2  UNL     1      25.003   3.225  59.706  1.00  0.00    -0.648 OA
ENDBRANCH  22  23
ENDBRANCH  21  22
ENDBRANCH   1  21
TORSDOF 5
ENDMDL
