MODEL 1
REMARK VINA RESULT: -7.450013822      0.000      0.000
REMARK  6 active torsions:
REMARK  status: ('A' for Active; 'I' for Inactive)
REMARK    1  A    between atoms: C1_2  and  C2_4 
REMARK    2  A    between atoms: C4_6  and  C5_7 
REMARK       I    between atoms: C5_7  and  N2_9 
REMARK    3  A    between atoms: N2_9  and  C6_11 
REMARK    4  A    between atoms: C6_11  and  C7_12 
REMARK    5  A    between atoms: C7_12  and  C8_13 
REMARK    6  A    between atoms: C17_22  and  O2_23 
ROOT
HETATM    1  C8  UNL     1      27.252   3.605  59.663  1.00  0.00    -0.005 C 
HETATM    2  C9  UNL     1      26.034   4.478  59.417  1.00  0.00    -0.009 C 
HETATM    3  C10 UNL     1      25.413   5.006  60.668  1.00  0.00     0.012 C 
HETATM    4  C11 UNL     1      24.975   3.867  61.560  1.00  0.00     0.015 C 
HETATM    5  C12 UNL     1      26.225   3.083  61.901  1.00  0.00     0.012 C 
HETATM    6  C13 UNL     1      26.887   2.554  60.649  1.00  0.00    -0.009 C 
HETATM    7  C14 UNL     1      25.878   1.623  59.959  1.00  0.00     0.012 C 
HETATM    8  C15 UNL     1      24.664   2.438  59.610  1.00  0.00     0.015 C 
HETATM    9  C16 UNL     1      25.014   3.612  58.712  1.00  0.00     0.012 C 
HETATM   10  C17 UNL     1      24.027   2.927  60.873  1.00  0.00     0.126 C 
ENDROOT
BRANCH   1  11
HETATM   11  C7  UNL     1      28.461   4.427  59.991  1.00  0.00     0.025 C 
BRANCH  11  12
HETATM   12  C6  UNL     1      28.710   5.457  58.922  1.00  0.00     0.123 C 
BRANCH  12  13
HETATM   13  N2  UNL     1      29.310   6.672  59.396  1.00  0.00    -0.361 N 
HETATM   14  C5  UNL     1      28.524   7.791  59.788  1.00  0.00     0.222 C 
HETATM   15  O1  UNL     1      27.277   7.815  59.751  1.00  0.00    -0.273 OA
ATOM     16  H2  UNL     1      30.326   6.735  59.455  1.00  0.00     0.162 HD
BRANCH  14  17
HETATM   17  C4  UNL     1      29.251   9.020  60.276  1.00  0.00     0.089 A 
HETATM   18  C2  UNL     1      30.094   8.798  61.479  1.00  0.00     0.058 A 
HETATM   19  C3  UNL     1      30.759   8.911  60.108  1.00  0.00     0.027 A 
BRANCH  18  20
HETATM   20  C1  UNL     1      30.439   9.937  62.368  1.00  0.00     0.095 C 
HETATM   21  N1  UNL     1      29.631  11.086  62.512  1.00  0.00    -0.094 NA
HETATM   22  S1  UNL     1      31.822   9.863  63.223  1.00  0.00    -0.068 SA
ENDBRANCH  18  20
ENDBRANCH  14  17
ENDBRANCH  12  13
ENDBRANCH  11  12
ENDBRANCH   1  11
BRANCH  10  23
HETATM   23  O2  UNL     1      22.764   3.456  60.685  1.00  0.00    -0.395 OA
ATOM     24  H2  UNL     1      22.224   3.437  61.467  1.00  0.00     0.210 HD
ENDBRANCH  10  23
TORSDOF 6
ENDMDL
MODEL 2
REMARK VINA RESULT: -7.414954850      3.638      8.412
REMARK  6 active torsions:
REMARK  status: ('A' for Active; 'I' for Inactive)
REMARK    1  A    between atoms: C1_2  and  C2_4 
REMARK    2  A    between atoms: C4_6  and  C5_7 
REMARK       I    between atoms: C5_7  and  N2_9 
REMARK    3  A    between atoms: N2_9  and  C6_11 
REMARK    4  A    between atoms: C6_11  and  C7_12 
REMARK    5  A    between atoms: C7_12  and  C8_13 
REMARK    6  A    between atoms: C17_22  and  O2_23 
ROOT
HETATM    1  C8  UNL     1      31.568   9.854  62.756  1.00  0.00    -0.005 C 
HETATM    2  C9  UNL     1      31.719   8.625  63.636  1.00  0.00    -0.009 C 
HETATM    3  C10 UNL     1      30.817   8.626  64.826  1.00  0.00     0.012 C 
HETATM    4  C11 UNL     1      31.091   9.834  65.693  1.00  0.00     0.015 C 
HETATM    5  C12 UNL     1      30.808  11.051  64.836  1.00  0.00     0.012 C 
HETATM    6  C13 UNL     1      31.694  11.064  63.610  1.00  0.00    -0.009 C 
HETATM    7  C14 UNL     1      33.149  11.117  64.102  1.00  0.00     0.012 C 
HETATM    8  C15 UNL     1      33.403   9.884  64.923  1.00  0.00     0.015 C 
HETATM    9  C16 UNL     1      33.149   8.615  64.127  1.00  0.00     0.012 C 
HETATM   10  C17 UNL     1      32.524   9.917  66.134  1.00  0.00     0.126 C 
ENDROOT
BRANCH   1  11
HETATM   11  C7  UNL     1      30.338   9.772  61.904  1.00  0.00     0.025 C 
BRANCH  11  12
HETATM   12  C6  UNL     1      30.667   9.205  60.549  1.00  0.00     0.123 C 
BRANCH  12  13
HETATM   13  N2  UNL     1      30.272   7.837  60.366  1.00  0.00    -0.361 N 
HETATM   14  C5  UNL     1      28.928   7.479  60.069  1.00  0.00     0.222 C 
HETATM   15  O1  UNL     1      27.997   8.302  59.947  1.00  0.00    -0.273 OA
ATOM     16  H2  UNL     1      30.974   7.102  60.451  1.00  0.00     0.162 HD
BRANCH  14  17
HETATM   17  C4  UNL     1      28.617   6.013  59.891  1.00  0.00     0.089 A 
HETATM   18  C2  UNL     1      27.204   5.648  60.165  1.00  0.00     0.058 A 
HETATM   19  C3  UNL     1      27.684   5.753  58.718  1.00  0.00     0.027 A 
BRANCH  18  20
HETATM   20  C1  UNL     1      26.854   4.254  60.542  1.00  0.00     0.095 C 
HETATM   21  N1  UNL     1      27.767   3.179  60.485  1.00  0.00    -0.094 NA
HETATM   22  S1  UNL     1      25.338   3.944  61.047  1.00  0.00    -0.068 SA
ENDBRANCH  18  20
ENDBRANCH  14  17
ENDBRANCH  12  13
ENDBRANCH  11  12
ENDBRANCH   1  11
BRANCH  10  23
HETATM   23  O2  UNL     1      32.863   8.976  67.088  1.00  0.00    -0.395 OA
ATOM     24  H2  UNL     1      32.657   9.245  67.976  1.00  0.00     0.210 HD
ENDBRANCH  10  23
TORSDOF 6
ENDMDL
MODEL 3
REMARK VINA RESULT: -7.277350381      2.975      3.403
REMARK  6 active torsions:
REMARK  status: ('A' for Active; 'I' for Inactive)
REMARK    1  A    between atoms: C1_2  and  C2_4 
REMARK    2  A    between atoms: C4_6  and  C5_7 
REMARK       I    between atoms: C5_7  and  N2_9 
REMARK    3  A    between atoms: N2_9  and  C6_11 
REMARK    4  A    between atoms: C6_11  and  C7_12 
REMARK    5  A    between atoms: C7_12  and  C8_13 
REMARK    6  A    between atoms: C17_22  and  O2_23 
ROOT
HETATM    1  C8  UNL     1      27.265   4.028  59.774  1.00  0.00    -0.005 C 
HETATM    2  C9  UNL     1      25.966   4.803  59.632  1.00  0.00    -0.009 C 
HETATM    3  C10 UNL     1      25.271   5.050  60.929  1.00  0.00     0.012 C 
HETATM    4  C11 UNL     1      24.939   3.740  61.607  1.00  0.00     0.015 C 
HETATM    5  C12 UNL     1      26.258   3.040  61.858  1.00  0.00     0.012 C 
HETATM    6  C13 UNL     1      26.994   2.796  60.560  1.00  0.00    -0.009 C 
HETATM    7  C14 UNL     1      26.100   1.896  59.693  1.00  0.00     0.012 C 
HETATM    8  C15 UNL     1      24.814   2.633  59.439  1.00  0.00     0.015 C 
HETATM    9  C16 UNL     1      25.056   3.969  58.758  1.00  0.00     0.012 C 
HETATM   10  C17 UNL     1      24.106   2.838  60.742  1.00  0.00     0.126 C 
ENDROOT
BRANCH   1  11
HETATM   11  C7  UNL     1      28.374   4.901  60.275  1.00  0.00     0.025 C 
BRANCH  11  12
HETATM   12  C6  UNL     1      29.250   5.353  59.137  1.00  0.00     0.123 C 
BRANCH  12  13
HETATM   13  N2  UNL     1      28.647   6.331  58.277  1.00  0.00    -0.361 N 
HETATM   14  C5  UNL     1      28.644   7.715  58.604  1.00  0.00     0.222 C 
HETATM   15  O1  UNL     1      29.150   8.188  59.642  1.00  0.00    -0.273 OA
ATOM     16  H2  UNL     1      28.210   6.026  57.407  1.00  0.00     0.162 HD
BRANCH  14  17
HETATM   17  C4  UNL     1      27.988   8.663  57.630  1.00  0.00     0.089 A 
HETATM   18  C2  UNL     1      26.645   9.141  58.048  1.00  0.00     0.058 A 
HETATM   19  C3  UNL     1      27.850  10.071  58.189  1.00  0.00     0.027 A 
BRANCH  18  20
HETATM   20  C1  UNL     1      25.676   9.626  57.032  1.00  0.00     0.095 C 
HETATM   21  N1  UNL     1      24.805  10.717  57.243  1.00  0.00    -0.094 NA
HETATM   22  S1  UNL     1      25.612   8.863  55.595  1.00  0.00    -0.068 SA
ENDBRANCH  18  20
ENDBRANCH  14  17
ENDBRANCH  12  13
ENDBRANCH  11  12
ENDBRANCH   1  11
BRANCH  10  23
HETATM   23  O2  UNL     1      22.798   3.261  60.599  1.00  0.00    -0.395 OA
ATOM     24  H2  UNL     1      22.310   3.266  61.414  1.00  0.00     0.210 HD
ENDBRANCH  10  23
TORSDOF 6
ENDMDL
MODEL 4
REMARK VINA RESULT: -7.261868599      1.631      1.755
REMARK  6 active torsions:
REMARK  status: ('A' for Active; 'I' for Inactive)
REMARK    1  A    between atoms: C1_2  and  C2_4 
REMARK    2  A    between atoms: C4_6  and  C5_7 
REMARK       I    between atoms: C5_7  and  N2_9 
REMARK    3  A    between atoms: N2_9  and  C6_11 
REMARK    4  A    between atoms: C6_11  and  C7_12 
REMARK    5  A    between atoms: C7_12  and  C8_13 
REMARK    6  A    between atoms: C17_22  and  O2_23 
ROOT
HETATM    1  C8  UNL     1      27.302   3.662  59.700  1.00  0.00    -0.005 C 
HETATM    2  C9  UNL     1      26.096   4.556  59.470  1.00  0.00    -0.009 C 
HETATM    3  C10 UNL     1      25.446   5.021  60.730  1.00  0.00     0.012 C 
HETATM    4  C11 UNL     1      24.979   3.840  61.550  1.00  0.00     0.015 C 
HETATM    5  C12 UNL     1      26.215   3.030  61.880  1.00  0.00     0.012 C 
HETATM    6  C13 UNL     1      26.906   2.563  60.619  1.00  0.00    -0.009 C 
HETATM    7  C14 UNL     1      25.908   1.677  59.856  1.00  0.00     0.012 C 
HETATM    8  C15 UNL     1      24.709   2.518  59.519  1.00  0.00     0.015 C 
HETATM    9  C16 UNL     1      25.089   3.736  58.694  1.00  0.00     0.012 C 
HETATM   10  C17 UNL     1      24.043   2.945  60.790  1.00  0.00     0.126 C 
ENDROOT
BRANCH   1  11
HETATM   11  C7  UNL     1      28.507   4.457  60.102  1.00  0.00     0.025 C 
BRANCH  11  12
HETATM   12  C6  UNL     1      29.002   5.290  58.950  1.00  0.00     0.123 C 
BRANCH  12  13
HETATM   13  N2  UNL     1      29.210   6.675  59.266  1.00  0.00    -0.361 N 
HETATM   14  C5  UNL     1      28.339   7.691  58.786  1.00  0.00     0.222 C 
HETATM   15  O1  UNL     1      27.344   7.474  58.064  1.00  0.00    -0.273 OA
ATOM     16  H2  UNL     1      30.004   6.938  59.851  1.00  0.00     0.162 HD
BRANCH  14  17
HETATM   17  C4  UNL     1      28.642   9.117  59.178  1.00  0.00     0.089 A 
HETATM   18  C2  UNL     1      29.838   9.695  58.514  1.00  0.00     0.058 A 
HETATM   19  C3  UNL     1      28.444  10.093  58.028  1.00  0.00     0.027 A 
BRANCH  18  20
HETATM   20  C1  UNL     1      30.561  10.832  59.140  1.00  0.00     0.095 C 
HETATM   21  N1  UNL     1      31.393  11.718  58.420  1.00  0.00    -0.094 NA
HETATM   22  S1  UNL     1      30.389  11.074  60.740  1.00  0.00    -0.068 SA
ENDBRANCH  18  20
ENDBRANCH  14  17
ENDBRANCH  12  13
ENDBRANCH  11  12
ENDBRANCH   1  11
BRANCH  10  23
HETATM   23  O2  UNL     1      22.788   3.492  60.599  1.00  0.00    -0.395 OA
ATOM     24  H2  UNL     1      22.115   3.097  61.141  1.00  0.00     0.210 HD
ENDBRANCH  10  23
TORSDOF 6
ENDMDL
MODEL 5
REMARK VINA RESULT: -7.190670367      2.190      3.236
REMARK  6 active torsions:
REMARK  status: ('A' for Active; 'I' for Inactive)
REMARK    1  A    between atoms: C1_2  and  C2_4 
REMARK    2  A    between atoms: C4_6  and  C5_7 
REMARK       I    between atoms: C5_7  and  N2_9 
REMARK    3  A    between atoms: N2_9  and  C6_11 
REMARK    4  A    between atoms: C6_11  and  C7_12 
REMARK    5  A    between atoms: C7_12  and  C8_13 
REMARK    6  A    between atoms: C17_22  and  O2_23 
ROOT
HETATM    1  C8  UNL     1      25.583   1.978  60.531  1.00  0.00    -0.005 C 
HETATM    2  C9  UNL     1      25.105   0.785  59.722  1.00  0.00    -0.009 C 
HETATM    3  C10 UNL     1      24.806   1.109  58.296  1.00  0.00     0.012 C 
HETATM    4  C11 UNL     1      23.730   2.167  58.210  1.00  0.00     0.015 C 
HETATM    5  C12 UNL     1      24.278   3.394  58.909  1.00  0.00     0.012 C 
HETATM    6  C13 UNL     1      24.610   3.088  60.352  1.00  0.00    -0.009 C 
HETATM    7  C14 UNL     1      23.304   2.655  61.037  1.00  0.00     0.012 C 
HETATM    8  C15 UNL     1      22.805   1.421  60.339  1.00  0.00     0.015 C 
HETATM    9  C16 UNL     1      23.830   0.300  60.374  1.00  0.00     0.012 C 
HETATM   10  C17 UNL     1      22.470   1.768  58.921  1.00  0.00     0.126 C 
ENDROOT
BRANCH   1  11
HETATM   11  C7  UNL     1      27.016   2.303  60.238  1.00  0.00     0.025 C 
BRANCH  11  12
HETATM   12  C6  UNL     1      27.506   3.408  61.135  1.00  0.00     0.123 C 
BRANCH  12  13
HETATM   13  N2  UNL     1      28.387   4.344  60.497  1.00  0.00    -0.361 N 
HETATM   14  C5  UNL     1      27.908   5.564  59.945  1.00  0.00     0.222 C 
HETATM   15  O1  UNL     1      26.710   5.917  59.963  1.00  0.00    -0.273 OA
ATOM     16  H2  UNL     1      29.382   4.130  60.439  1.00  0.00     0.162 HD
BRANCH  14  17
HETATM   17  C4  UNL     1      28.916   6.483  59.299  1.00  0.00     0.089 A 
HETATM   18  C2  UNL     1      29.358   7.611  60.159  1.00  0.00     0.058 A 
HETATM   19  C3  UNL     1      30.282   6.409  59.963  1.00  0.00     0.027 A 
BRANCH  18  20
HETATM   20  C1  UNL     1      29.906   8.847  59.543  1.00  0.00     0.095 C 
HETATM   21  N1  UNL     1      30.998   9.566  60.077  1.00  0.00    -0.094 NA
HETATM   22  S1  UNL     1      29.214   9.408  58.181  1.00  0.00    -0.068 SA
ENDBRANCH  18  20
ENDBRANCH  14  17
ENDBRANCH  12  13
ENDBRANCH  11  12
ENDBRANCH   1  11
BRANCH  10  23
HETATM   23  O2  UNL     1      21.754   0.783  58.267  1.00  0.00    -0.395 OA
ATOM     24  H2  UNL     1      21.260   1.104  57.522  1.00  0.00     0.210 HD
ENDBRANCH  10  23
TORSDOF 6
ENDMDL
