MODEL 1
REMARK VINA RESULT: -8.615164121      0.000      0.000
REMARK  5 active torsions:
REMARK  status: ('A' for Active; 'I' for Inactive)
REMARK       I    between atoms: C1_2  and  N3_14 
REMARK       I    between atoms: N2_3  and  C2_5 
REMARK    1  A    between atoms: C2_5  and  C3_7 
REMARK    2  A    between atoms: C3_7  and  C4_8 
REMARK    3  A    between atoms: N3_14  and  C10_16 
REMARK    4  A    between atoms: C10_16  and  C11_17 
REMARK       I    between atoms: C11_17  and  N4_19 
REMARK    5  A    between atoms: N4_19  and  C12_21 
ROOT
HETATM    1  N1  UNL     1      31.189   8.415  59.201  1.00  0.00    -0.063 NA
HETATM    2  C1  UNL     1      29.874   8.932  59.062  1.00  0.00     0.191 C 
HETATM    3  N2  UNL     1      29.279   9.526  60.017  1.00  0.00    -0.301 N 
ATOM      4  H2  UNL     1      28.335   9.870  59.842  1.00  0.00     0.171 HD
HETATM    5  C2  UNL     1      29.820   9.744  61.295  1.00  0.00     0.224 C 
HETATM    6  O1  UNL     1      29.839  10.902  61.798  1.00  0.00    -0.273 OA
HETATM    7  N3  UNL     1      29.187   8.765  57.802  1.00  0.00    -0.356 N 
ATOM      8  H3  UNL     1      29.687   8.778  56.913  1.00  0.00     0.162 HD
ENDROOT
BRANCH   7   9
HETATM    9  C10 UNL     1      27.769   8.582  57.865  1.00  0.00     0.225 C 
BRANCH   9  10
HETATM   10  C11 UNL     1      27.283   7.558  58.785  1.00  0.00     0.235 C 
HETATM   11  O2  UNL     1      26.561   7.982  59.762  1.00  0.00    -0.272 OA
HETATM   12  N4  UNL     1      27.526   6.163  58.709  1.00  0.00    -0.355 N 
ATOM     13  H4  UNL     1      28.092   5.779  57.952  1.00  0.00     0.162 HD
BRANCH  12  14
HETATM   14  C12 UNL     1      26.965   5.297  59.710  1.00  0.00     0.084 C 
HETATM   15  C13 UNL     1      25.631   4.678  59.284  1.00  0.00     0.025 C 
HETATM   16  C14 UNL     1      25.018   4.168  60.570  1.00  0.00     0.002 C 
HETATM   17  C15 UNL     1      25.870   3.224  61.326  1.00  0.00     0.000 C 
HETATM   18  C16 UNL     1      27.326   3.459  61.293  1.00  0.00     0.002 C 
HETATM   19  C17 UNL     1      27.851   4.122  60.063  1.00  0.00     0.025 C 
ENDBRANCH  12  14
ENDBRANCH   9  10
ENDBRANCH   7   9
BRANCH   5  20
HETATM   20  C3  UNL     1      30.401   8.640  62.142  1.00  0.00     0.108 C 
BRANCH  20  21
HETATM   21  C4  UNL     1      31.004   9.347  63.344  1.00  0.00    -0.006 C 
HETATM   22  C5  UNL     1      30.588   8.641  64.620  1.00  0.00     0.005 C 
HETATM   23  C6  UNL     1      31.034   9.480  65.785  1.00  0.00     0.000 C 
HETATM   24  C7  UNL     1      32.561   9.526  65.769  1.00  0.00     0.000 C 
HETATM   25  C8  UNL     1      33.063  10.088  64.465  1.00  0.00     0.000 C 
HETATM   26  C9  UNL     1      32.502   9.354  63.272  1.00  0.00     0.005 C 
ENDBRANCH  20  21
ENDBRANCH   5  20
TORSDOF 5
ENDMDL
MODEL 2
REMARK VINA RESULT: -8.561993668      1.807      2.270
REMARK  5 active torsions:
REMARK  status: ('A' for Active; 'I' for Inactive)
REMARK       I    between atoms: C1_2  and  N3_14 
REMARK       I    between atoms: N2_3  and  C2_5 
REMARK    1  A    between atoms: C2_5  and  C3_7 
REMARK    2  A    between atoms: C3_7  and  C4_8 
REMARK    3  A    between atoms: N3_14  and  C10_16 
REMARK    4  A    between atoms: C10_16  and  C11_17 
REMARK       I    between atoms: C11_17  and  N4_19 
REMARK    5  A    between atoms: N4_19  and  C12_21 
ROOT
HETATM    1  N1  UNL     1      30.928   9.575  59.595  1.00  0.00    -0.063 NA
HETATM    2  C1  UNL     1      30.284   8.425  60.122  1.00  0.00     0.191 C 
HETATM    3  N2  UNL     1      30.044   8.297  61.366  1.00  0.00    -0.301 N 
ATOM      4  H2  UNL     1      29.578   7.443  61.669  1.00  0.00     0.171 HD
HETATM    5  C2  UNL     1      30.373   9.242  62.353  1.00  0.00     0.224 C 
HETATM    6  O1  UNL     1      29.497   9.664  63.158  1.00  0.00    -0.273 OA
HETATM    7  N3  UNL     1      29.901   7.363  59.220  1.00  0.00    -0.356 N 
ATOM      8  H3  UNL     1      29.598   7.554  58.265  1.00  0.00     0.162 HD
ENDROOT
BRANCH   7   9
HETATM    9  C10 UNL     1      29.970   6.029  59.736  1.00  0.00     0.225 C 
BRANCH   9  10
HETATM   10  C11 UNL     1      28.739   5.246  59.687  1.00  0.00     0.235 C 
HETATM   11  O2  UNL     1      27.879   5.610  58.802  1.00  0.00    -0.272 OA
HETATM   12  N4  UNL     1      28.404   4.138  60.506  1.00  0.00    -0.355 N 
ATOM     13  H4  UNL     1      29.054   3.810  61.221  1.00  0.00     0.162 HD
BRANCH  12  14
HETATM   14  C12 UNL     1      27.140   3.482  60.317  1.00  0.00     0.084 C 
HETATM   15  C13 UNL     1      27.270   1.963  60.177  1.00  0.00     0.025 C 
HETATM   16  C14 UNL     1      25.950   1.519  59.583  1.00  0.00     0.002 C 
HETATM   17  C15 UNL     1      24.759   1.920  60.364  1.00  0.00     0.000 C 
HETATM   18  C16 UNL     1      24.812   3.226  61.046  1.00  0.00     0.002 C 
HETATM   19  C17 UNL     1      26.169   3.691  61.460  1.00  0.00     0.025 C 
ENDBRANCH  12  14
ENDBRANCH   9  10
ENDBRANCH   7   9
BRANCH   5  20
HETATM   20  C3  UNL     1      31.762   9.804  62.523  1.00  0.00     0.108 C 
BRANCH  20  21
HETATM   21  C4  UNL     1      31.965   9.889  64.026  1.00  0.00    -0.006 C 
HETATM   22  C5  UNL     1      32.827   8.732  64.495  1.00  0.00     0.005 C 
HETATM   23  C6  UNL     1      32.838   8.739  65.999  1.00  0.00     0.000 C 
HETATM   24  C7  UNL     1      33.521  10.026  66.455  1.00  0.00     0.000 C 
HETATM   25  C8  UNL     1      32.803  11.232  65.908  1.00  0.00     0.000 C 
HETATM   26  C9  UNL     1      32.643  11.171  64.409  1.00  0.00     0.005 C 
ENDBRANCH  20  21
ENDBRANCH   5  20
TORSDOF 5
ENDMDL
MODEL 3
REMARK VINA RESULT: -8.388525218      0.961      1.415
REMARK  5 active torsions:
REMARK  status: ('A' for Active; 'I' for Inactive)
REMARK       I    between atoms: C1_2  and  N3_14 
REMARK       I    between atoms: N2_3  and  C2_5 
REMARK    1  A    between atoms: C2_5  and  C3_7 
REMARK    2  A    between atoms: C3_7  and  C4_8 
REMARK    3  A    between atoms: N3_14  and  C10_16 
REMARK    4  A    between atoms: C10_16  and  C11_17 
REMARK       I    between atoms: C11_17  and  N4_19 
REMARK    5  A    between atoms: N4_19  and  C12_21 
ROOT
HETATM    1  N1  UNL     1      30.992   8.074  59.288  1.00  0.00    -0.063 NA
HETATM    2  C1  UNL     1      29.640   8.505  59.286  1.00  0.00     0.191 C 
HETATM    3  N2  UNL     1      29.130   9.129  60.272  1.00  0.00    -0.301 N 
ATOM      4  H2  UNL     1      28.152   9.407  60.197  1.00  0.00     0.171 HD
HETATM    5  C2  UNL     1      29.810   9.465  61.454  1.00  0.00     0.224 C 
HETATM    6  O1  UNL     1      29.817  10.654  61.879  1.00  0.00    -0.273 OA
HETATM    7  N3  UNL     1      28.815   8.214  58.136  1.00  0.00    -0.356 N 
ATOM      8  H3  UNL     1      29.200   8.193  57.192  1.00  0.00     0.162 HD
ENDROOT
BRANCH   7   9
HETATM    9  C10 UNL     1      27.430   7.956  58.391  1.00  0.00     0.225 C 
BRANCH   9  10
HETATM   10  C11 UNL     1      27.069   6.576  58.700  1.00  0.00     0.235 C 
HETATM   11  O2  UNL     1      26.842   5.817  57.686  1.00  0.00    -0.272 OA
HETATM   12  N4  UNL     1      26.947   5.998  59.989  1.00  0.00    -0.355 N 
ATOM     13  H4  UNL     1      27.118   6.559  60.824  1.00  0.00     0.162 HD
BRANCH  12  14
HETATM   14  C12 UNL     1      26.580   4.613  60.106  1.00  0.00     0.084 C 
HETATM   15  C13 UNL     1      27.724   3.733  60.614  1.00  0.00     0.025 C 
HETATM   16  C14 UNL     1      27.299   2.320  60.276  1.00  0.00     0.002 C 
HETATM   17  C15 UNL     1      25.986   1.924  60.829  1.00  0.00     0.000 C 
HETATM   18  C16 UNL     1      24.945   2.967  60.901  1.00  0.00     0.002 C 
HETATM   19  C17 UNL     1      25.436   4.367  61.067  1.00  0.00     0.025 C 
ENDBRANCH  12  14
ENDBRANCH   9  10
ENDBRANCH   7   9
BRANCH   5  20
HETATM   20  C3  UNL     1      30.561   8.456  62.286  1.00  0.00     0.108 C 
BRANCH  20  21
HETATM   21  C4  UNL     1      31.109   9.250  63.460  1.00  0.00    -0.006 C 
HETATM   22  C5  UNL     1      30.619   8.649  64.763  1.00  0.00     0.005 C 
HETATM   23  C6  UNL     1      31.014   9.572  65.881  1.00  0.00     0.000 C 
HETATM   24  C7  UNL     1      32.540   9.605  65.943  1.00  0.00     0.000 C 
HETATM   25  C8  UNL     1      33.116  10.060  64.628  1.00  0.00     0.000 C 
HETATM   26  C9  UNL     1      32.609   9.240  63.467  1.00  0.00     0.005 C 
ENDBRANCH  20  21
ENDBRANCH   5  20
TORSDOF 5
ENDMDL
MODEL 4
REMARK VINA RESULT: -8.366632232      3.202      5.775
REMARK  5 active torsions:
REMARK  status: ('A' for Active; 'I' for Inactive)
REMARK       I    between atoms: C1_2  and  N3_14 
REMARK       I    between atoms: N2_3  and  C2_5 
REMARK    1  A    between atoms: C2_5  and  C3_7 
REMARK    2  A    between atoms: C3_7  and  C4_8 
REMARK    3  A    between atoms: N3_14  and  C10_16 
REMARK    4  A    between atoms: C10_16  and  C11_17 
REMARK       I    between atoms: C11_17  and  N4_19 
REMARK    5  A    between atoms: N4_19  and  C12_21 
ROOT
HETATM    1  N1  UNL     1      29.188   8.994  61.050  1.00  0.00    -0.063 NA
HETATM    2  C1  UNL     1      29.699   8.104  60.070  1.00  0.00     0.191 C 
HETATM    3  N2  UNL     1      29.726   8.406  58.833  1.00  0.00    -0.301 N 
ATOM      4  H2  UNL     1      30.108   7.714  58.189  1.00  0.00     0.171 HD
HETATM    5  C2  UNL     1      29.269   9.617  58.287  1.00  0.00     0.224 C 
HETATM    6  O1  UNL     1      30.013  10.307  57.536  1.00  0.00    -0.273 OA
HETATM    7  N3  UNL     1      30.191   6.811  60.488  1.00  0.00    -0.356 N 
ATOM      8  H3  UNL     1      30.654   6.679  61.387  1.00  0.00     0.162 HD
ENDROOT
BRANCH   7   9
HETATM    9  C10 UNL     1      29.995   5.726  59.575  1.00  0.00     0.225 C 
BRANCH   9  10
HETATM   10  C11 UNL     1      28.686   5.082  59.597  1.00  0.00     0.235 C 
HETATM   11  O2  UNL     1      27.794   5.601  58.828  1.00  0.00    -0.272 OA
HETATM   12  N4  UNL     1      28.306   3.956  60.370  1.00  0.00    -0.355 N 
ATOM     13  H4  UNL     1      28.978   3.508  60.994  1.00  0.00     0.162 HD
BRANCH  12  14
HETATM   14  C12 UNL     1      26.964   3.452  60.266  1.00  0.00     0.084 C 
HETATM   15  C13 UNL     1      26.907   1.930  60.117  1.00  0.00     0.025 C 
HETATM   16  C14 UNL     1      25.509   1.646  59.612  1.00  0.00     0.002 C 
HETATM   17  C15 UNL     1      24.427   2.176  60.470  1.00  0.00     0.000 C 
HETATM   18  C16 UNL     1      24.676   3.462  61.148  1.00  0.00     0.002 C 
HETATM   19  C17 UNL     1      26.101   3.764  61.471  1.00  0.00     0.025 C 
ENDBRANCH  12  14
ENDBRANCH   9  10
ENDBRANCH   7   9
BRANCH   5  20
HETATM   20  C3  UNL     1      27.890  10.169  58.548  1.00  0.00     0.108 C 
BRANCH  20  21
HETATM   21  C4  UNL     1      27.059   9.714  57.360  1.00  0.00    -0.006 C 
HETATM   22  C5  UNL     1      26.235   8.500  57.743  1.00  0.00     0.005 C 
HETATM   23  C6  UNL     1      25.586   7.964  56.497  1.00  0.00     0.000 C 
HETATM   24  C7  UNL     1      24.616   9.026  55.982  1.00  0.00     0.000 C 
HETATM   25  C8  UNL     1      25.339  10.320  55.711  1.00  0.00     0.000 C 
HETATM   26  C9  UNL     1      26.125  10.796  56.907  1.00  0.00     0.005 C 
ENDBRANCH  20  21
ENDBRANCH   5  20
TORSDOF 5
ENDMDL
MODEL 5
REMARK VINA RESULT: -8.325589590      1.500      7.136
REMARK  5 active torsions:
REMARK  status: ('A' for Active; 'I' for Inactive)
REMARK       I    between atoms: C1_2  and  N3_14 
REMARK       I    between atoms: N2_3  and  C2_5 
REMARK    1  A    between atoms: C2_5  and  C3_7 
REMARK    2  A    between atoms: C3_7  and  C4_8 
REMARK    3  A    between atoms: N3_14  and  C10_16 
REMARK    4  A    between atoms: C10_16  and  C11_17 
REMARK       I    between atoms: C11_17  and  N4_19 
REMARK    5  A    between atoms: N4_19  and  C12_21 
ROOT
HETATM    1  N1  UNL     1      26.977   8.406  59.321  1.00  0.00    -0.063 NA
HETATM    2  C1  UNL     1      28.364   8.536  59.051  1.00  0.00     0.191 C 
HETATM    3  N2  UNL     1      29.140   7.528  59.006  1.00  0.00    -0.301 N 
ATOM      4  H2  UNL     1      30.125   7.701  58.805  1.00  0.00     0.171 HD
HETATM    5  C2  UNL     1      28.745   6.195  59.210  1.00  0.00     0.224 C 
HETATM    6  O1  UNL     1      29.026   5.302  58.364  1.00  0.00    -0.273 OA
HETATM    7  N3  UNL     1      28.913   9.855  58.834  1.00  0.00    -0.356 N 
ATOM      8  H3  UNL     1      28.375  10.591  58.377  1.00  0.00     0.162 HD
ENDROOT
BRANCH   7   9
HETATM    9  C10 UNL     1      30.252  10.074  59.292  1.00  0.00     0.225 C 
BRANCH   9  10
HETATM   10  C11 UNL     1      30.451  10.100  60.738  1.00  0.00     0.235 C 
HETATM   11  O2  UNL     1      29.659  10.871  61.398  1.00  0.00    -0.272 OA
HETATM   12  N4  UNL     1      31.416   9.370  61.476  1.00  0.00    -0.355 N 
ATOM     13  H4  UNL     1      32.066   8.745  60.998  1.00  0.00     0.162 HD
BRANCH  12  14
HETATM   14  C12 UNL     1      31.469   9.520  62.904  1.00  0.00     0.084 C 
HETATM   15  C13 UNL     1      30.880   8.322  63.653  1.00  0.00     0.025 C 
HETATM   16  C14 UNL     1      30.642   8.828  65.060  1.00  0.00     0.002 C 
HETATM   17  C15 UNL     1      31.843   9.381  65.724  1.00  0.00     0.000 C 
HETATM   18  C16 UNL     1      32.806  10.107  64.875  1.00  0.00     0.002 C 
HETATM   19  C17 UNL     1      32.874   9.673  63.448  1.00  0.00     0.025 C 
ENDBRANCH  12  14
ENDBRANCH   9  10
ENDBRANCH   7   9
BRANCH   5  20
HETATM   20  C3  UNL     1      27.978   5.742  60.428  1.00  0.00     0.108 C 
BRANCH  20  21
HETATM   21  C4  UNL     1      27.135   4.574  59.944  1.00  0.00    -0.006 C 
HETATM   22  C5  UNL     1      27.155   3.463  60.975  1.00  0.00     0.005 C 
HETATM   23  C6  UNL     1      26.481   2.259  60.378  1.00  0.00     0.000 C 
HETATM   24  C7  UNL     1      25.018   2.619  60.127  1.00  0.00     0.000 C 
HETATM   25  C8  UNL     1      24.913   3.814  59.216  1.00  0.00     0.000 C 
HETATM   26  C9  UNL     1      25.712   4.990  59.722  1.00  0.00     0.005 C 
ENDBRANCH  20  21
ENDBRANCH   5  20
TORSDOF 5
ENDMDL
