MODEL 1
REMARK VINA RESULT: -7.389317378      0.000      0.000
REMARK  8 active torsions:
REMARK  status: ('A' for Active; 'I' for Inactive)
REMARK    1  A    between atoms: N3_4  and  C2_6 
REMARK    2  A    between atoms: C2_6  and  C3_7 
REMARK    3  A    between atoms: C3_7  and  C4_8 
REMARK    4  A    between atoms: C4_8  and  C5_9 
REMARK    5  A    between atoms: C5_9  and  C6_10 
REMARK    6  A    between atoms: N4_13  and  C9_14 
REMARK    7  A    between atoms: C9_14  and  N5_16 
REMARK    8  A    between atoms: N5_16  and  C10_18 
ROOT
HETATM    1  C6  UNL     1      26.299   2.927  61.447  1.00  0.00    -0.008 C 
HETATM    2  C7  UNL     1      25.227   3.987  61.318  1.00  0.00     0.025 C 
HETATM    3  C8  UNL     1      23.930   3.247  61.003  1.00  0.00     0.131 C 
HETATM    4  N4  UNL     1      24.177   2.794  59.595  1.00  0.00    -0.338 N 
HETATM    5  C15 UNL     1      25.130   1.760  59.512  1.00  0.00     0.067 C 
HETATM    6  C16 UNL     1      26.040   1.672  60.722  1.00  0.00     0.049 C 
ENDROOT
BRANCH   1   7
HETATM    7  C5  UNL     1      27.592   3.590  60.998  1.00  0.00     0.005 C 
BRANCH   7   8
HETATM    8  C4  UNL     1      27.406   4.691  60.013  1.00  0.00     0.002 C 
BRANCH   8   9
HETATM    9  C3  UNL     1      28.717   5.159  59.449  1.00  0.00     0.020 C 
BRANCH   9  10
HETATM   10  C2  UNL     1      28.854   6.653  59.606  1.00  0.00     0.122 C 
BRANCH  10  11
HETATM   11  N3  UNL     1      28.470   7.322  58.372  1.00  0.00    -0.367 N 
HETATM   12  C1  UNL     1      27.369   7.981  58.258  1.00  0.00     0.196 C 
HETATM   13  N1  UNL     1      27.107   8.591  56.996  1.00  0.00    -0.067 NA
HETATM   14  N2  UNL     1      26.461   8.099  59.325  1.00  0.00    -0.067 NA
ATOM     15  H3  UNL     1      29.095   7.267  57.568  1.00  0.00     0.161 HD
ENDBRANCH  10  11
ENDBRANCH   9  10
ENDBRANCH   8   9
ENDBRANCH   7   8
ENDBRANCH   1   7
BRANCH   4  16
HETATM   16  C9  UNL     1      23.442   3.462  58.609  1.00  0.00     0.173 C 
HETATM   17  S1  UNL     1      22.132   2.627  57.932  1.00  0.00    -0.041 SA
BRANCH  16  18
HETATM   18  N5  UNL     1      23.599   4.739  58.067  1.00  0.00    -0.362 N 
ATOM     19  H5  UNL     1      22.900   5.422  58.359  1.00  0.00     0.162 HD
BRANCH  18  20
HETATM   20  C10 UNL     1      24.590   5.234  57.166  1.00  0.00     0.083 C 
HETATM   21  C11 UNL     1      24.134   6.620  56.667  1.00  0.00     0.025 C 
HETATM   22  C12 UNL     1      24.532   6.667  55.208  1.00  0.00     0.002 C 
HETATM   23  C13 UNL     1      24.118   5.267  54.768  1.00  0.00     0.002 C 
HETATM   24  C14 UNL     1      24.647   4.440  55.900  1.00  0.00     0.025 C 
ENDBRANCH  18  20
ENDBRANCH  16  18
ENDBRANCH   4  16
TORSDOF 8
ENDMDL
MODEL 2
REMARK VINA RESULT: -7.218009112      0.855      1.060
REMARK  8 active torsions:
REMARK  status: ('A' for Active; 'I' for Inactive)
REMARK    1  A    between atoms: N3_4  and  C2_6 
REMARK    2  A    between atoms: C2_6  and  C3_7 
REMARK    3  A    between atoms: C3_7  and  C4_8 
REMARK    4  A    between atoms: C4_8  and  C5_9 
REMARK    5  A    between atoms: C5_9  and  C6_10 
REMARK    6  A    between atoms: N4_13  and  C9_14 
REMARK    7  A    between atoms: C9_14  and  N5_16 
REMARK    8  A    between atoms: N5_16  and  C10_18 
ROOT
HETATM    1  C6  UNL     1      26.140   3.030  61.415  1.00  0.00    -0.008 C 
HETATM    2  C7  UNL     1      25.066   3.958  60.889  1.00  0.00     0.025 C 
HETATM    3  C8  UNL     1      23.863   3.076  60.562  1.00  0.00     0.131 C 
HETATM    4  N4  UNL     1      24.349   2.342  59.348  1.00  0.00    -0.338 N 
HETATM    5  C15 UNL     1      25.339   1.386  59.647  1.00  0.00     0.067 C 
HETATM    6  C16 UNL     1      26.044   1.631  60.967  1.00  0.00     0.049 C 
ENDROOT
BRANCH   1   7
HETATM    7  C5  UNL     1      27.464   3.667  61.024  1.00  0.00     0.005 C 
BRANCH   7   8
HETATM    8  C4  UNL     1      27.361   4.670  59.929  1.00  0.00     0.002 C 
BRANCH   8   9
HETATM    9  C3  UNL     1      28.715   5.133  59.471  1.00  0.00     0.020 C 
BRANCH   9  10
HETATM   10  C2  UNL     1      28.849   6.625  59.648  1.00  0.00     0.122 C 
BRANCH  10  11
HETATM   11  N3  UNL     1      28.477   7.308  58.419  1.00  0.00    -0.367 N 
HETATM   12  C1  UNL     1      27.387   7.988  58.308  1.00  0.00     0.196 C 
HETATM   13  N1  UNL     1      27.137   8.610  57.050  1.00  0.00    -0.067 NA
HETATM   14  N2  UNL     1      26.481   8.114  59.375  1.00  0.00    -0.067 NA
ATOM     15  H3  UNL     1      29.101   7.248  57.615  1.00  0.00     0.161 HD
ENDBRANCH  10  11
ENDBRANCH   9  10
ENDBRANCH   8   9
ENDBRANCH   7   8
ENDBRANCH   1   7
BRANCH   4  16
HETATM   16  C9  UNL     1      23.760   2.722  58.137  1.00  0.00     0.173 C 
HETATM   17  S1  UNL     1      24.142   1.792  56.773  1.00  0.00    -0.041 SA
BRANCH  16  18
HETATM   18  N5  UNL     1      22.881   3.766  57.843  1.00  0.00    -0.362 N 
ATOM     19  H5  UNL     1      21.895   3.560  58.006  1.00  0.00     0.162 HD
BRANCH  18  20
HETATM   20  C10 UNL     1      23.151   5.078  57.348  1.00  0.00     0.083 C 
HETATM   21  C11 UNL     1      23.113   5.025  55.807  1.00  0.00     0.025 C 
HETATM   22  C12 UNL     1      24.225   5.945  55.352  1.00  0.00     0.002 C 
HETATM   23  C13 UNL     1      25.324   5.549  56.332  1.00  0.00     0.002 C 
HETATM   24  C14 UNL     1      24.558   5.503  57.620  1.00  0.00     0.025 C 
ENDBRANCH  18  20
ENDBRANCH  16  18
ENDBRANCH   4  16
TORSDOF 8
ENDMDL
MODEL 3
REMARK VINA RESULT: -7.181435442      1.508      1.754
REMARK  8 active torsions:
REMARK  status: ('A' for Active; 'I' for Inactive)
REMARK    1  A    between atoms: N3_4  and  C2_6 
REMARK    2  A    between atoms: C2_6  and  C3_7 
REMARK    3  A    between atoms: C3_7  and  C4_8 
REMARK    4  A    between atoms: C4_8  and  C5_9 
REMARK    5  A    between atoms: C5_9  and  C6_10 
REMARK    6  A    between atoms: N4_13  and  C9_14 
REMARK    7  A    between atoms: C9_14  and  N5_16 
REMARK    8  A    between atoms: N5_16  and  C10_18 
ROOT
HETATM    1  C6  UNL     1      26.590   3.123  61.192  1.00  0.00    -0.008 C 
HETATM    2  C7  UNL     1      25.521   4.191  61.115  1.00  0.00     0.025 C 
HETATM    3  C8  UNL     1      24.211   3.464  60.818  1.00  0.00     0.131 C 
HETATM    4  N4  UNL     1      24.418   3.041  59.395  1.00  0.00    -0.338 N 
HETATM    5  C15 UNL     1      25.363   2.005  59.264  1.00  0.00     0.067 C 
HETATM    6  C16 UNL     1      26.304   1.886  60.447  1.00  0.00     0.049 C 
ENDROOT
BRANCH   1   7
HETATM    7  C5  UNL     1      27.874   3.789  60.722  1.00  0.00     0.005 C 
BRANCH   7   8
HETATM    8  C4  UNL     1      27.667   5.059  59.974  1.00  0.00     0.002 C 
BRANCH   8   9
HETATM    9  C3  UNL     1      28.907   5.475  59.235  1.00  0.00     0.020 C 
BRANCH   9  10
HETATM   10  C2  UNL     1      29.928   6.034  60.193  1.00  0.00     0.122 C 
BRANCH  10  11
HETATM   11  N3  UNL     1      30.632   7.149  59.579  1.00  0.00    -0.367 N 
HETATM   12  C1  UNL     1      30.324   8.378  59.820  1.00  0.00     0.196 C 
HETATM   13  N1  UNL     1      31.090   9.379  59.154  1.00  0.00    -0.067 NA
HETATM   14  N2  UNL     1      29.281   8.722  60.697  1.00  0.00    -0.067 NA
ATOM     15  H3  UNL     1      31.398   6.953  58.935  1.00  0.00     0.161 HD
ENDBRANCH  10  11
ENDBRANCH   9  10
ENDBRANCH   8   9
ENDBRANCH   7   8
ENDBRANCH   1   7
BRANCH   4  16
HETATM   16  C9  UNL     1      23.661   3.734  58.443  1.00  0.00     0.173 C 
HETATM   17  S1  UNL     1      22.260   2.970  57.873  1.00  0.00    -0.041 SA
BRANCH  16  18
HETATM   18  N5  UNL     1      23.860   4.988  57.862  1.00  0.00    -0.362 N 
ATOM     19  H5  UNL     1      23.094   5.649  57.988  1.00  0.00     0.162 HD
BRANCH  18  20
HETATM   20  C10 UNL     1      24.972   5.485  57.118  1.00  0.00     0.083 C 
HETATM   21  C11 UNL     1      25.395   6.835  57.733  1.00  0.00     0.025 C 
HETATM   22  C12 UNL     1      25.775   7.706  56.555  1.00  0.00     0.002 C 
HETATM   23  C13 UNL     1      24.646   7.365  55.589  1.00  0.00     0.002 C 
HETATM   24  C14 UNL     1      24.590   5.873  55.725  1.00  0.00     0.025 C 
ENDBRANCH  18  20
ENDBRANCH  16  18
ENDBRANCH   4  16
TORSDOF 8
ENDMDL
MODEL 4
REMARK VINA RESULT: -7.109260769      1.111      1.493
REMARK  8 active torsions:
REMARK  status: ('A' for Active; 'I' for Inactive)
REMARK    1  A    between atoms: N3_4  and  C2_6 
REMARK    2  A    between atoms: C2_6  and  C3_7 
REMARK    3  A    between atoms: C3_7  and  C4_8 
REMARK    4  A    between atoms: C4_8  and  C5_9 
REMARK    5  A    between atoms: C5_9  and  C6_10 
REMARK    6  A    between atoms: N4_13  and  C9_14 
REMARK    7  A    between atoms: C9_14  and  N5_16 
REMARK    8  A    between atoms: N5_16  and  C10_18 
ROOT
HETATM    1  C6  UNL     1      25.761   3.245  61.092  1.00  0.00    -0.008 C 
HETATM    2  C7  UNL     1      24.302   3.636  61.013  1.00  0.00     0.025 C 
HETATM    3  C8  UNL     1      23.522   2.340  60.807  1.00  0.00     0.131 C 
HETATM    4  N4  UNL     1      23.890   1.989  59.397  1.00  0.00    -0.338 N 
HETATM    5  C15 UNL     1      25.223   1.550  59.272  1.00  0.00     0.067 C 
HETATM    6  C16 UNL     1      26.117   1.985  60.417  1.00  0.00     0.049 C 
ENDROOT
BRANCH   1   7
HETATM    7  C5  UNL     1      26.538   4.429  60.537  1.00  0.00     0.005 C 
BRANCH   7   8
HETATM    8  C4  UNL     1      28.017   4.260  60.569  1.00  0.00     0.002 C 
BRANCH   8   9
HETATM    9  C3  UNL     1      28.675   4.907  59.384  1.00  0.00     0.020 C 
BRANCH   9  10
HETATM   10  C2  UNL     1      28.816   6.392  59.607  1.00  0.00     0.122 C 
BRANCH  10  11
HETATM   11  N3  UNL     1      28.406   7.117  58.413  1.00  0.00    -0.367 N 
HETATM   12  C1  UNL     1      27.333   7.831  58.373  1.00  0.00     0.196 C 
HETATM   13  N1  UNL     1      27.042   8.492  57.144  1.00  0.00    -0.067 NA
HETATM   14  N2  UNL     1      26.484   7.957  59.486  1.00  0.00    -0.067 NA
ATOM     15  H3  UNL     1      28.988   7.058  57.579  1.00  0.00     0.161 HD
ENDBRANCH  10  11
ENDBRANCH   9  10
ENDBRANCH   8   9
ENDBRANCH   7   8
ENDBRANCH   1   7
BRANCH   4  16
HETATM   16  C9  UNL     1      22.874   2.156  58.449  1.00  0.00     0.173 C 
HETATM   17  S1  UNL     1      21.282   1.927  58.982  1.00  0.00    -0.041 SA
BRANCH  16  18
HETATM   18  N5  UNL     1      22.941   2.493  57.096  1.00  0.00    -0.362 N 
ATOM     19  H5  UNL     1      22.744   1.729  56.450  1.00  0.00     0.162 HD
BRANCH  18  20
HETATM   20  C10 UNL     1      23.242   3.745  56.479  1.00  0.00     0.083 C 
HETATM   21  C11 UNL     1      24.744   3.757  56.128  1.00  0.00     0.025 C 
HETATM   22  C12 UNL     1      25.206   5.170  56.412  1.00  0.00     0.002 C 
HETATM   23  C13 UNL     1      24.493   5.428  57.735  1.00  0.00     0.002 C 
HETATM   24  C14 UNL     1      23.127   4.887  57.437  1.00  0.00     0.025 C 
ENDBRANCH  18  20
ENDBRANCH  16  18
ENDBRANCH   4  16
TORSDOF 8
ENDMDL
MODEL 5
REMARK VINA RESULT: -7.071878030      1.904      2.886
REMARK  8 active torsions:
REMARK  status: ('A' for Active; 'I' for Inactive)
REMARK    1  A    between atoms: N3_4  and  C2_6 
REMARK    2  A    between atoms: C2_6  and  C3_7 
REMARK    3  A    between atoms: C3_7  and  C4_8 
REMARK    4  A    between atoms: C4_8  and  C5_9 
REMARK    5  A    between atoms: C5_9  and  C6_10 
REMARK    6  A    between atoms: N4_13  and  C9_14 
REMARK    7  A    between atoms: C9_14  and  N5_16 
REMARK    8  A    between atoms: N5_16  and  C10_18 
ROOT
HETATM    1  C6  UNL     1      26.189   2.902  61.474  1.00  0.00    -0.008 C 
HETATM    2  C7  UNL     1      25.093   3.922  61.260  1.00  0.00     0.025 C 
HETATM    3  C8  UNL     1      23.843   3.133  60.878  1.00  0.00     0.131 C 
HETATM    4  N4  UNL     1      24.193   2.667  59.497  1.00  0.00    -0.338 N 
HETATM    5  C15 UNL     1      25.183   1.665  59.491  1.00  0.00     0.067 C 
HETATM    6  C16 UNL     1      26.017   1.627  60.757  1.00  0.00     0.049 C 
ENDROOT
BRANCH   1   7
HETATM    7  C5  UNL     1      27.486   3.601  61.094  1.00  0.00     0.005 C 
BRANCH   7   8
HETATM    8  C4  UNL     1      27.326   4.672  60.073  1.00  0.00     0.002 C 
BRANCH   8   9
HETATM    9  C3  UNL     1      28.651   5.108  59.514  1.00  0.00     0.020 C 
BRANCH   9  10
HETATM   10  C2  UNL     1      28.788   6.608  59.595  1.00  0.00     0.122 C 
BRANCH  10  11
HETATM   11  N3  UNL     1      28.364   7.216  58.343  1.00  0.00    -0.367 N 
HETATM   12  C1  UNL     1      27.281   7.909  58.243  1.00  0.00     0.196 C 
HETATM   13  N1  UNL     1      26.976   8.451  56.960  1.00  0.00    -0.067 NA
HETATM   14  N2  UNL     1      26.434   8.123  59.344  1.00  0.00    -0.067 NA
ATOM     15  H3  UNL     1      28.944   7.090  57.514  1.00  0.00     0.161 HD
ENDBRANCH  10  11
ENDBRANCH   9  10
ENDBRANCH   8   9
ENDBRANCH   7   8
ENDBRANCH   1   7
BRANCH   4  16
HETATM   16  C9  UNL     1      23.499   3.294  58.455  1.00  0.00     0.173 C 
HETATM   17  S1  UNL     1      24.240   4.640  57.741  1.00  0.00    -0.041 SA
BRANCH  16  18
HETATM   18  N5  UNL     1      22.263   2.996  57.878  1.00  0.00    -0.362 N 
ATOM     19  H5  UNL     1      21.482   3.558  58.215  1.00  0.00     0.162 HD
BRANCH  18  20
HETATM   20  C10 UNL     1      21.927   2.024  56.888  1.00  0.00     0.083 C 
HETATM   21  C11 UNL     1      21.071   0.931  57.562  1.00  0.00     0.025 C 
HETATM   22  C12 UNL     1      21.525  -0.370  56.935  1.00  0.00     0.002 C 
HETATM   23  C13 UNL     1      23.034  -0.155  56.925  1.00  0.00     0.002 C 
HETATM   24  C14 UNL     1      23.122   1.255  56.424  1.00  0.00     0.025 C 
ENDBRANCH  18  20
ENDBRANCH  16  18
ENDBRANCH   4  16
TORSDOF 8
ENDMDL
