MODEL 1
REMARK VINA RESULT: -8.708680443      0.000      0.000
REMARK  3 active torsions:
REMARK  status: ('A' for Active; 'I' for Inactive)
REMARK    1  A    between atoms: O1_2  and  C2_3 
REMARK    2  A    between atoms: C2_3  and  C3_5 
REMARK    3  A    between atoms: C19_22  and  O3_23 
ROOT
HETATM    1  C3  UNL     1      -4.827 -25.492 -11.536  1.00  0.00     0.049 C 
HETATM    2  C4  UNL     1      -5.099 -25.058 -12.972  1.00  0.00     0.026 C 
HETATM    3  C5  UNL     1      -6.088 -25.799 -10.770  1.00  0.00     0.020 C 
HETATM    4  C6  UNL     1      -5.787 -26.081  -9.348  1.00  0.00     0.002 C 
HETATM    5  C7  UNL     1      -4.646 -25.517  -8.669  1.00  0.00     0.010 C 
HETATM    6  C8  UNL     1      -3.747 -24.527  -9.433  1.00  0.00    -0.033 C 
HETATM    7  C9  UNL     1      -2.390 -25.196  -9.480  1.00  0.00     0.016 C 
HETATM    8  C10 UNL     1      -4.211 -24.352 -10.840  1.00  0.00     0.012 C 
HETATM    9  C11 UNL     1      -5.255 -23.249 -10.756  1.00  0.00     0.010 C 
HETATM   10  C12 UNL     1      -4.382 -21.985 -10.789  1.00  0.00     0.045 C 
HETATM   11  C13 UNL     1      -3.802 -21.927  -9.405  1.00  0.00     0.115 C 
HETATM   12  F1  UNL     1      -4.736 -21.106  -8.714  1.00  0.00    -0.242 F 
HETATM   13  C14 UNL     1      -3.674 -23.182  -8.677  1.00  0.00     0.035 C 
HETATM   14  C15 UNL     1      -2.631 -23.170  -7.617  1.00  0.00     0.009 C 
HETATM   15  C16 UNL     1      -1.455 -22.268  -7.817  1.00  0.00     0.006 C 
HETATM   16  C17 UNL     1      -2.053 -20.878  -8.056  1.00  0.00    -0.001 C 
HETATM   17  C18 UNL     1      -1.050 -19.792  -7.882  1.00  0.00     0.037 C 
HETATM   18  C19 UNL     1      -1.777 -18.470  -8.019  1.00  0.00     0.118 C 
HETATM   19  C20 UNL     1      -3.148 -18.668  -8.626  1.00  0.00     0.032 C 
HETATM   20  C21 UNL     1      -3.099 -19.600  -9.820  1.00  0.00     0.015 C 
HETATM   21  C22 UNL     1      -2.610 -20.989  -9.460  1.00  0.00    -0.004 C 
HETATM   22  C23 UNL     1      -1.598 -21.372 -10.479  1.00  0.00     0.019 C 
ENDROOT
BRANCH   1  23
HETATM   23  C2  UNL     1      -4.076 -26.736 -11.678  1.00  0.00     0.267 C 
HETATM   24  O2  UNL     1      -2.867 -26.725 -12.097  1.00  0.00    -0.264 OA
BRANCH  23  25
HETATM   25  O1  UNL     1      -4.531 -28.021 -11.399  1.00  0.00    -0.326 OA
HETATM   26  C1  UNL     1      -5.609 -28.631 -12.045  1.00  0.00     0.213 C 
ENDBRANCH  23  25
ENDBRANCH   1  23
BRANCH  18  27
HETATM   27  O3  UNL     1      -1.855 -17.889  -6.778  1.00  0.00    -0.396 OA
ATOM     28  H3  UNL     1      -1.180 -18.266  -6.227  1.00  0.00     0.210 HD
ENDBRANCH  18  27
TORSDOF 3
ENDMDL
MODEL 2
REMARK VINA RESULT: -6.189118331      1.902      6.931
REMARK  3 active torsions:
REMARK  status: ('A' for Active; 'I' for Inactive)
REMARK    1  A    between atoms: O1_2  and  C2_3 
REMARK    2  A    between atoms: C2_3  and  C3_5 
REMARK    3  A    between atoms: C19_22  and  O3_23 
ROOT
HETATM    1  C3  UNL     1      -1.699 -22.019  -8.286  1.00  0.00     0.049 C 
HETATM    2  C4  UNL     1      -0.648 -22.860  -7.570  1.00  0.00     0.026 C 
HETATM    3  C5  UNL     1      -2.644 -21.330  -7.336  1.00  0.00     0.020 C 
HETATM    4  C6  UNL     1      -3.727 -20.641  -8.074  1.00  0.00     0.002 C 
HETATM    5  C7  UNL     1      -4.193 -21.087  -9.364  1.00  0.00     0.010 C 
HETATM    6  C8  UNL     1      -3.592 -22.372  -9.963  1.00  0.00    -0.033 C 
HETATM    7  C9  UNL     1      -2.923 -21.923 -11.245  1.00  0.00     0.016 C 
HETATM    8  C10 UNL     1      -2.534 -22.937  -9.076  1.00  0.00     0.012 C 
HETATM    9  C11 UNL     1      -3.295 -23.818  -8.099  1.00  0.00     0.010 C 
HETATM   10  C12 UNL     1      -3.449 -25.121  -8.901  1.00  0.00     0.045 C 
HETATM   11  C13 UNL     1      -4.533 -24.795  -9.887  1.00  0.00     0.115 C 
HETATM   12  F1  UNL     1      -5.707 -25.228  -9.209  1.00  0.00    -0.242 F 
HETATM   13  C14 UNL     1      -4.711 -23.397 -10.255  1.00  0.00     0.035 C 
HETATM   14  C15 UNL     1      -5.355 -23.190 -11.579  1.00  0.00     0.009 C 
HETATM   15  C16 UNL     1      -5.146 -24.242 -12.620  1.00  0.00     0.006 C 
HETATM   16  C17 UNL     1      -5.588 -25.552 -11.959  1.00  0.00    -0.001 C 
HETATM   17  C18 UNL     1      -5.826 -26.635 -12.952  1.00  0.00     0.037 C 
HETATM   18  C19 UNL     1      -6.374 -27.832 -12.203  1.00  0.00     0.118 C 
HETATM   19  C20 UNL     1      -6.165 -27.678 -10.713  1.00  0.00     0.032 C 
HETATM   20  C21 UNL     1      -4.764 -27.198 -10.394  1.00  0.00     0.015 C 
HETATM   21  C22 UNL     1      -4.461 -25.836 -10.990  1.00  0.00    -0.004 C 
HETATM   22  C23 UNL     1      -3.124 -25.931 -11.632  1.00  0.00     0.019 C 
ENDROOT
BRANCH   1  23
HETATM   23  C2  UNL     1      -0.922 -20.989  -8.970  1.00  0.00     0.267 C 
HETATM   24  O2  UNL     1       0.150 -21.290  -9.601  1.00  0.00    -0.264 OA
BRANCH  23  25
HETATM   25  O1  UNL     1      -1.212 -19.630  -9.032  1.00  0.00    -0.326 OA
HETATM   26  C1  UNL     1      -1.237 -18.780  -7.923  1.00  0.00     0.213 C 
ENDBRANCH  23  25
ENDBRANCH   1  23
BRANCH  18  27
HETATM   27  O3  UNL     1      -7.705 -27.965 -12.513  1.00  0.00    -0.396 OA
ATOM     28  H3  UNL     1      -8.204 -27.394 -11.940  1.00  0.00     0.210 HD
ENDBRANCH  18  27
TORSDOF 3
ENDMDL
MODEL 3
REMARK VINA RESULT: -5.010902249      2.043      6.947
REMARK  3 active torsions:
REMARK  status: ('A' for Active; 'I' for Inactive)
REMARK    1  A    between atoms: O1_2  and  C2_3 
REMARK    2  A    between atoms: C2_3  and  C3_5 
REMARK    3  A    between atoms: C19_22  and  O3_23 
ROOT
HETATM    1  C3  UNL     1      -0.586 -22.309  -8.935  1.00  0.00     0.049 C 
HETATM    2  C4  UNL     1       0.337 -22.052 -10.120  1.00  0.00     0.026 C 
HETATM    3  C5  UNL     1       0.118 -22.968  -7.777  1.00  0.00     0.020 C 
HETATM    4  C6  UNL     1      -0.842 -23.323  -6.708  1.00  0.00     0.002 C 
HETATM    5  C7  UNL     1      -2.228 -23.618  -6.975  1.00  0.00     0.010 C 
HETATM    6  C8  UNL     1      -2.711 -23.635  -8.437  1.00  0.00    -0.033 C 
HETATM    7  C9  UNL     1      -3.752 -22.538  -8.511  1.00  0.00     0.016 C 
HETATM    8  C10 UNL     1      -1.608 -23.272  -9.374  1.00  0.00     0.012 C 
HETATM    9  C11 UNL     1      -0.905 -24.591  -9.653  1.00  0.00     0.010 C 
HETATM   10  C12 UNL     1      -1.780 -25.187 -10.766  1.00  0.00     0.045 C 
HETATM   11  C13 UNL     1      -2.997 -25.669 -10.031  1.00  0.00     0.115 C 
HETATM   12  F1  UNL     1      -2.667 -27.024  -9.745  1.00  0.00    -0.242 F 
HETATM   13  C14 UNL     1      -3.331 -25.008  -8.777  1.00  0.00     0.035 C 
HETATM   14  C15 UNL     1      -4.766 -25.106  -8.398  1.00  0.00     0.009 C 
HETATM   15  C16 UNL     1      -5.765 -25.217  -9.504  1.00  0.00     0.006 C 
HETATM   16  C17 UNL     1      -5.305 -26.414 -10.341  1.00  0.00    -0.001 C 
HETATM   17  C18 UNL     1      -6.376 -26.920 -11.243  1.00  0.00     0.037 C 
HETATM   18  C19 UNL     1      -5.852 -28.170 -11.921  1.00  0.00     0.118 C 
HETATM   19  C20 UNL     1      -4.353 -28.286 -11.755  1.00  0.00     0.032 C 
HETATM   20  C21 UNL     1      -3.660 -26.965 -12.022  1.00  0.00     0.015 C 
HETATM   21  C22 UNL     1      -4.091 -25.872 -11.064  1.00  0.00    -0.004 C 
HETATM   22  C23 UNL     1      -4.369 -24.662 -11.882  1.00  0.00     0.019 C 
ENDROOT
BRANCH   1  23
HETATM   23  C2  UNL     1      -0.995 -20.974  -8.509  1.00  0.00     0.267 C 
HETATM   24  O2  UNL     1      -0.406 -20.390  -7.535  1.00  0.00    -0.264 OA
BRANCH  23  25
HETATM   25  O1  UNL     1      -2.009 -20.198  -9.060  1.00  0.00    -0.326 OA
HETATM   26  C1  UNL     1      -2.483 -19.010  -8.497  1.00  0.00     0.213 C 
ENDBRANCH  23  25
ENDBRANCH   1  23
BRANCH  18  27
HETATM   27  O3  UNL     1      -6.502 -29.256 -11.391  1.00  0.00    -0.396 OA
ATOM     28  H3  UNL     1      -6.102 -29.466 -10.555  1.00  0.00     0.210 HD
ENDBRANCH  18  27
TORSDOF 3
ENDMDL
MODEL 4
REMARK VINA RESULT: -4.715365672      1.579      3.006
REMARK  3 active torsions:
REMARK  status: ('A' for Active; 'I' for Inactive)
REMARK    1  A    between atoms: O1_2  and  C2_3 
REMARK    2  A    between atoms: C2_3  and  C3_5 
REMARK    3  A    between atoms: C19_22  and  O3_23 
ROOT
HETATM    1  C3  UNL     1      -4.590 -25.241  -9.464  1.00  0.00     0.049 C 
HETATM    2  C4  UNL     1      -5.286 -25.618  -8.161  1.00  0.00     0.026 C 
HETATM    3  C5  UNL     1      -3.301 -25.993  -9.677  1.00  0.00     0.020 C 
HETATM    4  C6  UNL     1      -2.593 -25.497 -10.879  1.00  0.00     0.002 C 
HETATM    5  C7  UNL     1      -2.730 -24.143 -11.357  1.00  0.00     0.010 C 
HETATM    6  C8  UNL     1      -3.589 -23.156 -10.547  1.00  0.00    -0.033 C 
HETATM    7  C9  UNL     1      -4.709 -22.759 -11.485  1.00  0.00     0.016 C 
HETATM    8  C10 UNL     1      -4.208 -23.824  -9.364  1.00  0.00     0.012 C 
HETATM    9  C11 UNL     1      -3.153 -23.710  -8.275  1.00  0.00     0.010 C 
HETATM   10  C12 UNL     1      -3.413 -22.297  -7.730  1.00  0.00     0.045 C 
HETATM   11  C13 UNL     1      -2.825 -21.404  -8.783  1.00  0.00     0.115 C 
HETATM   12  F1  UNL     1      -1.498 -21.201  -8.309  1.00  0.00    -0.242 F 
HETATM   13  C14 UNL     1      -2.747 -21.926 -10.141  1.00  0.00     0.035 C 
HETATM   14  C15 UNL     1      -2.705 -20.880 -11.196  1.00  0.00     0.009 C 
HETATM   15  C16 UNL     1      -3.382 -19.579 -10.906  1.00  0.00     0.006 C 
HETATM   16  C17 UNL     1      -2.770 -19.095  -9.587  1.00  0.00    -0.001 C 
HETATM   17  C18 UNL     1      -3.023 -17.649  -9.342  1.00  0.00     0.037 C 
HETATM   18  C19 UNL     1      -2.272 -17.259  -8.085  1.00  0.00     0.118 C 
HETATM   19  C20 UNL     1      -1.832 -18.485  -7.317  1.00  0.00     0.032 C 
HETATM   20  C21 UNL     1      -2.947 -19.506  -7.213  1.00  0.00     0.015 C 
HETATM   21  C22 UNL     1      -3.402 -20.017  -8.566  1.00  0.00    -0.004 C 
HETATM   22  C23 UNL     1      -4.888 -19.985  -8.565  1.00  0.00     0.019 C 
ENDROOT
BRANCH   1  23
HETATM   23  C2  UNL     1      -5.529 -25.659 -10.501  1.00  0.00     0.267 C 
HETATM   24  O2  UNL     1      -6.792 -25.566 -10.315  1.00  0.00    -0.264 OA
BRANCH  23  25
HETATM   25  O1  UNL     1      -5.212 -26.180 -11.751  1.00  0.00    -0.326 OA
HETATM   26  C1  UNL     1      -6.006 -27.097 -12.445  1.00  0.00     0.213 C 
ENDBRANCH  23  25
ENDBRANCH   1  23
BRANCH  18  27
HETATM   27  O3  UNL     1      -1.201 -16.480  -8.445  1.00  0.00    -0.396 OA
ATOM     28  H3  UNL     1      -1.186 -15.712  -7.884  1.00  0.00     0.210 HD
ENDBRANCH  18  27
TORSDOF 3
ENDMDL
