MODEL 1
REMARK VINA RESULT: -5.002059151      0.000      0.000
REMARK  2 active torsions:
REMARK  status: ('A' for Active; 'I' for Inactive)
REMARK    1  A    between atoms: C5_5  and  O1_6 
REMARK    2  A    between atoms: N1_18  and  O2_20 
ROOT
HETATM    1  C1  UNL     1      -2.891 -21.777 -12.311  1.00  0.00     0.015 C 
HETATM    2  C2  UNL     1      -3.691 -22.094 -11.318  1.00  0.00    -0.084 C 
HETATM    3  C3  UNL     1      -4.988 -22.816 -11.648  1.00  0.00     0.036 C 
HETATM    4  C4  UNL     1      -4.963 -24.116 -10.906  1.00  0.00     0.036 C 
HETATM    5  C5  UNL     1      -4.777 -23.856  -9.433  1.00  0.00     0.127 C 
HETATM    6  C7  UNL     1      -3.568 -23.113  -9.057  1.00  0.00     0.036 C 
HETATM    7  C8  UNL     1      -3.505 -21.832  -9.877  1.00  0.00     0.028 C 
HETATM    8  C9  UNL     1      -2.440 -20.912  -9.469  1.00  0.00     0.022 C 
HETATM    9  C10 UNL     1      -3.009 -19.643  -8.788  1.00  0.00     0.064 C 
HETATM   10 BR1  UNL     1      -4.556 -20.030  -7.720  1.00  0.00    -0.091 Br
HETATM   11  C11 UNL     1      -1.856 -19.153  -7.902  1.00  0.00     0.017 C 
HETATM   12  C12 UNL     1      -1.388 -20.493  -7.364  1.00  0.00     0.017 C 
HETATM   13  C13 UNL     1      -1.359 -21.397  -8.618  1.00  0.00     0.003 C 
HETATM   14  C14 UNL     1       0.026 -21.193  -9.189  1.00  0.00     0.022 C 
HETATM   15  C15 UNL     1      -1.433 -22.814  -8.133  1.00  0.00     0.027 C 
HETATM   16  N1  UNL     1      -0.762 -23.032  -7.079  1.00  0.00    -0.276 N 
ATOM     17  H1  UNL     1      -0.258 -22.234  -6.691  1.00  0.00     0.193 HD
HETATM   18  C16 UNL     1      -2.260 -23.778  -8.912  1.00  0.00     0.000 C 
HETATM   19  C17 UNL     1      -1.496 -24.059 -10.176  1.00  0.00     0.021 C 
HETATM   20  C18 UNL     1      -2.373 -25.068  -8.180  1.00  0.00     0.021 C 
ENDROOT
BRANCH  16  21
HETATM   21  O2  UNL     1      -0.638 -24.181  -6.420  1.00  0.00    -0.290 OA
ATOM     22  H2  UNL     1       0.027 -24.849  -6.543  1.00  0.00     0.244 HD
ENDBRANCH  16  21
BRANCH   5  23
HETATM   23  O1  UNL     1      -5.105 -24.976  -8.730  1.00  0.00    -0.390 OA
HETATM   24  C6  UNL     1      -5.725 -25.972  -9.444  1.00  0.00     0.202 C 
ENDBRANCH   5  23
TORSDOF 2
ENDMDL
MODEL 2
REMARK VINA RESULT: -4.456035355      2.480      4.191
REMARK  2 active torsions:
REMARK  status: ('A' for Active; 'I' for Inactive)
REMARK    1  A    between atoms: C5_5  and  O1_6 
REMARK    2  A    between atoms: N1_18  and  O2_20 
ROOT
HETATM    1  C1  UNL     1      -2.952 -24.410  -6.276  1.00  0.00     0.015 C 
HETATM    2  C2  UNL     1      -2.237 -24.548  -7.369  1.00  0.00    -0.084 C 
HETATM    3  C3  UNL     1      -1.484 -25.854  -7.571  1.00  0.00     0.036 C 
HETATM    4  C4  UNL     1      -1.981 -26.447  -8.853  1.00  0.00     0.036 C 
HETATM    5  C5  UNL     1      -1.788 -25.461  -9.977  1.00  0.00     0.127 C 
HETATM    6  C7  UNL     1      -2.445 -24.160  -9.813  1.00  0.00     0.036 C 
HETATM    7  C8  UNL     1      -2.047 -23.576  -8.465  1.00  0.00     0.028 C 
HETATM    8  C9  UNL     1      -2.493 -22.195  -8.255  1.00  0.00     0.022 C 
HETATM    9  C10 UNL     1      -1.307 -21.201  -8.271  1.00  0.00     0.064 C 
HETATM   10 BR1  UNL     1       0.042 -21.709  -9.538  1.00  0.00    -0.091 Br
HETATM   11  C11 UNL     1      -1.949 -19.869  -8.678  1.00  0.00     0.017 C 
HETATM   12  C12 UNL     1      -2.883 -20.379  -9.759  1.00  0.00     0.017 C 
HETATM   13  C13 UNL     1      -3.524 -21.634  -9.122  1.00  0.00     0.003 C 
HETATM   14  C14 UNL     1      -4.734 -21.101  -8.390  1.00  0.00     0.022 C 
HETATM   15  C15 UNL     1      -4.028 -22.484 -10.250  1.00  0.00     0.027 C 
HETATM   16  N1  UNL     1      -4.545 -21.822 -11.200  1.00  0.00    -0.276 N 
ATOM     17  H1  UNL     1      -4.558 -20.808 -11.090  1.00  0.00     0.193 HD
HETATM   18  C16 UNL     1      -3.870 -23.962 -10.137  1.00  0.00     0.000 C 
HETATM   19  C17 UNL     1      -4.870 -24.413  -9.109  1.00  0.00     0.021 C 
HETATM   20  C18 UNL     1      -4.243 -24.618 -11.419  1.00  0.00     0.021 C 
ENDROOT
BRANCH  16  21
HETATM   21  O2  UNL     1      -5.072 -22.298 -12.326  1.00  0.00    -0.290 OA
ATOM     22  H2  UNL     1      -4.739 -22.194 -13.210  1.00  0.00     0.244 HD
ENDBRANCH  16  21
BRANCH   5  23
HETATM   23  O1  UNL     1      -1.899 -26.108 -11.171  1.00  0.00    -0.390 OA
HETATM   24  C6  UNL     1      -2.286 -27.424 -11.106  1.00  0.00     0.202 C 
ENDBRANCH   5  23
TORSDOF 2
ENDMDL
MODEL 3
REMARK VINA RESULT: -4.263573232      1.695      2.437
REMARK  2 active torsions:
REMARK  status: ('A' for Active; 'I' for Inactive)
REMARK    1  A    between atoms: C5_5  and  O1_6 
REMARK    2  A    between atoms: N1_18  and  O2_20 
ROOT
HETATM    1  C1  UNL     1      -4.832 -22.653 -11.420  1.00  0.00     0.015 C 
HETATM    2  C2  UNL     1      -4.730 -22.891 -10.132  1.00  0.00    -0.084 C 
HETATM    3  C3  UNL     1      -5.177 -24.251  -9.619  1.00  0.00     0.036 C 
HETATM    4  C4  UNL     1      -3.991 -24.875  -8.952  1.00  0.00     0.036 C 
HETATM    5  C5  UNL     1      -3.479 -23.960  -7.868  1.00  0.00     0.127 C 
HETATM    6  C7  UNL     1      -3.085 -22.613  -8.293  1.00  0.00     0.036 C 
HETATM    7  C8  UNL     1      -4.234 -21.989  -9.074  1.00  0.00     0.028 C 
HETATM    8  C9  UNL     1      -4.037 -20.574  -9.401  1.00  0.00     0.022 C 
HETATM    9  C10 UNL     1      -4.989 -19.661  -8.592  1.00  0.00     0.064 C 
HETATM   10 BR1  UNL     1      -5.275 -20.317  -6.811  1.00  0.00    -0.091 Br
HETATM   11  C11 UNL     1      -4.259 -18.311  -8.554  1.00  0.00     0.017 C 
HETATM   12  C12 UNL     1      -2.849 -18.814  -8.304  1.00  0.00     0.017 C 
HETATM   13  C13 UNL     1      -2.704 -19.992  -9.296  1.00  0.00     0.003 C 
HETATM   14  C14 UNL     1      -2.201 -19.345 -10.566  1.00  0.00     0.022 C 
HETATM   15  C15 UNL     1      -1.599 -20.862  -8.775  1.00  0.00     0.027 C 
HETATM   16  N1  UNL     1      -0.624 -20.217  -8.284  1.00  0.00    -0.276 N 
ATOM     17  H1  UNL     1      -0.702 -19.200  -8.300  1.00  0.00     0.193 HD
HETATM   18  C16 UNL     1      -1.762 -22.340  -8.885  1.00  0.00     0.000 C 
HETATM   19  C17 UNL     1      -1.586 -22.673 -10.340  1.00  0.00     0.021 C 
HETATM   20  C18 UNL     1      -0.672 -23.034  -8.148  1.00  0.00     0.021 C 
ENDROOT
BRANCH  16  21
HETATM   21  O2  UNL     1       0.489 -20.713  -7.750  1.00  0.00    -0.290 OA
ATOM     22  H2  UNL     1       1.310 -20.258  -7.597  1.00  0.00     0.244 HD
ENDBRANCH  16  21
BRANCH   5  23
HETATM   23  O1  UNL     1      -2.650 -24.657  -7.041  1.00  0.00    -0.390 OA
HETATM   24  C6  UNL     1      -3.208 -25.100  -5.867  1.00  0.00     0.202 C 
ENDBRANCH   5  23
TORSDOF 2
ENDMDL
MODEL 4
REMARK VINA RESULT: -3.561843825      1.365      1.835
REMARK  2 active torsions:
REMARK  status: ('A' for Active; 'I' for Inactive)
REMARK    1  A    between atoms: C5_5  and  O1_6 
REMARK    2  A    between atoms: N1_18  and  O2_20 
ROOT
HETATM    1  C1  UNL     1      -4.396 -23.115 -11.972  1.00  0.00     0.015 C 
HETATM    2  C2  UNL     1      -4.534 -23.257 -10.673  1.00  0.00    -0.084 C 
HETATM    3  C3  UNL     1      -5.410 -24.392 -10.167  1.00  0.00     0.036 C 
HETATM    4  C4  UNL     1      -4.546 -25.255  -9.301  1.00  0.00     0.036 C 
HETATM    5  C5  UNL     1      -3.941 -24.423  -8.198  1.00  0.00     0.127 C 
HETATM    6  C7  UNL     1      -3.129 -23.278  -8.626  1.00  0.00     0.036 C 
HETATM    7  C8  UNL     1      -3.943 -22.435  -9.598  1.00  0.00     0.028 C 
HETATM    8  C9  UNL     1      -3.312 -21.163  -9.961  1.00  0.00     0.022 C 
HETATM    9  C10 UNL     1      -4.062 -19.956  -9.348  1.00  0.00     0.064 C 
HETATM   10 BR1  UNL     1      -4.751 -20.348  -7.600  1.00  0.00    -0.091 Br
HETATM   11  C11 UNL     1      -2.991 -18.860  -9.268  1.00  0.00     0.017 C 
HETATM   12  C12 UNL     1      -1.826 -19.706  -8.786  1.00  0.00     0.017 C 
HETATM   13  C13 UNL     1      -1.893 -20.961  -9.687  1.00  0.00     0.003 C 
HETATM   14  C14 UNL     1      -1.068 -20.593 -10.898  1.00  0.00     0.022 C 
HETATM   15  C15 UNL     1      -1.158 -22.052  -8.965  1.00  0.00     0.027 C 
HETATM   16  N1  UNL     1      -0.112 -21.657  -8.366  1.00  0.00    -0.276 N 
ATOM     17  H1  UNL     1       0.104 -20.663  -8.443  1.00  0.00     0.193 HD
HETATM   18  C16 UNL     1      -1.719 -23.431  -9.026  1.00  0.00     0.000 C 
HETATM   19  C17 UNL     1      -1.457 -23.928 -10.421  1.00  0.00     0.021 C 
HETATM   20  C18 UNL     1      -0.974 -24.329  -8.102  1.00  0.00     0.021 C 
ENDROOT
BRANCH  16  21
HETATM   21  O2  UNL     1       0.736 -22.389  -7.649  1.00  0.00    -0.290 OA
ATOM     22  H2  UNL     1       0.824 -22.411  -6.703  1.00  0.00     0.244 HD
ENDBRANCH  16  21
BRANCH   5  23
HETATM   23  O1  UNL     1      -3.458 -25.244  -7.224  1.00  0.00    -0.390 OA
HETATM   24  C6  UNL     1      -3.167 -24.644  -6.024  1.00  0.00     0.202 C 
ENDBRANCH   5  23
TORSDOF 2
ENDMDL
MODEL 5
REMARK VINA RESULT: -3.188583850      2.176      4.693
REMARK  2 active torsions:
REMARK  status: ('A' for Active; 'I' for Inactive)
REMARK    1  A    between atoms: C5_5  and  O1_6 
REMARK    2  A    between atoms: N1_18  and  O2_20 
ROOT
HETATM    1  C1  UNL     1      -4.660 -20.798  -7.695  1.00  0.00     0.015 C 
HETATM    2  C2  UNL     1      -3.568 -20.798  -8.425  1.00  0.00    -0.084 C 
HETATM    3  C3  UNL     1      -2.427 -19.885  -8.004  1.00  0.00     0.036 C 
HETATM    4  C4  UNL     1      -1.235 -20.761  -7.768  1.00  0.00     0.036 C 
HETATM    5  C5  UNL     1      -0.939 -21.560  -9.011  1.00  0.00     0.127 C 
HETATM    6  C7  UNL     1      -2.024 -22.419  -9.499  1.00  0.00     0.036 C 
HETATM    7  C8  UNL     1      -3.286 -21.580  -9.645  1.00  0.00     0.028 C 
HETATM    8  C9  UNL     1      -4.398 -22.278 -10.297  1.00  0.00     0.022 C 
HETATM    9  C10 UNL     1      -4.678 -21.716 -11.712  1.00  0.00     0.064 C 
HETATM   10 BR1  UNL     1      -3.064 -21.198 -12.613  1.00  0.00    -0.091 Br
HETATM   11  C11 UNL     1      -5.349 -22.884 -12.446  1.00  0.00     0.017 C 
HETATM   12  C12 UNL     1      -4.473 -24.014 -11.938  1.00  0.00     0.017 C 
HETATM   13  C13 UNL     1      -4.359 -23.731 -10.421  1.00  0.00     0.003 C 
HETATM   14  C14 UNL     1      -5.550 -24.442  -9.821  1.00  0.00     0.022 C 
HETATM   15  C15 UNL     1      -3.129 -24.442  -9.939  1.00  0.00     0.027 C 
HETATM   16  N1  UNL     1      -2.953 -25.581 -10.469  1.00  0.00    -0.276 N 
ATOM     17  H1  UNL     1      -3.655 -25.876 -11.148  1.00  0.00     0.193 HD
HETATM   18  C16 UNL     1      -2.276 -23.755  -8.928  1.00  0.00     0.000 C 
HETATM   19  C17 UNL     1      -3.037 -23.809  -7.633  1.00  0.00     0.021 C 
HETATM   20  C18 UNL     1      -1.014 -24.515  -8.720  1.00  0.00     0.021 C 
ENDROOT
BRANCH  16  21
HETATM   21  O2  UNL     1      -1.959 -26.435 -10.241  1.00  0.00    -0.290 OA
ATOM     22  H2  UNL     1      -1.656 -27.134 -10.809  1.00  0.00     0.244 HD
ENDBRANCH  16  21
BRANCH   5  23
HETATM   23  O1  UNL     1       0.319 -22.075  -8.930  1.00  0.00    -0.390 OA
HETATM   24  C6  UNL     1       0.856 -22.151  -7.668  1.00  0.00     0.202 C 
ENDBRANCH   5  23
TORSDOF 2
ENDMDL
