MODEL 1
REMARK VINA RESULT: -7.542327344      0.000      0.000
REMARK  2 active torsions:
REMARK  status: ('A' for Active; 'I' for Inactive)
REMARK    1  A    between atoms: C2_2  and  C3_4 
REMARK    2  A    between atoms: C3_4  and  O2_5 
ROOT
HETATM    1  C3  UNL     1      -5.040 -26.588 -11.032  1.00  0.00     0.125 C 
HETATM    2  C4  UNL     1      -3.689 -27.260 -11.052  1.00  0.00     0.047 C 
HETATM    3  C5  UNL     1      -2.727 -26.296 -10.414  1.00  0.00     0.009 C 
HETATM    4  C6  UNL     1      -3.622 -25.558  -9.453  1.00  0.00     0.002 C 
HETATM    5  C7  UNL     1      -3.020 -24.336  -8.846  1.00  0.00    -0.003 C 
HETATM    6  C8  UNL     1      -1.527 -24.280  -8.942  1.00  0.00     0.006 C 
HETATM    7  C9  UNL     1      -0.934 -23.128  -9.664  1.00  0.00     0.013 C 
HETATM    8  C10 UNL     1      -1.098 -21.802  -8.977  1.00  0.00    -0.002 C 
HETATM    9  C11 UNL     1       0.138 -21.002  -8.768  1.00  0.00     0.019 C 
HETATM   10  C12 UNL     1      -2.046 -21.874  -7.798  1.00  0.00     0.054 C 
HETATM   11  C13 UNL     1      -3.154 -21.803  -8.799  1.00  0.00     0.103 C 
HETATM   12  O3  UNL     1      -4.095 -20.837  -8.364  1.00  0.00    -0.365 OA
HETATM   13  C14 UNL     1      -3.464 -19.630  -8.329  1.00  0.00     0.065 A 
HETATM   14  C15 UNL     1      -4.335 -18.414  -8.313  1.00  0.00     0.041 A 
HETATM   15  C16 UNL     1      -3.441 -18.731  -7.168  1.00  0.00     0.041 A 
HETATM   16  C17 UNL     1      -2.406 -19.650  -9.376  1.00  0.00     0.085 C 
HETATM   17  C18 UNL     1      -2.223 -21.100  -9.713  1.00  0.00     0.145 C 
HETATM   18  F1  UNL     1      -2.281 -21.317 -11.040  1.00  0.00    -0.239 F 
HETATM   19  C19 UNL     1      -3.733 -23.086  -9.234  1.00  0.00     0.028 C 
HETATM   20  C20 UNL     1      -4.199 -23.121 -10.674  1.00  0.00     0.009 C 
HETATM   21  C21 UNL     1      -5.336 -24.155 -10.695  1.00  0.00     0.013 C 
HETATM   22  C22 UNL     1      -4.982 -25.431 -10.067  1.00  0.00    -0.002 C 
HETATM   23  C23 UNL     1      -6.061 -25.773  -8.984  1.00  0.00     0.019 C 
ENDROOT
BRANCH   1  24
HETATM   24  C2  UNL     1      -5.486 -26.305 -12.388  1.00  0.00     0.158 C 
HETATM   25  C1  UNL     1      -6.517 -27.150 -13.044  1.00  0.00     0.094 C 
HETATM   26  O1  UNL     1      -5.026 -25.353 -13.033  1.00  0.00    -0.295 OA
ENDBRANCH   1  24
BRANCH   1  27
HETATM   27  O2  UNL     1      -5.960 -27.568 -10.531  1.00  0.00    -0.381 OA
ATOM     28  H2  UNL     1      -5.972 -27.439  -9.590  1.00  0.00     0.211 HD
ENDBRANCH   1  27
TORSDOF 2
ENDMDL
MODEL 2
REMARK VINA RESULT: -7.515091460      2.435      6.336
REMARK  2 active torsions:
REMARK  status: ('A' for Active; 'I' for Inactive)
REMARK    1  A    between atoms: C2_2  and  C3_4 
REMARK    2  A    between atoms: C3_4  and  O2_5 
ROOT
HETATM    1  C3  UNL     1      -0.492 -23.799  -6.798  1.00  0.00     0.125 C 
HETATM    2  C4  UNL     1      -0.508 -22.343  -7.193  1.00  0.00     0.047 C 
HETATM    3  C5  UNL     1      -1.639 -22.183  -8.172  1.00  0.00     0.009 C 
HETATM    4  C6  UNL     1      -2.595 -23.255  -7.716  1.00  0.00     0.002 C 
HETATM    5  C7  UNL     1      -3.717 -23.537  -8.658  1.00  0.00    -0.003 C 
HETATM    6  C8  UNL     1      -3.960 -22.451  -9.659  1.00  0.00     0.006 C 
HETATM    7  C9  UNL     1      -3.849 -22.811 -11.094  1.00  0.00     0.013 C 
HETATM    8  C10 UNL     1      -4.922 -23.734 -11.598  1.00  0.00    -0.002 C 
HETATM    9  C11 UNL     1      -5.660 -23.298 -12.812  1.00  0.00     0.019 C 
HETATM   10  C12 UNL     1      -5.770 -24.302 -10.478  1.00  0.00     0.054 C 
HETATM   11  C13 UNL     1      -4.657 -25.274 -10.250  1.00  0.00     0.103 C 
HETATM   12  O3  UNL     1      -5.209 -26.574 -10.135  1.00  0.00    -0.365 OA
HETATM   13  C14 UNL     1      -5.812 -26.875 -11.318  1.00  0.00     0.065 A 
HETATM   14  C15 UNL     1      -6.090 -28.320 -11.586  1.00  0.00     0.041 A 
HETATM   15  C16 UNL     1      -7.199 -27.338 -11.458  1.00  0.00     0.041 A 
HETATM   16  C17 UNL     1      -5.075 -26.152 -12.390  1.00  0.00     0.085 C 
HETATM   17  C18 UNL     1      -4.277 -25.104 -11.672  1.00  0.00     0.145 C 
HETATM   18  F1  UNL     1      -2.982 -25.124 -12.037  1.00  0.00    -0.239 F 
HETATM   19  C19 UNL     1      -3.674 -24.920  -9.212  1.00  0.00     0.028 C 
HETATM   20  C20 UNL     1      -2.258 -25.376  -9.492  1.00  0.00     0.009 C 
HETATM   21  C21 UNL     1      -1.625 -25.569  -8.103  1.00  0.00     0.013 C 
HETATM   22  C22 UNL     1      -1.802 -24.420  -7.211  1.00  0.00    -0.002 C 
HETATM   23  C23 UNL     1      -2.436 -24.921  -5.869  1.00  0.00     0.019 C 
ENDROOT
BRANCH   1  24
HETATM   24  C2  UNL     1       0.728 -24.438  -7.268  1.00  0.00     0.158 C 
HETATM   25  C1  UNL     1       1.301 -25.608  -6.554  1.00  0.00     0.094 C 
HETATM   26  O1  UNL     1       1.321 -24.032  -8.277  1.00  0.00    -0.295 OA
ENDBRANCH   1  24
BRANCH   1  27
HETATM   27  O2  UNL     1      -0.398 -23.817  -5.367  1.00  0.00    -0.381 OA
ATOM     28  H2  UNL     1       0.072 -24.617  -5.158  1.00  0.00     0.211 HD
ENDBRANCH   1  27
TORSDOF 2
ENDMDL
MODEL 3
REMARK VINA RESULT: -6.785947365      1.915      6.596
REMARK  2 active torsions:
REMARK  status: ('A' for Active; 'I' for Inactive)
REMARK    1  A    between atoms: C2_2  and  C3_4 
REMARK    2  A    between atoms: C3_4  and  O2_5 
ROOT
HETATM    1  C3  UNL     1      -2.507 -18.357  -8.708  1.00  0.00     0.125 C 
HETATM    2  C4  UNL     1      -1.291 -18.491  -7.824  1.00  0.00     0.047 C 
HETATM    3  C5  UNL     1      -0.954 -19.956  -7.787  1.00  0.00     0.009 C 
HETATM    4  C6  UNL     1      -1.445 -20.420  -9.133  1.00  0.00     0.002 C 
HETATM    5  C7  UNL     1      -1.499 -21.901  -9.306  1.00  0.00    -0.003 C 
HETATM    6  C8  UNL     1      -0.672 -22.660  -8.315  1.00  0.00     0.006 C 
HETATM    7  C9  UNL     1      -1.378 -23.633  -7.444  1.00  0.00     0.013 C 
HETATM    8  C10 UNL     1      -1.919 -24.839  -8.156  1.00  0.00    -0.002 C 
HETATM    9  C11 UNL     1      -1.539 -26.166  -7.603  1.00  0.00     0.019 C 
HETATM   10  C12 UNL     1      -1.842 -24.705  -9.663  1.00  0.00     0.054 C 
HETATM   11  C13 UNL     1      -3.078 -23.870  -9.561  1.00  0.00     0.103 C 
HETATM   12  O3  UNL     1      -4.007 -24.315 -10.534  1.00  0.00    -0.365 OA
HETATM   13  C14 UNL     1      -4.330 -25.605 -10.239  1.00  0.00     0.065 A 
HETATM   14  C15 UNL     1      -5.583 -26.145 -10.852  1.00  0.00     0.041 A 
HETATM   15  C16 UNL     1      -4.255 -26.725 -11.186  1.00  0.00     0.041 A 
HETATM   16  C17 UNL     1      -4.215 -25.766  -8.763  1.00  0.00     0.085 C 
HETATM   17  C18 UNL     1      -3.407 -24.588  -8.307  1.00  0.00     0.145 C 
HETATM   18  F1  UNL     1      -3.998 -23.939  -7.287  1.00  0.00    -0.239 F 
HETATM   19  C19 UNL     1      -2.885 -22.410  -9.506  1.00  0.00     0.028 C 
HETATM   20  C20 UNL     1      -3.893 -21.664  -8.658  1.00  0.00     0.009 C 
HETATM   21  C21 UNL     1      -3.975 -20.263  -9.286  1.00  0.00     0.013 C 
HETATM   22  C22 UNL     1      -2.668 -19.634  -9.493  1.00  0.00    -0.002 C 
HETATM   23  C23 UNL     1      -2.559 -19.186 -10.990  1.00  0.00     0.019 C 
ENDROOT
BRANCH   1  24
HETATM   24  C2  UNL     1      -3.650 -17.903  -7.930  1.00  0.00     0.158 C 
HETATM   25  C1  UNL     1      -3.655 -18.008  -6.448  1.00  0.00     0.094 C 
HETATM   26  O1  UNL     1      -4.648 -17.412  -8.477  1.00  0.00    -0.295 OA
ENDBRANCH   1  24
BRANCH   1  27
HETATM   27  O2  UNL     1      -2.219 -17.284  -9.615  1.00  0.00    -0.381 OA
ATOM     28  H2  UNL     1      -2.866 -17.362 -10.306  1.00  0.00     0.211 HD
ENDBRANCH   1  27
TORSDOF 2
ENDMDL
MODEL 4
REMARK VINA RESULT: -6.463409169      3.055      7.141
REMARK  2 active torsions:
REMARK  status: ('A' for Active; 'I' for Inactive)
REMARK    1  A    between atoms: C2_2  and  C3_4 
REMARK    2  A    between atoms: C3_4  and  O2_5 
ROOT
HETATM    1  C3  UNL     1      -2.897 -17.067  -8.059  1.00  0.00     0.125 C 
HETATM    2  C4  UNL     1      -3.978 -17.198  -9.104  1.00  0.00     0.047 C 
HETATM    3  C5  UNL     1      -4.132 -18.670  -9.371  1.00  0.00     0.009 C 
HETATM    4  C6  UNL     1      -3.749 -19.267  -8.042  1.00  0.00     0.002 C 
HETATM    5  C7  UNL     1      -3.541 -20.744  -8.053  1.00  0.00    -0.003 C 
HETATM    6  C8  UNL     1      -4.150 -21.437  -9.232  1.00  0.00     0.006 C 
HETATM    7  C9  UNL     1      -3.238 -22.200 -10.119  1.00  0.00     0.013 C 
HETATM    8  C10 UNL     1      -2.644 -23.433  -9.501  1.00  0.00    -0.002 C 
HETATM    9  C11 UNL     1      -2.797 -24.701 -10.262  1.00  0.00     0.019 C 
HETATM   10  C12 UNL     1      -2.911 -23.521  -8.012  1.00  0.00     0.054 C 
HETATM   11  C13 UNL     1      -1.779 -22.558  -7.845  1.00  0.00     0.103 C 
HETATM   12  O3  UNL     1      -0.923 -23.039  -6.823  1.00  0.00    -0.365 OA
HETATM   13  C14 UNL     1      -0.418 -24.235  -7.234  1.00  0.00     0.065 A 
HETATM   14  C15 UNL     1       0.811 -24.725  -6.535  1.00  0.00     0.041 A 
HETATM   15  C16 UNL     1      -0.468 -25.478  -6.455  1.00  0.00     0.041 A 
HETATM   16  C17 UNL     1      -0.340 -24.198  -8.720  1.00  0.00     0.085 C 
HETATM   17  C18 UNL     1      -1.224 -23.055  -9.125  1.00  0.00     0.145 C 
HETATM   18  F1  UNL     1      -0.599 -22.213  -9.968  1.00  0.00    -0.239 F 
HETATM   19  C19 UNL     1      -2.137 -21.133  -7.739  1.00  0.00     0.028 C 
HETATM   20  C20 UNL     1      -1.133 -20.176  -8.346  1.00  0.00     0.009 C 
HETATM   21  C21 UNL     1      -1.290 -18.875  -7.540  1.00  0.00     0.013 C 
HETATM   22  C22 UNL     1      -2.679 -18.419  -7.428  1.00  0.00    -0.002 C 
HETATM   23  C23 UNL     1      -3.013 -18.199  -5.913  1.00  0.00     0.019 C 
ENDROOT
BRANCH   1  24
HETATM   24  C2  UNL     1      -1.734 -16.394  -8.616  1.00  0.00     0.158 C 
HETATM   25  C1  UNL     1      -1.610 -16.169 -10.080  1.00  0.00     0.094 C 
HETATM   26  O1  UNL     1      -0.817 -15.984  -7.891  1.00  0.00    -0.295 OA
ENDBRANCH   1  24
BRANCH   1  27
HETATM   27  O2  UNL     1      -3.414 -16.168  -7.069  1.00  0.00    -0.381 OA
ATOM     28  H2  UNL     1      -2.649 -15.756  -6.684  1.00  0.00     0.211 HD
ENDBRANCH   1  27
TORSDOF 2
ENDMDL
MODEL 5
REMARK VINA RESULT: -5.186079531      2.263      6.408
REMARK  2 active torsions:
REMARK  status: ('A' for Active; 'I' for Inactive)
REMARK    1  A    between atoms: C2_2  and  C3_4 
REMARK    2  A    between atoms: C3_4  and  O2_5 
ROOT
HETATM    1  C3  UNL     1      -0.413 -22.850  -7.969  1.00  0.00     0.125 C 
HETATM    2  C4  UNL     1      -0.452 -21.538  -8.713  1.00  0.00     0.047 C 
HETATM    3  C5  UNL     1      -1.633 -21.614  -9.641  1.00  0.00     0.009 C 
HETATM    4  C6  UNL     1      -2.562 -22.527  -8.885  1.00  0.00     0.002 C 
HETATM    5  C7  UNL     1      -3.732 -23.022  -9.668  1.00  0.00    -0.003 C 
HETATM    6  C8  UNL     1      -4.028 -22.217 -10.895  1.00  0.00     0.006 C 
HETATM    7  C9  UNL     1      -3.991 -22.924 -12.199  1.00  0.00     0.013 C 
HETATM    8  C10 UNL     1      -5.088 -23.930 -12.401  1.00  0.00    -0.002 C 
HETATM    9  C11 UNL     1      -5.889 -23.801 -13.647  1.00  0.00     0.019 C 
HETATM   10  C12 UNL     1      -5.875 -24.192 -11.133  1.00  0.00     0.054 C 
HETATM   11  C13 UNL     1      -4.750 -25.090 -10.728  1.00  0.00     0.103 C 
HETATM   12  O3  UNL     1      -5.294 -26.314 -10.264  1.00  0.00    -0.365 OA
HETATM   13  C14 UNL     1      -5.958 -26.892 -11.303  1.00  0.00     0.065 A 
HETATM   14  C15 UNL     1      -6.247 -28.355 -11.188  1.00  0.00     0.041 A 
HETATM   15  C16 UNL     1      -7.349 -27.359 -11.252  1.00  0.00     0.041 A 
HETATM   16  C17 UNL     1      -5.278 -26.468 -12.557  1.00  0.00     0.085 C 
HETATM   17  C18 UNL     1      -4.445 -25.284 -12.165  1.00  0.00     0.145 C 
HETATM   18  F1  UNL     1      -3.171 -25.408 -12.579  1.00  0.00    -0.239 F 
HETATM   19  C19 UNL     1      -3.715 -24.499  -9.862  1.00  0.00     0.028 C 
HETATM   20  C20 UNL     1      -2.315 -25.027 -10.091  1.00  0.00     0.009 C 
HETATM   21  C21 UNL     1      -1.610 -24.876  -8.733  1.00  0.00     0.013 C 
HETATM   22  C22 UNL     1      -1.742 -23.539  -8.147  1.00  0.00    -0.002 C 
HETATM   23  C23 UNL     1      -2.304 -23.683  -6.692  1.00  0.00     0.019 C 
ENDROOT
BRANCH   1  24
HETATM   24  C2  UNL     1       0.782 -23.600  -8.327  1.00  0.00     0.158 C 
HETATM   25  C1  UNL     1       1.517 -24.395  -7.309  1.00  0.00     0.094 C 
HETATM   26  O1  UNL     1       1.218 -23.604  -9.486  1.00  0.00    -0.295 OA
ENDBRANCH   1  24
BRANCH   1  27
HETATM   27  O2  UNL     1      -0.244 -22.513  -6.585  1.00  0.00    -0.381 OA
ATOM     28  H2  UNL     1      -1.089 -22.678  -6.184  1.00  0.00     0.211 HD
ENDBRANCH   1  27
TORSDOF 2
ENDMDL
