MODEL 1
REMARK VINA RESULT: -7.357755363      0.000      0.000
REMARK  12 active torsions:
REMARK  status: ('A' for Active; 'I' for Inactive)
REMARK    1  A    between atoms: O1_2  and  C2_3 
REMARK    2  A    between atoms: C6_9  and  O2_10 
REMARK    3  A    between atoms: C9_14  and  O4_15 
REMARK    4  A    between atoms: C12_20  and  C13_21 
REMARK    5  A    between atoms: C13_21  and  O5_22 
REMARK    6  A    between atoms: O5_22  and  C14_23 
REMARK    7  A    between atoms: C16_26  and  C17_27 
REMARK    8  A    between atoms: C17_27  and  O7_28 
REMARK    9  A    between atoms: O7_28  and  C18_29 
REMARK   10  A    between atoms: C18_29  and  C19_31 
REMARK   11  A    between atoms: C25_37  and  O9_38 
REMARK   12  A    between atoms: C27_40  and  O10_41 
ROOT
HETATM    1  C2  UNL     1     -50.164  -5.670 -23.611  1.00  0.00     0.106 A 
HETATM    2  C3  UNL     1     -49.668  -6.462 -22.592  1.00  0.00     0.070 A 
HETATM    3  C4  UNL     1     -49.481  -5.896 -21.358  1.00  0.00     0.051 A 
HETATM    4  N1  UNL     1     -48.729  -6.686 -20.526  1.00  0.00    -0.351 N 
ATOM      5  H1  UNL     1     -48.897  -7.690 -20.480  1.00  0.00     0.166 HD
HETATM    6  C5  UNL     1     -47.742  -6.109 -19.753  1.00  0.00     0.101 A 
HETATM    7  C6  UNL     1     -46.502  -6.641 -19.493  1.00  0.00     0.150 A 
HETATM    8  C8  UNL     1     -45.791  -5.710 -18.716  1.00  0.00     0.242 A 
HETATM    9  O3  UNL     1     -44.626  -5.972 -18.352  1.00  0.00    -0.282 OA
HETATM   10  C9  UNL     1     -46.552  -4.579 -18.465  1.00  0.00     0.149 A 
HETATM   11  C10 UNL     1     -47.739  -4.792 -19.083  1.00  0.00     0.106 A 
HETATM   12  N2  UNL     1     -48.780  -3.923 -19.020  1.00  0.00    -0.316 N 
HETATM   13  C11 UNL     1     -49.069  -3.108 -18.034  1.00  0.00     0.107 A 
HETATM   14  C12 UNL     1     -50.344  -2.586 -18.306  1.00  0.00    -0.007 A 
HETATM   15  C16 UNL     1     -50.827  -3.125 -19.514  1.00  0.00     0.004 A 
HETATM   16  C23 UNL     1     -49.828  -3.926 -19.922  1.00  0.00     0.063 A 
HETATM   17  C24 UNL     1     -49.802  -4.554 -21.173  1.00  0.00     0.055 A 
HETATM   18  C25 UNL     1     -50.273  -3.737 -22.152  1.00  0.00     0.119 A 
HETATM   19  C27 UNL     1     -50.466  -4.310 -23.396  1.00  0.00     0.136 A 
ENDROOT
BRANCH  15  20
HETATM   20  C17 UNL     1     -52.172  -2.830 -20.018  1.00  0.00     0.220 C 
BRANCH  20  21
HETATM   21  O7  UNL     1     -52.520  -1.477 -19.946  1.00  0.00    -0.316 OA
BRANCH  21  22
HETATM   22  C18 UNL     1     -53.430  -0.639 -20.399  1.00  0.00     0.266 C 
HETATM   23  O8  UNL     1     -54.633  -0.856 -20.110  1.00  0.00    -0.264 OA
BRANCH  22  24
HETATM   24  C19 UNL     1     -53.072   0.564 -21.249  1.00  0.00     0.037 C 
HETATM   25  C20 UNL     1     -53.020   0.274 -22.702  1.00  0.00     0.025 C 
HETATM   26  C21 UNL     1     -51.672   0.973 -20.817  1.00  0.00     0.025 C 
HETATM   27  C22 UNL     1     -53.971   1.731 -20.885  1.00  0.00     0.025 C 
ENDBRANCH  22  24
ENDBRANCH  21  22
ENDBRANCH  20  21
ENDBRANCH  15  20
BRANCH  14  28
HETATM   28  C13 UNL     1     -51.142  -1.684 -17.474  1.00  0.00     0.219 C 
BRANCH  28  29
HETATM   29  O5  UNL     1     -50.665  -0.359 -17.553  1.00  0.00    -0.317 OA
BRANCH  29  30
HETATM   30  C14 UNL     1     -51.206   0.668 -16.805  1.00  0.00     0.255 C 
HETATM   31  C15 UNL     1     -52.554   1.210 -17.182  1.00  0.00     0.126 C 
HETATM   32  O6  UNL     1     -50.649   1.197 -15.819  1.00  0.00    -0.266 OA
ENDBRANCH  29  30
ENDBRANCH  28  29
ENDBRANCH  14  28
BRANCH  18  33
HETATM   33  O9  UNL     1     -50.500  -2.413 -21.937  1.00  0.00    -0.352 OA
HETATM   34  C26 UNL     1     -49.460  -1.431 -22.010  1.00  0.00     0.210 C 
ENDBRANCH  18  33
BRANCH  10  35
HETATM   35  O4  UNL     1     -46.194  -3.454 -17.741  1.00  0.00    -0.355 OA
ATOM     36  H4  UNL     1     -46.620  -2.605 -17.731  1.00  0.00     0.218 HD
ENDBRANCH  10  35
BRANCH  19  37
HETATM   37  O10 UNL     1     -50.960  -3.531 -24.400  1.00  0.00    -0.351 OA
HETATM   38  C28 UNL     1     -52.247  -3.242 -24.794  1.00  0.00     0.210 C 
ENDBRANCH  19  37
BRANCH   7  39
HETATM   39  O2  UNL     1     -46.092  -7.857 -19.942  1.00  0.00    -0.350 OA
HETATM   40  C7  UNL     1     -45.517  -8.332 -21.077  1.00  0.00     0.210 C 
ENDBRANCH   7  39
BRANCH   1  41
HETATM   41  O1  UNL     1     -50.354  -6.249 -24.868  1.00  0.00    -0.353 OA
HETATM   42  C1  UNL     1     -49.776  -7.474 -25.251  1.00  0.00     0.210 C 
ENDBRANCH   1  41
TORSDOF 12
ENDMDL
MODEL 2
REMARK VINA RESULT: -7.320707849      1.260      1.547
REMARK  12 active torsions:
REMARK  status: ('A' for Active; 'I' for Inactive)
REMARK    1  A    between atoms: O1_2  and  C2_3 
REMARK    2  A    between atoms: C6_9  and  O2_10 
REMARK    3  A    between atoms: C9_14  and  O4_15 
REMARK    4  A    between atoms: C12_20  and  C13_21 
REMARK    5  A    between atoms: C13_21  and  O5_22 
REMARK    6  A    between atoms: O5_22  and  C14_23 
REMARK    7  A    between atoms: C16_26  and  C17_27 
REMARK    8  A    between atoms: C17_27  and  O7_28 
REMARK    9  A    between atoms: O7_28  and  C18_29 
REMARK   10  A    between atoms: C18_29  and  C19_31 
REMARK   11  A    between atoms: C25_37  and  O9_38 
REMARK   12  A    between atoms: C27_40  and  O10_41 
ROOT
HETATM    1  C2  UNL     1     -50.085  -5.695 -23.612  1.00  0.00     0.106 A 
HETATM    2  C3  UNL     1     -49.730  -6.591 -22.621  1.00  0.00     0.070 A 
HETATM    3  C4  UNL     1     -49.631  -6.135 -21.333  1.00  0.00     0.051 A 
HETATM    4  N1  UNL     1     -49.004  -7.031 -20.505  1.00  0.00    -0.351 N 
ATOM      5  H1  UNL     1     -49.229  -8.024 -20.557  1.00  0.00     0.166 HD
HETATM    6  C5  UNL     1     -48.066  -6.576 -19.601  1.00  0.00     0.101 A 
HETATM    7  C6  UNL     1     -46.886  -7.200 -19.275  1.00  0.00     0.150 A 
HETATM    8  C8  UNL     1     -46.203  -6.376 -18.363  1.00  0.00     0.242 A 
HETATM    9  O3  UNL     1     -45.094  -6.735 -17.918  1.00  0.00    -0.282 OA
HETATM   10  C9  UNL     1     -46.924  -5.224 -18.089  1.00  0.00     0.149 A 
HETATM   11  C10 UNL     1     -48.057  -5.317 -18.827  1.00  0.00     0.106 A 
HETATM   12  N2  UNL     1     -49.052  -4.394 -18.786  1.00  0.00    -0.316 N 
HETATM   13  C11 UNL     1     -49.389  -3.642 -17.767  1.00  0.00     0.107 A 
HETATM   14  C12 UNL     1     -50.603  -3.025 -18.109  1.00  0.00    -0.007 A 
HETATM   15  C16 UNL     1     -50.998  -3.439 -19.396  1.00  0.00     0.004 A 
HETATM   16  C23 UNL     1     -50.008  -4.265 -19.777  1.00  0.00     0.063 A 
HETATM   17  C24 UNL     1     -49.897  -4.795 -21.067  1.00  0.00     0.055 A 
HETATM   18  C25 UNL     1     -50.229  -3.877 -22.015  1.00  0.00     0.119 A 
HETATM   19  C27 UNL     1     -50.333  -4.339 -23.313  1.00  0.00     0.136 A 
ENDROOT
BRANCH  15  20
HETATM   20  C17 UNL     1     -52.272  -3.025 -19.993  1.00  0.00     0.220 C 
BRANCH  20  21
HETATM   21  O7  UNL     1     -52.510  -1.649 -19.922  1.00  0.00    -0.316 OA
BRANCH  21  22
HETATM   22  C18 UNL     1     -53.338  -0.738 -20.394  1.00  0.00     0.266 C 
HETATM   23  O8  UNL     1     -54.545  -0.802 -20.056  1.00  0.00    -0.264 OA
BRANCH  22  24
HETATM   24  C19 UNL     1     -52.879   0.370 -21.320  1.00  0.00     0.037 C 
HETATM   25  C20 UNL     1     -52.668  -0.071 -22.719  1.00  0.00     0.025 C 
HETATM   26  C21 UNL     1     -51.534   0.830 -20.781  1.00  0.00     0.025 C 
HETATM   27  C22 UNL     1     -53.805   1.564 -21.183  1.00  0.00     0.025 C 
ENDBRANCH  22  24
ENDBRANCH  21  22
ENDBRANCH  20  21
ENDBRANCH  15  20
BRANCH  14  28
HETATM   28  C13 UNL     1     -51.428  -2.144 -17.280  1.00  0.00     0.219 C 
BRANCH  28  29
HETATM   29  O5  UNL     1     -51.214  -2.386 -15.907  1.00  0.00    -0.317 OA
BRANCH  29  30
HETATM   30  C14 UNL     1     -52.060  -3.173 -15.153  1.00  0.00     0.255 C 
HETATM   31  C15 UNL     1     -52.250  -2.853 -13.699  1.00  0.00     0.126 C 
HETATM   32  O6  UNL     1     -52.695  -4.157 -15.593  1.00  0.00    -0.266 OA
ENDBRANCH  29  30
ENDBRANCH  28  29
ENDBRANCH  14  28
BRANCH  18  33
HETATM   33  O9  UNL     1     -50.406  -2.562 -21.713  1.00  0.00    -0.352 OA
HETATM   34  C26 UNL     1     -49.345  -1.603 -21.799  1.00  0.00     0.210 C 
ENDBRANCH  18  33
BRANCH  10  35
HETATM   35  O4  UNL     1     -46.577  -4.182 -17.246  1.00  0.00    -0.355 OA
ATOM     36  H4  UNL     1     -47.119  -3.457 -16.959  1.00  0.00     0.218 HD
ENDBRANCH  10  35
BRANCH  19  37
HETATM   37  O10 UNL     1     -50.688  -3.457 -24.291  1.00  0.00    -0.351 OA
HETATM   38  C28 UNL     1     -51.911  -3.108 -24.817  1.00  0.00     0.210 C 
ENDBRANCH  19  37
BRANCH   7  39
HETATM   39  O2  UNL     1     -46.499  -8.400 -19.785  1.00  0.00    -0.350 OA
HETATM   40  C7  UNL     1     -45.854  -8.820 -20.903  1.00  0.00     0.210 C 
ENDBRANCH   7  39
BRANCH   1  41
HETATM   41  O1  UNL     1     -50.185  -6.163 -24.925  1.00  0.00    -0.353 OA
HETATM   42  C1  UNL     1     -49.734  -7.433 -25.330  1.00  0.00     0.210 C 
ENDBRANCH   1  41
TORSDOF 12
ENDMDL
MODEL 3
REMARK VINA RESULT: -7.319392550      4.943      9.696
REMARK  12 active torsions:
REMARK  status: ('A' for Active; 'I' for Inactive)
REMARK    1  A    between atoms: O1_2  and  C2_3 
REMARK    2  A    between atoms: C6_9  and  O2_10 
REMARK    3  A    between atoms: C9_14  and  O4_15 
REMARK    4  A    between atoms: C12_20  and  C13_21 
REMARK    5  A    between atoms: C13_21  and  O5_22 
REMARK    6  A    between atoms: O5_22  and  C14_23 
REMARK    7  A    between atoms: C16_26  and  C17_27 
REMARK    8  A    between atoms: C17_27  and  O7_28 
REMARK    9  A    between atoms: O7_28  and  C18_29 
REMARK   10  A    between atoms: C18_29  and  C19_31 
REMARK   11  A    between atoms: C25_37  and  O9_38 
REMARK   12  A    between atoms: C27_40  and  O10_41 
ROOT
HETATM    1  C2  UNL     1     -53.188   4.422 -15.652  1.00  0.00     0.106 A 
HETATM    2  C3  UNL     1     -53.576   3.531 -16.635  1.00  0.00     0.070 A 
HETATM    3  C4  UNL     1     -53.111   2.244 -16.571  1.00  0.00     0.051 A 
HETATM    4  N1  UNL     1     -53.325   1.549 -17.734  1.00  0.00    -0.351 N 
ATOM      5  H1  UNL     1     -54.217   1.624 -18.221  1.00  0.00     0.166 HD
HETATM    6  C5  UNL     1     -52.321   0.748 -18.239  1.00  0.00     0.101 A 
HETATM    7  C6  UNL     1     -51.988   0.607 -19.565  1.00  0.00     0.150 A 
HETATM    8  C8  UNL     1     -50.878  -0.254 -19.638  1.00  0.00     0.242 A 
HETATM    9  O3  UNL     1     -50.389  -0.536 -20.751  1.00  0.00    -0.282 OA
HETATM   10  C9  UNL     1     -50.485  -0.676 -18.378  1.00  0.00     0.149 A 
HETATM   11  C10 UNL     1     -51.341  -0.083 -17.510  1.00  0.00     0.106 A 
HETATM   12  N2  UNL     1     -51.312  -0.296 -16.169  1.00  0.00    -0.316 N 
HETATM   13  C11 UNL     1     -50.928  -1.388 -15.552  1.00  0.00     0.107 A 
HETATM   14  C12 UNL     1     -51.291  -1.234 -14.204  1.00  0.00    -0.007 A 
HETATM   15  C16 UNL     1     -51.920   0.012 -14.023  1.00  0.00     0.004 A 
HETATM   16  C23 UNL     1     -51.896   0.558 -15.251  1.00  0.00     0.063 A 
HETATM   17  C24 UNL     1     -52.276   1.878 -15.519  1.00  0.00     0.055 A 
HETATM   18  C25 UNL     1     -51.855   2.726 -14.543  1.00  0.00     0.119 A 
HETATM   19  C27 UNL     1     -52.328   4.024 -14.607  1.00  0.00     0.136 A 
ENDROOT
BRANCH  15  20
HETATM   20  C17 UNL     1     -52.485   0.421 -12.733  1.00  0.00     0.220 C 
BRANCH  20  21
HETATM   21  O7  UNL     1     -53.770  -0.077 -12.494  1.00  0.00    -0.316 OA
BRANCH  21  22
HETATM   22  C18 UNL     1     -54.598  -0.308 -11.495  1.00  0.00     0.266 C 
HETATM   23  O8  UNL     1     -55.198  -1.410 -11.466  1.00  0.00    -0.264 OA
BRANCH  22  24
HETATM   24  C19 UNL     1     -54.842   0.705 -10.395  1.00  0.00     0.037 C 
HETATM   25  C20 UNL     1     -53.636   1.013  -9.589  1.00  0.00     0.025 C 
HETATM   26  C21 UNL     1     -55.859   0.066  -9.463  1.00  0.00     0.025 C 
HETATM   27  C22 UNL     1     -55.526   1.929 -10.972  1.00  0.00     0.025 C 
ENDBRANCH  22  24
ENDBRANCH  21  22
ENDBRANCH  20  21
ENDBRANCH  15  20
BRANCH  14  28
HETATM   28  C13 UNL     1     -51.144  -2.205 -13.119  1.00  0.00     0.219 C 
BRANCH  28  29
HETATM   29  O5  UNL     1     -51.424  -3.514 -13.562  1.00  0.00    -0.317 OA
BRANCH  29  30
HETATM   30  C14 UNL     1     -52.696  -3.923 -13.907  1.00  0.00     0.255 C 
HETATM   31  C15 UNL     1     -53.699  -4.178 -12.819  1.00  0.00     0.126 C 
HETATM   32  O6  UNL     1     -53.090  -4.105 -15.080  1.00  0.00    -0.266 OA
ENDBRANCH  29  30
ENDBRANCH  28  29
ENDBRANCH  14  28
BRANCH  18  33
HETATM   33  O9  UNL     1     -50.978   2.337 -13.579  1.00  0.00    -0.352 OA
HETATM   34  C26 UNL     1     -49.571   2.590 -13.670  1.00  0.00     0.210 C 
ENDBRANCH  18  33
BRANCH  10  35
HETATM   35  O4  UNL     1     -49.439  -1.521 -18.049  1.00  0.00    -0.355 OA
ATOM     36  H4  UNL     1     -48.749  -1.379 -17.413  1.00  0.00     0.218 HD
ENDBRANCH  10  35
BRANCH  19  37
HETATM   37  O10 UNL     1     -51.950   4.902 -13.634  1.00  0.00    -0.351 OA
HETATM   38  C28 UNL     1     -51.029   5.925 -13.624  1.00  0.00     0.210 C 
ENDBRANCH  19  37
BRANCH   7  39
HETATM   39  O2  UNL     1     -52.649   1.223 -20.581  1.00  0.00    -0.350 OA
HETATM   40  C7  UNL     1     -53.761   0.965 -21.316  1.00  0.00     0.210 C 
ENDBRANCH   7  39
BRANCH   1  41
HETATM   41  O1  UNL     1     -53.663   5.734 -15.720  1.00  0.00    -0.353 OA
HETATM   42  C1  UNL     1     -54.689   6.229 -14.894  1.00  0.00     0.210 C 
ENDBRANCH   1  41
TORSDOF 12
ENDMDL
MODEL 4
REMARK VINA RESULT: -7.206284762      1.949      2.679
REMARK  12 active torsions:
REMARK  status: ('A' for Active; 'I' for Inactive)
REMARK    1  A    between atoms: O1_2  and  C2_3 
REMARK    2  A    between atoms: C6_9  and  O2_10 
REMARK    3  A    between atoms: C9_14  and  O4_15 
REMARK    4  A    between atoms: C12_20  and  C13_21 
REMARK    5  A    between atoms: C13_21  and  O5_22 
REMARK    6  A    between atoms: O5_22  and  C14_23 
REMARK    7  A    between atoms: C16_26  and  C17_27 
REMARK    8  A    between atoms: C17_27  and  O7_28 
REMARK    9  A    between atoms: O7_28  and  C18_29 
REMARK   10  A    between atoms: C18_29  and  C19_31 
REMARK   11  A    between atoms: C25_37  and  O9_38 
REMARK   12  A    between atoms: C27_40  and  O10_41 
ROOT
HETATM    1  C2  UNL     1     -51.810  -3.896 -24.282  1.00  0.00     0.106 A 
HETATM    2  C3  UNL     1     -51.664  -5.139 -23.694  1.00  0.00     0.070 A 
HETATM    3  C4  UNL     1     -51.223  -5.200 -22.398  1.00  0.00     0.051 A 
HETATM    4  N1  UNL     1     -50.849  -6.467 -22.030  1.00  0.00    -0.351 N 
ATOM      5  H1  UNL     1     -51.422  -7.269 -22.292  1.00  0.00     0.166 HD
HETATM    6  C5  UNL     1     -49.691  -6.647 -21.302  1.00  0.00     0.101 A 
HETATM    7  C6  UNL     1     -48.781  -7.665 -21.465  1.00  0.00     0.150 A 
HETATM    8  C8  UNL     1     -47.724  -7.443 -20.566  1.00  0.00     0.242 A 
HETATM    9  O3  UNL     1     -46.767  -8.244 -20.529  1.00  0.00    -0.282 OA
HETATM   10  C9  UNL     1     -47.933  -6.295 -19.817  1.00  0.00     0.149 A 
HETATM   11  C10 UNL     1     -49.117  -5.791 -20.243  1.00  0.00     0.106 A 
HETATM   12  N2  UNL     1     -49.695  -4.687 -19.705  1.00  0.00    -0.316 N 
HETATM   13  C11 UNL     1     -49.588  -4.264 -18.468  1.00  0.00     0.107 A 
HETATM   14  C12 UNL     1     -50.534  -3.237 -18.314  1.00  0.00    -0.007 A 
HETATM   15  C16 UNL     1     -51.232  -3.051 -19.523  1.00  0.00     0.004 A 
HETATM   16  C23 UNL     1     -50.672  -3.950 -20.350  1.00  0.00     0.063 A 
HETATM   17  C24 UNL     1     -50.946  -4.016 -21.720  1.00  0.00     0.055 A 
HETATM   18  C25 UNL     1     -51.058  -2.776 -22.268  1.00  0.00     0.119 A 
HETATM   19  C27 UNL     1     -51.507  -2.715 -23.574  1.00  0.00     0.136 A 
ENDROOT
BRANCH  15  20
HETATM   20  C17 UNL     1     -52.342  -2.101 -19.644  1.00  0.00     0.220 C 
BRANCH  20  21
HETATM   21  O7  UNL     1     -52.028  -0.804 -19.225  1.00  0.00    -0.316 OA
BRANCH  21  22
HETATM   22  C18 UNL     1     -52.553   0.404 -19.186  1.00  0.00     0.266 C 
HETATM   23  O8  UNL     1     -52.417   1.076 -18.134  1.00  0.00    -0.264 OA
BRANCH  22  24
HETATM   24  C19 UNL     1     -53.305   0.998 -20.360  1.00  0.00     0.037 C 
HETATM   25  C20 UNL     1     -52.438   1.339 -21.513  1.00  0.00     0.025 C 
HETATM   26  C21 UNL     1     -53.912   2.295 -19.849  1.00  0.00     0.025 C 
HETATM   27  C22 UNL     1     -54.480   0.106 -20.716  1.00  0.00     0.025 C 
ENDBRANCH  22  24
ENDBRANCH  21  22
ENDBRANCH  20  21
ENDBRANCH  15  20
BRANCH  14  28
HETATM   28  C13 UNL     1     -50.857  -2.490 -17.097  1.00  0.00     0.219 C 
BRANCH  28  29
HETATM   29  O5  UNL     1     -50.974  -3.349 -15.985  1.00  0.00    -0.317 OA
BRANCH  29  30
HETATM   30  C14 UNL     1     -52.082  -3.347 -15.161  1.00  0.00     0.255 C 
HETATM   31  C15 UNL     1     -52.187  -2.304 -14.086  1.00  0.00     0.126 C 
HETATM   32  O6  UNL     1     -53.025  -4.165 -15.237  1.00  0.00    -0.266 OA
ENDBRANCH  29  30
ENDBRANCH  28  29
ENDBRANCH  14  28
BRANCH  18  33
HETATM   33  O9  UNL     1     -50.703  -1.654 -21.585  1.00  0.00    -0.352 OA
HETATM   34  C26 UNL     1     -49.364  -1.143 -21.586  1.00  0.00     0.210 C 
ENDBRANCH  18  33
BRANCH  10  35
HETATM   35  O4  UNL     1     -47.117  -5.756 -18.838  1.00  0.00    -0.355 OA
ATOM     36  H4  UNL     1     -46.534  -5.009 -18.907  1.00  0.00     0.218 HD
ENDBRANCH  10  35
BRANCH  19  37
HETATM   37  O10 UNL     1     -51.656  -1.489 -24.153  1.00  0.00    -0.351 OA
HETATM   38  C28 UNL     1     -52.772  -0.734 -24.437  1.00  0.00     0.210 C 
ENDBRANCH  19  37
BRANCH   7  39
HETATM   39  O2  UNL     1     -48.932  -8.676 -22.362  1.00  0.00    -0.350 OA
HETATM   40  C7  UNL     1     -48.473  -8.945 -23.611  1.00  0.00     0.210 C 
ENDBRANCH   7  39
BRANCH   1  41
HETATM   41  O1  UNL     1     -52.259  -3.836 -25.604  1.00  0.00    -0.353 OA
HETATM   42  C1  UNL     1     -51.411  -3.986 -26.716  1.00  0.00     0.210 C 
ENDBRANCH   1  41
TORSDOF 12
ENDMDL
MODEL 5
REMARK VINA RESULT: -7.176629894      1.882      5.659
REMARK  12 active torsions:
REMARK  status: ('A' for Active; 'I' for Inactive)
REMARK    1  A    between atoms: O1_2  and  C2_3 
REMARK    2  A    between atoms: C6_9  and  O2_10 
REMARK    3  A    between atoms: C9_14  and  O4_15 
REMARK    4  A    between atoms: C12_20  and  C13_21 
REMARK    5  A    between atoms: C13_21  and  O5_22 
REMARK    6  A    between atoms: O5_22  and  C14_23 
REMARK    7  A    between atoms: C16_26  and  C17_27 
REMARK    8  A    between atoms: C17_27  and  O7_28 
REMARK    9  A    between atoms: O7_28  and  C18_29 
REMARK   10  A    between atoms: C18_29  and  C19_31 
REMARK   11  A    between atoms: C25_37  and  O9_38 
REMARK   12  A    between atoms: C27_40  and  O10_41 
ROOT
HETATM    1  C2  UNL     1     -47.910  -3.222 -17.017  1.00  0.00     0.106 A 
HETATM    2  C3  UNL     1     -47.230  -4.147 -17.786  1.00  0.00     0.070 A 
HETATM    3  C4  UNL     1     -47.712  -4.438 -19.035  1.00  0.00     0.051 A 
HETATM    4  N1  UNL     1     -47.133  -5.558 -19.575  1.00  0.00    -0.351 N 
ATOM      5  H1  UNL     1     -46.127  -5.707 -19.494  1.00  0.00     0.166 HD
HETATM    6  C5  UNL     1     -47.922  -6.481 -20.229  1.00  0.00     0.101 A 
HETATM    7  C6  UNL     1     -47.795  -7.848 -20.162  1.00  0.00     0.150 A 
HETATM    8  C8  UNL     1     -48.830  -8.412 -20.928  1.00  0.00     0.242 A 
HETATM    9  O3  UNL     1     -48.923  -9.654 -21.019  1.00  0.00    -0.282 OA
HETATM   10  C9  UNL     1     -49.630  -7.432 -21.493  1.00  0.00     0.149 A 
HETATM   11  C10 UNL     1     -49.104  -6.251 -21.085  1.00  0.00     0.106 A 
HETATM   12  N2  UNL     1     -49.585  -5.044 -21.480  1.00  0.00    -0.316 N 
HETATM   13  C11 UNL     1     -50.171  -4.763 -22.619  1.00  0.00     0.107 A 
HETATM   14  C12 UNL     1     -50.279  -3.364 -22.678  1.00  0.00    -0.007 A 
HETATM   15  C16 UNL     1     -49.726  -2.797 -21.514  1.00  0.00     0.004 A 
HETATM   16  C23 UNL     1     -49.328  -3.866 -20.803  1.00  0.00     0.063 A 
HETATM   17  C24 UNL     1     -48.857  -3.788 -19.487  1.00  0.00     0.055 A 
HETATM   18  C25 UNL     1     -49.566  -2.887 -18.756  1.00  0.00     0.119 A 
HETATM   19  C27 UNL     1     -49.077  -2.591 -17.497  1.00  0.00     0.136 A 
ENDROOT
BRANCH  15  20
HETATM   20  C17 UNL     1     -49.618  -1.346 -21.327  1.00  0.00     0.220 C 
BRANCH  20  21
HETATM   21  O7  UNL     1     -50.807  -0.653 -21.579  1.00  0.00    -0.316 OA
BRANCH  21  22
HETATM   22  C18 UNL     1     -51.656   0.155 -20.976  1.00  0.00     0.266 C 
HETATM   23  O8  UNL     1     -51.278   0.740 -19.932  1.00  0.00    -0.264 OA
BRANCH  22  24
HETATM   24  C19 UNL     1     -53.057   0.394 -21.501  1.00  0.00     0.037 C 
HETATM   25  C20 UNL     1     -53.191   0.181 -22.962  1.00  0.00     0.025 C 
HETATM   26  C21 UNL     1     -53.357   1.859 -21.227  1.00  0.00     0.025 C 
HETATM   27  C22 UNL     1     -54.054  -0.392 -20.671  1.00  0.00     0.025 C 
ENDBRANCH  22  24
ENDBRANCH  21  22
ENDBRANCH  20  21
ENDBRANCH  15  20
BRANCH  14  28
HETATM   28  C13 UNL     1     -50.798  -2.549 -23.778  1.00  0.00     0.219 C 
BRANCH  28  29
HETATM   29  O5  UNL     1     -50.470  -3.111 -25.030  1.00  0.00    -0.317 OA
BRANCH  29  30
HETATM   30  C14 UNL     1     -51.193  -2.843 -26.174  1.00  0.00     0.255 C 
HETATM   31  C15 UNL     1     -51.870  -1.511 -26.312  1.00  0.00     0.126 C 
HETATM   32  O6  UNL     1     -51.336  -3.641 -27.127  1.00  0.00    -0.266 OA
ENDBRANCH  29  30
ENDBRANCH  28  29
ENDBRANCH  14  28
BRANCH  18  33
HETATM   33  O9  UNL     1     -50.722  -2.336 -19.216  1.00  0.00    -0.352 OA
HETATM   34  C26 UNL     1     -51.995  -2.974 -19.057  1.00  0.00     0.210 C 
ENDBRANCH  18  33
BRANCH  10  35
HETATM   35  O4  UNL     1     -50.739  -7.599 -22.304  1.00  0.00    -0.355 OA
ATOM     36  H4  UNL     1     -51.443  -6.982 -22.468  1.00  0.00     0.218 HD
ENDBRANCH  10  35
BRANCH  19  37
HETATM   37  O10 UNL     1     -49.744  -1.674 -16.739  1.00  0.00    -0.351 OA
HETATM   38  C28 UNL     1     -50.713  -1.810 -15.771  1.00  0.00     0.210 C 
ENDBRANCH  19  37
BRANCH   7  39
HETATM   39  O2  UNL     1     -46.821  -8.483 -19.457  1.00  0.00    -0.350 OA
HETATM   40  C7  UNL     1     -45.634  -9.074 -19.751  1.00  0.00     0.210 C 
ENDBRANCH   7  39
BRANCH   1  41
HETATM   41  O1  UNL     1     -47.418  -2.928 -15.743  1.00  0.00    -0.353 OA
HETATM   42  C1  UNL     1     -47.674  -3.724 -14.612  1.00  0.00     0.210 C 
ENDBRANCH   1  41
TORSDOF 12
ENDMDL
