MODEL 1
REMARK VINA RESULT: -6.325639598      0.000      0.000
REMARK  13 active torsions:
REMARK  status: ('A' for Active; 'I' for Inactive)
REMARK    1  A    between atoms: C2_2  and  O2_4 
REMARK    2  A    between atoms: O2_4  and  C3_5 
REMARK    3  A    between atoms: C5_8  and  C6_9 
REMARK    4  A    between atoms: C6_9  and  O4_10 
REMARK    5  A    between atoms: O4_10  and  C7_11 
REMARK    6  A    between atoms: C11_15  and  O5_16 
REMARK    7  A    between atoms: O5_16  and  C12_17 
REMARK    8  A    between atoms: C12_17  and  C13_19 
REMARK    9  A    between atoms: C13_19  and  C14_20 
REMARK   10  A    between atoms: N1_21  and  O7_23 
REMARK   11  A    between atoms: C16_26  and  O8_27 
REMARK   12  A    between atoms: O8_27  and  C17_28 
REMARK   13  A    between atoms: C23_35  and  O10_36 
ROOT
HETATM    1  C3  UNL     1     -52.101  -0.457 -12.004  1.00  0.00     0.167 C 
HETATM    2  C4  UNL     1     -52.966   0.444 -12.833  1.00  0.00     0.202 C 
HETATM    3  O3  UNL     1     -52.194   1.491 -13.154  1.00  0.00    -0.372 OA
HETATM    4  C5  UNL     1     -51.563   1.508 -14.398  1.00  0.00     0.118 C 
HETATM    5  C11 UNL     1     -51.833   0.466 -15.354  1.00  0.00     0.172 C 
HETATM    6  C15 UNL     1     -51.591  -0.952 -15.167  1.00  0.00     0.075 C 
HETATM    7  C16 UNL     1     -51.063  -1.671 -14.024  1.00  0.00     0.086 C 
HETATM    8  C19 UNL     1     -49.539  -1.876 -14.323  1.00  0.00     0.018 C 
HETATM    9  C20 UNL     1     -49.097  -3.274 -14.475  1.00  0.00     0.013 C 
HETATM   10  C21 UNL     1     -48.772  -1.077 -13.354  1.00  0.00     0.015 C 
HETATM   11  C22 UNL     1     -49.720  -0.267 -12.552  1.00  0.00     0.029 C 
HETATM   12  C23 UNL     1     -49.767   1.151 -12.776  1.00  0.00     0.134 C 
HETATM   13  C24 UNL     1     -50.129   1.795 -14.054  1.00  0.00     0.015 C 
HETATM   14  C25 UNL     1     -50.110   3.301 -13.650  1.00  0.00     0.020 C 
HETATM   15  C26 UNL     1     -49.140   1.785 -15.133  1.00  0.00     0.020 C 
HETATM   16  C27 UNL     1     -50.975  -1.108 -12.677  1.00  0.00     0.023 C 
HETATM   17  C28 UNL     1     -50.682  -2.305 -11.731  1.00  0.00     0.022 C 
ENDROOT
BRANCH   5  18
HETATM   18  O5  UNL     1     -51.163   0.859 -16.575  1.00  0.00    -0.312 OA
BRANCH  18  19
HETATM   19  C12 UNL     1     -51.603   0.564 -17.840  1.00  0.00     0.264 C 
HETATM   20  O6  UNL     1     -50.931  -0.304 -18.489  1.00  0.00    -0.265 OA
BRANCH  19  21
HETATM   21  C13 UNL     1     -52.793   1.196 -18.463  1.00  0.00     0.157 C 
BRANCH  21  22
HETATM   22  C14 UNL     1     -53.324   0.494 -19.632  1.00  0.00     0.096 C 
HETATM   23  N1  UNL     1     -54.162   1.033 -20.466  1.00  0.00    -0.284 N 
ATOM     24  H1  UNL     1     -54.492   0.484 -21.260  1.00  0.00     0.192 HD
BRANCH  23  25
HETATM   25  O7  UNL     1     -54.618   2.321 -20.311  1.00  0.00    -0.291 OA
ATOM     26  H7  UNL     1     -55.269   2.548 -19.657  1.00  0.00     0.244 HD
ENDBRANCH  23  25
ENDBRANCH  21  22
ENDBRANCH  19  21
ENDBRANCH  18  19
ENDBRANCH   5  18
BRANCH   4  27
HETATM   27  C6  UNL     1     -52.228   2.783 -14.943  1.00  0.00     0.209 C 
BRANCH  27  28
HETATM   28  O4  UNL     1     -52.793   3.366 -13.773  1.00  0.00    -0.383 OA
BRANCH  28  29
HETATM   29  C7  UNL     1     -53.027   4.710 -13.926  1.00  0.00     0.121 C 
HETATM   30  C8  UNL     1     -53.396   5.047 -15.345  1.00  0.00     0.032 C 
HETATM   31  C9  UNL     1     -54.343   6.104 -14.756  1.00  0.00     0.005 C 
HETATM   32  C10 UNL     1     -54.409   5.187 -13.535  1.00  0.00     0.032 C 
ENDBRANCH  28  29
ENDBRANCH  27  28
ENDBRANCH   4  27
BRANCH   7  33
HETATM   33  O8  UNL     1     -51.441  -3.029 -13.990  1.00  0.00    -0.309 OA
BRANCH  33  34
HETATM   34  C17 UNL     1     -52.568  -3.680 -14.218  1.00  0.00     0.255 C 
HETATM   35  C18 UNL     1     -53.542  -4.054 -13.152  1.00  0.00     0.126 C 
HETATM   36  O9  UNL     1     -52.792  -3.974 -15.382  1.00  0.00    -0.266 OA
ENDBRANCH  33  34
ENDBRANCH   7  33
BRANCH  12  37
HETATM   37  O10 UNL     1     -48.463   1.637 -12.467  1.00  0.00    -0.394 OA
ATOM     38  H10 UNL     1     -47.860   0.954 -12.737  1.00  0.00     0.210 HD
ENDBRANCH  12  37
BRANCH   1  39
HETATM   39  O2  UNL     1     -52.913  -1.263 -11.179  1.00  0.00    -0.313 OA
BRANCH  39  40
HETATM   40  C2  UNL     1     -54.085  -0.914 -10.579  1.00  0.00     0.255 C 
HETATM   41  C1  UNL     1     -55.418  -1.429 -11.007  1.00  0.00     0.126 C 
HETATM   42  O1  UNL     1     -54.017  -0.105  -9.605  1.00  0.00    -0.266 OA
ENDBRANCH  39  40
ENDBRANCH   1  39
TORSDOF 13
ENDMDL
MODEL 2
REMARK VINA RESULT: -6.315832415      2.203      4.912
REMARK  13 active torsions:
REMARK  status: ('A' for Active; 'I' for Inactive)
REMARK    1  A    between atoms: C2_2  and  O2_4 
REMARK    2  A    between atoms: O2_4  and  C3_5 
REMARK    3  A    between atoms: C5_8  and  C6_9 
REMARK    4  A    between atoms: C6_9  and  O4_10 
REMARK    5  A    between atoms: O4_10  and  C7_11 
REMARK    6  A    between atoms: C11_15  and  O5_16 
REMARK    7  A    between atoms: O5_16  and  C12_17 
REMARK    8  A    between atoms: C12_17  and  C13_19 
REMARK    9  A    between atoms: C13_19  and  C14_20 
REMARK   10  A    between atoms: N1_21  and  O7_23 
REMARK   11  A    between atoms: C16_26  and  O8_27 
REMARK   12  A    between atoms: O8_27  and  C17_28 
REMARK   13  A    between atoms: C23_35  and  O10_36 
ROOT
HETATM    1  C3  UNL     1     -52.312   2.872 -12.363  1.00  0.00     0.167 C 
HETATM    2  C4  UNL     1     -52.368   2.501 -13.814  1.00  0.00     0.202 C 
HETATM    3  O3  UNL     1     -51.097   2.290 -14.183  1.00  0.00    -0.372 OA
HETATM    4  C5  UNL     1     -50.611   0.983 -14.213  1.00  0.00     0.118 C 
HETATM    5  C11 UNL     1     -51.500  -0.119 -13.956  1.00  0.00     0.172 C 
HETATM    6  C15 UNL     1     -52.254  -0.348 -12.738  1.00  0.00     0.075 C 
HETATM    7  C16 UNL     1     -52.332   0.438 -11.522  1.00  0.00     0.086 C 
HETATM    8  C19 UNL     1     -51.321  -0.226 -10.527  1.00  0.00     0.018 C 
HETATM    9  C20 UNL     1     -51.910  -0.813  -9.309  1.00  0.00     0.013 C 
HETATM   10  C21 UNL     1     -50.217   0.721 -10.296  1.00  0.00     0.015 C 
HETATM   11  C22 UNL     1     -50.396   1.884 -11.197  1.00  0.00     0.029 C 
HETATM   12  C23 UNL     1     -49.496   2.035 -12.306  1.00  0.00     0.134 C 
HETATM   13  C24 UNL     1     -49.344   1.067 -13.409  1.00  0.00     0.015 C 
HETATM   14  C25 UNL     1     -48.337   1.818 -14.334  1.00  0.00     0.020 C 
HETATM   15  C26 UNL     1     -48.606  -0.168 -13.143  1.00  0.00     0.020 C 
HETATM   16  C27 UNL     1     -51.894   1.830 -11.422  1.00  0.00     0.023 C 
HETATM   17  C28 UNL     1     -52.464   2.363 -10.078  1.00  0.00     0.022 C 
ENDROOT
BRANCH   5  18
HETATM   18  O5  UNL     1     -50.737  -1.320 -14.221  1.00  0.00    -0.312 OA
BRANCH  18  19
HETATM   19  C12 UNL     1     -51.278  -2.534 -14.558  1.00  0.00     0.264 C 
HETATM   20  O6  UNL     1     -51.680  -2.666 -15.761  1.00  0.00    -0.265 OA
BRANCH  19  21
HETATM   21  C13 UNL     1     -51.410  -3.665 -13.606  1.00  0.00     0.157 C 
BRANCH  21  22
HETATM   22  C14 UNL     1     -52.686  -3.727 -12.891  1.00  0.00     0.096 C 
HETATM   23  N1  UNL     1     -53.796  -4.107 -13.448  1.00  0.00    -0.284 N 
ATOM     24  H1  UNL     1     -54.649  -4.124 -12.889  1.00  0.00     0.192 HD
BRANCH  23  25
HETATM   25  O7  UNL     1     -53.857  -4.486 -14.768  1.00  0.00    -0.291 OA
ATOM     26  H7  UNL     1     -54.564  -4.209 -15.339  1.00  0.00     0.244 HD
ENDBRANCH  23  25
ENDBRANCH  21  22
ENDBRANCH  19  21
ENDBRANCH  18  19
ENDBRANCH   5  18
BRANCH   4  27
HETATM   27  C6  UNL     1     -50.270   0.929 -15.711  1.00  0.00     0.209 C 
BRANCH  27  28
HETATM   28  O4  UNL     1     -51.502   0.526 -16.298  1.00  0.00    -0.383 OA
BRANCH  28  29
HETATM   29  C7  UNL     1     -51.706   1.109 -17.524  1.00  0.00     0.121 C 
HETATM   30  C8  UNL     1     -51.924   0.076 -18.596  1.00  0.00     0.032 C 
HETATM   31  C9  UNL     1     -52.916   1.063 -19.227  1.00  0.00     0.005 C 
HETATM   32  C10 UNL     1     -53.117   1.581 -17.803  1.00  0.00     0.032 C 
ENDBRANCH  28  29
ENDBRANCH  27  28
ENDBRANCH   4  27
BRANCH   7  33
HETATM   33  O8  UNL     1     -53.511   0.215 -10.782  1.00  0.00    -0.309 OA
BRANCH  33  34
HETATM   34  C17 UNL     1     -54.773  -0.007 -11.102  1.00  0.00     0.255 C 
HETATM   35  C18 UNL     1     -55.399  -1.361 -11.130  1.00  0.00     0.126 C 
HETATM   36  O9  UNL     1     -55.437   0.979 -11.385  1.00  0.00    -0.266 OA
ENDBRANCH  33  34
ENDBRANCH   7  33
BRANCH  12  37
HETATM   37  O10 UNL     1     -48.196   2.164 -11.737  1.00  0.00    -0.394 OA
ATOM     38  H10 UNL     1     -47.813   2.937 -12.137  1.00  0.00     0.210 HD
ENDBRANCH  12  37
BRANCH   1  39
HETATM   39  O2  UNL     1     -53.454   3.627 -12.025  1.00  0.00    -0.313 OA
BRANCH  39  40
HETATM   40  C2  UNL     1     -53.799   4.859 -12.492  1.00  0.00     0.255 C 
HETATM   41  C1  UNL     1     -52.860   6.016 -12.542  1.00  0.00     0.126 C 
HETATM   42  O1  UNL     1     -54.990   5.009 -12.903  1.00  0.00    -0.266 OA
ENDBRANCH  39  40
ENDBRANCH   1  39
TORSDOF 13
ENDMDL
MODEL 3
REMARK VINA RESULT: -6.150498910      2.509      6.170
REMARK  13 active torsions:
REMARK  status: ('A' for Active; 'I' for Inactive)
REMARK    1  A    between atoms: C2_2  and  O2_4 
REMARK    2  A    between atoms: O2_4  and  C3_5 
REMARK    3  A    between atoms: C5_8  and  C6_9 
REMARK    4  A    between atoms: C6_9  and  O4_10 
REMARK    5  A    between atoms: O4_10  and  C7_11 
REMARK    6  A    between atoms: C11_15  and  O5_16 
REMARK    7  A    between atoms: O5_16  and  C12_17 
REMARK    8  A    between atoms: C12_17  and  C13_19 
REMARK    9  A    between atoms: C13_19  and  C14_20 
REMARK   10  A    between atoms: N1_21  and  O7_23 
REMARK   11  A    between atoms: C16_26  and  O8_27 
REMARK   12  A    between atoms: O8_27  and  C17_28 
REMARK   13  A    between atoms: C23_35  and  O10_36 
ROOT
HETATM    1  C3  UNL     1     -47.852  -1.064 -13.681  1.00  0.00     0.167 C 
HETATM    2  C4  UNL     1     -48.185  -1.426 -15.097  1.00  0.00     0.202 C 
HETATM    3  O3  UNL     1     -49.333  -2.113 -15.034  1.00  0.00    -0.372 OA
HETATM    4  C5  UNL     1     -50.534  -1.445 -15.277  1.00  0.00     0.118 C 
HETATM    5  C11 UNL     1     -50.517  -0.068 -15.694  1.00  0.00     0.172 C 
HETATM    6  C15 UNL     1     -49.960   1.047 -14.951  1.00  0.00     0.075 C 
HETATM    7  C16 UNL     1     -49.286   1.076 -13.668  1.00  0.00     0.086 C 
HETATM    8  C19 UNL     1     -50.386   1.470 -12.624  1.00  0.00     0.018 C 
HETATM    9  C20 UNL     1     -50.181   2.754 -11.930  1.00  0.00     0.013 C 
HETATM   10  C21 UNL     1     -50.617   0.312 -11.745  1.00  0.00     0.015 C 
HETATM   11  C22 UNL     1     -49.836  -0.838 -12.261  1.00  0.00     0.029 C 
HETATM   12  C23 UNL     1     -50.543  -1.924 -12.877  1.00  0.00     0.134 C 
HETATM   13  C24 UNL     1     -51.379  -1.810 -14.089  1.00  0.00     0.015 C 
HETATM   14  C25 UNL     1     -51.773  -3.300 -14.326  1.00  0.00     0.020 C 
HETATM   15  C26 UNL     1     -52.698  -1.193 -13.958  1.00  0.00     0.020 C 
HETATM   16  C27 UNL     1     -48.737  -0.109 -13.009  1.00  0.00     0.023 C 
HETATM   17  C28 UNL     1     -47.831   0.418 -11.863  1.00  0.00     0.022 C 
ENDROOT
BRANCH   5  18
HETATM   18  O5  UNL     1     -51.886   0.271 -16.015  1.00  0.00    -0.312 OA
BRANCH  18  19
HETATM   19  C12 UNL     1     -52.276   1.023 -17.094  1.00  0.00     0.264 C 
HETATM   20  O6  UNL     1     -53.043   2.012 -16.852  1.00  0.00    -0.265 OA
BRANCH  19  21
HETATM   21  C13 UNL     1     -51.853   0.738 -18.487  1.00  0.00     0.157 C 
BRANCH  21  22
HETATM   22  C14 UNL     1     -52.886   0.145 -19.338  1.00  0.00     0.096 C 
HETATM   23  N1  UNL     1     -53.865   0.828 -19.851  1.00  0.00    -0.284 N 
ATOM     24  H1  UNL     1     -54.550   0.348 -20.435  1.00  0.00     0.192 HD
BRANCH  23  25
HETATM   25  O7  UNL     1     -54.005   2.177 -19.631  1.00  0.00    -0.291 OA
ATOM     26  H7  UNL     1     -54.555   2.722 -20.182  1.00  0.00     0.244 HD
ENDBRANCH  23  25
ENDBRANCH  21  22
ENDBRANCH  19  21
ENDBRANCH  18  19
ENDBRANCH   5  18
BRANCH   4  27
HETATM   27  C6  UNL     1     -50.978  -2.266 -16.499  1.00  0.00     0.209 C 
BRANCH  27  28
HETATM   28  O4  UNL     1     -50.002  -1.923 -17.477  1.00  0.00    -0.383 OA
BRANCH  28  29
HETATM   29  C7  UNL     1     -49.986  -2.809 -18.525  1.00  0.00     0.121 C 
HETATM   30  C8  UNL     1     -51.378  -3.220 -18.920  1.00  0.00     0.032 C 
HETATM   31  C9  UNL     1     -50.866  -3.251 -20.368  1.00  0.00     0.005 C 
HETATM   32  C10 UNL     1     -49.859  -2.199 -19.904  1.00  0.00     0.032 C 
ENDBRANCH  28  29
ENDBRANCH  27  28
ENDBRANCH   4  27
BRANCH   7  33
HETATM   33  O8  UNL     1     -48.445   2.194 -13.498  1.00  0.00    -0.309 OA
BRANCH  33  34
HETATM   34  C17 UNL     1     -47.622   2.858 -14.290  1.00  0.00     0.255 C 
HETATM   35  C18 UNL     1     -47.758   4.311 -14.602  1.00  0.00     0.126 C 
HETATM   36  O9  UNL     1     -46.706   2.212 -14.777  1.00  0.00    -0.266 OA
ENDBRANCH  33  34
ENDBRANCH   7  33
BRANCH  12  37
HETATM   37  O10 UNL     1     -51.409  -2.446 -11.873  1.00  0.00    -0.394 OA
ATOM     38  H10 UNL     1     -51.909  -3.137 -12.293  1.00  0.00     0.210 HD
ENDBRANCH  12  37
BRANCH   1  39
HETATM   39  O2  UNL     1     -46.463  -0.848 -13.563  1.00  0.00    -0.313 OA
BRANCH  39  40
HETATM   40  C2  UNL     1     -45.466  -1.513 -14.211  1.00  0.00     0.255 C 
HETATM   41  C1  UNL     1     -45.112  -2.937 -13.942  1.00  0.00     0.126 C 
HETATM   42  O1  UNL     1     -44.814  -0.868 -15.087  1.00  0.00    -0.266 OA
ENDBRANCH  39  40
ENDBRANCH   1  39
TORSDOF 13
ENDMDL
MODEL 4
REMARK VINA RESULT: -6.124313192      2.870      6.350
REMARK  13 active torsions:
REMARK  status: ('A' for Active; 'I' for Inactive)
REMARK    1  A    between atoms: C2_2  and  O2_4 
REMARK    2  A    between atoms: O2_4  and  C3_5 
REMARK    3  A    between atoms: C5_8  and  C6_9 
REMARK    4  A    between atoms: C6_9  and  O4_10 
REMARK    5  A    between atoms: O4_10  and  C7_11 
REMARK    6  A    between atoms: C11_15  and  O5_16 
REMARK    7  A    between atoms: O5_16  and  C12_17 
REMARK    8  A    between atoms: C12_17  and  C13_19 
REMARK    9  A    between atoms: C13_19  and  C14_20 
REMARK   10  A    between atoms: N1_21  and  O7_23 
REMARK   11  A    between atoms: C16_26  and  O8_27 
REMARK   12  A    between atoms: O8_27  and  C17_28 
REMARK   13  A    between atoms: C23_35  and  O10_36 
ROOT
HETATM    1  C3  UNL     1     -53.135   5.001 -12.522  1.00  0.00     0.167 C 
HETATM    2  C4  UNL     1     -53.169   4.147 -13.754  1.00  0.00     0.202 C 
HETATM    3  O3  UNL     1     -51.902   3.764 -13.963  1.00  0.00    -0.372 OA
HETATM    4  C5  UNL     1     -51.493   2.509 -13.512  1.00  0.00     0.118 C 
HETATM    5  C11 UNL     1     -52.452   1.608 -12.931  1.00  0.00     0.172 C 
HETATM    6  C15 UNL     1     -53.254   1.855 -11.747  1.00  0.00     0.075 C 
HETATM    7  C16 UNL     1     -53.323   3.020 -10.887  1.00  0.00     0.086 C 
HETATM    8  C19 UNL     1     -52.383   2.703  -9.675  1.00  0.00     0.018 C 
HETATM    9  C20 UNL     1     -53.042   2.608  -8.359  1.00  0.00     0.013 C 
HETATM   10  C21 UNL     1     -51.234   3.621  -9.735  1.00  0.00     0.015 C 
HETATM   11  C22 UNL     1     -51.317   4.401 -10.993  1.00  0.00     0.029 C 
HETATM   12  C23 UNL     1     -50.376   4.113 -12.039  1.00  0.00     0.134 C 
HETATM   13  C24 UNL     1     -50.247   2.814 -12.727  1.00  0.00     0.015 C 
HETATM   14  C25 UNL     1     -49.171   3.148 -13.805  1.00  0.00     0.020 C 
HETATM   15  C26 UNL     1     -49.592   1.719 -12.011  1.00  0.00     0.020 C 
HETATM   16  C27 UNL     1     -52.808   4.337 -11.258  1.00  0.00     0.023 C 
HETATM   17  C28 UNL     1     -53.385   5.332 -10.214  1.00  0.00     0.022 C 
ENDROOT
BRANCH   5  18
HETATM   18  O5  UNL     1     -51.753   0.358 -12.723  1.00  0.00    -0.312 OA
BRANCH  18  19
HETATM   19  C12 UNL     1     -52.346  -0.879 -12.705  1.00  0.00     0.264 C 
HETATM   20  O6  UNL     1     -52.688  -1.363 -13.833  1.00  0.00    -0.265 OA
BRANCH  19  21
HETATM   21  C13 UNL     1     -52.597  -1.649 -11.462  1.00  0.00     0.157 C 
BRANCH  21  22
HETATM   22  C14 UNL     1     -53.938  -2.226 -11.351  1.00  0.00     0.096 C 
HETATM   23  N1  UNL     1     -54.267  -3.370 -11.872  1.00  0.00    -0.284 N 
ATOM     24  H1  UNL     1     -55.221  -3.710 -11.756  1.00  0.00     0.192 HD
BRANCH  23  25
HETATM   25  O7  UNL     1     -53.367  -4.136 -12.574  1.00  0.00    -0.291 OA
ATOM     26  H7  UNL     1     -53.622  -4.638 -13.339  1.00  0.00     0.244 HD
ENDBRANCH  23  25
ENDBRANCH  21  22
ENDBRANCH  19  21
ENDBRANCH  18  19
ENDBRANCH   5  18
BRANCH   4  27
HETATM   27  C6  UNL     1     -51.110   1.919 -14.879  1.00  0.00     0.209 C 
BRANCH  27  28
HETATM   28  O4  UNL     1     -52.372   1.782 -15.524  1.00  0.00    -0.383 OA
BRANCH  28  29
HETATM   29  C7  UNL     1     -52.359   0.798 -16.481  1.00  0.00     0.121 C 
HETATM   30  C8  UNL     1     -52.717   1.342 -17.836  1.00  0.00     0.032 C 
HETATM   31  C9  UNL     1     -51.708   0.338 -18.413  1.00  0.00     0.005 C 
HETATM   32  C10 UNL     1     -51.003   0.460 -17.062  1.00  0.00     0.032 C 
ENDBRANCH  28  29
ENDBRANCH  27  28
ENDBRANCH   4  27
BRANCH   7  33
HETATM   33  O8  UNL     1     -54.535   3.123 -10.174  1.00  0.00    -0.309 OA
BRANCH  33  34
HETATM   34  C17 UNL     1     -55.780   2.754 -10.414  1.00  0.00     0.255 C 
HETATM   35  C18 UNL     1     -56.678   3.438 -11.390  1.00  0.00     0.126 C 
HETATM   36  O9  UNL     1     -56.187   1.791  -9.781  1.00  0.00    -0.266 OA
ENDBRANCH  33  34
ENDBRANCH   7  33
BRANCH  12  37
HETATM   37  O10 UNL     1     -49.088   4.376 -11.489  1.00  0.00    -0.394 OA
ATOM     38  H10 UNL     1     -48.706   3.525 -11.304  1.00  0.00     0.210 HD
ENDBRANCH  12  37
BRANCH   1  39
HETATM   39  O2  UNL     1     -54.241   5.876 -12.524  1.00  0.00    -0.313 OA
BRANCH  39  40
HETATM   40  C2  UNL     1     -54.382   7.028 -13.237  1.00  0.00     0.255 C 
HETATM   41  C1  UNL     1     -55.309   7.175 -14.396  1.00  0.00     0.126 C 
HETATM   42  O1  UNL     1     -53.676   8.019 -12.879  1.00  0.00    -0.266 OA
ENDBRANCH  39  40
ENDBRANCH   1  39
TORSDOF 13
ENDMDL
MODEL 5
REMARK VINA RESULT: -5.996752052      1.474      1.749
REMARK  13 active torsions:
REMARK  status: ('A' for Active; 'I' for Inactive)
REMARK    1  A    between atoms: C2_2  and  O2_4 
REMARK    2  A    between atoms: O2_4  and  C3_5 
REMARK    3  A    between atoms: C5_8  and  C6_9 
REMARK    4  A    between atoms: C6_9  and  O4_10 
REMARK    5  A    between atoms: O4_10  and  C7_11 
REMARK    6  A    between atoms: C11_15  and  O5_16 
REMARK    7  A    between atoms: O5_16  and  C12_17 
REMARK    8  A    between atoms: C12_17  and  C13_19 
REMARK    9  A    between atoms: C13_19  and  C14_20 
REMARK   10  A    between atoms: N1_21  and  O7_23 
REMARK   11  A    between atoms: C16_26  and  O8_27 
REMARK   12  A    between atoms: O8_27  and  C17_28 
REMARK   13  A    between atoms: C23_35  and  O10_36 
ROOT
HETATM    1  C3  UNL     1     -51.223   0.651 -10.777  1.00  0.00     0.167 C 
HETATM    2  C4  UNL     1     -52.076   1.655 -11.492  1.00  0.00     0.202 C 
HETATM    3  O3  UNL     1     -51.222   2.473 -12.122  1.00  0.00    -0.372 OA
HETATM    4  C5  UNL     1     -50.944   2.249 -13.471  1.00  0.00     0.118 C 
HETATM    5  C11 UNL     1     -51.653   1.223 -14.189  1.00  0.00     0.172 C 
HETATM    6  C15 UNL     1     -51.657  -0.194 -13.877  1.00  0.00     0.075 C 
HETATM    7  C16 UNL     1     -51.005  -0.922 -12.806  1.00  0.00     0.086 C 
HETATM    8  C19 UNL     1     -49.682  -1.487 -13.426  1.00  0.00     0.018 C 
HETATM    9  C20 UNL     1     -49.580  -2.957 -13.490  1.00  0.00     0.013 C 
HETATM   10  C21 UNL     1     -48.548  -0.807 -12.779  1.00  0.00     0.015 C 
HETATM   11  C22 UNL     1     -49.076   0.257 -11.892  1.00  0.00     0.029 C 
HETATM   12  C23 UNL     1     -48.897   1.626 -12.285  1.00  0.00     0.134 C 
HETATM   13  C24 UNL     1     -49.442   2.231 -13.516  1.00  0.00     0.015 C 
HETATM   14  C25 UNL     1     -49.022   3.722 -13.332  1.00  0.00     0.020 C 
HETATM   15  C26 UNL     1     -48.788   1.914 -14.785  1.00  0.00     0.020 C 
HETATM   16  C27 UNL     1     -50.461  -0.288 -11.605  1.00  0.00     0.023 C 
HETATM   17  C28 UNL     1     -50.177  -1.441 -10.604  1.00  0.00     0.022 C 
ENDROOT
BRANCH   5  18
HETATM   18  O5  UNL     1     -51.258   1.357 -15.574  1.00  0.00    -0.312 OA
BRANCH  18  19
HETATM   19  C12 UNL     1     -52.073   1.110 -16.649  1.00  0.00     0.264 C 
HETATM   20  O6  UNL     1     -53.329   1.161 -16.436  1.00  0.00    -0.265 OA
BRANCH  19  21
HETATM   21  C13 UNL     1     -51.565   0.796 -18.008  1.00  0.00     0.157 C 
BRANCH  21  22
HETATM   22  C14 UNL     1     -52.514   0.100 -18.878  1.00  0.00     0.096 C 
HETATM   23  N1  UNL     1     -53.528   0.686 -19.439  1.00  0.00    -0.284 N 
ATOM     24  H1  UNL     1     -54.150   0.138 -20.033  1.00  0.00     0.192 HD
BRANCH  23  25
HETATM   25  O7  UNL     1     -53.789   2.024 -19.256  1.00  0.00    -0.291 OA
ATOM     26  H7  UNL     1     -54.670   2.350 -19.117  1.00  0.00     0.244 HD
ENDBRANCH  23  25
ENDBRANCH  21  22
ENDBRANCH  19  21
ENDBRANCH  18  19
ENDBRANCH   5  18
BRANCH   4  27
HETATM   27  C6  UNL     1     -51.461   3.594 -14.009  1.00  0.00     0.209 C 
BRANCH  27  28
HETATM   28  O4  UNL     1     -52.871   3.472 -13.853  1.00  0.00    -0.383 OA
BRANCH  28  29
HETATM   29  C7  UNL     1     -53.549   4.497 -14.464  1.00  0.00     0.121 C 
HETATM   30  C8  UNL     1     -52.703   5.736 -14.563  1.00  0.00     0.032 C 
HETATM   31  C9  UNL     1     -53.386   5.992 -15.915  1.00  0.00     0.005 C 
HETATM   32  C10 UNL     1     -53.554   4.474 -15.977  1.00  0.00     0.032 C 
ENDBRANCH  28  29
ENDBRANCH  27  28
ENDBRANCH   4  27
BRANCH   7  33
HETATM   33  O8  UNL     1     -51.622  -2.153 -12.503  1.00  0.00    -0.309 OA
BRANCH  33  34
HETATM   34  C17 UNL     1     -52.873  -2.577 -12.481  1.00  0.00     0.255 C 
HETATM   35  C18 UNL     1     -53.944  -1.966 -11.641  1.00  0.00     0.126 C 
HETATM   36  O9  UNL     1     -53.132  -3.526 -13.205  1.00  0.00    -0.266 OA
ENDBRANCH  33  34
ENDBRANCH   7  33
BRANCH  12  37
HETATM   37  O10 UNL     1     -47.488   1.829 -12.359  1.00  0.00    -0.394 OA
ATOM     38  H10 UNL     1     -47.235   1.573 -13.239  1.00  0.00     0.210 HD
ENDBRANCH  12  37
BRANCH   1  39
HETATM   39  O2  UNL     1     -51.937   0.117  -9.685  1.00  0.00    -0.313 OA
BRANCH  39  40
HETATM   40  C2  UNL     1     -52.734   0.790  -8.810  1.00  0.00     0.255 C 
HETATM   41  C1  UNL     1     -54.209   0.587  -8.712  1.00  0.00     0.126 C 
HETATM   42  O1  UNL     1     -52.172   1.632  -8.046  1.00  0.00    -0.266 OA
ENDBRANCH  39  40
ENDBRANCH   1  39
TORSDOF 13
ENDMDL
