MODEL 1
REMARK VINA RESULT: -7.208351809      0.000      0.000
REMARK  12 active torsions:
REMARK  status: ('A' for Active; 'I' for Inactive)
REMARK    1  A    between atoms: C2_2  and  C3_3 
REMARK    2  A    between atoms: C3_3  and  C4_4 
REMARK    3  A    between atoms: C4_4  and  C5_5 
REMARK    4  A    between atoms: C5_5  and  C6_6 
REMARK    5  A    between atoms: C6_6  and  C7_7 
REMARK    6  A    between atoms: C7_7  and  O2_9 
REMARK    7  A    between atoms: O2_9  and  C8_10 
REMARK    8  A    between atoms: C8_10  and  C9_11 
REMARK    9  A    between atoms: C9_11  and  O4_13 
REMARK   10  A    between atoms: O4_13  and  C10_14 
REMARK   11  A    between atoms: C17_21  and  O5_22 
REMARK   12  A    between atoms: C28_40  and  O10_41 
ROOT
HETATM    1  C10 UNL     1     -49.184  -3.913 -18.114  1.00  0.00     0.190 C 
HETATM    2  C11 UNL     1     -48.593  -3.273 -19.306  1.00  0.00    -0.056 C 
HETATM    3  C12 UNL     1     -47.185  -3.797 -19.611  1.00  0.00     0.046 C 
HETATM    4  C13 UNL     1     -49.037  -2.385 -20.127  1.00  0.00    -0.017 C 
HETATM    5  C14 UNL     1     -50.322  -1.650 -20.200  1.00  0.00     0.007 C 
HETATM    6  C15 UNL     1     -50.769  -1.663 -21.689  1.00  0.00     0.014 C 
HETATM    7  C16 UNL     1     -50.036  -0.190 -19.906  1.00  0.00     0.040 C 
HETATM    8  C17 UNL     1     -51.271   0.648 -19.853  1.00  0.00     0.124 C 
HETATM    9  C18 UNL     1     -52.330   0.176 -18.914  1.00  0.00     0.086 C 
HETATM   10  C19 UNL     1     -52.633   1.136 -17.834  1.00  0.00     0.011 C 
HETATM   11  N1  UNL     1     -53.361   2.150 -18.060  1.00  0.00    -0.399 N 
ATOM     12  H1  UNL     1     -53.716   2.262 -19.009  1.00  0.00     0.158 HD
HETATM   13  C20 UNL     1     -53.726   3.139 -17.119  1.00  0.00     0.145 C 
HETATM   14  C21 UNL     1     -52.087   0.924 -16.477  1.00  0.00     0.262 C 
HETATM   15  O6  UNL     1     -50.705   0.816 -16.592  1.00  0.00    -0.227 OA
HETATM   16  O7  UNL     1     -50.030   1.085 -15.493  1.00  0.00    -0.158 OA
HETATM   17  C22 UNL     1     -49.189   0.205 -14.829  1.00  0.00     0.299 C 
HETATM   18  O8  UNL     1     -48.013   0.460 -14.471  1.00  0.00    -0.262 OA
HETATM   19  C23 UNL     1     -49.721  -1.146 -14.515  1.00  0.00     0.154 C 
HETATM   20  C24 UNL     1     -49.386  -1.446 -13.071  1.00  0.00     0.029 C 
HETATM   21  C25 UNL     1     -49.147  -2.186 -15.419  1.00  0.00     0.146 C 
HETATM   22  O9  UNL     1     -48.002  -2.053 -15.778  1.00  0.00    -0.297 OA
HETATM   23  C26 UNL     1     -49.950  -3.358 -15.866  1.00  0.00     0.084 C 
HETATM   24  C27 UNL     1     -51.267  -3.433 -15.088  1.00  0.00     0.020 C 
HETATM   25  C28 UNL     1     -50.243  -3.197 -17.378  1.00  0.00     0.162 C 
ENDROOT
BRANCH   1  26
HETATM   26  O4  UNL     1     -49.727  -5.194 -18.488  1.00  0.00    -0.307 OA
BRANCH  26  27
HETATM   27  C9  UNL     1     -48.979  -6.258 -18.910  1.00  0.00     0.284 C 
HETATM   28  O3  UNL     1     -48.050  -6.663 -18.161  1.00  0.00    -0.263 OA
BRANCH  27  29
HETATM   29  C8  UNL     1     -49.230  -6.928 -20.206  1.00  0.00     0.289 C 
BRANCH  29  30
HETATM   30  O2  UNL     1     -49.064  -6.103 -21.315  1.00  0.00    -0.312 OA
BRANCH  30  31
HETATM   31  C7  UNL     1     -50.165  -5.628 -21.998  1.00  0.00     0.259 C 
HETATM   32  O1  UNL     1     -51.204  -5.207 -21.403  1.00  0.00    -0.265 OA
BRANCH  31  33
HETATM   33  C6  UNL     1     -50.104  -5.619 -23.492  1.00  0.00     0.111 C 
BRANCH  33  34
HETATM   34  C5  UNL     1     -50.550  -4.300 -24.057  1.00  0.00     0.010 C 
BRANCH  34  35
HETATM   35  C4  UNL     1     -50.496  -4.375 -25.557  1.00  0.00     0.004 C 
BRANCH  35  36
HETATM   36  C3  UNL     1     -50.640  -3.041 -26.219  1.00  0.00     0.026 C 
BRANCH  36  37
HETATM   37  C2  UNL     1     -51.587  -2.145 -25.493  1.00  0.00    -0.037 C 
HETATM   38  C1  UNL     1     -52.159  -1.112 -26.096  1.00  0.00     0.007 C 
ENDBRANCH  36  37
ENDBRANCH  35  36
ENDBRANCH  34  35
ENDBRANCH  33  34
ENDBRANCH  31  33
ENDBRANCH  30  31
ENDBRANCH  29  30
ENDBRANCH  27  29
ENDBRANCH  26  27
ENDBRANCH   1  26
BRANCH  25  39
HETATM   39  O10 UNL     1     -51.505  -3.845 -17.506  1.00  0.00    -0.392 OA
ATOM     40  H10 UNL     1     -51.498  -4.494 -18.200  1.00  0.00     0.210 HD
ENDBRANCH  25  39
BRANCH   8  41
HETATM   41  O5  UNL     1     -51.775   0.786 -21.167  1.00  0.00    -0.395 OA
ATOM     42  H5  UNL     1     -52.572   1.303 -21.130  1.00  0.00     0.210 HD
ENDBRANCH   8  41
TORSDOF 12
ENDMDL
MODEL 2
REMARK VINA RESULT: -7.183258757      2.835      5.822
REMARK  12 active torsions:
REMARK  status: ('A' for Active; 'I' for Inactive)
REMARK    1  A    between atoms: C2_2  and  C3_3 
REMARK    2  A    between atoms: C3_3  and  C4_4 
REMARK    3  A    between atoms: C4_4  and  C5_5 
REMARK    4  A    between atoms: C5_5  and  C6_6 
REMARK    5  A    between atoms: C6_6  and  C7_7 
REMARK    6  A    between atoms: C7_7  and  O2_9 
REMARK    7  A    between atoms: O2_9  and  C8_10 
REMARK    8  A    between atoms: C8_10  and  C9_11 
REMARK    9  A    between atoms: C9_11  and  O4_13 
REMARK   10  A    between atoms: O4_13  and  C10_14 
REMARK   11  A    between atoms: C17_21  and  O5_22 
REMARK   12  A    between atoms: C28_40  and  O10_41 
ROOT
HETATM    1  C10 UNL     1     -50.034  -4.442 -20.840  1.00  0.00     0.190 C 
HETATM    2  C11 UNL     1     -49.708  -5.858 -20.578  1.00  0.00    -0.056 C 
HETATM    3  C12 UNL     1     -50.836  -6.805 -21.007  1.00  0.00     0.046 C 
HETATM    4  C13 UNL     1     -48.670  -6.434 -20.079  1.00  0.00    -0.017 C 
HETATM    5  C14 UNL     1     -47.384  -5.901 -19.569  1.00  0.00     0.007 C 
HETATM    6  C15 UNL     1     -46.258  -6.809 -20.138  1.00  0.00     0.014 C 
HETATM    7  C16 UNL     1     -47.346  -6.148 -18.072  1.00  0.00     0.040 C 
HETATM    8  C17 UNL     1     -46.137  -5.567 -17.416  1.00  0.00     0.124 C 
HETATM    9  C18 UNL     1     -45.906  -4.113 -17.661  1.00  0.00     0.086 C 
HETATM   10  C19 UNL     1     -45.944  -3.294 -16.434  1.00  0.00     0.011 C 
HETATM   11  N1  UNL     1     -44.948  -3.263 -15.649  1.00  0.00    -0.399 N 
ATOM     12  H1  UNL     1     -44.138  -3.826 -15.908  1.00  0.00     0.158 HD
HETATM   13  C20 UNL     1     -44.856  -2.523 -14.450  1.00  0.00     0.145 C 
HETATM   14  C21 UNL     1     -47.148  -2.499 -16.108  1.00  0.00     0.262 C 
HETATM   15  O6  UNL     1     -48.232  -3.370 -16.087  1.00  0.00    -0.227 OA
HETATM   16  O7  UNL     1     -49.267  -2.956 -15.385  1.00  0.00    -0.158 OA
HETATM   17  C22 UNL     1     -50.542  -2.737 -15.882  1.00  0.00     0.299 C 
HETATM   18  O8  UNL     1     -51.601  -3.193 -15.386  1.00  0.00    -0.262 OA
HETATM   19  C23 UNL     1     -50.666  -1.893 -17.099  1.00  0.00     0.154 C 
HETATM   20  C24 UNL     1     -51.771  -0.890 -16.850  1.00  0.00     0.029 C 
HETATM   21  C25 UNL     1     -50.962  -2.715 -18.309  1.00  0.00     0.146 C 
HETATM   22  O9  UNL     1     -51.659  -3.691 -18.174  1.00  0.00    -0.297 OA
HETATM   23  C26 UNL     1     -50.421  -2.350 -19.649  1.00  0.00     0.084 C 
HETATM   24  C27 UNL     1     -49.785  -0.958 -19.609  1.00  0.00     0.020 C 
HETATM   25  C28 UNL     1     -49.356  -3.402 -20.045  1.00  0.00     0.162 C 
ENDROOT
BRANCH   1  26
HETATM   26  O4  UNL     1     -49.774  -4.148 -22.226  1.00  0.00    -0.307 OA
BRANCH  26  27
HETATM   27  C9  UNL     1     -50.735  -4.072 -23.195  1.00  0.00     0.284 C 
HETATM   28  O3  UNL     1     -51.940  -4.010 -22.831  1.00  0.00    -0.263 OA
BRANCH  27  29
HETATM   29  C8  UNL     1     -50.396  -4.066 -24.637  1.00  0.00     0.289 C 
BRANCH  29  30
HETATM   30  O2  UNL     1     -50.435  -2.803 -25.224  1.00  0.00    -0.312 OA
BRANCH  30  31
HETATM   31  C7  UNL     1     -51.365  -2.523 -26.205  1.00  0.00     0.259 C 
HETATM   32  O1  UNL     1     -51.561  -3.293 -27.194  1.00  0.00    -0.265 OA
BRANCH  31  33
HETATM   33  C6  UNL     1     -52.155  -1.260 -26.071  1.00  0.00     0.111 C 
BRANCH  33  34
HETATM   34  C5  UNL     1     -53.122  -1.330 -24.924  1.00  0.00     0.010 C 
BRANCH  34  35
HETATM   35  C4  UNL     1     -52.820  -0.210 -23.969  1.00  0.00     0.004 C 
BRANCH  35  36
HETATM   36  C3  UNL     1     -52.400  -0.688 -22.615  1.00  0.00     0.026 C 
BRANCH  36  37
HETATM   37  C2  UNL     1     -53.048   0.082 -21.513  1.00  0.00    -0.037 C 
HETATM   38  C1  UNL     1     -53.611  -0.532 -20.482  1.00  0.00     0.007 C 
ENDBRANCH  36  37
ENDBRANCH  35  36
ENDBRANCH  34  35
ENDBRANCH  33  34
ENDBRANCH  31  33
ENDBRANCH  30  31
ENDBRANCH  29  30
ENDBRANCH  27  29
ENDBRANCH  26  27
ENDBRANCH   1  26
BRANCH  25  39
HETATM   39  O10 UNL     1     -48.461  -2.631 -20.841  1.00  0.00    -0.392 OA
ATOM     40  H10 UNL     1     -48.784  -1.748 -20.978  1.00  0.00     0.210 HD
ENDBRANCH  25  39
BRANCH   8  41
HETATM   41  O5  UNL     1     -45.011  -6.335 -17.791  1.00  0.00    -0.395 OA
ATOM     42  H5  UNL     1     -44.267  -6.051 -17.273  1.00  0.00     0.210 HD
ENDBRANCH   8  41
TORSDOF 12
ENDMDL
MODEL 3
REMARK VINA RESULT: -7.138302468      2.834      5.706
REMARK  12 active torsions:
REMARK  status: ('A' for Active; 'I' for Inactive)
REMARK    1  A    between atoms: C2_2  and  C3_3 
REMARK    2  A    between atoms: C3_3  and  C4_4 
REMARK    3  A    between atoms: C4_4  and  C5_5 
REMARK    4  A    between atoms: C5_5  and  C6_6 
REMARK    5  A    between atoms: C6_6  and  C7_7 
REMARK    6  A    between atoms: C7_7  and  O2_9 
REMARK    7  A    between atoms: O2_9  and  C8_10 
REMARK    8  A    between atoms: C8_10  and  C9_11 
REMARK    9  A    between atoms: C9_11  and  O4_13 
REMARK   10  A    between atoms: O4_13  and  C10_14 
REMARK   11  A    between atoms: C17_21  and  O5_22 
REMARK   12  A    between atoms: C28_40  and  O10_41 
ROOT
HETATM    1  C10 UNL     1     -49.027  -3.555 -20.137  1.00  0.00     0.190 C 
HETATM    2  C11 UNL     1     -49.293  -2.137 -19.825  1.00  0.00    -0.056 C 
HETATM    3  C12 UNL     1     -49.017  -1.215 -21.018  1.00  0.00     0.046 C 
HETATM    4  C13 UNL     1     -49.718  -1.545 -18.762  1.00  0.00    -0.017 C 
HETATM    5  C14 UNL     1     -50.110  -2.056 -17.427  1.00  0.00     0.007 C 
HETATM    6  C15 UNL     1     -51.427  -1.330 -17.031  1.00  0.00     0.014 C 
HETATM    7  C16 UNL     1     -49.089  -1.554 -16.424  1.00  0.00     0.040 C 
HETATM    8  C17 UNL     1     -49.316  -2.082 -15.046  1.00  0.00     0.124 C 
HETATM    9  C18 UNL     1     -49.401  -3.567 -14.930  1.00  0.00     0.086 C 
HETATM   10  C19 UNL     1     -48.343  -4.155 -14.084  1.00  0.00     0.011 C 
HETATM   11  N1  UNL     1     -48.429  -4.107 -12.820  1.00  0.00    -0.399 N 
ATOM     12  H1  UNL     1     -49.251  -3.647 -12.429  1.00  0.00     0.158 HD
HETATM   13  C20 UNL     1     -47.491  -4.630 -11.902  1.00  0.00     0.145 C 
HETATM   14  C21 UNL     1     -47.171  -4.807 -14.706  1.00  0.00     0.262 C 
HETATM   15  O6  UNL     1     -46.583  -3.884 -15.564  1.00  0.00    -0.227 OA
HETATM   16  O7  UNL     1     -45.314  -4.106 -15.839  1.00  0.00    -0.158 OA
HETATM   17  C22 UNL     1     -44.792  -4.333 -17.103  1.00  0.00     0.299 C 
HETATM   18  O8  UNL     1     -43.805  -3.735 -17.597  1.00  0.00    -0.262 OA
HETATM   19  C23 UNL     1     -45.451  -5.368 -17.940  1.00  0.00     0.154 C 
HETATM   20  C24 UNL     1     -44.366  -6.244 -18.525  1.00  0.00     0.029 C 
HETATM   21  C25 UNL     1     -46.275  -4.754 -19.023  1.00  0.00     0.146 C 
HETATM   22  O9  UNL     1     -45.879  -3.730 -19.525  1.00  0.00    -0.297 OA
HETATM   23  C26 UNL     1     -47.548  -5.380 -19.482  1.00  0.00     0.084 C 
HETATM   24  C27 UNL     1     -47.705  -6.779 -18.880  1.00  0.00     0.020 C 
HETATM   25  C28 UNL     1     -48.722  -4.479 -19.029  1.00  0.00     0.162 C 
ENDROOT
BRANCH   1  26
HETATM   26  O4  UNL     1     -50.159  -4.102 -20.840  1.00  0.00    -0.307 OA
BRANCH  26  27
HETATM   27  C9  UNL     1     -50.074  -4.834 -21.993  1.00  0.00     0.284 C 
HETATM   28  O3  UNL     1     -49.882  -6.075 -21.894  1.00  0.00    -0.263 OA
BRANCH  27  29
HETATM   29  C8  UNL     1     -50.198  -4.208 -23.329  1.00  0.00     0.289 C 
BRANCH  29  30
HETATM   30  O2  UNL     1     -50.633  -2.885 -23.300  1.00  0.00    -0.312 OA
BRANCH  30  31
HETATM   31  C7  UNL     1     -51.983  -2.600 -23.276  1.00  0.00     0.259 C 
HETATM   32  O1  UNL     1     -52.836  -3.300 -23.901  1.00  0.00    -0.265 OA
BRANCH  31  33
HETATM   33  C6  UNL     1     -52.428  -1.417 -22.476  1.00  0.00     0.111 C 
BRANCH  33  34
HETATM   34  C5  UNL     1     -52.683  -1.783 -21.041  1.00  0.00     0.010 C 
BRANCH  34  35
HETATM   35  C4  UNL     1     -53.208  -0.573 -20.320  1.00  0.00     0.004 C 
BRANCH  35  36
HETATM   36  C3  UNL     1     -52.540   0.698 -20.739  1.00  0.00     0.026 C 
BRANCH  36  37
HETATM   37  C2  UNL     1     -53.517   1.793 -21.007  1.00  0.00    -0.037 C 
HETATM   38  C1  UNL     1     -54.631   1.571 -21.691  1.00  0.00     0.007 C 
ENDBRANCH  36  37
ENDBRANCH  35  36
ENDBRANCH  34  35
ENDBRANCH  33  34
ENDBRANCH  31  33
ENDBRANCH  30  31
ENDBRANCH  29  30
ENDBRANCH  27  29
ENDBRANCH  26  27
ENDBRANCH   1  26
BRANCH  25  39
HETATM   39  O10 UNL     1     -49.765  -5.429 -18.833  1.00  0.00    -0.392 OA
ATOM     40  H10 UNL     1     -49.711  -5.839 -17.978  1.00  0.00     0.210 HD
ENDBRANCH  25  39
BRANCH   8  41
HETATM   41  O5  UNL     1     -50.468  -1.459 -14.512  1.00  0.00    -0.395 OA
ATOM     42  H5  UNL     1     -50.856  -2.044 -13.872  1.00  0.00     0.210 HD
ENDBRANCH   8  41
TORSDOF 12
ENDMDL
MODEL 4
REMARK VINA RESULT: -7.062644892      2.864      5.960
REMARK  12 active torsions:
REMARK  status: ('A' for Active; 'I' for Inactive)
REMARK    1  A    between atoms: C2_2  and  C3_3 
REMARK    2  A    between atoms: C3_3  and  C4_4 
REMARK    3  A    between atoms: C4_4  and  C5_5 
REMARK    4  A    between atoms: C5_5  and  C6_6 
REMARK    5  A    between atoms: C6_6  and  C7_7 
REMARK    6  A    between atoms: C7_7  and  O2_9 
REMARK    7  A    between atoms: O2_9  and  C8_10 
REMARK    8  A    between atoms: C8_10  and  C9_11 
REMARK    9  A    between atoms: C9_11  and  O4_13 
REMARK   10  A    between atoms: O4_13  and  C10_14 
REMARK   11  A    between atoms: C17_21  and  O5_22 
REMARK   12  A    between atoms: C28_40  and  O10_41 
ROOT
HETATM    1  C10 UNL     1     -50.030  -4.309 -20.854  1.00  0.00     0.190 C 
HETATM    2  C11 UNL     1     -49.718  -5.729 -20.599  1.00  0.00    -0.056 C 
HETATM    3  C12 UNL     1     -50.839  -6.665 -21.069  1.00  0.00     0.046 C 
HETATM    4  C13 UNL     1     -48.696  -6.316 -20.079  1.00  0.00    -0.017 C 
HETATM    5  C14 UNL     1     -47.423  -5.795 -19.528  1.00  0.00     0.007 C 
HETATM    6  C15 UNL     1     -46.285  -6.702 -20.076  1.00  0.00     0.014 C 
HETATM    7  C16 UNL     1     -47.426  -6.058 -18.033  1.00  0.00     0.040 C 
HETATM    8  C17 UNL     1     -46.233  -5.491 -17.339  1.00  0.00     0.124 C 
HETATM    9  C18 UNL     1     -45.988  -4.036 -17.561  1.00  0.00     0.086 C 
HETATM   10  C19 UNL     1     -46.055  -3.229 -16.326  1.00  0.00     0.011 C 
HETATM   11  N1  UNL     1     -45.081  -3.213 -15.514  1.00  0.00    -0.399 N 
ATOM     12  H1  UNL     1     -44.267  -3.777 -15.757  1.00  0.00     0.158 HD
HETATM   13  C20 UNL     1     -45.018  -2.486 -14.305  1.00  0.00     0.145 C 
HETATM   14  C21 UNL     1     -47.263  -2.432 -16.024  1.00  0.00     0.262 C 
HETATM   15  O6  UNL     1     -48.352  -3.297 -16.042  1.00  0.00    -0.227 OA
HETATM   16  O7  UNL     1     -49.404  -2.886 -15.364  1.00  0.00    -0.158 OA
HETATM   17  C22 UNL     1     -50.664  -2.655 -15.893  1.00  0.00     0.299 C 
HETATM   18  O8  UNL     1     -51.738  -3.111 -15.431  1.00  0.00    -0.262 OA
HETATM   19  C23 UNL     1     -50.751  -1.797 -17.103  1.00  0.00     0.154 C 
HETATM   20  C24 UNL     1     -51.857  -0.791 -16.873  1.00  0.00     0.029 C 
HETATM   21  C25 UNL     1     -51.017  -2.604 -18.330  1.00  0.00     0.146 C 
HETATM   22  O9  UNL     1     -51.723  -3.578 -18.225  1.00  0.00    -0.297 OA
HETATM   23  C26 UNL     1     -50.439  -2.228 -19.650  1.00  0.00     0.084 C 
HETATM   24  C27 UNL     1     -49.797  -0.839 -19.578  1.00  0.00     0.020 C 
HETATM   25  C28 UNL     1     -49.369  -3.280 -20.030  1.00  0.00     0.162 C 
ENDROOT
BRANCH   1  26
HETATM   26  O4  UNL     1     -49.730  -4.000 -22.229  1.00  0.00    -0.307 OA
BRANCH  26  27
HETATM   27  C9  UNL     1     -50.616  -4.133 -23.262  1.00  0.00     0.284 C 
HETATM   28  O3  UNL     1     -50.196  -4.629 -24.342  1.00  0.00    -0.263 OA
BRANCH  27  29
HETATM   29  C8  UNL     1     -52.030  -3.710 -23.142  1.00  0.00     0.289 C 
BRANCH  29  30
HETATM   30  O2  UNL     1     -52.542  -3.105 -24.287  1.00  0.00    -0.312 OA
BRANCH  30  31
HETATM   31  C7  UNL     1     -52.294  -1.770 -24.535  1.00  0.00     0.259 C 
HETATM   32  O1  UNL     1     -52.028  -1.333 -25.696  1.00  0.00    -0.265 OA
BRANCH  31  33
HETATM   33  C6  UNL     1     -52.349  -0.827 -23.376  1.00  0.00     0.111 C 
BRANCH  33  34
HETATM   34  C5  UNL     1     -53.104   0.426 -23.715  1.00  0.00     0.010 C 
BRANCH  34  35
HETATM   35  C4  UNL     1     -53.904   0.848 -22.515  1.00  0.00     0.004 C 
BRANCH  35  36
HETATM   36  C3  UNL     1     -53.076   1.504 -21.456  1.00  0.00     0.026 C 
BRANCH  36  37
HETATM   37  C2  UNL     1     -53.177   0.806 -20.141  1.00  0.00    -0.037 C 
HETATM   38  C1  UNL     1     -53.792  -0.363 -20.026  1.00  0.00     0.007 C 
ENDBRANCH  36  37
ENDBRANCH  35  36
ENDBRANCH  34  35
ENDBRANCH  33  34
ENDBRANCH  31  33
ENDBRANCH  30  31
ENDBRANCH  29  30
ENDBRANCH  27  29
ENDBRANCH  26  27
ENDBRANCH   1  26
BRANCH  25  39
HETATM   39  O10 UNL     1     -48.448  -2.505 -20.792  1.00  0.00    -0.392 OA
ATOM     40  H10 UNL     1     -48.369  -2.828 -21.682  1.00  0.00     0.210 HD
ENDBRANCH  25  39
BRANCH   8  41
HETATM   41  O5  UNL     1     -45.100  -6.261 -17.691  1.00  0.00    -0.395 OA
ATOM     42  H5  UNL     1     -44.855  -6.794 -16.944  1.00  0.00     0.210 HD
ENDBRANCH   8  41
TORSDOF 12
ENDMDL
MODEL 5
REMARK VINA RESULT: -7.052884139      2.926      5.876
REMARK  12 active torsions:
REMARK  status: ('A' for Active; 'I' for Inactive)
REMARK    1  A    between atoms: C2_2  and  C3_3 
REMARK    2  A    between atoms: C3_3  and  C4_4 
REMARK    3  A    between atoms: C4_4  and  C5_5 
REMARK    4  A    between atoms: C5_5  and  C6_6 
REMARK    5  A    between atoms: C6_6  and  C7_7 
REMARK    6  A    between atoms: C7_7  and  O2_9 
REMARK    7  A    between atoms: O2_9  and  C8_10 
REMARK    8  A    between atoms: C8_10  and  C9_11 
REMARK    9  A    between atoms: C9_11  and  O4_13 
REMARK   10  A    between atoms: O4_13  and  C10_14 
REMARK   11  A    between atoms: C17_21  and  O5_22 
REMARK   12  A    between atoms: C28_40  and  O10_41 
ROOT
HETATM    1  C10 UNL     1     -48.866  -3.828 -19.894  1.00  0.00     0.190 C 
HETATM    2  C11 UNL     1     -49.256  -2.449 -19.535  1.00  0.00    -0.056 C 
HETATM    3  C12 UNL     1     -49.103  -1.476 -20.710  1.00  0.00     0.046 C 
HETATM    4  C13 UNL     1     -49.703  -1.927 -18.445  1.00  0.00    -0.017 C 
HETATM    5  C14 UNL     1     -50.005  -2.506 -17.115  1.00  0.00     0.007 C 
HETATM    6  C15 UNL     1     -51.372  -1.919 -16.663  1.00  0.00     0.014 C 
HETATM    7  C16 UNL     1     -49.006  -1.934 -16.126  1.00  0.00     0.040 C 
HETATM    8  C17 UNL     1     -49.142  -2.516 -14.758  1.00  0.00     0.124 C 
HETATM    9  C18 UNL     1     -49.082  -4.005 -14.681  1.00  0.00     0.086 C 
HETATM   10  C19 UNL     1     -47.949  -4.511 -13.881  1.00  0.00     0.011 C 
HETATM   11  N1  UNL     1     -48.001  -4.502 -12.614  1.00  0.00    -0.399 N 
ATOM     12  H1  UNL     1     -48.851  -4.132 -12.189  1.00  0.00     0.158 HD
HETATM   13  C20 UNL     1     -46.992  -4.956 -11.736  1.00  0.00     0.145 C 
HETATM   14  C21 UNL     1     -46.740  -5.033 -14.553  1.00  0.00     0.262 C 
HETATM   15  O6  UNL     1     -46.267  -4.036 -15.400  1.00  0.00    -0.227 OA
HETATM   16  O7  UNL     1     -44.992  -4.130 -15.716  1.00  0.00    -0.158 OA
HETATM   17  C22 UNL     1     -44.488  -4.275 -16.999  1.00  0.00     0.299 C 
HETATM   18  O8  UNL     1     -43.577  -3.573 -17.503  1.00  0.00    -0.262 OA
HETATM   19  C23 UNL     1     -45.072  -5.346 -17.846  1.00  0.00     0.154 C 
HETATM   20  C24 UNL     1     -43.927  -6.101 -18.485  1.00  0.00     0.029 C 
HETATM   21  C25 UNL     1     -45.982  -4.787 -18.889  1.00  0.00     0.146 C 
HETATM   22  O9  UNL     1     -45.700  -3.717 -19.373  1.00  0.00    -0.297 OA
HETATM   23  C26 UNL     1     -47.203  -5.519 -19.331  1.00  0.00     0.084 C 
HETATM   24  C27 UNL     1     -47.210  -6.941 -18.763  1.00  0.00     0.020 C 
HETATM   25  C28 UNL     1     -48.443  -4.745 -18.820  1.00  0.00     0.162 C 
ENDROOT
BRANCH   1  26
HETATM   26  O4  UNL     1     -49.962  -4.462 -20.581  1.00  0.00    -0.307 OA
BRANCH  26  27
HETATM   27  C9  UNL     1     -49.865  -5.058 -21.808  1.00  0.00     0.284 C 
HETATM   28  O3  UNL     1     -49.473  -6.255 -21.856  1.00  0.00    -0.263 OA
BRANCH  27  29
HETATM   29  C8  UNL     1     -50.202  -4.339 -23.058  1.00  0.00     0.289 C 
BRANCH  29  30
HETATM   30  O2  UNL     1     -51.529  -4.479 -23.455  1.00  0.00    -0.312 OA
BRANCH  30  31
HETATM   31  C7  UNL     1     -52.343  -3.369 -23.562  1.00  0.00     0.259 C 
HETATM   32  O1  UNL     1     -53.219  -3.255 -24.471  1.00  0.00    -0.265 OA
BRANCH  31  33
HETATM   33  C6  UNL     1     -52.162  -2.278 -22.555  1.00  0.00     0.111 C 
BRANCH  33  34
HETATM   34  C5  UNL     1     -52.186  -0.921 -23.198  1.00  0.00     0.010 C 
BRANCH  34  35
HETATM   35  C4  UNL     1     -52.798   0.059 -22.237  1.00  0.00     0.004 C 
BRANCH  35  36
HETATM   36  C3  UNL     1     -52.792  -0.423 -20.821  1.00  0.00     0.026 C 
BRANCH  36  37
HETATM   37  C2  UNL     1     -52.119   0.536 -19.896  1.00  0.00    -0.037 C 
HETATM   38  C1  UNL     1     -52.658   0.862 -18.730  1.00  0.00     0.007 C 
ENDBRANCH  36  37
ENDBRANCH  35  36
ENDBRANCH  34  35
ENDBRANCH  33  34
ENDBRANCH  31  33
ENDBRANCH  30  31
ENDBRANCH  29  30
ENDBRANCH  27  29
ENDBRANCH  26  27
ENDBRANCH   1  26
BRANCH  25  39
HETATM   39  O10 UNL     1     -49.386  -5.795 -18.622  1.00  0.00    -0.392 OA
ATOM     40  H10 UNL     1     -49.048  -6.632 -18.920  1.00  0.00     0.210 HD
ENDBRANCH  25  39
BRANCH   8  41
HETATM   41  O5  UNL     1     -50.330  -2.019 -14.176  1.00  0.00    -0.395 OA
ATOM     42  H5  UNL     1     -50.782  -2.740 -13.752  1.00  0.00     0.210 HD
ENDBRANCH   8  41
TORSDOF 12
ENDMDL
