MODEL 1
REMARK VINA RESULT: -9.084487436      0.000      0.000
REMARK  5 active torsions:
REMARK  status: ('A' for Active; 'I' for Inactive)
REMARK    1  A    between atoms: C2_2  and  C3_3 
REMARK    2  A    between atoms: C3_3  and  O1_4 
REMARK    3  A    between atoms: C4_6  and  O2_7 
REMARK    4  A    between atoms: C24_30  and  N1_31 
REMARK       I    between atoms: N1_31  and  C25_33 
REMARK    5  A    between atoms: C25_33  and  C26_35 
ROOT
HETATM    1  C1  UNL     1      86.357 -39.460 -46.445  1.00  0.00     0.020 C 
HETATM    2  C2  UNL     1      85.075 -38.796 -47.023  1.00  0.00     0.007 C 
HETATM    3  C4  UNL     1      85.560 -38.115 -48.276  1.00  0.00     0.128 C 
HETATM    4  C5  UNL     1      84.586 -38.080 -49.410  1.00  0.00     0.033 C 
HETATM    5  C6  UNL     1      83.983 -39.466 -49.525  1.00  0.00     0.012 C 
HETATM    6  C7  UNL     1      83.132 -39.760 -48.338  1.00  0.00    -0.035 C 
HETATM    7  C8  UNL     1      82.114 -38.659 -48.104  1.00  0.00     0.016 C 
HETATM    8  C9  UNL     1      84.066 -39.834 -47.159  1.00  0.00     0.007 C 
HETATM    9  C10 UNL     1      83.220 -40.106 -45.967  1.00  0.00     0.007 C 
HETATM   10  C11 UNL     1      82.248 -41.206 -46.050  1.00  0.00     0.011 C 
HETATM   11  C12 UNL     1      81.729 -41.648 -47.371  1.00  0.00    -0.028 C 
HETATM   12  C13 UNL     1      80.239 -41.238 -47.400  1.00  0.00     0.016 C 
HETATM   13  C14 UNL     1      82.364 -41.058 -48.569  1.00  0.00     0.004 C 
HETATM   14  C15 UNL     1      83.047 -42.024 -49.498  1.00  0.00     0.022 C 
HETATM   15  C16 UNL     1      83.759 -43.164 -48.862  1.00  0.00     0.063 C 
HETATM   16 BR1  UNL     1      84.178 -44.417 -50.323  1.00  0.00    -0.091 Br
HETATM   17  C17 UNL     1      82.952 -43.844 -47.804  1.00  0.00     0.013 C 
HETATM   18  C18 UNL     1      83.890 -44.197 -46.679  1.00  0.00     0.007 C 
HETATM   19  C19 UNL     1      83.298 -45.114 -45.657  1.00  0.00     0.012 C 
HETATM   20  C20 UNL     1      81.808 -45.137 -45.856  1.00  0.00     0.046 A 
HETATM   21  C21 UNL     1      81.221 -43.808 -46.173  1.00  0.00    -0.060 A 
HETATM   22  C22 UNL     1      80.389 -43.489 -45.206  1.00  0.00     0.056 A 
HETATM   23  C23 UNL     1      80.324 -44.518 -44.178  1.00  0.00     0.172 A 
HETATM   24  O3  UNL     1      79.632 -44.458 -43.102  1.00  0.00    -0.291 OA
HETATM   25  C24 UNL     1      81.189 -45.631 -44.592  1.00  0.00     0.166 A 
HETATM   26  C31 UNL     1      81.674 -43.181 -47.440  1.00  0.00    -0.008 C 
HETATM   27  C32 UNL     1      80.638 -43.627 -48.477  1.00  0.00     0.021 C 
ENDROOT
BRANCH  25  28
HETATM   28  N1  UNL     1      80.368 -46.791 -44.867  1.00  0.00    -0.348 N 
HETATM   29  C25 UNL     1      80.313 -47.913 -43.998  1.00  0.00     0.222 C 
HETATM   30  O4  UNL     1      80.990 -47.936 -42.940  1.00  0.00    -0.273 OA
ATOM     31  H1  UNL     1      79.807 -46.803 -45.719  1.00  0.00     0.163 HD
BRANCH  29  32
HETATM   32  C26 UNL     1      79.459 -49.071 -44.323  1.00  0.00     0.081 C 
HETATM   33  C27 UNL     1      79.622 -49.489 -45.777  1.00  0.00     0.041 C 
HETATM   34  C28 UNL     1      78.737 -50.698 -46.019  1.00  0.00     0.233 C 
HETATM   35  N2  UNL     1      77.341 -50.383 -45.770  1.00  0.00    -0.075 N 
HETATM   36  C29 UNL     1      77.218 -50.042 -44.362  1.00  0.00     0.233 C 
ATOM     37  H22 UNL     1      76.980 -49.657 -46.390  1.00  0.00     0.277 HD
ATOM     38  H21 UNL     1      76.706 -51.128 -46.057  1.00  0.00     0.277 HD
HETATM   39  C30 UNL     1      77.977 -48.734 -44.156  1.00  0.00     0.041 C 
ENDBRANCH  29  32
ENDBRANCH  25  28
BRANCH   2  40
HETATM   40  C3  UNL     1      84.847 -37.679 -46.029  1.00  0.00     0.176 C 
BRANCH  40  41
HETATM   41  O1  UNL     1      85.971 -37.220 -45.380  1.00  0.00    -0.400 OA
ATOM     42  H1  UNL     1      85.890 -36.366 -44.971  1.00  0.00     0.209 HD
ENDBRANCH  40  41
ENDBRANCH   2  40
BRANCH   3  43
HETATM   43  O2  UNL     1      85.957 -36.791 -48.062  1.00  0.00    -0.395 OA
ATOM     44  H2  UNL     1      85.417 -36.339 -47.426  1.00  0.00     0.210 HD
ENDBRANCH   3  43
TORSDOF 5
ENDMDL
MODEL 2
REMARK VINA RESULT: -8.824558453      0.901      1.131
REMARK  5 active torsions:
REMARK  status: ('A' for Active; 'I' for Inactive)
REMARK    1  A    between atoms: C2_2  and  C3_3 
REMARK    2  A    between atoms: C3_3  and  O1_4 
REMARK    3  A    between atoms: C4_6  and  O2_7 
REMARK    4  A    between atoms: C24_30  and  N1_31 
REMARK       I    between atoms: N1_31  and  C25_33 
REMARK    5  A    between atoms: C25_33  and  C26_35 
ROOT
HETATM    1  C1  UNL     1      86.404 -39.165 -46.362  1.00  0.00     0.020 C 
HETATM    2  C2  UNL     1      85.085 -38.592 -46.952  1.00  0.00     0.007 C 
HETATM    3  C4  UNL     1      85.539 -37.834 -48.172  1.00  0.00     0.128 C 
HETATM    4  C5  UNL     1      84.591 -37.844 -49.329  1.00  0.00     0.033 C 
HETATM    5  C6  UNL     1      84.108 -39.271 -49.499  1.00  0.00     0.012 C 
HETATM    6  C7  UNL     1      83.258 -39.671 -48.343  1.00  0.00    -0.035 C 
HETATM    7  C8  UNL     1      82.147 -38.666 -48.102  1.00  0.00     0.016 C 
HETATM    8  C9  UNL     1      84.169 -39.705 -47.143  1.00  0.00     0.007 C 
HETATM    9  C10 UNL     1      83.322 -40.084 -45.982  1.00  0.00     0.007 C 
HETATM   10  C11 UNL     1      82.447 -41.256 -46.121  1.00  0.00     0.011 C 
HETATM   11  C12 UNL     1      81.996 -41.699 -47.467  1.00  0.00    -0.028 C 
HETATM   12  C13 UNL     1      80.479 -41.412 -47.521  1.00  0.00     0.016 C 
HETATM   13  C14 UNL     1      82.607 -41.021 -48.631  1.00  0.00     0.004 C 
HETATM   14  C15 UNL     1      83.388 -41.898 -49.571  1.00  0.00     0.022 C 
HETATM   15  C16 UNL     1      84.178 -42.994 -48.951  1.00  0.00     0.063 C 
HETATM   16 BR1  UNL     1      84.733 -44.162 -50.437  1.00  0.00    -0.091 Br
HETATM   17  C17 UNL     1      83.407 -43.771 -47.934  1.00  0.00     0.013 C 
HETATM   18  C18 UNL     1      84.346 -44.080 -46.797  1.00  0.00     0.007 C 
HETATM   19  C19 UNL     1      83.810 -45.075 -45.818  1.00  0.00     0.012 C 
HETATM   20  C20 UNL     1      82.332 -45.215 -46.053  1.00  0.00     0.046 A 
HETATM   21  C21 UNL     1      81.643 -43.929 -46.346  1.00  0.00    -0.060 A 
HETATM   22  C22 UNL     1      80.766 -43.711 -45.391  1.00  0.00     0.056 A 
HETATM   23  C23 UNL     1      80.764 -44.773 -44.396  1.00  0.00     0.172 A 
HETATM   24  O3  UNL     1      80.046 -44.804 -43.336  1.00  0.00    -0.291 OA
HETATM   25  C24 UNL     1      81.728 -45.798 -44.821  1.00  0.00     0.166 A 
HETATM   26  C31 UNL     1      82.071 -43.228 -47.583  1.00  0.00    -0.008 C 
HETATM   27  C32 UNL     1      81.099 -43.725 -48.658  1.00  0.00     0.021 C 
ENDROOT
BRANCH  25  28
HETATM   28  N1  UNL     1      81.013 -47.013 -45.150  1.00  0.00    -0.348 N 
HETATM   29  C25 UNL     1      81.640 -48.286 -45.177  1.00  0.00     0.222 C 
HETATM   30  O4  UNL     1      82.862 -48.403 -44.910  1.00  0.00    -0.273 OA
ATOM     31  H1  UNL     1      80.019 -46.951 -45.372  1.00  0.00     0.163 HD
BRANCH  29  32
HETATM   32  C26 UNL     1      80.866 -49.495 -45.518  1.00  0.00     0.081 C 
HETATM   33  C27 UNL     1      79.377 -49.195 -45.602  1.00  0.00     0.041 C 
HETATM   34  C28 UNL     1      78.661 -50.477 -45.984  1.00  0.00     0.233 C 
HETATM   35  N2  UNL     1      78.879 -51.514 -44.991  1.00  0.00    -0.075 N 
HETATM   36  C29 UNL     1      80.303 -51.810 -44.979  1.00  0.00     0.233 C 
ATOM     37  H22 UNL     1      78.516 -51.267 -44.071  1.00  0.00     0.277 HD
ATOM     38  H21 UNL     1      78.301 -52.340 -45.143  1.00  0.00     0.277 HD
HETATM   39  C30 UNL     1      81.008 -50.570 -44.439  1.00  0.00     0.041 C 
ENDBRANCH  29  32
ENDBRANCH  25  28
BRANCH   2  40
HETATM   40  C3  UNL     1      84.742 -37.529 -45.932  1.00  0.00     0.176 C 
BRANCH  40  41
HETATM   41  O1  UNL     1      85.810 -36.989 -45.252  1.00  0.00    -0.400 OA
ATOM     42  H1  UNL     1      85.606 -36.589 -44.414  1.00  0.00     0.209 HD
ENDBRANCH  40  41
ENDBRANCH   2  40
BRANCH   3  43
HETATM   43  O2  UNL     1      85.819 -36.489 -47.910  1.00  0.00    -0.395 OA
ATOM     44  H2  UNL     1      86.140 -36.021 -48.670  1.00  0.00     0.210 HD
ENDBRANCH   3  43
TORSDOF 5
ENDMDL
MODEL 3
REMARK VINA RESULT: -8.724671926      0.923      1.225
REMARK  5 active torsions:
REMARK  status: ('A' for Active; 'I' for Inactive)
REMARK    1  A    between atoms: C2_2  and  C3_3 
REMARK    2  A    between atoms: C3_3  and  O1_4 
REMARK    3  A    between atoms: C4_6  and  O2_7 
REMARK    4  A    between atoms: C24_30  and  N1_31 
REMARK       I    between atoms: N1_31  and  C25_33 
REMARK    5  A    between atoms: C25_33  and  C26_35 
ROOT
HETATM    1  C1  UNL     1      87.306 -40.344 -46.371  1.00  0.00     0.020 C 
HETATM    2  C2  UNL     1      86.228 -39.453 -47.048  1.00  0.00     0.007 C 
HETATM    3  C4  UNL     1      86.929 -38.904 -48.262  1.00  0.00     0.128 C 
HETATM    4  C5  UNL     1      86.069 -38.698 -49.468  1.00  0.00     0.033 C 
HETATM    5  C6  UNL     1      85.215 -39.942 -49.625  1.00  0.00     0.012 C 
HETATM    6  C7  UNL     1      84.237 -40.041 -48.506  1.00  0.00    -0.035 C 
HETATM    7  C8  UNL     1      83.440 -38.758 -48.354  1.00  0.00     0.016 C 
HETATM    8  C9  UNL     1      85.047 -40.275 -47.258  1.00  0.00     0.007 C 
HETATM    9  C10 UNL     1      84.077 -40.355 -46.134  1.00  0.00     0.007 C 
HETATM   10  C11 UNL     1      82.916 -41.244 -46.288  1.00  0.00     0.011 C 
HETATM   11  C12 UNL     1      82.421 -41.600 -47.644  1.00  0.00    -0.028 C 
HETATM   12  C13 UNL     1      81.048 -40.906 -47.789  1.00  0.00     0.016 C 
HETATM   13  C14 UNL     1      83.248 -41.168 -48.791  1.00  0.00     0.004 C 
HETATM   14  C15 UNL     1      83.794 -42.266 -49.662  1.00  0.00     0.022 C 
HETATM   15  C16 UNL     1      84.218 -43.511 -48.969  1.00  0.00     0.063 C 
HETATM   16 BR1  UNL     1      84.490 -44.848 -50.390  1.00  0.00    -0.091 Br
HETATM   17  C17 UNL     1      83.216 -44.000 -47.974  1.00  0.00     0.013 C 
HETATM   18  C18 UNL     1      83.980 -44.510 -46.780  1.00  0.00     0.007 C 
HETATM   19  C19 UNL     1      83.144 -45.274 -45.804  1.00  0.00     0.012 C 
HETATM   20  C20 UNL     1      81.698 -45.008 -46.116  1.00  0.00     0.046 A 
HETATM   21  C21 UNL     1      81.409 -43.596 -46.482  1.00  0.00    -0.060 A 
HETATM   22  C22 UNL     1      80.586 -43.102 -45.582  1.00  0.00     0.056 A 
HETATM   23  C23 UNL     1      80.244 -44.080 -44.559  1.00  0.00     0.172 A 
HETATM   24  O3  UNL     1      79.499 -43.866 -43.540  1.00  0.00    -0.291 OA
HETATM   25  C24 UNL     1      80.901 -45.349 -44.902  1.00  0.00     0.166 A 
HETATM   26  C31 UNL     1      82.070 -43.093 -47.712  1.00  0.00    -0.008 C 
HETATM   27  C32 UNL     1      81.047 -43.346 -48.824  1.00  0.00     0.021 C 
ENDROOT
BRANCH  25  28
HETATM   28  N1  UNL     1      79.891 -46.330 -45.236  1.00  0.00    -0.348 N 
HETATM   29  C25 UNL     1      80.031 -47.708 -44.927  1.00  0.00     0.222 C 
HETATM   30  O4  UNL     1      81.060 -48.131 -44.341  1.00  0.00    -0.273 OA
ATOM     31  H1  UNL     1      79.044 -46.018 -45.711  1.00  0.00     0.163 HD
BRANCH  29  32
HETATM   32  C26 UNL     1      78.971 -48.669 -45.287  1.00  0.00     0.081 C 
HETATM   33  C27 UNL     1      78.070 -48.972 -44.099  1.00  0.00     0.041 C 
HETATM   34  C28 UNL     1      76.995 -49.939 -44.561  1.00  0.00     0.233 C 
HETATM   35  N2  UNL     1      77.579 -51.179 -45.041  1.00  0.00    -0.075 N 
HETATM   36  C29 UNL     1      78.388 -50.856 -46.206  1.00  0.00     0.233 C 
ATOM     37  H22 UNL     1      78.100 -51.679 -44.321  1.00  0.00     0.277 HD
ATOM     38  H21 UNL     1      76.884 -51.902 -45.227  1.00  0.00     0.277 HD
HETATM   39  C30 UNL     1      79.561 -50.015 -45.710  1.00  0.00     0.041 C 
ENDBRANCH  29  32
ENDBRANCH  25  28
BRANCH   2  40
HETATM   40  C3  UNL     1      86.150 -38.295 -46.079  1.00  0.00     0.176 C 
BRANCH  40  41
HETATM   41  O1  UNL     1      85.388 -37.224 -46.489  1.00  0.00    -0.400 OA
ATOM     42  H1  UNL     1      84.680 -37.429 -47.088  1.00  0.00     0.209 HD
ENDBRANCH  40  41
ENDBRANCH   2  40
BRANCH   3  43
HETATM   43  O2  UNL     1      87.562 -37.679 -48.023  1.00  0.00    -0.395 OA
ATOM     44  H2  UNL     1      88.463 -37.661 -48.322  1.00  0.00     0.210 HD
ENDBRANCH   3  43
TORSDOF 5
ENDMDL
MODEL 4
REMARK VINA RESULT: -8.477650510      1.724      2.008
REMARK  5 active torsions:
REMARK  status: ('A' for Active; 'I' for Inactive)
REMARK    1  A    between atoms: C2_2  and  C3_3 
REMARK    2  A    between atoms: C3_3  and  O1_4 
REMARK    3  A    between atoms: C4_6  and  O2_7 
REMARK    4  A    between atoms: C24_30  and  N1_31 
REMARK       I    between atoms: N1_31  and  C25_33 
REMARK    5  A    between atoms: C25_33  and  C26_35 
ROOT
HETATM    1  C1  UNL     1      84.729 -38.798 -46.319  1.00  0.00     0.020 C 
HETATM    2  C2  UNL     1      83.216 -38.597 -46.619  1.00  0.00     0.007 C 
HETATM    3  C4  UNL     1      83.209 -37.746 -47.861  1.00  0.00     0.128 C 
HETATM    4  C5  UNL     1      82.089 -38.008 -48.817  1.00  0.00     0.033 C 
HETATM    5  C6  UNL     1      81.973 -39.512 -48.968  1.00  0.00     0.012 C 
HETATM    6  C7  UNL     1      81.500 -40.124 -47.694  1.00  0.00    -0.035 C 
HETATM    7  C8  UNL     1      80.234 -39.452 -47.196  1.00  0.00     0.016 C 
HETATM    8  C9  UNL     1      82.604 -39.914 -46.692  1.00  0.00     0.007 C 
HETATM    9  C10 UNL     1      82.131 -40.505 -45.413  1.00  0.00     0.007 C 
HETATM   10  C11 UNL     1      81.583 -41.869 -45.446  1.00  0.00     0.011 C 
HETATM   11  C12 UNL     1      81.009 -42.415 -46.703  1.00  0.00    -0.028 C 
HETATM   12  C13 UNL     1      79.489 -42.543 -46.455  1.00  0.00     0.016 C 
HETATM   13  C14 UNL     1      81.181 -41.599 -47.925  1.00  0.00     0.004 C 
HETATM   14  C15 UNL     1      81.964 -42.236 -49.039  1.00  0.00     0.022 C 
HETATM   15  C16 UNL     1      83.119 -43.082 -48.638  1.00  0.00     0.063 C 
HETATM   16 BR1  UNL     1      83.658 -44.059 -50.261  1.00  0.00    -0.091 Br
HETATM   17  C17 UNL     1      82.793 -44.036 -47.536  1.00  0.00     0.013 C 
HETATM   18  C18 UNL     1      83.984 -44.084 -46.614  1.00  0.00     0.007 C 
HETATM   19  C19 UNL     1      83.929 -45.186 -45.605  1.00  0.00     0.012 C 
HETATM   20  C20 UNL     1      82.523 -45.714 -45.564  1.00  0.00     0.046 A 
HETATM   21  C21 UNL     1      81.478 -44.659 -45.654  1.00  0.00    -0.060 A 
HETATM   22  C22 UNL     1      80.779 -44.682 -44.540  1.00  0.00     0.056 A 
HETATM   23  C23 UNL     1      81.250 -45.707 -43.620  1.00  0.00     0.172 A 
HETATM   24  O3  UNL     1      80.787 -45.929 -42.447  1.00  0.00    -0.291 OA
HETATM   25  C24 UNL     1      82.346 -46.437 -44.273  1.00  0.00     0.166 A 
HETATM   26  C31 UNL     1      81.456 -43.869 -46.911  1.00  0.00    -0.008 C 
HETATM   27  C32 UNL     1      80.458 -44.607 -47.808  1.00  0.00     0.021 C 
ENDROOT
BRANCH  25  28
HETATM   28  N1  UNL     1      81.923 -47.799 -44.524  1.00  0.00    -0.348 N 
HETATM   29  C25 UNL     1      82.184 -48.861 -43.618  1.00  0.00     0.222 C 
HETATM   30  O4  UNL     1      82.805 -48.648 -42.546  1.00  0.00    -0.273 OA
ATOM     31  H1  UNL     1      81.417 -48.003 -45.385  1.00  0.00     0.163 HD
BRANCH  29  32
HETATM   32  C26 UNL     1      81.731 -50.231 -43.920  1.00  0.00     0.081 C 
HETATM   33  C27 UNL     1      80.506 -50.224 -44.822  1.00  0.00     0.041 C 
HETATM   34  C28 UNL     1      80.125 -51.665 -45.107  1.00  0.00     0.233 C 
HETATM   35  N2  UNL     1      79.806 -52.374 -43.879  1.00  0.00    -0.075 N 
HETATM   36  C29 UNL     1      81.014 -52.407 -43.071  1.00  0.00     0.233 C 
ATOM     37  H22 UNL     1      79.007 -51.977 -43.387  1.00  0.00     0.277 HD
ATOM     38  H21 UNL     1      79.412 -53.301 -44.045  1.00  0.00     0.277 HD
HETATM   39  C30 UNL     1      81.303 -50.969 -42.650  1.00  0.00     0.041 C 
ENDBRANCH  29  32
ENDBRANCH  25  28
BRANCH   2  40
HETATM   40  C3  UNL     1      82.814 -37.664 -45.498  1.00  0.00     0.176 C 
BRANCH  40  41
HETATM   41  O1  UNL     1      83.852 -37.116 -44.778  1.00  0.00    -0.400 OA
ATOM     42  H1  UNL     1      83.797 -36.179 -44.626  1.00  0.00     0.209 HD
ENDBRANCH  40  41
ENDBRANCH   2  40
BRANCH   3  43
HETATM   43  O2  UNL     1      83.173 -36.375 -47.587  1.00  0.00    -0.395 OA
ATOM     44  H2  UNL     1      83.738 -35.866 -48.156  1.00  0.00     0.210 HD
ENDBRANCH   3  43
TORSDOF 5
ENDMDL
MODEL 5
REMARK VINA RESULT: -8.260890921      4.769     10.367
REMARK  5 active torsions:
REMARK  status: ('A' for Active; 'I' for Inactive)
REMARK    1  A    between atoms: C2_2  and  C3_3 
REMARK    2  A    between atoms: C3_3  and  O1_4 
REMARK    3  A    between atoms: C4_6  and  O2_7 
REMARK    4  A    between atoms: C24_30  and  N1_31 
REMARK       I    between atoms: N1_31  and  C25_33 
REMARK    5  A    between atoms: C25_33  and  C26_35 
ROOT
HETATM    1  C1  UNL     1      79.694 -43.934 -46.154  1.00  0.00     0.020 C 
HETATM    2  C2  UNL     1      79.301 -42.828 -45.135  1.00  0.00     0.007 C 
HETATM    3  C4  UNL     1      79.734 -43.394 -43.808  1.00  0.00     0.128 C 
HETATM    4  C5  UNL     1      80.227 -42.397 -42.810  1.00  0.00     0.033 C 
HETATM    5  C6  UNL     1      81.170 -41.460 -43.542  1.00  0.00     0.012 C 
HETATM    6  C7  UNL     1      80.416 -40.633 -44.525  1.00  0.00    -0.035 C 
HETATM    7  C8  UNL     1      79.236 -39.937 -43.871  1.00  0.00     0.016 C 
HETATM    8  C9  UNL     1      79.912 -41.585 -45.578  1.00  0.00     0.007 C 
HETATM    9  C10 UNL     1      79.141 -40.768 -46.551  1.00  0.00     0.007 C 
HETATM   10  C11 UNL     1      79.771 -39.549 -47.078  1.00  0.00     0.011 C 
HETATM   11  C12 UNL     1      80.835 -38.861 -46.301  1.00  0.00    -0.028 C 
HETATM   12  C13 UNL     1      80.220 -37.522 -45.834  1.00  0.00     0.016 C 
HETATM   13  C14 UNL     1      81.333 -39.553 -45.092  1.00  0.00     0.004 C 
HETATM   14  C15 UNL     1      82.792 -39.917 -45.094  1.00  0.00     0.022 C 
HETATM   15  C16 UNL     1      83.363 -40.357 -46.394  1.00  0.00     0.063 C 
HETATM   16 BR1  UNL     1      85.317 -40.365 -46.146  1.00  0.00    -0.091 Br
HETATM   17  C17 UNL     1      82.983 -39.469 -47.533  1.00  0.00     0.013 C 
HETATM   18  C18 UNL     1      82.718 -40.352 -48.724  1.00  0.00     0.007 C 
HETATM   19  C19 UNL     1      82.582 -39.610 -50.015  1.00  0.00     0.012 C 
HETATM   20  C20 UNL     1      82.391 -38.153 -49.700  1.00  0.00     0.046 A 
HETATM   21  C21 UNL     1      81.503 -37.899 -48.534  1.00  0.00    -0.060 A 
HETATM   22  C22 UNL     1      80.453 -37.230 -48.959  1.00  0.00     0.056 A 
HETATM   23  C23 UNL     1      80.514 -36.970 -50.390  1.00  0.00     0.172 A 
HETATM   24  O3  UNL     1      79.612 -36.378 -51.082  1.00  0.00    -0.291 OA
HETATM   25  C24 UNL     1      81.785 -37.504 -50.898  1.00  0.00     0.166 A 
HETATM   26  C31 UNL     1      81.978 -38.420 -47.227  1.00  0.00    -0.008 C 
HETATM   27  C32 UNL     1      82.742 -37.248 -46.605  1.00  0.00     0.021 C 
ENDROOT
BRANCH  25  28
HETATM   28  N1  UNL     1      82.618 -36.404 -51.337  1.00  0.00    -0.348 N 
HETATM   29  C25 UNL     1      83.734 -36.585 -52.196  1.00  0.00     0.222 C 
HETATM   30  O4  UNL     1      84.041 -37.730 -52.613  1.00  0.00    -0.273 OA
ATOM     31  H1  UNL     1      82.395 -35.463 -51.015  1.00  0.00     0.163 HD
BRANCH  29  32
HETATM   32  C26 UNL     1      84.551 -35.431 -52.616  1.00  0.00     0.081 C 
HETATM   33  C27 UNL     1      84.467 -35.209 -54.119  1.00  0.00     0.041 C 
HETATM   34  C28 UNL     1      85.306 -33.992 -54.460  1.00  0.00     0.233 C 
HETATM   35  N2  UNL     1      86.697 -34.195 -54.089  1.00  0.00    -0.075 N 
HETATM   36  C29 UNL     1      86.742 -34.350 -52.644  1.00  0.00     0.233 C 
ATOM     37  H22 UNL     1      87.132 -34.972 -54.587  1.00  0.00     0.277 HD
ATOM     38  H21 UNL     1      87.313 -33.457 -54.431  1.00  0.00     0.277 HD
HETATM   39  C30 UNL     1      86.033 -35.661 -52.317  1.00  0.00     0.041 C 
ENDBRANCH  29  32
ENDBRANCH  25  28
BRANCH   2  40
HETATM   40  C3  UNL     1      77.793 -42.944 -45.140  1.00  0.00     0.176 C 
BRANCH  40  41
HETATM   41  O1  UNL     1      77.290 -44.175 -45.501  1.00  0.00    -0.400 OA
ATOM     42  H1  UNL     1      77.797 -44.925 -45.214  1.00  0.00     0.209 HD
ENDBRANCH  40  41
ENDBRANCH   2  40
BRANCH   3  43
HETATM   43  O2  UNL     1      78.726 -44.121 -43.166  1.00  0.00    -0.395 OA
ATOM     44  H2  UNL     1      78.108 -43.570 -42.702  1.00  0.00     0.210 HD
ENDBRANCH   3  43
TORSDOF 5
ENDMDL
