MODEL 1
REMARK VINA RESULT: -9.199577189      0.000      0.000
REMARK  7 active torsions:
REMARK  status: ('A' for Active; 'I' for Inactive)
REMARK    1  A    between atoms: N1_6  and  C6_7 
REMARK    2  A    between atoms: C6_7  and  C7_8 
REMARK    3  A    between atoms: N2_17  and  O1_19 
REMARK    4  A    between atoms: C18_23  and  O2_24 
REMARK    5  A    between atoms: C24_33  and  C25_34 
REMARK    6  A    between atoms: C25_34  and  O4_37 
REMARK    7  A    between atoms: C29_41  and  O5_42 
ROOT
HETATM    1  C1  UNL     1      77.142 -45.338 -44.010  1.00  0.00     0.015 C 
HETATM    2  C2  UNL     1      78.053 -45.313 -44.813  1.00  0.00    -0.076 C 
HETATM    3  C3  UNL     1      79.115 -45.309 -45.770  1.00  0.00     0.161 C 
HETATM    4  C4  UNL     1      78.796 -44.277 -46.800  1.00  0.00     0.084 C 
HETATM    5  C5  UNL     1      78.795 -43.068 -45.839  1.00  0.00     0.277 C 
HETATM    6  N1  UNL     1      79.821 -43.274 -44.904  1.00  0.00     0.103 N 
HETATM    7  C14 UNL     1      80.287 -44.574 -45.087  1.00  0.00     0.318 C 
HETATM    8  C15 UNL     1      80.629 -45.444 -43.983  1.00  0.00     0.060 C 
HETATM    9  N2  UNL     1      80.488 -45.281 -42.762  1.00  0.00    -0.274 N 
ATOM     10  H2  UNL     1      80.822 -46.071 -42.212  1.00  0.00     0.193 HD
HETATM   11  C16 UNL     1      81.214 -46.731 -44.505  1.00  0.00     0.053 C 
HETATM   12  C17 UNL     1      82.360 -46.210 -45.356  1.00  0.00     0.027 C 
HETATM   13  C18 UNL     1      81.671 -47.696 -43.480  1.00  0.00     0.141 C 
HETATM   14  C19 UNL     1      81.401 -49.155 -43.793  1.00  0.00     0.056 C 
HETATM   15  C20 UNL     1      81.484 -49.298 -45.293  1.00  0.00     0.046 C 
HETATM   16  C21 UNL     1      80.092 -48.779 -45.575  1.00  0.00     0.222 C 
HETATM   17  C22 UNL     1      80.047 -47.336 -45.249  1.00  0.00     0.171 C 
HETATM   18  O3  UNL     1      79.538 -46.510 -46.268  1.00  0.00    -0.356 OA
HETATM   19  N3  UNL     1      79.251 -49.646 -44.751  1.00  0.00    -0.044 N 
HETATM   20  C23 UNL     1      77.943 -49.146 -44.566  1.00  0.00     0.274 C 
HETATM   21  C24 UNL     1      79.202 -50.999 -45.181  1.00  0.00     0.241 C 
HETATM   22  C28 UNL     1      78.916 -51.679 -43.842  1.00  0.00     0.123 C 
HETATM   23 BR1  UNL     1      79.147 -53.572 -43.862  1.00  0.00    -0.086 Br
HETATM   24  C29 UNL     1      80.153 -51.119 -43.098  1.00  0.00     0.171 C 
HETATM   25  C30 UNL     1      80.030 -49.649 -43.499  1.00  0.00     0.159 C 
HETATM   26  C31 UNL     1      79.337 -49.050 -42.337  1.00  0.00     0.050 C 
ENDROOT
BRANCH   6  27
HETATM   27  C6  UNL     1      80.815 -42.289 -44.703  1.00  0.00     0.278 C 
BRANCH  27  28
HETATM   28  C7  UNL     1      80.636 -40.909 -45.184  1.00  0.00     0.014 C 
HETATM   29  C8  UNL     1      81.812 -40.646 -46.160  1.00  0.00     0.006 C 
HETATM   30  C9  UNL     1      81.496 -39.624 -47.177  1.00  0.00     0.000 C 
HETATM   31  C10 UNL     1      80.334 -38.731 -46.931  1.00  0.00     0.000 C 
HETATM   32  C11 UNL     1      80.348 -37.989 -45.643  1.00  0.00     0.000 C 
HETATM   33  C12 UNL     1      81.265 -38.549 -44.612  1.00  0.00     0.000 C 
HETATM   34  C13 UNL     1      80.839 -39.912 -44.088  1.00  0.00     0.006 C 
ENDBRANCH  27  28
ENDBRANCH   6  27
BRANCH   9  35
HETATM   35  O1  UNL     1      79.993 -44.291 -42.010  1.00  0.00    -0.290 OA
ATOM     36  H1  UNL     1      80.134 -44.011 -41.114  1.00  0.00     0.244 HD
ENDBRANCH   9  35
BRANCH  13  37
HETATM   37  O2  UNL     1      81.474 -47.377 -42.163  1.00  0.00    -0.394 OA
ATOM     38  H2  UNL     1      82.211 -47.459 -41.569  1.00  0.00     0.210 HD
ENDBRANCH  13  37
BRANCH  21  39
HETATM   39  C25 UNL     1      78.445 -51.540 -46.258  1.00  0.00     0.081 C 
HETATM   40  C26 UNL     1      76.943 -51.696 -46.095  1.00  0.00     0.047 C 
HETATM   41  C27 UNL     1      78.884 -52.779 -46.997  1.00  0.00     0.047 C 
BRANCH  39  42
HETATM   42  O4  UNL     1      78.457 -50.568 -47.323  1.00  0.00    -0.388 OA
ATOM     43  H4  UNL     1      77.896 -50.898 -48.014  1.00  0.00     0.210 HD
ENDBRANCH  39  42
ENDBRANCH  21  39
BRANCH  24  44
HETATM   44  O5  UNL     1      81.324 -51.682 -43.586  1.00  0.00    -0.392 OA
ATOM     45  H5  UNL     1      81.747 -52.215 -42.923  1.00  0.00     0.210 HD
ENDBRANCH  24  44
TORSDOF 7
ENDMDL
MODEL 2
REMARK VINA RESULT: -9.182413621      2.869      5.747
REMARK  7 active torsions:
REMARK  status: ('A' for Active; 'I' for Inactive)
REMARK    1  A    between atoms: N1_6  and  C6_7 
REMARK    2  A    between atoms: C6_7  and  C7_8 
REMARK    3  A    between atoms: N2_17  and  O1_19 
REMARK    4  A    between atoms: C18_23  and  O2_24 
REMARK    5  A    between atoms: C24_33  and  C25_34 
REMARK    6  A    between atoms: C25_34  and  O4_37 
REMARK    7  A    between atoms: C29_41  and  O5_42 
ROOT
HETATM    1  C1  UNL     1      82.086 -42.551 -48.989  1.00  0.00     0.015 C 
HETATM    2  C2  UNL     1      82.429 -42.178 -47.885  1.00  0.00    -0.076 C 
HETATM    3  C3  UNL     1      82.835 -41.768 -46.577  1.00  0.00     0.161 C 
HETATM    4  C4  UNL     1      84.258 -41.326 -46.660  1.00  0.00     0.084 C 
HETATM    5  C5  UNL     1      84.021 -40.165 -47.650  1.00  0.00     0.277 C 
HETATM    6  N1  UNL     1      82.799 -39.566 -47.310  1.00  0.00     0.103 N 
HETATM    7  C14 UNL     1      82.193 -40.381 -46.359  1.00  0.00     0.318 C 
HETATM    8  C15 UNL     1      80.774 -40.667 -46.362  1.00  0.00     0.060 C 
HETATM    9  N2  UNL     1      79.901 -40.371 -47.192  1.00  0.00    -0.274 N 
ATOM     10  H2  UNL     1      78.974 -40.708 -46.932  1.00  0.00     0.193 HD
HETATM   11  C16 UNL     1      80.409 -41.474 -45.143  1.00  0.00     0.053 C 
HETATM   12  C17 UNL     1      80.932 -40.581 -44.031  1.00  0.00     0.027 C 
HETATM   13  C18 UNL     1      78.972 -41.786 -44.982  1.00  0.00     0.141 C 
HETATM   14  C19 UNL     1      78.662 -43.170 -44.446  1.00  0.00     0.056 C 
HETATM   15  C20 UNL     1      79.793 -43.538 -43.517  1.00  0.00     0.046 C 
HETATM   16  C21 UNL     1      80.755 -43.961 -44.604  1.00  0.00     0.222 C 
HETATM   17  C22 UNL     1      81.158 -42.764 -45.376  1.00  0.00     0.171 C 
HETATM   18  O3  UNL     1      82.547 -42.592 -45.525  1.00  0.00    -0.356 OA
HETATM   19  N3  UNL     1      79.987 -44.965 -45.340  1.00  0.00    -0.044 N 
HETATM   20  C23 UNL     1      80.528 -45.264 -46.610  1.00  0.00     0.274 C 
HETATM   21  C24 UNL     1      79.743 -46.164 -44.618  1.00  0.00     0.241 C 
HETATM   22  C28 UNL     1      78.442 -46.603 -45.291  1.00  0.00     0.123 C 
HETATM   23 BR1  UNL     1      77.517 -47.995 -44.371  1.00  0.00    -0.086 Br
HETATM   24  C29 UNL     1      77.648 -45.309 -44.989  1.00  0.00     0.171 C 
HETATM   25  C30 UNL     1      78.686 -44.279 -45.435  1.00  0.00     0.159 C 
HETATM   26  C31 UNL     1      78.254 -43.957 -46.813  1.00  0.00     0.050 C 
ENDROOT
BRANCH   6  27
HETATM   27  C6  UNL     1      82.727 -38.176 -47.061  1.00  0.00     0.278 C 
BRANCH  27  28
HETATM   28  C7  UNL     1      81.708 -37.331 -47.709  1.00  0.00     0.014 C 
HETATM   29  C8  UNL     1      82.477 -36.119 -48.297  1.00  0.00     0.006 C 
HETATM   30  C9  UNL     1      81.794 -35.517 -49.459  1.00  0.00     0.000 C 
HETATM   31  C10 UNL     1      80.361 -35.843 -49.673  1.00  0.00     0.000 C 
HETATM   32  C11 UNL     1      79.456 -35.576 -48.523  1.00  0.00     0.000 C 
HETATM   33  C12 UNL     1      80.143 -35.437 -47.210  1.00  0.00     0.000 C 
HETATM   34  C13 UNL     1      80.776 -36.726 -46.710  1.00  0.00     0.006 C 
ENDBRANCH  27  28
ENDBRANCH   6  27
BRANCH   9  35
HETATM   35  O1  UNL     1      79.912 -39.707 -48.352  1.00  0.00    -0.290 OA
ATOM     36  H1  UNL     1      79.552 -38.876 -48.639  1.00  0.00     0.244 HD
ENDBRANCH   9  35
BRANCH  13  37
HETATM   37  O2  UNL     1      78.110 -41.378 -45.964  1.00  0.00    -0.394 OA
ATOM     38  H2  UNL     1      77.320 -41.887 -46.105  1.00  0.00     0.210 HD
ENDBRANCH  13  37
BRANCH  21  39
HETATM   39  C25 UNL     1      80.647 -47.239 -44.389  1.00  0.00     0.081 C 
HETATM   40  C26 UNL     1      82.115 -46.928 -44.160  1.00  0.00     0.047 C 
HETATM   41  C27 UNL     1      80.644 -48.479 -45.248  1.00  0.00     0.047 C 
BRANCH  39  42
HETATM   42  O4  UNL     1      80.330 -47.801 -43.099  1.00  0.00    -0.388 OA
ATOM     43  H4  UNL     1      81.151 -48.025 -42.679  1.00  0.00     0.210 HD
ENDBRANCH  39  42
ENDBRANCH  21  39
BRANCH  24  44
HETATM   44  O5  UNL     1      77.374 -45.198 -43.633  1.00  0.00    -0.392 OA
ATOM     45  H5  UNL     1      78.082 -44.758 -43.177  1.00  0.00     0.210 HD
ENDBRANCH  24  44
TORSDOF 7
ENDMDL
MODEL 3
REMARK VINA RESULT: -8.782733076      4.586     10.063
REMARK  7 active torsions:
REMARK  status: ('A' for Active; 'I' for Inactive)
REMARK    1  A    between atoms: N1_6  and  C6_7 
REMARK    2  A    between atoms: C6_7  and  C7_8 
REMARK    3  A    between atoms: N2_17  and  O1_19 
REMARK    4  A    between atoms: C18_23  and  O2_24 
REMARK    5  A    between atoms: C24_33  and  C25_34 
REMARK    6  A    between atoms: C25_34  and  O4_37 
REMARK    7  A    between atoms: C29_41  and  O5_42 
ROOT
HETATM    1  C1  UNL     1      80.513 -43.763 -48.812  1.00  0.00     0.015 C 
HETATM    2  C2  UNL     1      80.142 -43.208 -47.797  1.00  0.00    -0.076 C 
HETATM    3  C3  UNL     1      79.695 -42.533 -46.619  1.00  0.00     0.161 C 
HETATM    4  C4  UNL     1      78.449 -43.209 -46.151  1.00  0.00     0.084 C 
HETATM    5  C5  UNL     1      79.089 -44.590 -45.893  1.00  0.00     0.277 C 
HETATM    6  N1  UNL     1      80.371 -44.368 -45.369  1.00  0.00     0.103 N 
HETATM    7  C14 UNL     1      80.632 -43.005 -45.488  1.00  0.00     0.318 C 
HETATM    8  C15 UNL     1      81.923 -42.488 -45.887  1.00  0.00     0.060 C 
HETATM    9  N2  UNL     1      82.937 -43.084 -46.279  1.00  0.00    -0.274 N 
ATOM     10  H2  UNL     1      83.711 -42.456 -46.494  1.00  0.00     0.193 HD
HETATM   11  C16 UNL     1      81.922 -40.984 -45.803  1.00  0.00     0.053 C 
HETATM   12  C17 UNL     1      81.508 -40.769 -44.358  1.00  0.00     0.027 C 
HETATM   13  C18 UNL     1      83.204 -40.318 -46.123  1.00  0.00     0.141 C 
HETATM   14  C19 UNL     1      83.089 -39.023 -46.903  1.00  0.00     0.056 C 
HETATM   15  C20 UNL     1      81.797 -38.372 -46.474  1.00  0.00     0.046 C 
HETATM   16  C21 UNL     1      80.901 -39.211 -47.356  1.00  0.00     0.222 C 
HETATM   17  C22 UNL     1      80.908 -40.604 -46.856  1.00  0.00     0.171 C 
HETATM   18  O3  UNL     1      79.636 -41.167 -46.643  1.00  0.00    -0.356 OA
HETATM   19  N3  UNL     1      81.476 -39.009 -48.686  1.00  0.00    -0.044 N 
HETATM   20  C23 UNL     1      81.037 -39.956 -49.636  1.00  0.00     0.274 C 
HETATM   21  C24 UNL     1      81.322 -37.693 -49.199  1.00  0.00     0.241 C 
HETATM   22  C28 UNL     1      82.543 -37.636 -50.116  1.00  0.00     0.123 C 
HETATM   23 BR1  UNL     1      82.969 -35.884 -50.741  1.00  0.00    -0.086 Br
HETATM   24  C29 UNL     1      83.594 -37.952 -49.024  1.00  0.00     0.171 C 
HETATM   25  C30 UNL     1      82.909 -39.154 -48.373  1.00  0.00     0.159 C 
HETATM   26  C31 UNL     1      83.573 -40.302 -49.029  1.00  0.00     0.050 C 
ENDROOT
BRANCH   6  27
HETATM   27  C6  UNL     1      80.758 -44.962 -44.146  1.00  0.00     0.278 C 
BRANCH  27  28
HETATM   28  C7  UNL     1      81.414 -46.280 -44.106  1.00  0.00     0.014 C 
HETATM   29  C8  UNL     1      80.455 -47.251 -44.841  1.00  0.00     0.006 C 
HETATM   30  C9  UNL     1      81.155 -48.406 -45.439  1.00  0.00     0.000 C 
HETATM   31  C10 UNL     1      82.529 -48.710 -44.964  1.00  0.00     0.000 C 
HETATM   32  C11 UNL     1      82.683 -48.895 -43.497  1.00  0.00     0.000 C 
HETATM   33  C12 UNL     1      81.570 -48.337 -42.680  1.00  0.00     0.000 C 
HETATM   34  C13 UNL     1      81.487 -46.818 -42.713  1.00  0.00     0.006 C 
ENDBRANCH  27  28
ENDBRANCH   6  27
BRANCH   9  35
HETATM   35  O1  UNL     1      83.235 -44.372 -46.480  1.00  0.00    -0.290 OA
ATOM     36  H1  UNL     1      83.630 -45.049 -45.943  1.00  0.00     0.244 HD
ENDBRANCH   9  35
BRANCH  13  37
HETATM   37  O2  UNL     1      84.254 -41.101 -46.521  1.00  0.00    -0.394 OA
ATOM     38  H2  UNL     1      84.346 -41.961 -46.126  1.00  0.00     0.210 HD
ENDBRANCH  13  37
BRANCH  21  39
HETATM   39  C25 UNL     1      80.156 -37.119 -49.780  1.00  0.00     0.081 C 
HETATM   40  C26 UNL     1      80.019 -37.106 -51.292  1.00  0.00     0.047 C 
HETATM   41  C27 UNL     1      79.617 -35.784 -49.331  1.00  0.00     0.047 C 
BRANCH  39  42
HETATM   42  O4  UNL     1      79.046 -37.983 -49.459  1.00  0.00    -0.388 OA
ATOM     43  H4  UNL     1      78.250 -37.490 -49.617  1.00  0.00     0.210 HD
ENDBRANCH  39  42
ENDBRANCH  21  39
BRANCH  24  44
HETATM   44  O5  UNL     1      83.718 -36.895 -48.133  1.00  0.00    -0.392 OA
ATOM     45  H5  UNL     1      83.126 -36.999 -47.397  1.00  0.00     0.210 HD
ENDBRANCH  24  44
TORSDOF 7
ENDMDL
MODEL 4
REMARK VINA RESULT: -8.696425794      7.955     10.359
REMARK  7 active torsions:
REMARK  status: ('A' for Active; 'I' for Inactive)
REMARK    1  A    between atoms: N1_6  and  C6_7 
REMARK    2  A    between atoms: C6_7  and  C7_8 
REMARK    3  A    between atoms: N2_17  and  O1_19 
REMARK    4  A    between atoms: C18_23  and  O2_24 
REMARK    5  A    between atoms: C24_33  and  C25_34 
REMARK    6  A    between atoms: C25_34  and  O4_37 
REMARK    7  A    between atoms: C29_41  and  O5_42 
ROOT
HETATM    1  C1  UNL     1      69.651 -46.913 -41.699  1.00  0.00     0.015 C 
HETATM    2  C2  UNL     1      69.331 -47.202 -42.835  1.00  0.00    -0.076 C 
HETATM    3  C3  UNL     1      68.974 -47.564 -44.170  1.00  0.00     0.161 C 
HETATM    4  C4  UNL     1      67.640 -48.232 -44.120  1.00  0.00     0.084 C 
HETATM    5  C5  UNL     1      66.862 -47.023 -43.554  1.00  0.00     0.277 C 
HETATM    6  N1  UNL     1      67.388 -45.868 -44.153  1.00  0.00     0.103 N 
HETATM    7  C14 UNL     1      68.529 -46.253 -44.852  1.00  0.00     0.318 C 
HETATM    8  C15 UNL     1      69.740 -45.460 -44.869  1.00  0.00     0.060 C 
HETATM    9  N2  UNL     1      70.032 -44.432 -44.239  1.00  0.00    -0.274 N 
ATOM     10  H2  UNL     1      70.967 -44.085 -44.453  1.00  0.00     0.193 HD
HETATM   11  C16 UNL     1      70.746 -46.077 -45.806  1.00  0.00     0.053 C 
HETATM   12  C17 UNL     1      69.945 -46.145 -47.095  1.00  0.00     0.027 C 
HETATM   13  C18 UNL     1      72.014 -45.334 -45.973  1.00  0.00     0.141 C 
HETATM   14  C19 UNL     1      73.261 -46.189 -46.080  1.00  0.00     0.056 C 
HETATM   15  C20 UNL     1      72.850 -47.471 -46.762  1.00  0.00     0.046 C 
HETATM   16  C21 UNL     1      72.271 -48.125 -45.528  1.00  0.00     0.222 C 
HETATM   17  C22 UNL     1      71.045 -47.395 -45.132  1.00  0.00     0.171 C 
HETATM   18  O3  UNL     1      69.908 -48.201 -44.938  1.00  0.00    -0.356 OA
HETATM   19  N3  UNL     1      73.383 -48.064 -44.580  1.00  0.00    -0.044 N 
HETATM   20  C23 UNL     1      72.992 -48.294 -43.243  1.00  0.00     0.274 C 
HETATM   21  C24 UNL     1      74.487 -48.892 -44.916  1.00  0.00     0.241 C 
HETATM   22  C28 UNL     1      75.609 -48.102 -44.242  1.00  0.00     0.123 C 
HETATM   23 BR1  UNL     1      77.365 -48.641 -44.758  1.00  0.00    -0.086 Br
HETATM   24  C29 UNL     1      75.351 -46.769 -44.986  1.00  0.00     0.171 C 
HETATM   25  C30 UNL     1      73.836 -46.679 -44.799  1.00  0.00     0.159 C 
HETATM   26  C31 UNL     1      73.704 -45.790 -43.624  1.00  0.00     0.050 C 
ENDROOT
BRANCH   6  27
HETATM   27  C6  UNL     1      66.538 -44.957 -44.822  1.00  0.00     0.278 C 
BRANCH  27  28
HETATM   28  C7  UNL     1      66.735 -43.502 -44.713  1.00  0.00     0.014 C 
HETATM   29  C8  UNL     1      65.840 -43.042 -43.533  1.00  0.00     0.006 C 
HETATM   30  C9  UNL     1      66.337 -41.813 -42.882  1.00  0.00     0.000 C 
HETATM   31  C10 UNL     1      67.325 -40.984 -43.618  1.00  0.00     0.000 C 
HETATM   32  C11 UNL     1      66.920 -40.551 -44.982  1.00  0.00     0.000 C 
HETATM   33  C12 UNL     1      65.809 -41.339 -45.581  1.00  0.00     0.000 C 
HETATM   34  C13 UNL     1      66.181 -42.779 -45.899  1.00  0.00     0.006 C 
ENDBRANCH  27  28
ENDBRANCH   6  27
BRANCH   9  35
HETATM   35  O1  UNL     1      69.386 -43.680 -43.341  1.00  0.00    -0.290 OA
ATOM     36  H1  UNL     1      68.875 -43.875 -42.565  1.00  0.00     0.244 HD
ENDBRANCH   9  35
BRANCH  13  37
HETATM   37  O2  UNL     1      72.197 -44.198 -45.231  1.00  0.00    -0.394 OA
ATOM     38  H2  UNL     1      72.667 -43.475 -45.629  1.00  0.00     0.210 HD
ENDBRANCH  13  37
BRANCH  21  39
HETATM   39  C25 UNL     1      74.605 -50.299 -44.734  1.00  0.00     0.081 C 
HETATM   40  C26 UNL     1      73.392 -51.082 -44.264  1.00  0.00     0.047 C 
HETATM   41  C27 UNL     1      75.770 -50.913 -43.999  1.00  0.00     0.047 C 
BRANCH  39  42
HETATM   42  O4  UNL     1      74.764 -50.889 -46.040  1.00  0.00    -0.388 OA
ATOM     43  H4  UNL     1      75.230 -51.709 -45.925  1.00  0.00     0.210 HD
ENDBRANCH  39  42
ENDBRANCH  21  39
BRANCH  24  44
HETATM   44  O5  UNL     1      75.691 -46.874 -46.327  1.00  0.00    -0.392 OA
ATOM     45  H5  UNL     1      75.757 -47.784 -46.592  1.00  0.00     0.210 HD
ENDBRANCH  24  44
TORSDOF 7
ENDMDL
MODEL 5
REMARK VINA RESULT: -8.661611586     10.985     13.048
REMARK  7 active torsions:
REMARK  status: ('A' for Active; 'I' for Inactive)
REMARK    1  A    between atoms: N1_6  and  C6_7 
REMARK    2  A    between atoms: C6_7  and  C7_8 
REMARK    3  A    between atoms: N2_17  and  O1_19 
REMARK    4  A    between atoms: C18_23  and  O2_24 
REMARK    5  A    between atoms: C24_33  and  C25_34 
REMARK    6  A    between atoms: C25_34  and  O4_37 
REMARK    7  A    between atoms: C29_41  and  O5_42 
ROOT
HETATM    1  C1  UNL     1      67.900 -47.258 -46.305  1.00  0.00     0.015 C 
HETATM    2  C2  UNL     1      68.517 -47.016 -45.287  1.00  0.00    -0.076 C 
HETATM    3  C3  UNL     1      69.250 -46.761 -44.087  1.00  0.00     0.161 C 
HETATM    4  C4  UNL     1      70.541 -46.117 -44.470  1.00  0.00     0.084 C 
HETATM    5  C5  UNL     1      69.921 -44.861 -45.121  1.00  0.00     0.277 C 
HETATM    6  N1  UNL     1      68.804 -44.499 -44.354  1.00  0.00     0.103 N 
HETATM    7  C14 UNL     1      68.580 -45.529 -43.444  1.00  0.00     0.318 C 
HETATM    8  C15 UNL     1      67.254 -46.005 -43.113  1.00  0.00     0.060 C 
HETATM    9  N2  UNL     1      66.153 -45.710 -43.601  1.00  0.00    -0.274 N 
ATOM     10  H2  UNL     1      65.377 -46.208 -43.167  1.00  0.00     0.193 HD
HETATM   11  C16 UNL     1      67.337 -47.034 -42.016  1.00  0.00     0.053 C 
HETATM   12  C17 UNL     1      68.081 -46.260 -40.941  1.00  0.00     0.027 C 
HETATM   13  C18 UNL     1      66.044 -47.565 -41.529  1.00  0.00     0.141 C 
HETATM   14  C19 UNL     1      66.030 -49.045 -41.200  1.00  0.00     0.056 C 
HETATM   15  C20 UNL     1      67.412 -49.391 -40.702  1.00  0.00     0.046 C 
HETATM   16  C21 UNL     1      68.046 -49.502 -42.070  1.00  0.00     0.222 C 
HETATM   17  C22 UNL     1      68.097 -48.156 -42.683  1.00  0.00     0.171 C 
HETATM   18  O3  UNL     1      69.359 -47.770 -43.171  1.00  0.00    -0.356 OA
HETATM   19  N3  UNL     1      67.189 -50.477 -42.744  1.00  0.00    -0.044 N 
HETATM   20  C23 UNL     1      67.358 -50.497 -44.146  1.00  0.00     0.274 C 
HETATM   21  C24 UNL     1      67.276 -51.796 -42.221  1.00  0.00     0.241 C 
HETATM   22  C28 UNL     1      65.879 -52.302 -42.583  1.00  0.00     0.123 C 
HETATM   23 BR1  UNL     1      65.394 -53.935 -41.725  1.00  0.00    -0.086 Br
HETATM   24  C29 UNL     1      65.096 -51.194 -41.838  1.00  0.00     0.171 C 
HETATM   25  C30 UNL     1      65.861 -49.973 -42.348  1.00  0.00     0.159 C 
HETATM   26  C31 UNL     1      65.017 -49.505 -43.470  1.00  0.00     0.050 C 
ENDROOT
BRANCH   6  27
HETATM   27  C6  UNL     1      68.685 -43.188 -43.837  1.00  0.00     0.278 C 
BRANCH  27  28
HETATM   28  C7  UNL     1      67.684 -42.244 -44.363  1.00  0.00     0.014 C 
HETATM   29  C8  UNL     1      68.349 -41.564 -45.589  1.00  0.00     0.006 C 
HETATM   30  C9  UNL     1      67.367 -41.086 -46.582  1.00  0.00     0.000 C 
HETATM   31  C10 UNL     1      65.952 -40.945 -46.152  1.00  0.00     0.000 C 
HETATM   32  C11 UNL     1      65.719 -40.097 -44.953  1.00  0.00     0.000 C 
HETATM   33  C12 UNL     1      66.925 -39.867 -44.110  1.00  0.00     0.000 C 
HETATM   34  C13 UNL     1      67.431 -41.119 -43.411  1.00  0.00     0.006 C 
ENDBRANCH  27  28
ENDBRANCH   6  27
BRANCH   9  35
HETATM   35  O1  UNL     1      65.763 -44.878 -44.574  1.00  0.00    -0.290 OA
ATOM     36  H1  UNL     1      65.203 -44.112 -44.600  1.00  0.00     0.244 HD
ENDBRANCH   9  35
BRANCH  13  37
HETATM   37  O2  UNL     1      64.899 -47.134 -42.144  1.00  0.00    -0.394 OA
ATOM     38  H2  UNL     1      64.148 -46.933 -41.598  1.00  0.00     0.210 HD
ENDBRANCH  13  37
BRANCH  21  39
HETATM   39  C25 UNL     1      68.299 -52.756 -42.456  1.00  0.00     0.081 C 
HETATM   40  C26 UNL     1      69.741 -52.288 -42.541  1.00  0.00     0.047 C 
HETATM   41  C27 UNL     1      68.172 -53.811 -43.526  1.00  0.00     0.047 C 
BRANCH  39  42
HETATM   42  O4  UNL     1      68.397 -53.577 -41.274  1.00  0.00    -0.388 OA
ATOM     43  H4  UNL     1      68.466 -52.992 -40.529  1.00  0.00     0.210 HD
ENDBRANCH  39  42
ENDBRANCH  21  39
BRANCH  24  44
HETATM   44  O5  UNL     1      65.224 -51.334 -40.463  1.00  0.00    -0.392 OA
ATOM     45  H5  UNL     1      64.614 -50.768 -40.004  1.00  0.00     0.210 HD
ENDBRANCH  24  44
TORSDOF 7
ENDMDL
