MODEL 1
REMARK VINA RESULT: -9.562856291      0.000      0.000
REMARK  12 active torsions:
REMARK  status: ('A' for Active; 'I' for Inactive)
REMARK    1  A    between atoms: C2_2  and  O1_3 
REMARK    2  A    between atoms: O1_3  and  C3_4 
REMARK       I    between atoms: C3_4  and  N1_6 
REMARK    3  A    between atoms: N1_6  and  C4_8 
REMARK    4  A    between atoms: C4_8  and  C5_9 
REMARK    5  A    between atoms: C5_9  and  N2_10 
REMARK    6  A    between atoms: C5_9  and  C15_34 
REMARK       I    between atoms: N2_10  and  C6_12 
REMARK    7  A    between atoms: C6_12  and  C7_14 
REMARK    8  A    between atoms: C7_14  and  N3_15 
REMARK    9  A    between atoms: C7_14  and  C14_31 
REMARK   10  A    between atoms: N3_15  and  C8_17 
REMARK   11  A    between atoms: C8_17  and  C9_19 
REMARK       I    between atoms: C9_19  and  N5_21 
REMARK       I    between atoms: N6_24  and  C12_25 
REMARK   12  A    between atoms: C15_34  and  O7_36 
ROOT
HETATM    1  C7  UNL     1      14.223 -14.749 -23.235  1.00  0.00     0.265 C 
ENDROOT
BRANCH   1   2
HETATM    2  C6  UNL     1      13.307 -14.051 -22.235  1.00  0.00     0.250 C 
HETATM    3  N2  UNL     1      12.409 -14.821 -21.456  1.00  0.00    -0.344 N 
ATOM      4  H2  UNL     1      12.349 -15.829 -21.599  1.00  0.00     0.163 HD
HETATM    5  O3  UNL     1      13.372 -12.820 -22.114  1.00  0.00    -0.271 OA
BRANCH   3   6
HETATM    6  C5  UNL     1      11.573 -14.181 -20.454  1.00  0.00     0.202 C 
BRANCH   6   7
HETATM    7  C4  UNL     1      12.181 -13.988 -19.118  1.00  0.00     0.160 C 
BRANCH   7   8
HETATM    8  N1  UNL     1      11.800 -12.754 -18.489  1.00  0.00    -0.334 N 
HETATM    9  C3  UNL     1      12.581 -11.591 -18.527  1.00  0.00     0.360 C 
HETATM   10  O2  UNL     1      13.694 -11.530 -19.100  1.00  0.00    -0.239 OA
ATOM     11  H1  UNL     1      10.913 -12.724 -17.987  1.00  0.00     0.164 HD
BRANCH   9  12
HETATM   12  O1  UNL     1      12.155 -10.398 -17.920  1.00  0.00    -0.304 OA
BRANCH  12  13
HETATM   13  C2  UNL     1      12.351  -9.176 -18.555  1.00  0.00     0.176 C 
HETATM   14  C1  UNL     1      13.387  -8.322 -17.858  1.00  0.00     0.034 C 
ENDBRANCH  12  13
ENDBRANCH   9  12
ENDBRANCH   7   8
ENDBRANCH   6   7
BRANCH   6  15
HETATM   15  C15 UNL     1      10.220 -14.845 -20.369  1.00  0.00     0.283 C 
HETATM   16  O6  UNL     1       9.548 -14.813 -19.303  1.00  0.00    -0.263 OA
BRANCH  15  17
HETATM   17  O7  UNL     1       9.638 -15.514 -21.426  1.00  0.00    -0.325 OA
HETATM   18  C16 UNL     1       9.487 -16.926 -21.447  1.00  0.00     0.213 C 
ENDBRANCH  15  17
ENDBRANCH   6  15
ENDBRANCH   3   6
ENDBRANCH   1   2
BRANCH   1  19
HETATM   19  N3  UNL     1      14.946 -13.741 -23.936  1.00  0.00    -0.354 N 
ATOM     20  H3  UNL     1      15.320 -12.936 -23.434  1.00  0.00     0.162 HD
BRANCH  19  21
HETATM   21  C8  UNL     1      15.140 -13.864 -25.325  1.00  0.00     0.181 C 
HETATM   22  N4  UNL     1      14.244 -14.850 -25.930  1.00  0.00    -0.077 NA
BRANCH  21  23
HETATM   23  C9  UNL     1      15.299 -12.648 -26.118  1.00  0.00     0.285 C 
HETATM   24  O4  UNL     1      14.871 -11.540 -25.679  1.00  0.00    -0.265 OA
HETATM   25  N5  UNL     1      15.930 -12.626 -27.435  1.00  0.00    -0.328 N 
HETATM   26  C10 UNL     1      16.031 -11.411 -28.199  1.00  0.00     0.148 C 
HETATM   27  C13 UNL     1      16.500 -13.700 -28.189  1.00  0.00     0.255 C 
HETATM   28  C11 UNL     1      16.935 -11.714 -29.348  1.00  0.00     0.147 C 
HETATM   29  N6  UNL     1      16.706 -13.147 -29.509  1.00  0.00    -0.338 N 
HETATM   30  C12 UNL     1      16.682 -13.831 -30.724  1.00  0.00     0.185 C 
HETATM   31  N7  UNL     1      17.780 -14.210 -31.267  1.00  0.00    -0.374 N 
HETATM   32  N8  UNL     1      15.464 -14.116 -31.384  1.00  0.00    -0.064 NA
ATOM     33  H72 UNL     1      18.659 -14.004 -30.792  1.00  0.00     0.158 HD
ATOM     34  H71 UNL     1      17.763 -14.710 -32.156  1.00  0.00     0.158 HD
ENDBRANCH  21  23
ENDBRANCH  19  21
ENDBRANCH   1  19
BRANCH   1  35
HETATM   35  C14 UNL     1      15.088 -15.681 -22.448  1.00  0.00     0.263 C 
HETATM   36  N9  UNL     1      15.461 -15.357 -21.123  1.00  0.00    -0.060 NA
HETATM   37  O5  UNL     1      15.468 -16.737 -22.971  1.00  0.00    -0.274 OA
ENDBRANCH   1  35
TORSDOF 12
ENDMDL
MODEL 2
REMARK VINA RESULT: -8.798078393      1.195      1.271
REMARK  12 active torsions:
REMARK  status: ('A' for Active; 'I' for Inactive)
REMARK    1  A    between atoms: C2_2  and  O1_3 
REMARK    2  A    between atoms: O1_3  and  C3_4 
REMARK       I    between atoms: C3_4  and  N1_6 
REMARK    3  A    between atoms: N1_6  and  C4_8 
REMARK    4  A    between atoms: C4_8  and  C5_9 
REMARK    5  A    between atoms: C5_9  and  N2_10 
REMARK    6  A    between atoms: C5_9  and  C15_34 
REMARK       I    between atoms: N2_10  and  C6_12 
REMARK    7  A    between atoms: C6_12  and  C7_14 
REMARK    8  A    between atoms: C7_14  and  N3_15 
REMARK    9  A    between atoms: C7_14  and  C14_31 
REMARK   10  A    between atoms: N3_15  and  C8_17 
REMARK   11  A    between atoms: C8_17  and  C9_19 
REMARK       I    between atoms: C9_19  and  N5_21 
REMARK       I    between atoms: N6_24  and  C12_25 
REMARK   12  A    between atoms: C15_34  and  O7_36 
ROOT
HETATM    1  C7  UNL     1      14.068 -15.185 -23.443  1.00  0.00     0.265 C 
ENDROOT
BRANCH   1   2
HETATM    2  C6  UNL     1      13.163 -14.849 -22.263  1.00  0.00     0.250 C 
HETATM    3  N2  UNL     1      12.888 -13.493 -21.959  1.00  0.00    -0.344 N 
ATOM      4  H2  UNL     1      13.331 -12.751 -22.501  1.00  0.00     0.163 HD
HETATM    5  O3  UNL     1      12.673 -15.770 -21.595  1.00  0.00    -0.271 OA
BRANCH   3   6
HETATM    6  C5  UNL     1      11.978 -13.153 -20.878  1.00  0.00     0.202 C 
BRANCH   6   7
HETATM    7  C4  UNL     1      12.392 -13.564 -19.517  1.00  0.00     0.160 C 
BRANCH   7   8
HETATM    8  N1  UNL     1      11.984 -12.644 -18.492  1.00  0.00    -0.334 N 
HETATM    9  C3  UNL     1      12.661 -11.450 -18.207  1.00  0.00     0.360 C 
HETATM   10  O2  UNL     1      13.697 -11.088 -18.813  1.00  0.00    -0.239 OA
ATOM     11  H1  UNL     1      11.157 -12.873 -17.941  1.00  0.00     0.164 HD
BRANCH   9  12
HETATM   12  O1  UNL     1      12.209 -10.567 -17.213  1.00  0.00    -0.304 OA
BRANCH  12  13
HETATM   13  C2  UNL     1      12.551  -9.219 -17.261  1.00  0.00     0.176 C 
HETATM   14  C1  UNL     1      13.587  -8.848 -16.223  1.00  0.00     0.034 C 
ENDBRANCH  12  13
ENDBRANCH   9  12
ENDBRANCH   7   8
ENDBRANCH   6   7
BRANCH   6  15
HETATM   15  C15 UNL     1      10.568 -13.586 -21.196  1.00  0.00     0.283 C 
HETATM   16  O6  UNL     1       9.947 -13.103 -22.180  1.00  0.00    -0.263 OA
BRANCH  15  17
HETATM   17  O7  UNL     1       9.879 -14.521 -20.451  1.00  0.00    -0.325 OA
HETATM   18  C16 UNL     1       9.189 -15.613 -21.043  1.00  0.00     0.213 C 
ENDBRANCH  15  17
ENDBRANCH   6  15
ENDBRANCH   3   6
ENDBRANCH   1   2
BRANCH   1  19
HETATM   19  N3  UNL     1      14.088 -14.054 -24.308  1.00  0.00    -0.354 N 
ATOM     20  H3  UNL     1      13.518 -13.235 -24.096  1.00  0.00     0.162 HD
BRANCH  19  21
HETATM   21  C8  UNL     1      14.901 -14.072 -25.458  1.00  0.00     0.181 C 
HETATM   22  N4  UNL     1      14.613 -15.213 -26.329  1.00  0.00    -0.077 NA
BRANCH  21  23
HETATM   23  C9  UNL     1      15.119 -12.821 -26.180  1.00  0.00     0.285 C 
HETATM   24  O4  UNL     1      14.689 -11.729 -25.706  1.00  0.00    -0.265 OA
HETATM   25  N5  UNL     1      15.814 -12.746 -27.462  1.00  0.00    -0.328 N 
HETATM   26  C10 UNL     1      15.973 -11.496 -28.157  1.00  0.00     0.148 C 
HETATM   27  C13 UNL     1      16.401 -13.791 -28.242  1.00  0.00     0.255 C 
HETATM   28  C11 UNL     1      16.927 -11.758 -29.275  1.00  0.00     0.147 C 
HETATM   29  N6  UNL     1      16.681 -13.177 -29.520  1.00  0.00    -0.338 N 
HETATM   30  C12 UNL     1      16.705 -13.799 -30.768  1.00  0.00     0.185 C 
HETATM   31  N7  UNL     1      17.822 -14.170 -31.277  1.00  0.00    -0.374 N 
HETATM   32  N8  UNL     1      15.516 -14.027 -31.500  1.00  0.00    -0.064 NA
ATOM     33  H72 UNL     1      18.680 -14.006 -30.750  1.00  0.00     0.158 HD
ATOM     34  H71 UNL     1      17.840 -14.625 -32.190  1.00  0.00     0.158 HD
ENDBRANCH  21  23
ENDBRANCH  19  21
ENDBRANCH   1  19
BRANCH   1  35
HETATM   35  C14 UNL     1      15.405 -15.539 -22.873  1.00  0.00     0.263 C 
HETATM   36  N9  UNL     1      16.081 -16.700 -23.314  1.00  0.00    -0.060 NA
HETATM   37  O5  UNL     1      15.909 -14.801 -22.015  1.00  0.00    -0.274 OA
ENDBRANCH   1  35
TORSDOF 12
ENDMDL
MODEL 3
REMARK VINA RESULT: -8.499053940      1.639      4.453
REMARK  12 active torsions:
REMARK  status: ('A' for Active; 'I' for Inactive)
REMARK    1  A    between atoms: C2_2  and  O1_3 
REMARK    2  A    between atoms: O1_3  and  C3_4 
REMARK       I    between atoms: C3_4  and  N1_6 
REMARK    3  A    between atoms: N1_6  and  C4_8 
REMARK    4  A    between atoms: C4_8  and  C5_9 
REMARK    5  A    between atoms: C5_9  and  N2_10 
REMARK    6  A    between atoms: C5_9  and  C15_34 
REMARK       I    between atoms: N2_10  and  C6_12 
REMARK    7  A    between atoms: C6_12  and  C7_14 
REMARK    8  A    between atoms: C7_14  and  N3_15 
REMARK    9  A    between atoms: C7_14  and  C14_31 
REMARK   10  A    between atoms: N3_15  and  C8_17 
REMARK   11  A    between atoms: C8_17  and  C9_19 
REMARK       I    between atoms: C9_19  and  N5_21 
REMARK       I    between atoms: N6_24  and  C12_25 
REMARK   12  A    between atoms: C15_34  and  O7_36 
ROOT
HETATM    1  C7  UNL     1      14.569 -14.757 -23.130  1.00  0.00     0.265 C 
ENDROOT
BRANCH   1   2
HETATM    2  C6  UNL     1      13.375 -15.289 -22.343  1.00  0.00     0.250 C 
HETATM    3  N2  UNL     1      12.585 -14.391 -21.583  1.00  0.00    -0.344 N 
ATOM      4  H2  UNL     1      12.844 -13.406 -21.531  1.00  0.00     0.163 HD
HETATM    5  O3  UNL     1      13.110 -16.498 -22.391  1.00  0.00    -0.271 OA
BRANCH   3   6
HETATM    6  C5  UNL     1      11.407 -14.868 -20.877  1.00  0.00     0.202 C 
BRANCH   6   7
HETATM    7  C4  UNL     1      10.114 -14.711 -21.580  1.00  0.00     0.160 C 
BRANCH   7   8
HETATM    8  N1  UNL     1       9.177 -15.763 -21.298  1.00  0.00    -0.334 N 
HETATM    9  C3  UNL     1       9.262 -17.046 -21.855  1.00  0.00     0.360 C 
HETATM   10  O2  UNL     1      10.155 -17.384 -22.667  1.00  0.00    -0.239 OA
ATOM     11  H1  UNL     1       8.409 -15.566 -20.656  1.00  0.00     0.164 HD
BRANCH   9  12
HETATM   12  O1  UNL     1       8.339 -18.054 -21.529  1.00  0.00    -0.304 OA
BRANCH  12  13
HETATM   13  C2  UNL     1       8.644 -19.390 -21.764  1.00  0.00     0.176 C 
HETATM   14  C1  UNL     1       8.518 -20.240 -20.519  1.00  0.00     0.034 C 
ENDBRANCH  12  13
ENDBRANCH   9  12
ENDBRANCH   7   8
ENDBRANCH   6   7
BRANCH   6  15
HETATM   15  C15 UNL     1      11.357 -14.323 -19.471  1.00  0.00     0.283 C 
HETATM   16  O6  UNL     1      10.306 -14.407 -18.781  1.00  0.00    -0.263 OA
BRANCH  15  17
HETATM   17  O7  UNL     1      12.432 -13.713 -18.858  1.00  0.00    -0.325 OA
HETATM   18  C16 UNL     1      12.570 -12.301 -18.784  1.00  0.00     0.213 C 
ENDBRANCH  15  17
ENDBRANCH   6  15
ENDBRANCH   3   6
ENDBRANCH   1   2
BRANCH   1  19
HETATM   19  N3  UNL     1      14.076 -14.227 -24.357  1.00  0.00    -0.354 N 
ATOM     20  H3  UNL     1      13.128 -13.854 -24.411  1.00  0.00     0.162 HD
BRANCH  19  21
HETATM   21  C8  UNL     1      14.905 -14.222 -25.495  1.00  0.00     0.181 C 
HETATM   22  N4  UNL     1      14.645 -15.356 -26.383  1.00  0.00    -0.077 NA
BRANCH  21  23
HETATM   23  C9  UNL     1      15.117 -12.960 -26.199  1.00  0.00     0.285 C 
HETATM   24  O4  UNL     1      14.681 -11.876 -25.710  1.00  0.00    -0.265 OA
HETATM   25  N5  UNL     1      15.812 -12.864 -27.480  1.00  0.00    -0.328 N 
HETATM   26  C10 UNL     1      15.965 -11.604 -28.158  1.00  0.00     0.148 C 
HETATM   27  C13 UNL     1      16.404 -13.895 -28.274  1.00  0.00     0.255 C 
HETATM   28  C11 UNL     1      16.920 -11.846 -29.279  1.00  0.00     0.147 C 
HETATM   29  N6  UNL     1      16.681 -13.262 -29.544  1.00  0.00    -0.338 N 
HETATM   30  C12 UNL     1      16.709 -13.866 -30.800  1.00  0.00     0.185 C 
HETATM   31  N7  UNL     1      17.828 -14.226 -31.314  1.00  0.00    -0.374 N 
HETATM   32  N8  UNL     1      15.521 -14.090 -31.535  1.00  0.00    -0.064 NA
ATOM     33  H72 UNL     1      18.685 -14.064 -30.784  1.00  0.00     0.158 HD
ATOM     34  H71 UNL     1      17.848 -14.667 -32.233  1.00  0.00     0.158 HD
ENDBRANCH  21  23
ENDBRANCH  19  21
ENDBRANCH   1  19
BRANCH   1  35
HETATM   35  C14 UNL     1      15.243 -13.746 -22.258  1.00  0.00     0.263 C 
HETATM   36  N9  UNL     1      15.903 -14.154 -21.076  1.00  0.00    -0.060 NA
HETATM   37  O5  UNL     1      15.216 -12.552 -22.588  1.00  0.00    -0.274 OA
ENDBRANCH   1  35
TORSDOF 12
ENDMDL
MODEL 4
REMARK VINA RESULT: -8.311746291      1.342      3.929
REMARK  12 active torsions:
REMARK  status: ('A' for Active; 'I' for Inactive)
REMARK    1  A    between atoms: C2_2  and  O1_3 
REMARK    2  A    between atoms: O1_3  and  C3_4 
REMARK       I    between atoms: C3_4  and  N1_6 
REMARK    3  A    between atoms: N1_6  and  C4_8 
REMARK    4  A    between atoms: C4_8  and  C5_9 
REMARK    5  A    between atoms: C5_9  and  N2_10 
REMARK    6  A    between atoms: C5_9  and  C15_34 
REMARK       I    between atoms: N2_10  and  C6_12 
REMARK    7  A    between atoms: C6_12  and  C7_14 
REMARK    8  A    between atoms: C7_14  and  N3_15 
REMARK    9  A    between atoms: C7_14  and  C14_31 
REMARK   10  A    between atoms: N3_15  and  C8_17 
REMARK   11  A    between atoms: C8_17  and  C9_19 
REMARK       I    between atoms: C9_19  and  N5_21 
REMARK       I    between atoms: N6_24  and  C12_25 
REMARK   12  A    between atoms: C15_34  and  O7_36 
ROOT
HETATM    1  C7  UNL     1      14.409 -15.403 -23.374  1.00  0.00     0.265 C 
ENDROOT
BRANCH   1   2
HETATM    2  C6  UNL     1      13.396 -15.097 -22.275  1.00  0.00     0.250 C 
HETATM    3  N2  UNL     1      13.384 -13.813 -21.677  1.00  0.00    -0.344 N 
ATOM      4  H2  UNL     1      14.078 -13.118 -21.951  1.00  0.00     0.163 HD
HETATM    5  O3  UNL     1      12.593 -15.975 -21.932  1.00  0.00    -0.271 OA
BRANCH   3   6
HETATM    6  C5  UNL     1      12.386 -13.481 -20.673  1.00  0.00     0.202 C 
BRANCH   6   7
HETATM    7  C4  UNL     1      11.081 -12.999 -21.179  1.00  0.00     0.160 C 
BRANCH   7   8
HETATM    8  N1  UNL     1      10.213 -14.055 -21.622  1.00  0.00    -0.334 N 
HETATM    9  C3  UNL     1       9.531 -14.915 -20.751  1.00  0.00     0.360 C 
HETATM   10  O2  UNL     1       9.634 -14.851 -19.504  1.00  0.00    -0.239 OA
ATOM     11  H1  UNL     1      10.087 -14.185 -22.626  1.00  0.00     0.164 HD
BRANCH   9  12
HETATM   12  O1  UNL     1       8.670 -15.917 -21.229  1.00  0.00    -0.304 OA
BRANCH  12  13
HETATM   13  C2  UNL     1       9.184 -17.041 -21.867  1.00  0.00     0.176 C 
HETATM   14  C1  UNL     1       9.041 -18.295 -21.033  1.00  0.00     0.034 C 
ENDBRANCH  12  13
ENDBRANCH   9  12
ENDBRANCH   7   8
ENDBRANCH   6   7
BRANCH   6  15
HETATM   15  C15 UNL     1      12.957 -12.565 -19.619  1.00  0.00     0.283 C 
HETATM   16  O6  UNL     1      14.162 -12.199 -19.662  1.00  0.00    -0.263 OA
BRANCH  15  17
HETATM   17  O7  UNL     1      12.218 -12.075 -18.562  1.00  0.00    -0.325 OA
HETATM   18  C16 UNL     1      12.531 -10.851 -17.912  1.00  0.00     0.213 C 
ENDBRANCH  15  17
ENDBRANCH   6  15
ENDBRANCH   3   6
ENDBRANCH   1   2
BRANCH   1  19
HETATM   19  N3  UNL     1      14.714 -14.178 -24.034  1.00  0.00    -0.354 N 
ATOM     20  H3  UNL     1      14.609 -13.290 -23.542  1.00  0.00     0.162 HD
BRANCH  19  21
HETATM   21  C8  UNL     1      15.160 -14.200 -25.370  1.00  0.00     0.181 C 
HETATM   22  N4  UNL     1      14.536 -15.270 -26.150  1.00  0.00    -0.077 NA
BRANCH  21  23
HETATM   23  C9  UNL     1      15.272 -12.935 -26.090  1.00  0.00     0.285 C 
HETATM   24  O4  UNL     1      14.805 -11.871 -25.586  1.00  0.00    -0.265 OA
HETATM   25  N5  UNL     1      15.899 -12.812 -27.403  1.00  0.00    -0.328 N 
HETATM   26  C10 UNL     1      15.954 -11.552 -28.093  1.00  0.00     0.148 C 
HETATM   27  C13 UNL     1      16.506 -13.818 -28.219  1.00  0.00     0.255 C 
HETATM   28  C11 UNL     1      16.866 -11.753 -29.258  1.00  0.00     0.147 C 
HETATM   29  N6  UNL     1      16.688 -13.181 -29.504  1.00  0.00    -0.338 N 
HETATM   30  C12 UNL     1      16.687 -13.793 -30.757  1.00  0.00     0.185 C 
HETATM   31  N7  UNL     1      17.797 -14.098 -31.322  1.00  0.00    -0.374 N 
HETATM   32  N8  UNL     1      15.478 -14.083 -31.433  1.00  0.00    -0.064 NA
ATOM     33  H72 UNL     1      18.669 -13.889 -30.835  1.00  0.00     0.158 HD
ATOM     34  H71 UNL     1      17.796 -14.545 -32.239  1.00  0.00     0.158 HD
ENDBRANCH  21  23
ENDBRANCH  19  21
ENDBRANCH   1  19
BRANCH   1  35
HETATM   35  C14 UNL     1      15.585 -16.044 -22.709  1.00  0.00     0.263 C 
HETATM   36  N9  UNL     1      16.349 -17.014 -23.397  1.00  0.00    -0.060 NA
HETATM   37  O5  UNL     1      15.878 -15.712 -21.552  1.00  0.00    -0.274 OA
ENDBRANCH   1  35
TORSDOF 12
ENDMDL
MODEL 5
REMARK VINA RESULT: -8.171741876      3.269      8.793
REMARK  12 active torsions:
REMARK  status: ('A' for Active; 'I' for Inactive)
REMARK    1  A    between atoms: C2_2  and  O1_3 
REMARK    2  A    between atoms: O1_3  and  C3_4 
REMARK       I    between atoms: C3_4  and  N1_6 
REMARK    3  A    between atoms: N1_6  and  C4_8 
REMARK    4  A    between atoms: C4_8  and  C5_9 
REMARK    5  A    between atoms: C5_9  and  N2_10 
REMARK    6  A    between atoms: C5_9  and  C15_34 
REMARK       I    between atoms: N2_10  and  C6_12 
REMARK    7  A    between atoms: C6_12  and  C7_14 
REMARK    8  A    between atoms: C7_14  and  N3_15 
REMARK    9  A    between atoms: C7_14  and  C14_31 
REMARK   10  A    between atoms: N3_15  and  C8_17 
REMARK   11  A    between atoms: C8_17  and  C9_19 
REMARK       I    between atoms: C9_19  and  N5_21 
REMARK       I    between atoms: N6_24  and  C12_25 
REMARK   12  A    between atoms: C15_34  and  O7_36 
ROOT
HETATM    1  C7  UNL     1      14.536 -18.450 -24.017  1.00  0.00     0.265 C 
ENDROOT
BRANCH   1   2
HETATM    2  C6  UNL     1      15.610 -17.955 -24.980  1.00  0.00     0.250 C 
HETATM    3  N2  UNL     1      15.247 -17.581 -26.297  1.00  0.00    -0.344 N 
ATOM      4  H2  UNL     1      14.281 -17.686 -26.607  1.00  0.00     0.163 HD
HETATM    5  O3  UNL     1      16.783 -17.878 -24.589  1.00  0.00    -0.271 OA
BRANCH   3   6
HETATM    6  C5  UNL     1      16.245 -17.046 -27.210  1.00  0.00     0.202 C 
BRANCH   6   7
HETATM    7  C4  UNL     1      15.829 -15.886 -28.029  1.00  0.00     0.160 C 
BRANCH   7   8
HETATM    8  N1  UNL     1      15.757 -14.658 -27.287  1.00  0.00    -0.334 N 
HETATM    9  C3  UNL     1      15.877 -13.390 -27.873  1.00  0.00     0.360 C 
HETATM   10  O2  UNL     1      16.079 -13.216 -29.098  1.00  0.00    -0.239 OA
ATOM     11  H1  UNL     1      15.609 -14.711 -26.280  1.00  0.00     0.164 HD
BRANCH   9  12
HETATM   12  O1  UNL     1      15.771 -12.214 -27.112  1.00  0.00    -0.304 OA
BRANCH  12  13
HETATM   13  C2  UNL     1      14.638 -11.974 -26.342  1.00  0.00     0.176 C 
HETATM   14  C1  UNL     1      14.934 -11.983 -24.859  1.00  0.00     0.034 C 
ENDBRANCH  12  13
ENDBRANCH   9  12
ENDBRANCH   7   8
ENDBRANCH   6   7
BRANCH   6  15
HETATM   15  C15 UNL     1      16.858 -18.141 -28.048  1.00  0.00     0.283 C 
HETATM   16  O6  UNL     1      16.495 -19.340 -27.914  1.00  0.00    -0.263 OA
BRANCH  15  17
HETATM   17  O7  UNL     1      17.832 -17.909 -28.998  1.00  0.00    -0.325 OA
HETATM   18  C16 UNL     1      19.184 -17.640 -28.655  1.00  0.00     0.213 C 
ENDBRANCH  15  17
ENDBRANCH   6  15
ENDBRANCH   3   6
ENDBRANCH   1   2
BRANCH   1  19
HETATM   19  N3  UNL     1      13.699 -17.343 -23.697  1.00  0.00    -0.354 N 
ATOM     20  H3  UNL     1      12.684 -17.444 -23.720  1.00  0.00     0.162 HD
BRANCH  19  21
HETATM   21  C8  UNL     1      14.281 -16.109 -23.348  1.00  0.00     0.181 C 
HETATM   22  N4  UNL     1      14.075 -15.084 -24.372  1.00  0.00    -0.077 NA
BRANCH  21  23
HETATM   23  C9  UNL     1      14.113 -15.619 -21.983  1.00  0.00     0.285 C 
HETATM   24  O4  UNL     1      15.070 -15.691 -21.157  1.00  0.00    -0.265 OA
HETATM   25  N5  UNL     1      12.866 -15.041 -21.487  1.00  0.00    -0.328 N 
HETATM   26  C10 UNL     1      12.733 -14.605 -20.122  1.00  0.00     0.148 C 
HETATM   27  C13 UNL     1      11.626 -14.831 -22.166  1.00  0.00     0.255 C 
HETATM   28  C11 UNL     1      11.443 -13.858 -20.046  1.00  0.00     0.147 C 
HETATM   29  N6  UNL     1      10.688 -14.503 -21.117  1.00  0.00    -0.338 N 
HETATM   30  C12 UNL     1       9.316 -14.757 -21.101  1.00  0.00     0.185 C 
HETATM   31  N7  UNL     1       8.490 -13.832 -21.429  1.00  0.00    -0.374 N 
HETATM   32  N8  UNL     1       8.806 -16.021 -20.722  1.00  0.00    -0.064 NA
ATOM     33  H72 UNL     1       8.858 -12.920 -21.702  1.00  0.00     0.158 HD
ATOM     34  H71 UNL     1       7.487 -14.017 -21.417  1.00  0.00     0.158 HD
ENDBRANCH  21  23
ENDBRANCH  19  21
ENDBRANCH   1  19
BRANCH   1  35
HETATM   35  C14 UNL     1      13.825 -19.571 -24.706  1.00  0.00     0.263 C 
HETATM   36  N9  UNL     1      14.298 -20.898 -24.577  1.00  0.00    -0.060 NA
HETATM   37  O5  UNL     1      12.820 -19.321 -25.384  1.00  0.00    -0.274 OA
ENDBRANCH   1  35
TORSDOF 12
ENDMDL
