MODEL 1
REMARK VINA RESULT: -8.192131561      0.000      0.000
REMARK  13 active torsions:
REMARK  status: ('A' for Active; 'I' for Inactive)
REMARK    1  A    between atoms: C2_2  and  C18_40 
REMARK    2  A    between atoms: N1_3  and  C3_5 
REMARK    3  A    between atoms: C3_5  and  N2_6 
REMARK    4  A    between atoms: C3_5  and  C4_10 
REMARK    5  A    between atoms: N2_6  and  N3_7 
REMARK       I    between atoms: C4_10  and  N4_12 
REMARK    6  A    between atoms: N4_12  and  C5_14 
REMARK    7  A    between atoms: C5_14  and  C6_15 
REMARK    8  A    between atoms: C5_14  and  C16_34 
REMARK       I    between atoms: C6_15  and  N5_17 
REMARK    9  A    between atoms: N5_17  and  C7_19 
REMARK   10  A    between atoms: C7_19  and  C8_20 
REMARK       I    between atoms: C8_20  and  N6_22 
REMARK   11  A    between atoms: N6_22  and  C9_24 
REMARK   12  A    between atoms: C9_24  and  C11_26 
REMARK       I    between atoms: C11_26  and  N7_28 
REMARK   13  A    between atoms: C16_34  and  N8_36 
ROOT
HETATM    1  C5  UNL     1      13.921 -14.808 -23.369  1.00  0.00     0.206 C 
ENDROOT
BRANCH   1   2
HETATM    2  N4  UNL     1      13.144 -14.965 -22.166  1.00  0.00    -0.343 N 
HETATM    3  C4  UNL     1      12.485 -13.989 -21.423  1.00  0.00     0.258 C 
HETATM    4  O1  UNL     1      12.501 -12.787 -21.761  1.00  0.00    -0.270 OA
ATOM      5  H4  UNL     1      13.065 -15.919 -21.811  1.00  0.00     0.163 HD
BRANCH   3   6
HETATM    6  C3  UNL     1      11.731 -14.404 -20.177  1.00  0.00     0.289 C 
BRANCH   6   7
HETATM    7  N1  UNL     1      10.343 -14.206 -20.343  1.00  0.00    -0.362 N 
HETATM    8  C2  UNL     1       9.433 -14.917 -20.857  1.00  0.00     0.068 C 
HETATM    9  C1  UNL     1       8.012 -14.392 -20.873  1.00  0.00     0.073 C 
ATOM     10  H1  UNL     1      10.008 -13.315 -19.976  1.00  0.00     0.161 HD
BRANCH   8  11
HETATM   11  C18 UNL     1       9.615 -16.231 -21.443  1.00  0.00     0.276 C 
HETATM   12  N9  UNL     1      10.270 -16.430 -22.717  1.00  0.00    -0.056 NA
HETATM   13  O6  UNL     1       9.211 -17.295 -20.874  1.00  0.00    -0.270 OA
ENDBRANCH   8  11
ENDBRANCH   6   7
BRANCH   6  14
HETATM   14  N2  UNL     1      12.322 -13.858 -18.980  1.00  0.00    -0.113 NA
BRANCH  14  15
HETATM   15  N3  UNL     1      11.780 -12.585 -18.684  1.00  0.00    -0.346 N 
ATOM     16  H32 UNL     1      11.137 -12.087 -19.299  1.00  0.00     0.172 HD
ATOM     17  H31 UNL     1      12.119 -12.245 -17.784  1.00  0.00     0.172 HD
ENDBRANCH  14  15
ENDBRANCH   6  14
ENDBRANCH   3   6
ENDBRANCH   1   2
BRANCH   1  18
HETATM   18  C6  UNL     1      14.188 -16.161 -23.967  1.00  0.00     0.242 C 
HETATM   19  O2  UNL     1      14.230 -17.142 -23.217  1.00  0.00    -0.271 OA
HETATM   20  N5  UNL     1      14.386 -16.294 -25.359  1.00  0.00    -0.350 N 
ATOM     21  H5  UNL     1      14.366 -15.476 -25.968  1.00  0.00     0.163 HD
BRANCH  20  22
HETATM   22  C7  UNL     1      14.616 -17.617 -25.905  1.00  0.00     0.225 C 
BRANCH  22  23
HETATM   23  C8  UNL     1      15.908 -17.755 -26.591  1.00  0.00     0.236 C 
HETATM   24  O3  UNL     1      17.000 -17.639 -26.023  1.00  0.00    -0.272 OA
HETATM   25  N6  UNL     1      15.876 -18.040 -27.990  1.00  0.00    -0.347 N 
ATOM     26  H6  UNL     1      14.974 -18.123 -28.459  1.00  0.00     0.163 HD
BRANCH  25  27
HETATM   27  C9  UNL     1      17.096 -18.214 -28.764  1.00  0.00     0.172 C 
HETATM   28  C10 UNL     1      17.285 -19.684 -29.000  1.00  0.00     0.042 C 
BRANCH  27  29
HETATM   29  C11 UNL     1      16.977 -17.469 -30.062  1.00  0.00     0.242 C 
HETATM   30  O4  UNL     1      16.711 -18.138 -31.091  1.00  0.00    -0.271 OA
HETATM   31  N7  UNL     1      17.148 -16.078 -30.171  1.00  0.00    -0.346 N 
HETATM   32  C12 UNL     1      17.001 -15.418 -31.479  1.00  0.00     0.152 C 
HETATM   33  C15 UNL     1      17.459 -15.162 -29.089  1.00  0.00     0.152 C 
HETATM   34  C13 UNL     1      15.869 -14.397 -31.245  1.00  0.00     0.187 C 
HETATM   35  O5  UNL     1      16.252 -13.510 -30.230  1.00  0.00    -0.388 OA
HETATM   36  C14 UNL     1      16.286 -14.186 -29.005  1.00  0.00     0.187 C 
ENDBRANCH  27  29
ENDBRANCH  25  27
ENDBRANCH  22  23
ENDBRANCH  20  22
ENDBRANCH   1  18
BRANCH   1  37
HETATM   37  C16 UNL     1      15.206 -14.086 -23.131  1.00  0.00     0.211 C 
HETATM   38  C17 UNL     1      15.135 -12.692 -23.751  1.00  0.00     0.042 C 
BRANCH  37  39
HETATM   39  N8  UNL     1      15.437 -13.900 -21.702  1.00  0.00    -0.073 N 
ATOM     40  H83 UNL     1      14.746 -13.275 -21.286  1.00  0.00     0.274 HD
ATOM     41  H82 UNL     1      15.219 -14.744 -21.171  1.00  0.00     0.274 HD
ATOM     42  H81 UNL     1      16.390 -13.579 -21.529  1.00  0.00     0.274 HD
ENDBRANCH  37  39
ENDBRANCH   1  37
TORSDOF 13
ENDMDL
MODEL 2
REMARK VINA RESULT: -8.010538234      1.898      3.359
REMARK  13 active torsions:
REMARK  status: ('A' for Active; 'I' for Inactive)
REMARK    1  A    between atoms: C2_2  and  C18_40 
REMARK    2  A    between atoms: N1_3  and  C3_5 
REMARK    3  A    between atoms: C3_5  and  N2_6 
REMARK    4  A    between atoms: C3_5  and  C4_10 
REMARK    5  A    between atoms: N2_6  and  N3_7 
REMARK       I    between atoms: C4_10  and  N4_12 
REMARK    6  A    between atoms: N4_12  and  C5_14 
REMARK    7  A    between atoms: C5_14  and  C6_15 
REMARK    8  A    between atoms: C5_14  and  C16_34 
REMARK       I    between atoms: C6_15  and  N5_17 
REMARK    9  A    between atoms: N5_17  and  C7_19 
REMARK   10  A    between atoms: C7_19  and  C8_20 
REMARK       I    between atoms: C8_20  and  N6_22 
REMARK   11  A    between atoms: N6_22  and  C9_24 
REMARK   12  A    between atoms: C9_24  and  C11_26 
REMARK       I    between atoms: C11_26  and  N7_28 
REMARK   13  A    between atoms: C16_34  and  N8_36 
ROOT
HETATM    1  C5  UNL     1      14.529 -15.488 -22.278  1.00  0.00     0.206 C 
ENDROOT
BRANCH   1   2
HETATM    2  N4  UNL     1      13.546 -15.387 -21.229  1.00  0.00    -0.343 N 
HETATM    3  C4  UNL     1      12.542 -14.436 -21.068  1.00  0.00     0.258 C 
HETATM    4  O1  UNL     1      12.382 -13.509 -21.889  1.00  0.00    -0.270 OA
ATOM      5  H4  UNL     1      13.592 -16.109 -20.509  1.00  0.00     0.163 HD
BRANCH   3   6
HETATM    6  C3  UNL     1      11.625 -14.538 -19.868  1.00  0.00     0.289 C 
BRANCH   6   7
HETATM    7  N1  UNL     1      10.291 -14.250 -20.231  1.00  0.00    -0.362 N 
HETATM    8  C2  UNL     1       9.397 -14.930 -20.809  1.00  0.00     0.068 C 
HETATM    9  C1  UNL     1       8.040 -14.303 -21.051  1.00  0.00     0.073 C 
ATOM     10  H1  UNL     1       9.991 -13.309 -19.977  1.00  0.00     0.161 HD
BRANCH   8  11
HETATM   11  C18 UNL     1       9.539 -16.298 -21.269  1.00  0.00     0.276 C 
HETATM   12  N9  UNL     1      10.090 -16.629 -22.565  1.00  0.00    -0.056 NA
HETATM   13  O6  UNL     1       9.187 -17.296 -20.563  1.00  0.00    -0.270 OA
ENDBRANCH   8  11
ENDBRANCH   6   7
BRANCH   6  14
HETATM   14  N2  UNL     1      12.149 -13.831 -18.725  1.00  0.00    -0.113 NA
BRANCH  14  15
HETATM   15  N3  UNL     1      12.104 -12.432 -18.931  1.00  0.00    -0.346 N 
ATOM     16  H32 UNL     1      11.286 -11.939 -19.288  1.00  0.00     0.172 HD
ATOM     17  H31 UNL     1      12.990 -11.997 -18.676  1.00  0.00     0.172 HD
ENDBRANCH  14  15
ENDBRANCH   6  14
ENDBRANCH   3   6
ENDBRANCH   1   2
BRANCH   1  18
HETATM   18  C6  UNL     1      14.895 -14.108 -22.749  1.00  0.00     0.242 C 
HETATM   19  O2  UNL     1      15.655 -13.427 -22.054  1.00  0.00    -0.271 OA
HETATM   20  N5  UNL     1      14.371 -13.612 -23.963  1.00  0.00    -0.350 N 
ATOM     21  H5  UNL     1      13.730 -14.176 -24.522  1.00  0.00     0.163 HD
BRANCH  20  22
HETATM   22  C7  UNL     1      14.764 -12.287 -24.400  1.00  0.00     0.225 C 
BRANCH  22  23
HETATM   23  C8  UNL     1      14.898 -12.161 -25.857  1.00  0.00     0.236 C 
HETATM   24  O3  UNL     1      14.501 -11.181 -26.498  1.00  0.00    -0.272 OA
HETATM   25  N6  UNL     1      15.525 -13.241 -26.550  1.00  0.00    -0.347 N 
ATOM     26  H6  UNL     1      15.840 -14.054 -26.021  1.00  0.00     0.163 HD
BRANCH  25  27
HETATM   27  C9  UNL     1      15.724 -13.213 -27.991  1.00  0.00     0.172 C 
HETATM   28  C10 UNL     1      16.572 -12.016 -28.315  1.00  0.00     0.042 C 
BRANCH  27  29
HETATM   29  C11 UNL     1      16.393 -14.483 -28.431  1.00  0.00     0.242 C 
HETATM   30  O4  UNL     1      16.622 -15.350 -27.553  1.00  0.00    -0.271 OA
HETATM   31  N7  UNL     1      16.766 -14.736 -29.763  1.00  0.00    -0.346 N 
HETATM   32  C12 UNL     1      17.406 -16.014 -30.118  1.00  0.00     0.152 C 
HETATM   33  C15 UNL     1      16.578 -13.846 -30.893  1.00  0.00     0.152 C 
HETATM   34  C13 UNL     1      16.455 -16.615 -31.173  1.00  0.00     0.187 C 
HETATM   35  O5  UNL     1      16.358 -15.736 -32.260  1.00  0.00    -0.388 OA
HETATM   36  C14 UNL     1      15.665 -14.584 -31.871  1.00  0.00     0.187 C 
ENDBRANCH  27  29
ENDBRANCH  25  27
ENDBRANCH  22  23
ENDBRANCH  20  22
ENDBRANCH   1  18
BRANCH   1  37
HETATM   37  C16 UNL     1      14.059 -16.319 -23.427  1.00  0.00     0.211 C 
HETATM   38  C17 UNL     1      15.213 -17.175 -23.947  1.00  0.00     0.042 C 
BRANCH  37  39
HETATM   39  N8  UNL     1      13.010 -17.239 -23.003  1.00  0.00    -0.073 N 
ATOM     40  H83 UNL     1      13.395 -18.077 -22.567  1.00  0.00     0.274 HD
ATOM     41  H82 UNL     1      12.489 -16.876 -22.204  1.00  0.00     0.274 HD
ATOM     42  H81 UNL     1      12.394 -17.468 -23.783  1.00  0.00     0.274 HD
ENDBRANCH  37  39
ENDBRANCH   1  37
TORSDOF 13
ENDMDL
MODEL 3
REMARK VINA RESULT: -7.917525120      5.160     10.675
REMARK  13 active torsions:
REMARK  status: ('A' for Active; 'I' for Inactive)
REMARK    1  A    between atoms: C2_2  and  C18_40 
REMARK    2  A    between atoms: N1_3  and  C3_5 
REMARK    3  A    between atoms: C3_5  and  N2_6 
REMARK    4  A    between atoms: C3_5  and  C4_10 
REMARK    5  A    between atoms: N2_6  and  N3_7 
REMARK       I    between atoms: C4_10  and  N4_12 
REMARK    6  A    between atoms: N4_12  and  C5_14 
REMARK    7  A    between atoms: C5_14  and  C6_15 
REMARK    8  A    between atoms: C5_14  and  C16_34 
REMARK       I    between atoms: C6_15  and  N5_17 
REMARK    9  A    between atoms: N5_17  and  C7_19 
REMARK   10  A    between atoms: C7_19  and  C8_20 
REMARK       I    between atoms: C8_20  and  N6_22 
REMARK   11  A    between atoms: N6_22  and  C9_24 
REMARK   12  A    between atoms: C9_24  and  C11_26 
REMARK       I    between atoms: C11_26  and  N7_28 
REMARK   13  A    between atoms: C16_34  and  N8_36 
ROOT
HETATM    1  C5  UNL     1      11.953 -14.013 -21.950  1.00  0.00     0.206 C 
ENDROOT
BRANCH   1   2
HETATM    2  N4  UNL     1      12.851 -14.411 -23.005  1.00  0.00    -0.343 N 
HETATM    3  C4  UNL     1      13.973 -13.743 -23.489  1.00  0.00     0.258 C 
HETATM    4  O1  UNL     1      14.341 -12.650 -23.010  1.00  0.00    -0.270 OA
ATOM      5  H4  UNL     1      12.636 -15.300 -23.457  1.00  0.00     0.163 HD
BRANCH   3   6
HETATM    6  C3  UNL     1      14.762 -14.365 -24.621  1.00  0.00     0.289 C 
BRANCH   6   7
HETATM    7  N1  UNL     1      15.631 -15.366 -24.135  1.00  0.00    -0.362 N 
HETATM    8  C2  UNL     1      15.500 -16.615 -23.988  1.00  0.00     0.068 C 
HETATM    9  C1  UNL     1      16.657 -17.413 -23.424  1.00  0.00     0.073 C 
ATOM     10  H1  UNL     1      16.542 -15.013 -23.844  1.00  0.00     0.161 HD
BRANCH   8  11
HETATM   11  C18 UNL     1      14.321 -17.388 -24.328  1.00  0.00     0.276 C 
HETATM   12  N9  UNL     1      13.194 -17.520 -23.431  1.00  0.00    -0.056 NA
HETATM   13  O6  UNL     1      14.201 -17.999 -25.437  1.00  0.00    -0.270 OA
ENDBRANCH   8  11
ENDBRANCH   6   7
BRANCH   6  14
HETATM   14  N2  UNL     1      15.345 -13.369 -25.485  1.00  0.00    -0.113 NA
BRANCH  14  15
HETATM   15  N3  UNL     1      14.353 -12.498 -25.995  1.00  0.00    -0.346 N 
ATOM     16  H32 UNL     1      13.368 -12.749 -26.078  1.00  0.00     0.172 HD
ATOM     17  H31 UNL     1      14.758 -11.602 -26.264  1.00  0.00     0.172 HD
ENDBRANCH  14  15
ENDBRANCH   6  14
ENDBRANCH   3   6
ENDBRANCH   1   2
BRANCH   1  18
HETATM   18  C6  UNL     1      12.748 -13.703 -20.712  1.00  0.00     0.242 C 
HETATM   19  O2  UNL     1      13.200 -14.642 -20.048  1.00  0.00    -0.271 OA
HETATM   20  N5  UNL     1      12.967 -12.363 -20.328  1.00  0.00    -0.350 N 
ATOM     21  H5  UNL     1      12.576 -11.594 -20.873  1.00  0.00     0.163 HD
BRANCH  20  22
HETATM   22  C7  UNL     1      13.759 -12.100 -19.143  1.00  0.00     0.225 C 
BRANCH  22  23
HETATM   23  C8  UNL     1      13.184 -11.074 -18.264  1.00  0.00     0.236 C 
HETATM   24  O3  UNL     1      12.077 -11.178 -17.722  1.00  0.00    -0.272 OA
HETATM   25  N6  UNL     1      13.963  -9.898 -18.036  1.00  0.00    -0.347 N 
ATOM     26  H6  UNL     1      14.870  -9.808 -18.494  1.00  0.00     0.163 HD
BRANCH  25  27
HETATM   27  C9  UNL     1      13.496  -8.826 -17.170  1.00  0.00     0.172 C 
HETATM   28  C10 UNL     1      14.321  -8.856 -15.915  1.00  0.00     0.042 C 
BRANCH  27  29
HETATM   29  C11 UNL     1      13.639  -7.510 -17.878  1.00  0.00     0.242 C 
HETATM   30  O4  UNL     1      12.757  -7.205 -18.718  1.00  0.00    -0.271 OA
HETATM   31  N7  UNL     1      14.702  -6.620 -17.642  1.00  0.00    -0.346 N 
HETATM   32  C12 UNL     1      14.764  -5.339 -18.368  1.00  0.00     0.152 C 
HETATM   33  C15 UNL     1      15.799  -6.816 -16.713  1.00  0.00     0.152 C 
HETATM   34  C13 UNL     1      14.762  -4.285 -17.242  1.00  0.00     0.187 C 
HETATM   35  O5  UNL     1      15.872  -4.494 -16.413  1.00  0.00    -0.388 OA
HETATM   36  C14 UNL     1      15.704  -5.682 -15.694  1.00  0.00     0.187 C 
ENDBRANCH  27  29
ENDBRANCH  25  27
ENDBRANCH  22  23
ENDBRANCH  20  22
ENDBRANCH   1  18
BRANCH   1  37
HETATM   37  C16 UNL     1      10.921 -15.051 -21.655  1.00  0.00     0.211 C 
HETATM   38  C17 UNL     1       9.653 -14.380 -21.130  1.00  0.00     0.042 C 
BRANCH  37  39
HETATM   39  N8  UNL     1      10.546 -15.767 -22.869  1.00  0.00    -0.073 N 
ATOM     40  H83 UNL     1      10.057 -15.163 -23.529  1.00  0.00     0.274 HD
ATOM     41  H82 UNL     1      11.361 -15.992 -23.442  1.00  0.00     0.274 HD
ATOM     42  H81 UNL     1      10.001 -16.600 -22.643  1.00  0.00     0.274 HD
ENDBRANCH  37  39
ENDBRANCH   1  37
TORSDOF 13
ENDMDL
MODEL 4
REMARK VINA RESULT: -7.904334063      2.933      5.347
REMARK  13 active torsions:
REMARK  status: ('A' for Active; 'I' for Inactive)
REMARK    1  A    between atoms: C2_2  and  C18_40 
REMARK    2  A    between atoms: N1_3  and  C3_5 
REMARK    3  A    between atoms: C3_5  and  N2_6 
REMARK    4  A    between atoms: C3_5  and  C4_10 
REMARK    5  A    between atoms: N2_6  and  N3_7 
REMARK       I    between atoms: C4_10  and  N4_12 
REMARK    6  A    between atoms: N4_12  and  C5_14 
REMARK    7  A    between atoms: C5_14  and  C6_15 
REMARK    8  A    between atoms: C5_14  and  C16_34 
REMARK       I    between atoms: C6_15  and  N5_17 
REMARK    9  A    between atoms: N5_17  and  C7_19 
REMARK   10  A    between atoms: C7_19  and  C8_20 
REMARK       I    between atoms: C8_20  and  N6_22 
REMARK   11  A    between atoms: N6_22  and  C9_24 
REMARK   12  A    between atoms: C9_24  and  C11_26 
REMARK       I    between atoms: C11_26  and  N7_28 
REMARK   13  A    between atoms: C16_34  and  N8_36 
ROOT
HETATM    1  C5  UNL     1      10.802 -14.608 -20.938  1.00  0.00     0.206 C 
ENDROOT
BRANCH   1   2
HETATM    2  N4  UNL     1      11.674 -13.537 -20.527  1.00  0.00    -0.343 N 
HETATM    3  C4  UNL     1      12.320 -13.363 -19.307  1.00  0.00     0.258 C 
HETATM    4  O1  UNL     1      12.202 -14.191 -18.379  1.00  0.00    -0.270 OA
ATOM      5  H4  UNL     1      11.840 -12.810 -21.224  1.00  0.00     0.163 HD
BRANCH   3   6
HETATM    6  C3  UNL     1      13.190 -12.139 -19.109  1.00  0.00     0.289 C 
BRANCH   6   7
HETATM    7  N1  UNL     1      12.422 -10.959 -19.199  1.00  0.00    -0.362 N 
HETATM    8  C2  UNL     1      12.528  -9.825 -18.652  1.00  0.00     0.068 C 
HETATM    9  C1  UNL     1      11.507  -8.754 -18.976  1.00  0.00     0.073 C 
ATOM     10  H1  UNL     1      11.624 -11.035 -19.831  1.00  0.00     0.161 HD
BRANCH   8  11
HETATM   11  C18 UNL     1      13.569  -9.429 -17.722  1.00  0.00     0.276 C 
HETATM   12  N9  UNL     1      13.329  -9.286 -16.303  1.00  0.00    -0.056 NA
HETATM   13  O6  UNL     1      14.759  -9.181 -18.095  1.00  0.00    -0.270 OA
ENDBRANCH   8  11
ENDBRANCH   6   7
BRANCH   6  14
HETATM   14  N2  UNL     1      14.388 -12.193 -19.909  1.00  0.00    -0.113 NA
BRANCH  14  15
HETATM   15  N3  UNL     1      14.673 -13.521 -20.307  1.00  0.00    -0.346 N 
ATOM     16  H32 UNL     1      14.474 -13.887 -21.238  1.00  0.00     0.172 HD
ATOM     17  H31 UNL     1      15.097 -14.047 -19.544  1.00  0.00     0.172 HD
ENDBRANCH  14  15
ENDBRANCH   6  14
ENDBRANCH   3   6
ENDBRANCH   1   2
BRANCH   1  18
HETATM   18  C6  UNL     1      11.608 -15.657 -21.653  1.00  0.00     0.242 C 
HETATM   19  O2  UNL     1      11.010 -16.556 -22.253  1.00  0.00    -0.271 OA
HETATM   20  N5  UNL     1      13.019 -15.605 -21.629  1.00  0.00    -0.350 N 
ATOM     21  H5  UNL     1      13.504 -14.869 -21.115  1.00  0.00     0.163 HD
BRANCH  20  22
HETATM   22  C7  UNL     1      13.764 -16.618 -22.348  1.00  0.00     0.225 C 
BRANCH  22  23
HETATM   23  C8  UNL     1      14.874 -16.081 -23.146  1.00  0.00     0.236 C 
HETATM   24  O3  UNL     1      16.063 -16.187 -22.822  1.00  0.00    -0.272 OA
HETATM   25  N6  UNL     1      14.538 -15.402 -24.357  1.00  0.00    -0.347 N 
ATOM     26  H6  UNL     1      13.556 -15.305 -24.616  1.00  0.00     0.163 HD
BRANCH  25  27
HETATM   27  C9  UNL     1      15.560 -14.845 -25.231  1.00  0.00     0.172 C 
HETATM   28  C10 UNL     1      15.648 -15.717 -26.450  1.00  0.00     0.042 C 
BRANCH  27  29
HETATM   29  C11 UNL     1      15.193 -13.437 -25.599  1.00  0.00     0.242 C 
HETATM   30  O4  UNL     1      14.866 -12.661 -24.669  1.00  0.00    -0.271 OA
HETATM   31  N7  UNL     1      15.200 -12.960 -26.922  1.00  0.00    -0.346 N 
HETATM   32  C12 UNL     1      14.841 -11.560 -27.202  1.00  0.00     0.152 C 
HETATM   33  C15 UNL     1      15.549 -13.720 -28.109  1.00  0.00     0.152 C 
HETATM   34  C13 UNL     1      16.095 -10.996 -27.900  1.00  0.00     0.187 C 
HETATM   35  O5  UNL     1      16.346 -11.735 -29.064  1.00  0.00    -0.388 OA
HETATM   36  C14 UNL     1      16.765 -13.024 -28.719  1.00  0.00     0.187 C 
ENDBRANCH  27  29
ENDBRANCH  25  27
ENDBRANCH  22  23
ENDBRANCH  20  22
ENDBRANCH   1  18
BRANCH   1  37
HETATM   37  C16 UNL     1       9.683 -14.135 -21.808  1.00  0.00     0.211 C 
HETATM   38  C17 UNL     1       8.362 -14.246 -21.050  1.00  0.00     0.042 C 
BRANCH  37  39
HETATM   39  N8  UNL     1       9.856 -12.728 -22.150  1.00  0.00    -0.073 N 
ATOM     40  H83 UNL     1      10.452 -12.245 -21.478  1.00  0.00     0.274 HD
ATOM     41  H82 UNL     1      10.435 -12.610 -22.983  1.00  0.00     0.274 HD
ATOM     42  H81 UNL     1       8.951 -12.268 -22.251  1.00  0.00     0.274 HD
ENDBRANCH  37  39
ENDBRANCH   1  37
TORSDOF 13
ENDMDL
MODEL 5
REMARK VINA RESULT: -7.903644709      2.060      3.729
REMARK  13 active torsions:
REMARK  status: ('A' for Active; 'I' for Inactive)
REMARK    1  A    between atoms: C2_2  and  C18_40 
REMARK    2  A    between atoms: N1_3  and  C3_5 
REMARK    3  A    between atoms: C3_5  and  N2_6 
REMARK    4  A    between atoms: C3_5  and  C4_10 
REMARK    5  A    between atoms: N2_6  and  N3_7 
REMARK       I    between atoms: C4_10  and  N4_12 
REMARK    6  A    between atoms: N4_12  and  C5_14 
REMARK    7  A    between atoms: C5_14  and  C6_15 
REMARK    8  A    between atoms: C5_14  and  C16_34 
REMARK       I    between atoms: C6_15  and  N5_17 
REMARK    9  A    between atoms: N5_17  and  C7_19 
REMARK   10  A    between atoms: C7_19  and  C8_20 
REMARK       I    between atoms: C8_20  and  N6_22 
REMARK   11  A    between atoms: N6_22  and  C9_24 
REMARK   12  A    between atoms: C9_24  and  C11_26 
REMARK       I    between atoms: C11_26  and  N7_28 
REMARK   13  A    between atoms: C16_34  and  N8_36 
ROOT
HETATM    1  C5  UNL     1      15.131 -14.736 -24.056  1.00  0.00     0.206 C 
ENDROOT
BRANCH   1   2
HETATM    2  N4  UNL     1      14.104 -14.790 -23.047  1.00  0.00    -0.343 N 
HETATM    3  C4  UNL     1      13.719 -13.802 -22.145  1.00  0.00     0.258 C 
HETATM    4  O1  UNL     1      14.267 -12.680 -22.131  1.00  0.00    -0.270 OA
ATOM      5  H4  UNL     1      13.591 -15.670 -22.985  1.00  0.00     0.163 HD
BRANCH   3   6
HETATM    6  C3  UNL     1      12.604 -14.101 -21.165  1.00  0.00     0.289 C 
BRANCH   6   7
HETATM    7  N1  UNL     1      11.808 -15.173 -21.623  1.00  0.00    -0.362 N 
HETATM    8  C2  UNL     1      10.652 -15.574 -21.309  1.00  0.00     0.068 C 
HETATM    9  C1  UNL     1      10.080 -16.788 -22.012  1.00  0.00     0.073 C 
ATOM     10  H1  UNL     1      12.254 -15.734 -22.350  1.00  0.00     0.161 HD
BRANCH   8  11
HETATM   11  C18 UNL     1       9.784 -14.965 -20.320  1.00  0.00     0.276 C 
HETATM   12  N9  UNL     1       9.935 -15.204 -18.901  1.00  0.00    -0.056 NA
HETATM   13  O6  UNL     1       8.834 -14.180 -20.635  1.00  0.00    -0.270 OA
ENDBRANCH   8  11
ENDBRANCH   6   7
BRANCH   6  14
HETATM   14  N2  UNL     1      11.906 -12.906 -20.760  1.00  0.00    -0.113 NA
BRANCH  14  15
HETATM   15  N3  UNL     1      11.317 -12.261 -21.874  1.00  0.00    -0.346 N 
ATOM     16  H32 UNL     1      10.716 -12.734 -22.548  1.00  0.00     0.172 HD
ATOM     17  H31 UNL     1      11.575 -11.275 -21.903  1.00  0.00     0.172 HD
ENDBRANCH  14  15
ENDBRANCH   6  14
ENDBRANCH   3   6
ENDBRANCH   1   2
BRANCH   1  18
HETATM   18  C6  UNL     1      14.705 -13.792 -25.147  1.00  0.00     0.242 C 
HETATM   19  O2  UNL     1      13.793 -14.137 -25.905  1.00  0.00    -0.271 OA
HETATM   20  N5  UNL     1      15.343 -12.541 -25.290  1.00  0.00    -0.350 N 
ATOM     21  H5  UNL     1      16.107 -12.272 -24.669  1.00  0.00     0.163 HD
BRANCH  20  22
HETATM   22  C7  UNL     1      14.891 -11.646 -26.336  1.00  0.00     0.225 C 
BRANCH  22  23
HETATM   23  C8  UNL     1      15.518 -11.897 -27.640  1.00  0.00     0.236 C 
HETATM   24  O3  UNL     1      15.752 -11.010 -28.470  1.00  0.00    -0.272 OA
HETATM   25  N6  UNL     1      15.870 -13.248 -27.946  1.00  0.00    -0.347 N 
ATOM     26  H6  UNL     1      15.666 -13.980 -27.266  1.00  0.00     0.163 HD
BRANCH  25  27
HETATM   27  C9  UNL     1      16.512 -13.606 -29.202  1.00  0.00     0.172 C 
HETATM   28  C10 UNL     1      17.668 -12.672 -29.411  1.00  0.00     0.042 C 
BRANCH  27  29
HETATM   29  C11 UNL     1      16.974 -15.033 -29.140  1.00  0.00     0.242 C 
HETATM   30  O4  UNL     1      16.878 -15.626 -28.038  1.00  0.00    -0.271 OA
HETATM   31  N7  UNL     1      17.500 -15.721 -30.248  1.00  0.00    -0.346 N 
HETATM   32  C12 UNL     1      17.919 -17.126 -30.111  1.00  0.00     0.152 C 
HETATM   33  C15 UNL     1      17.681 -15.188 -31.586  1.00  0.00     0.152 C 
HETATM   34  C13 UNL     1      17.051 -17.866 -31.149  1.00  0.00     0.187 C 
HETATM   35  O5  UNL     1      17.310 -17.344 -32.423  1.00  0.00    -0.388 OA
HETATM   36  C14 UNL     1      16.809 -16.040 -32.507  1.00  0.00     0.187 C 
ENDBRANCH  27  29
ENDBRANCH  25  27
ENDBRANCH  22  23
ENDBRANCH  20  22
ENDBRANCH   1  18
BRANCH   1  37
HETATM   37  C16 UNL     1      15.443 -16.080 -24.629  1.00  0.00     0.211 C 
HETATM   38  C17 UNL     1      16.231 -16.902 -23.610  1.00  0.00     0.042 C 
BRANCH  37  39
HETATM   39  N8  UNL     1      14.217 -16.819 -24.909  1.00  0.00    -0.073 N 
ATOM     40  H83 UNL     1      13.617 -16.882 -24.086  1.00  0.00     0.274 HD
ATOM     41  H82 UNL     1      13.589 -16.293 -25.517  1.00  0.00     0.274 HD
ATOM     42  H81 UNL     1      14.431 -17.740 -25.292  1.00  0.00     0.274 HD
ENDBRANCH  37  39
ENDBRANCH   1  37
TORSDOF 13
ENDMDL
