MODEL 1
REMARK VINA RESULT: -9.133241886      0.000      0.000
REMARK  13 active torsions:
REMARK  status: ('A' for Active; 'I' for Inactive)
REMARK       I    between atoms: C2_2  and  N1_4 
REMARK    1  A    between atoms: C5_7  and  N2_8 
REMARK    2  A    between atoms: N2_8  and  C6_10 
REMARK    3  A    between atoms: C6_10  and  C7_11 
REMARK    4  A    between atoms: C6_10  and  C16_34 
REMARK       I    between atoms: C7_11  and  N3_13 
REMARK    5  A    between atoms: N3_13  and  C8_15 
REMARK    6  A    between atoms: C8_15  and  O3_16 
REMARK    7  A    between atoms: C8_15  and  C9_18 
REMARK    8  A    between atoms: C9_18  and  N4_19 
REMARK    9  A    between atoms: C9_18  and  C10_23 
REMARK   10  A    between atoms: C10_23  and  C12_25 
REMARK       I    between atoms: C12_25  and  N5_27 
REMARK   11  A    between atoms: N5_27  and  C13_29 
REMARK   12  A    between atoms: C13_29  and  C15_31 
REMARK   13  A    between atoms: C16_34  and  C17_36 
ROOT
HETATM    1  C7  UNL     1      13.674 -13.457 -20.625  1.00  0.00     0.253 C 
HETATM    2  O2  UNL     1      14.649 -12.727 -20.848  1.00  0.00    -0.270 OA
HETATM    3  N3  UNL     1      13.668 -14.792 -21.051  1.00  0.00    -0.307 N 
ATOM      4  H3  UNL     1      12.807 -15.290 -20.826  1.00  0.00     0.170 HD
ENDROOT
BRANCH   3   5
HETATM    5  C8  UNL     1      14.595 -15.567 -21.715  1.00  0.00     0.150 C 
BRANCH   5   6
HETATM    6  O3  UNL     1      15.813 -15.497 -21.221  1.00  0.00    -0.348 OA
ATOM      7  H3  UNL     1      16.502 -15.554 -21.871  1.00  0.00     0.219 HD
ENDBRANCH   5   6
BRANCH   5   8
HETATM    8  C9  UNL     1      14.529 -16.467 -22.867  1.00  0.00     0.270 C 
BRANCH   8   9
HETATM    9  N4  UNL     1      14.426 -17.854 -22.633  1.00  0.00    -0.067 N 
ATOM     10  H43 UNL     1      14.528 -18.030 -21.634  1.00  0.00     0.275 HD
ATOM     11  H42 UNL     1      13.460 -18.145 -22.787  1.00  0.00     0.275 HD
ATOM     12  H41 UNL     1      15.046 -18.482 -23.145  1.00  0.00     0.275 HD
ENDBRANCH   8   9
BRANCH   8  13
HETATM   13  C10 UNL     1      15.682 -16.223 -23.840  1.00  0.00     0.112 C 
HETATM   14  C11 UNL     1      16.277 -17.558 -24.178  1.00  0.00     0.022 C 
BRANCH  13  15
HETATM   15  C12 UNL     1      15.238 -15.553 -25.081  1.00  0.00     0.224 C 
HETATM   16  O4  UNL     1      14.745 -16.133 -26.083  1.00  0.00    -0.273 OA
HETATM   17  N5  UNL     1      15.360 -14.124 -25.192  1.00  0.00    -0.348 N 
ATOM     18  H5  UNL     1      15.747 -13.599 -24.408  1.00  0.00     0.163 HD
BRANCH  17  19
HETATM   19  C13 UNL     1      14.953 -13.414 -26.376  1.00  0.00     0.169 C 
HETATM   20  C14 UNL     1      15.913 -13.561 -27.513  1.00  0.00     0.042 C 
BRANCH  19  21
HETATM   21  C15 UNL     1      14.770 -11.970 -26.049  1.00  0.00     0.253 C 
HETATM   22  N6  UNL     1      14.756 -11.585 -24.683  1.00  0.00    -0.060 NA
HETATM   23  O5  UNL     1      14.635 -11.130 -26.955  1.00  0.00    -0.275 OA
ENDBRANCH  19  21
ENDBRANCH  17  19
ENDBRANCH  13  15
ENDBRANCH   8  13
ENDBRANCH   5   8
ENDBRANCH   3   5
BRANCH   1  24
HETATM   24  C6  UNL     1      12.531 -12.811 -19.884  1.00  0.00     0.251 C 
BRANCH  24  25
HETATM   25  N2  UNL     1      12.878 -12.039 -18.780  1.00  0.00    -0.397 N 
ATOM     26  H2  UNL     1      13.083 -12.551 -17.922  1.00  0.00     0.154 HD
BRANCH  25  27
HETATM   27  C5  UNL     1      12.977 -10.681 -18.705  1.00  0.00     0.097 C 
HETATM   28  C4  UNL     1      11.856  -9.732 -18.760  1.00  0.00     0.046 C 
HETATM   29  C3  UNL     1      12.623  -8.393 -18.645  1.00  0.00     0.128 C 
HETATM   30  N1  UNL     1      13.684  -8.725 -17.751  1.00  0.00    -0.350 N 
HETATM   31  C2  UNL     1      14.614  -7.776 -17.220  1.00  0.00     0.215 C 
HETATM   32  C18 UNL     1      13.703 -10.160 -17.449  1.00  0.00     0.150 C 
HETATM   33  C1  UNL     1      14.521  -6.352 -17.581  1.00  0.00     0.117 C 
HETATM   34  O1  UNL     1      15.519  -8.160 -16.436  1.00  0.00    -0.274 OA
ENDBRANCH  25  27
ENDBRANCH  24  25
BRANCH  24  35
HETATM   35  C16 UNL     1      11.713 -13.969 -19.352  1.00  0.00     0.245 C 
HETATM   36  O6  UNL     1      12.210 -14.549 -18.325  1.00  0.00    -0.285 OA
BRANCH  35  37
HETATM   37  C17 UNL     1      10.473 -14.423 -19.905  1.00  0.00     0.303 C 
HETATM   38  N7  UNL     1      10.317 -14.503 -21.313  1.00  0.00    -0.054 NA
HETATM   39  O7  UNL     1       9.509 -14.757 -19.200  1.00  0.00    -0.268 OA
ENDBRANCH  35  37
ENDBRANCH  24  35
ENDBRANCH   1  24
TORSDOF 13
ENDMDL
MODEL 2
REMARK VINA RESULT: -9.093711601      1.999      8.722
REMARK  13 active torsions:
REMARK  status: ('A' for Active; 'I' for Inactive)
REMARK       I    between atoms: C2_2  and  N1_4 
REMARK    1  A    between atoms: C5_7  and  N2_8 
REMARK    2  A    between atoms: N2_8  and  C6_10 
REMARK    3  A    between atoms: C6_10  and  C7_11 
REMARK    4  A    between atoms: C6_10  and  C16_34 
REMARK       I    between atoms: C7_11  and  N3_13 
REMARK    5  A    between atoms: N3_13  and  C8_15 
REMARK    6  A    between atoms: C8_15  and  O3_16 
REMARK    7  A    between atoms: C8_15  and  C9_18 
REMARK    8  A    between atoms: C9_18  and  N4_19 
REMARK    9  A    between atoms: C9_18  and  C10_23 
REMARK   10  A    between atoms: C10_23  and  C12_25 
REMARK       I    between atoms: C12_25  and  N5_27 
REMARK   11  A    between atoms: N5_27  and  C13_29 
REMARK   12  A    between atoms: C13_29  and  C15_31 
REMARK   13  A    between atoms: C16_34  and  C17_36 
ROOT
HETATM    1  C7  UNL     1      13.194 -13.025 -20.919  1.00  0.00     0.253 C 
HETATM    2  O2  UNL     1      12.002 -13.306 -21.098  1.00  0.00    -0.270 OA
HETATM    3  N3  UNL     1      13.595 -12.296 -19.791  1.00  0.00    -0.307 N 
ATOM      4  H3  UNL     1      14.598 -12.111 -19.759  1.00  0.00     0.170 HD
ENDROOT
BRANCH   3   5
HETATM    5  C8  UNL     1      12.905 -11.780 -18.716  1.00  0.00     0.150 C 
BRANCH   5   6
HETATM    6  O3  UNL     1      11.725 -12.328 -18.516  1.00  0.00    -0.348 OA
ATOM      7  H3  UNL     1      11.505 -12.460 -17.602  1.00  0.00     0.219 HD
ENDBRANCH   5   6
BRANCH   5   8
HETATM    8  C9  UNL     1      13.192 -10.740 -17.727  1.00  0.00     0.270 C 
BRANCH   8   9
HETATM    9  N4  UNL     1      12.274 -10.536 -16.677  1.00  0.00    -0.067 N 
ATOM     10  H43 UNL     1      11.558  -9.878 -16.986  1.00  0.00     0.275 HD
ATOM     11  H42 UNL     1      11.720 -11.384 -16.551  1.00  0.00     0.275 HD
ATOM     12  H41 UNL     1      12.630 -10.235 -15.769  1.00  0.00     0.275 HD
ENDBRANCH   8   9
BRANCH   8  13
HETATM   13  C10 UNL     1      13.478  -9.393 -18.391  1.00  0.00     0.112 C 
HETATM   14  C11 UNL     1      12.172  -8.668 -18.520  1.00  0.00     0.022 C 
BRANCH  13  15
HETATM   15  C12 UNL     1      14.424  -8.570 -17.607  1.00  0.00     0.224 C 
HETATM   16  O4  UNL     1      15.146  -8.991 -16.666  1.00  0.00    -0.273 OA
HETATM   17  N5  UNL     1      14.560  -7.171 -17.913  1.00  0.00    -0.348 N 
ATOM     18  H5  UNL     1      14.004  -6.774 -18.670  1.00  0.00     0.163 HD
BRANCH  17  19
HETATM   19  C13 UNL     1      15.457  -6.315 -17.181  1.00  0.00     0.169 C 
HETATM   20  C14 UNL     1      15.180  -6.284 -15.712  1.00  0.00     0.042 C 
BRANCH  19  21
HETATM   21  C15 UNL     1      15.389  -4.934 -17.740  1.00  0.00     0.253 C 
HETATM   22  N6  UNL     1      16.023  -3.884 -17.025  1.00  0.00    -0.060 NA
HETATM   23  O5  UNL     1      14.791  -4.714 -18.808  1.00  0.00    -0.275 OA
ENDBRANCH  19  21
ENDBRANCH  17  19
ENDBRANCH  13  15
ENDBRANCH   8  13
ENDBRANCH   5   8
ENDBRANCH   3   5
BRANCH   1  24
HETATM   24  C6  UNL     1      14.147 -13.513 -21.981  1.00  0.00     0.251 C 
BRANCH  24  25
HETATM   25  N2  UNL     1      13.622 -13.632 -23.264  1.00  0.00    -0.397 N 
ATOM     26  H2  UNL     1      12.709 -14.082 -23.334  1.00  0.00     0.154 HD
BRANCH  25  27
HETATM   27  C5  UNL     1      14.179 -13.221 -24.438  1.00  0.00     0.097 C 
HETATM   28  C4  UNL     1      14.905 -11.961 -24.652  1.00  0.00     0.046 C 
HETATM   29  C3  UNL     1      15.249 -12.093 -26.154  1.00  0.00     0.128 C 
HETATM   30  N1  UNL     1      15.497 -13.492 -26.289  1.00  0.00    -0.350 N 
HETATM   31  C2  UNL     1      15.984 -14.110 -27.483  1.00  0.00     0.215 C 
HETATM   32  C18 UNL     1      15.187 -14.214 -25.051  1.00  0.00     0.150 C 
HETATM   33  C1  UNL     1      16.266 -13.306 -28.684  1.00  0.00     0.117 C 
HETATM   34  O1  UNL     1      16.173 -15.353 -27.511  1.00  0.00    -0.274 OA
ENDBRANCH  25  27
ENDBRANCH  24  25
BRANCH  24  35
HETATM   35  C16 UNL     1      14.524 -14.914 -21.545  1.00  0.00     0.245 C 
HETATM   36  O6  UNL     1      15.326 -14.968 -20.549  1.00  0.00    -0.285 OA
BRANCH  35  37
HETATM   37  C17 UNL     1      14.051 -16.120 -22.154  1.00  0.00     0.303 C 
HETATM   38  N7  UNL     1      12.657 -16.361 -22.251  1.00  0.00    -0.054 NA
HETATM   39  O7  UNL     1      14.816 -16.983 -22.609  1.00  0.00    -0.268 OA
ENDBRANCH  35  37
ENDBRANCH  24  35
ENDBRANCH   1  24
TORSDOF 13
ENDMDL
MODEL 3
REMARK VINA RESULT: -9.056781276      2.845      7.723
REMARK  13 active torsions:
REMARK  status: ('A' for Active; 'I' for Inactive)
REMARK       I    between atoms: C2_2  and  N1_4 
REMARK    1  A    between atoms: C5_7  and  N2_8 
REMARK    2  A    between atoms: N2_8  and  C6_10 
REMARK    3  A    between atoms: C6_10  and  C7_11 
REMARK    4  A    between atoms: C6_10  and  C16_34 
REMARK       I    between atoms: C7_11  and  N3_13 
REMARK    5  A    between atoms: N3_13  and  C8_15 
REMARK    6  A    between atoms: C8_15  and  O3_16 
REMARK    7  A    between atoms: C8_15  and  C9_18 
REMARK    8  A    between atoms: C9_18  and  N4_19 
REMARK    9  A    between atoms: C9_18  and  C10_23 
REMARK   10  A    between atoms: C10_23  and  C12_25 
REMARK       I    between atoms: C12_25  and  N5_27 
REMARK   11  A    between atoms: N5_27  and  C13_29 
REMARK   12  A    between atoms: C13_29  and  C15_31 
REMARK   13  A    between atoms: C16_34  and  C17_36 
ROOT
HETATM    1  C7  UNL     1      13.265 -16.763 -22.903  1.00  0.00     0.253 C 
HETATM    2  O2  UNL     1      13.677 -16.311 -21.826  1.00  0.00    -0.270 OA
HETATM    3  N3  UNL     1      11.908 -17.064 -23.080  1.00  0.00    -0.307 N 
ATOM      4  H3  UNL     1      11.690 -17.444 -24.001  1.00  0.00     0.170 HD
ENDROOT
BRANCH   3   5
HETATM    5  C8  UNL     1      10.809 -16.948 -22.257  1.00  0.00     0.150 C 
BRANCH   5   6
HETATM    6  O3  UNL     1       9.896 -17.879 -22.437  1.00  0.00    -0.348 OA
ATOM      7  H3  UNL     1       9.064 -17.697 -22.018  1.00  0.00     0.219 HD
ENDBRANCH   5   6
BRANCH   5   8
HETATM    8  C9  UNL     1      10.419 -16.005 -21.208  1.00  0.00     0.270 C 
BRANCH   8   9
HETATM    9  N4  UNL     1       9.469 -16.416 -20.251  1.00  0.00    -0.067 N 
ATOM     10  H43 UNL     1       8.736 -16.948 -20.719  1.00  0.00     0.275 HD
ATOM     11  H42 UNL     1       9.886 -17.135 -19.658  1.00  0.00     0.275 HD
ATOM     12  H41 UNL     1       9.036 -15.708 -19.657  1.00  0.00     0.275 HD
ENDBRANCH   8   9
BRANCH   8  13
HETATM   13  C10 UNL     1       9.972 -14.664 -21.790  1.00  0.00     0.112 C 
HETATM   14  C11 UNL     1       8.663 -14.308 -21.151  1.00  0.00     0.022 C 
BRANCH  13  15
HETATM   15  C12 UNL     1      10.953 -13.587 -21.540  1.00  0.00     0.224 C 
HETATM   16  O4  UNL     1      10.803 -12.380 -21.859  1.00  0.00    -0.273 OA
HETATM   17  N5  UNL     1      12.192 -13.903 -20.879  1.00  0.00    -0.348 N 
ATOM     18  H5  UNL     1      12.367 -14.866 -20.590  1.00  0.00     0.163 HD
BRANCH  17  19
HETATM   19  C13 UNL     1      13.190 -12.901 -20.613  1.00  0.00     0.169 C 
HETATM   20  C14 UNL     1      14.588 -13.384 -20.837  1.00  0.00     0.042 C 
BRANCH  19  21
HETATM   21  C15 UNL     1      13.040 -12.413 -19.211  1.00  0.00     0.253 C 
HETATM   22  N6  UNL     1      13.595 -11.151 -18.873  1.00  0.00    -0.060 NA
HETATM   23  O5  UNL     1      12.440 -13.099 -18.365  1.00  0.00    -0.275 OA
ENDBRANCH  19  21
ENDBRANCH  17  19
ENDBRANCH  13  15
ENDBRANCH   8  13
ENDBRANCH   5   8
ENDBRANCH   3   5
BRANCH   1  24
HETATM   24  C6  UNL     1      14.311 -16.958 -23.971  1.00  0.00     0.251 C 
BRANCH  24  25
HETATM   25  N2  UNL     1      14.110 -16.260 -25.158  1.00  0.00    -0.397 N 
ATOM     26  H2  UNL     1      13.656 -16.778 -25.910  1.00  0.00     0.154 HD
BRANCH  25  27
HETATM   27  C5  UNL     1      14.446 -14.969 -25.438  1.00  0.00     0.097 C 
HETATM   28  C4  UNL     1      15.044 -14.011 -24.497  1.00  0.00     0.046 C 
HETATM   29  C3  UNL     1      15.154 -12.764 -25.405  1.00  0.00     0.128 C 
HETATM   30  N1  UNL     1      15.470 -13.337 -26.673  1.00  0.00    -0.350 N 
HETATM   31  C2  UNL     1      15.802 -12.577 -27.838  1.00  0.00     0.215 C 
HETATM   32  C18 UNL     1      15.408 -14.802 -26.631  1.00  0.00     0.150 C 
HETATM   33  C1  UNL     1      15.837 -11.106 -27.790  1.00  0.00     0.117 C 
HETATM   34  O1  UNL     1      16.067 -13.168 -28.915  1.00  0.00    -0.274 OA
ENDBRANCH  25  27
ENDBRANCH  24  25
BRANCH  24  35
HETATM   35  C16 UNL     1      14.232 -18.428 -24.324  1.00  0.00     0.245 C 
HETATM   36  O6  UNL     1      14.302 -19.224 -23.324  1.00  0.00    -0.285 OA
BRANCH  35  37
HETATM   37  C17 UNL     1      14.087 -18.950 -25.649  1.00  0.00     0.303 C 
HETATM   38  N7  UNL     1      15.204 -18.977 -26.523  1.00  0.00    -0.054 NA
HETATM   39  O7  UNL     1      13.009 -19.388 -26.080  1.00  0.00    -0.268 OA
ENDBRANCH  35  37
ENDBRANCH  24  35
ENDBRANCH   1  24
TORSDOF 13
ENDMDL
MODEL 4
REMARK VINA RESULT: -9.010837755      2.104      8.199
REMARK  13 active torsions:
REMARK  status: ('A' for Active; 'I' for Inactive)
REMARK       I    between atoms: C2_2  and  N1_4 
REMARK    1  A    between atoms: C5_7  and  N2_8 
REMARK    2  A    between atoms: N2_8  and  C6_10 
REMARK    3  A    between atoms: C6_10  and  C7_11 
REMARK    4  A    between atoms: C6_10  and  C16_34 
REMARK       I    between atoms: C7_11  and  N3_13 
REMARK    5  A    between atoms: N3_13  and  C8_15 
REMARK    6  A    between atoms: C8_15  and  O3_16 
REMARK    7  A    between atoms: C8_15  and  C9_18 
REMARK    8  A    between atoms: C9_18  and  N4_19 
REMARK    9  A    between atoms: C9_18  and  C10_23 
REMARK   10  A    between atoms: C10_23  and  C12_25 
REMARK       I    between atoms: C12_25  and  N5_27 
REMARK   11  A    between atoms: N5_27  and  C13_29 
REMARK   12  A    between atoms: C13_29  and  C15_31 
REMARK   13  A    between atoms: C16_34  and  C17_36 
ROOT
HETATM    1  C7  UNL     1      13.849 -14.126 -22.929  1.00  0.00     0.253 C 
HETATM    2  O2  UNL     1      13.962 -12.912 -22.712  1.00  0.00    -0.270 OA
HETATM    3  N3  UNL     1      12.700 -14.820 -22.525  1.00  0.00    -0.307 N 
ATOM      4  H3  UNL     1      12.727 -15.816 -22.743  1.00  0.00     0.170 HD
ENDROOT
BRANCH   3   5
HETATM    5  C8  UNL     1      11.542 -14.425 -21.891  1.00  0.00     0.150 C 
BRANCH   5   6
HETATM    6  O3  UNL     1      10.519 -15.230 -22.081  1.00  0.00    -0.348 OA
ATOM      7  H3  UNL     1       9.967 -14.993 -22.817  1.00  0.00     0.219 HD
ENDBRANCH   5   6
BRANCH   5   8
HETATM    8  C9  UNL     1      11.187 -13.290 -21.037  1.00  0.00     0.270 C 
BRANCH   8   9
HETATM    9  N4  UNL     1      11.462 -11.987 -21.499  1.00  0.00    -0.067 N 
ATOM     10  H43 UNL     1      11.822 -12.042 -22.452  1.00  0.00     0.275 HD
ATOM     11  H42 UNL     1      10.581 -11.495 -21.650  1.00  0.00     0.275 HD
ATOM     12  H41 UNL     1      12.081 -11.394 -20.946  1.00  0.00     0.275 HD
ENDBRANCH   8   9
BRANCH   8  13
HETATM   13  C10 UNL     1      11.764 -13.439 -19.630  1.00  0.00     0.112 C 
HETATM   14  C11 UNL     1      12.600 -14.684 -19.615  1.00  0.00     0.022 C 
BRANCH  13  15
HETATM   15  C12 UNL     1      12.596 -12.281 -19.239  1.00  0.00     0.224 C 
HETATM   16  O4  UNL     1      13.771 -12.065 -19.634  1.00  0.00    -0.273 OA
HETATM   17  N5  UNL     1      12.057 -11.300 -18.335  1.00  0.00    -0.348 N 
ATOM     18  H5  UNL     1      11.106 -11.419 -17.986  1.00  0.00     0.163 HD
BRANCH  17  19
HETATM   19  C13 UNL     1      12.819 -10.155 -17.910  1.00  0.00     0.169 C 
HETATM   20  C14 UNL     1      12.789  -9.941 -16.430  1.00  0.00     0.042 C 
BRANCH  19  21
HETATM   21  C15 UNL     1      12.315  -8.938 -18.610  1.00  0.00     0.253 C 
HETATM   22  N6  UNL     1      13.024  -7.720 -18.440  1.00  0.00    -0.060 NA
HETATM   23  O5  UNL     1      11.298  -8.996 -19.323  1.00  0.00    -0.275 OA
ENDBRANCH  19  21
ENDBRANCH  17  19
ENDBRANCH  13  15
ENDBRANCH   8  13
ENDBRANCH   5   8
ENDBRANCH   3   5
BRANCH   1  24
HETATM   24  C6  UNL     1      15.011 -14.773 -23.639  1.00  0.00     0.251 C 
BRANCH  24  25
HETATM   25  N2  UNL     1      14.769 -15.203 -24.939  1.00  0.00    -0.397 N 
ATOM     26  H2  UNL     1      14.002 -15.865 -25.056  1.00  0.00     0.154 HD
BRANCH  25  27
HETATM   27  C5  UNL     1      15.433 -14.848 -26.076  1.00  0.00     0.097 C 
HETATM   28  C4  UNL     1      15.584 -15.678 -27.279  1.00  0.00     0.046 C 
HETATM   29  C3  UNL     1      16.430 -14.732 -28.163  1.00  0.00     0.128 C 
HETATM   30  N1  UNL     1      15.906 -13.448 -27.823  1.00  0.00    -0.350 N 
HETATM   31  C2  UNL     1      16.277 -12.230 -28.475  1.00  0.00     0.215 C 
HETATM   32  C18 UNL     1      14.944 -13.536 -26.720  1.00  0.00     0.150 C 
HETATM   33  C1  UNL     1      17.257 -12.236 -29.574  1.00  0.00     0.117 C 
HETATM   34  O1  UNL     1      15.762 -11.144 -28.108  1.00  0.00    -0.274 OA
ENDBRANCH  25  27
ENDBRANCH  24  25
BRANCH  24  35
HETATM   35  C16 UNL     1      15.313 -16.016 -22.829  1.00  0.00     0.245 C 
HETATM   36  O6  UNL     1      15.506 -15.809 -21.580  1.00  0.00    -0.285 OA
BRANCH  35  37
HETATM   37  C17 UNL     1      15.386 -17.345 -23.357  1.00  0.00     0.303 C 
HETATM   38  N7  UNL     1      16.620 -17.840 -23.851  1.00  0.00    -0.054 NA
HETATM   39  O7  UNL     1      14.403 -18.099 -23.405  1.00  0.00    -0.268 OA
ENDBRANCH  35  37
ENDBRANCH  24  35
ENDBRANCH   1  24
TORSDOF 13
ENDMDL
MODEL 5
REMARK VINA RESULT: -9.005931350      2.107      8.315
REMARK  13 active torsions:
REMARK  status: ('A' for Active; 'I' for Inactive)
REMARK       I    between atoms: C2_2  and  N1_4 
REMARK    1  A    between atoms: C5_7  and  N2_8 
REMARK    2  A    between atoms: N2_8  and  C6_10 
REMARK    3  A    between atoms: C6_10  and  C7_11 
REMARK    4  A    between atoms: C6_10  and  C16_34 
REMARK       I    between atoms: C7_11  and  N3_13 
REMARK    5  A    between atoms: N3_13  and  C8_15 
REMARK    6  A    between atoms: C8_15  and  O3_16 
REMARK    7  A    between atoms: C8_15  and  C9_18 
REMARK    8  A    between atoms: C9_18  and  N4_19 
REMARK    9  A    between atoms: C9_18  and  C10_23 
REMARK   10  A    between atoms: C10_23  and  C12_25 
REMARK       I    between atoms: C12_25  and  N5_27 
REMARK   11  A    between atoms: N5_27  and  C13_29 
REMARK   12  A    between atoms: C13_29  and  C15_31 
REMARK   13  A    between atoms: C16_34  and  C17_36 
ROOT
HETATM    1  C7  UNL     1      13.802 -14.702 -22.259  1.00  0.00     0.253 C 
HETATM    2  O2  UNL     1      14.396 -15.183 -21.284  1.00  0.00    -0.270 OA
HETATM    3  N3  UNL     1      12.793 -13.746 -22.081  1.00  0.00    -0.307 N 
ATOM      4  H3  UNL     1      12.366 -13.435 -22.954  1.00  0.00     0.170 HD
ENDROOT
BRANCH   3   5
HETATM    5  C8  UNL     1      12.262 -13.143 -20.962  1.00  0.00     0.150 C 
BRANCH   5   6
HETATM    6  O3  UNL     1      11.605 -12.029 -21.206  1.00  0.00    -0.348 OA
ATOM      7  H3  UNL     1      10.928 -11.827 -20.572  1.00  0.00     0.219 HD
ENDBRANCH   5   6
BRANCH   5   8
HETATM    8  C9  UNL     1      12.262 -13.468 -19.534  1.00  0.00     0.270 C 
BRANCH   8   9
HETATM    9  N4  UNL     1      11.050 -13.376 -18.822  1.00  0.00    -0.067 N 
ATOM     10  H43 UNL     1      10.893 -12.404 -18.558  1.00  0.00     0.275 HD
ATOM     11  H42 UNL     1      10.274 -13.532 -19.466  1.00  0.00     0.275 HD
ATOM     12  H41 UNL     1      10.921 -13.967 -18.000  1.00  0.00     0.275 HD
ENDBRANCH   8   9
BRANCH   8  13
HETATM   13  C10 UNL     1      13.332 -12.681 -18.777  1.00  0.00     0.112 C 
HETATM   14  C11 UNL     1      14.405 -12.317 -19.759  1.00  0.00     0.022 C 
BRANCH  13  15
HETATM   15  C12 UNL     1      12.792 -11.452 -18.158  1.00  0.00     0.224 C 
HETATM   16  O4  UNL     1      12.139 -11.406 -17.084  1.00  0.00    -0.273 OA
HETATM   17  N5  UNL     1      13.009 -10.185 -18.805  1.00  0.00    -0.348 N 
ATOM     18  H5  UNL     1      13.537 -10.158 -19.677  1.00  0.00     0.163 HD
BRANCH  17  19
HETATM   19  C13 UNL     1      12.502  -8.954 -18.257  1.00  0.00     0.169 C 
HETATM   20  C14 UNL     1      11.547  -8.249 -19.168  1.00  0.00     0.042 C 
BRANCH  19  21
HETATM   21  C15 UNL     1      13.644  -8.053 -17.924  1.00  0.00     0.253 C 
HETATM   22  N6  UNL     1      14.806  -8.624 -17.343  1.00  0.00    -0.060 NA
HETATM   23  O5  UNL     1      13.574  -6.833 -18.155  1.00  0.00    -0.275 OA
ENDBRANCH  19  21
ENDBRANCH  17  19
ENDBRANCH  13  15
ENDBRANCH   8  13
ENDBRANCH   5   8
ENDBRANCH   3   5
BRANCH   1  24
HETATM   24  C6  UNL     1      14.241 -15.214 -23.607  1.00  0.00     0.251 C 
BRANCH  24  25
HETATM   25  N2  UNL     1      13.650 -14.611 -24.712  1.00  0.00    -0.397 N 
ATOM     26  H2  UNL     1      12.636 -14.700 -24.782  1.00  0.00     0.154 HD
BRANCH  25  27
HETATM   27  C5  UNL     1      14.260 -13.915 -25.713  1.00  0.00     0.097 C 
HETATM   28  C4  UNL     1      14.812 -12.557 -25.605  1.00  0.00     0.046 C 
HETATM   29  C3  UNL     1      15.326 -12.353 -27.050  1.00  0.00     0.128 C 
HETATM   30  N1  UNL     1      15.790 -13.658 -27.396  1.00  0.00    -0.350 N 
HETATM   31  C2  UNL     1      16.484 -13.970 -28.606  1.00  0.00     0.215 C 
HETATM   32  C18 UNL     1      15.461 -14.638 -26.355  1.00  0.00     0.150 C 
HETATM   33  C1  UNL     1      16.769 -12.920 -29.600  1.00  0.00     0.117 C 
HETATM   34  O1  UNL     1      16.856 -15.150 -28.827  1.00  0.00    -0.274 OA
ENDBRANCH  25  27
ENDBRANCH  24  25
BRANCH  24  35
HETATM   35  C16 UNL     1      13.803 -16.664 -23.629  1.00  0.00     0.245 C 
HETATM   36  O6  UNL     1      12.747 -16.915 -22.951  1.00  0.00    -0.285 OA
BRANCH  35  37
HETATM   37  C17 UNL     1      14.470 -17.714 -24.337  1.00  0.00     0.303 C 
HETATM   38  N7  UNL     1      15.828 -18.005 -24.051  1.00  0.00    -0.054 NA
HETATM   39  O7  UNL     1      13.907 -18.397 -25.206  1.00  0.00    -0.268 OA
ENDBRANCH  35  37
ENDBRANCH  24  35
ENDBRANCH   1  24
TORSDOF 13
ENDMDL
