MODEL 1
REMARK VINA RESULT: -9.332577952      0.000      0.000
REMARK  16 active torsions:
REMARK  status: ('A' for Active; 'I' for Inactive)
REMARK    1  A    between atoms: C2_2  and  C3_3 
REMARK    2  A    between atoms: C2_2  and  N1_5 
REMARK    3  A    between atoms: N1_5  and  C4_7 
REMARK    4  A    between atoms: C4_7  and  O2_8 
REMARK    5  A    between atoms: C4_7  and  C5_10 
REMARK    6  A    between atoms: C5_10  and  N2_11 
REMARK    7  A    between atoms: C5_10  and  C18_34 
REMARK       I    between atoms: N2_11  and  C6_13 
REMARK    8  A    between atoms: C6_13  and  C7_15 
REMARK       I    between atoms: N3_19  and  C11_20 
REMARK    9  A    between atoms: C11_20  and  C12_22 
REMARK   10  A    between atoms: C12_22  and  N4_23 
REMARK       I    between atoms: N4_23  and  C13_24 
REMARK   11  A    between atoms: C13_24  and  C14_26 
REMARK   12  A    between atoms: C14_26  and  N5_27 
REMARK   13  A    between atoms: C14_26  and  C15_31 
REMARK   14  A    between atoms: C18_34  and  N6_35 
REMARK   15  A    between atoms: C18_34  and  C19_39 
REMARK       I    between atoms: C19_39  and  N7_41 
REMARK   16  A    between atoms: N7_41  and  N8_43 
ROOT
HETATM    1  N2  UNL     1      13.528 -13.705 -20.562  1.00  0.00    -0.345 N 
ATOM      2  H2  UNL     1      14.207 -14.246 -20.027  1.00  0.00     0.163 HD
HETATM    3  C6  UNL     1      13.825 -13.306 -21.868  1.00  0.00     0.241 C 
HETATM    4  O3  UNL     1      12.966 -12.654 -22.520  1.00  0.00    -0.271 OA
ENDROOT
BRANCH   1   5
HETATM    5  C5  UNL     1      12.248 -13.348 -19.963  1.00  0.00     0.198 C 
BRANCH   5   6
HETATM    6  C4  UNL     1      12.491 -12.273 -19.024  1.00  0.00     0.138 C 
BRANCH   6   7
HETATM    7  N1  UNL     1      12.372 -10.914 -19.249  1.00  0.00    -0.362 N 
ATOM      8  H1  UNL     1      12.161 -10.568 -20.185  1.00  0.00     0.162 HD
BRANCH   7   9
HETATM    9  C2  UNL     1      12.553  -9.960 -18.127  1.00  0.00     0.140 C 
HETATM   10  C1  UNL     1      14.020  -9.570 -18.104  1.00  0.00     0.039 C 
BRANCH   9  11
HETATM   11  C3  UNL     1      11.748  -8.748 -18.379  1.00  0.00     0.255 C 
HETATM   12  O1  UNL     1      12.271  -7.739 -18.852  1.00  0.00    -0.305 OA
ENDBRANCH   9  11
ENDBRANCH   7   9
ENDBRANCH   6   7
BRANCH   6  13
HETATM   13  O2  UNL     1      12.865 -12.628 -17.827  1.00  0.00    -0.348 OA
ATOM     14  H2  UNL     1      13.561 -13.273 -17.779  1.00  0.00     0.219 HD
ENDBRANCH   6  13
ENDBRANCH   5   6
BRANCH   5  15
HETATM   15  C18 UNL     1      11.444 -14.474 -19.440  1.00  0.00     0.306 C 
BRANCH  15  16
HETATM   16  N6  UNL     1      10.444 -13.893 -18.528  1.00  0.00    -0.064 N 
ATOM     17  H63 UNL     1       9.710 -13.376 -19.013  1.00  0.00     0.275 HD
ATOM     18  H62 UNL     1       9.842 -14.592 -18.092  1.00  0.00     0.275 HD
ATOM     19  H61 UNL     1      10.956 -13.326 -17.853  1.00  0.00     0.275 HD
ENDBRANCH  15  16
BRANCH  15  20
HETATM   20  C19 UNL     1      10.789 -15.262 -20.491  1.00  0.00     0.268 C 
HETATM   21  O6  UNL     1      11.409 -15.589 -21.520  1.00  0.00    -0.269 OA
HETATM   22  N7  UNL     1       9.441 -15.657 -20.347  1.00  0.00    -0.275 N 
ATOM     23  H7  UNL     1       8.958 -15.371 -19.495  1.00  0.00     0.189 HD
BRANCH  22  24
HETATM   24  N8  UNL     1       8.711 -16.408 -21.277  1.00  0.00    -0.343 N 
ATOM     25  H82 UNL     1       9.255 -16.886 -21.995  1.00  0.00     0.176 HD
ATOM     26  H81 UNL     1       7.696 -16.510 -21.289  1.00  0.00     0.176 HD
ENDBRANCH  22  24
ENDBRANCH  15  20
ENDBRANCH   5  15
ENDBRANCH   1   5
BRANCH   3  27
HETATM   27  C7  UNL     1      15.106 -13.590 -22.563  1.00  0.00     0.179 C 
HETATM   28  C8  UNL     1      15.749 -14.869 -22.066  1.00  0.00     0.037 C 
HETATM   29  C9  UNL     1      15.794 -15.792 -23.286  1.00  0.00     0.022 C 
HETATM   30  C10 UNL     1      14.677 -15.209 -24.124  1.00  0.00     0.127 C 
HETATM   31  N3  UNL     1      14.922 -13.784 -23.983  1.00  0.00    -0.333 N 
HETATM   32  C11 UNL     1      14.944 -12.846 -25.019  1.00  0.00     0.273 C 
HETATM   33  O4  UNL     1      15.129 -11.620 -24.913  1.00  0.00    -0.266 OA
BRANCH  32  34
HETATM   34  C12 UNL     1      14.716 -13.361 -26.443  1.00  0.00     0.260 C 
BRANCH  34  35
HETATM   35  N4  UNL     1      15.366 -12.891 -27.414  1.00  0.00    -0.376 NA
HETATM   36  C13 UNL     1      16.143 -12.166 -28.488  1.00  0.00     0.322 C 
HETATM   37  O5  UNL     1      16.413 -11.002 -28.372  1.00  0.00    -0.255 OA
BRANCH  36  38
HETATM   38  C14 UNL     1      16.531 -12.961 -29.656  1.00  0.00     0.293 C 
BRANCH  38  39
HETATM   39  N5  UNL     1      17.939 -12.710 -29.900  1.00  0.00    -0.065 N 
ATOM     40  H53 UNL     1      18.336 -12.018 -29.265  1.00  0.00     0.275 HD
ATOM     41  H52 UNL     1      18.535 -13.494 -29.632  1.00  0.00     0.275 HD
ATOM     42  H51 UNL     1      18.036 -12.453 -30.882  1.00  0.00     0.275 HD
ENDBRANCH  38  39
BRANCH  38  43
HETATM   43  C15 UNL     1      16.336 -14.439 -29.544  1.00  0.00     0.018 C 
HETATM   44  C16 UNL     1      15.971 -15.018 -30.915  1.00  0.00     0.012 C 
HETATM   45  C17 UNL     1      17.470 -15.214 -28.971  1.00  0.00     0.012 C 
ENDBRANCH  38  43
ENDBRANCH  36  38
ENDBRANCH  34  35
ENDBRANCH  32  34
ENDBRANCH   3  27
TORSDOF 16
ENDMDL
MODEL 2
REMARK VINA RESULT: -9.204056082      1.337      1.517
REMARK  16 active torsions:
REMARK  status: ('A' for Active; 'I' for Inactive)
REMARK    1  A    between atoms: C2_2  and  C3_3 
REMARK    2  A    between atoms: C2_2  and  N1_5 
REMARK    3  A    between atoms: N1_5  and  C4_7 
REMARK    4  A    between atoms: C4_7  and  O2_8 
REMARK    5  A    between atoms: C4_7  and  C5_10 
REMARK    6  A    between atoms: C5_10  and  N2_11 
REMARK    7  A    between atoms: C5_10  and  C18_34 
REMARK       I    between atoms: N2_11  and  C6_13 
REMARK    8  A    between atoms: C6_13  and  C7_15 
REMARK       I    between atoms: N3_19  and  C11_20 
REMARK    9  A    between atoms: C11_20  and  C12_22 
REMARK   10  A    between atoms: C12_22  and  N4_23 
REMARK       I    between atoms: N4_23  and  C13_24 
REMARK   11  A    between atoms: C13_24  and  C14_26 
REMARK   12  A    between atoms: C14_26  and  N5_27 
REMARK   13  A    between atoms: C14_26  and  C15_31 
REMARK   14  A    between atoms: C18_34  and  N6_35 
REMARK   15  A    between atoms: C18_34  and  C19_39 
REMARK       I    between atoms: C19_39  and  N7_41 
REMARK   16  A    between atoms: N7_41  and  N8_43 
ROOT
HETATM    1  N2  UNL     1      13.896 -13.053 -21.174  1.00  0.00    -0.345 N 
ATOM      2  H2  UNL     1      14.766 -12.620 -20.860  1.00  0.00     0.163 HD
HETATM    3  C6  UNL     1      13.871 -13.786 -22.364  1.00  0.00     0.241 C 
HETATM    4  O3  UNL     1      12.794 -14.329 -22.725  1.00  0.00    -0.271 OA
ENDROOT
BRANCH   1   5
HETATM    5  C5  UNL     1      12.683 -12.906 -20.381  1.00  0.00     0.198 C 
BRANCH   5   6
HETATM    6  C4  UNL     1      12.930 -11.878 -19.392  1.00  0.00     0.138 C 
BRANCH   6   7
HETATM    7  N1  UNL     1      12.091 -10.843 -19.022  1.00  0.00    -0.362 N 
ATOM      8  H1  UNL     1      11.090 -10.908 -19.205  1.00  0.00     0.162 HD
BRANCH   7   9
HETATM    9  C2  UNL     1      12.649  -9.638 -18.361  1.00  0.00     0.140 C 
HETATM   10  C1  UNL     1      11.801  -8.457 -18.795  1.00  0.00     0.039 C 
BRANCH   9  11
HETATM   11  C3  UNL     1      12.536  -9.787 -16.896  1.00  0.00     0.255 C 
HETATM   12  O1  UNL     1      13.231  -9.102 -16.145  1.00  0.00    -0.305 OA
ENDBRANCH   9  11
ENDBRANCH   7   9
ENDBRANCH   6   7
BRANCH   6  13
HETATM   13  O2  UNL     1      14.079 -11.936 -18.777  1.00  0.00    -0.348 OA
ATOM     14  H2  UNL     1      14.347 -11.151 -18.314  1.00  0.00     0.219 HD
ENDBRANCH   6  13
ENDBRANCH   5   6
BRANCH   5  15
HETATM   15  C18 UNL     1      12.098 -14.159 -19.857  1.00  0.00     0.306 C 
BRANCH  15  16
HETATM   16  N6  UNL     1      12.370 -14.182 -18.410  1.00  0.00    -0.064 N 
ATOM     17  H63 UNL     1      13.150 -13.584 -18.138  1.00  0.00     0.275 HD
ATOM     18  H62 UNL     1      11.650 -13.714 -17.858  1.00  0.00     0.275 HD
ATOM     19  H61 UNL     1      12.503 -15.159 -18.151  1.00  0.00     0.275 HD
ENDBRANCH  15  16
BRANCH  15  20
HETATM   20  C19 UNL     1      10.658 -14.285 -20.115  1.00  0.00     0.268 C 
HETATM   21  O6  UNL     1       9.924 -14.916 -19.332  1.00  0.00    -0.269 OA
HETATM   22  N7  UNL     1      10.087 -13.691 -21.262  1.00  0.00    -0.275 N 
ATOM     23  H7  UNL     1      10.714 -13.183 -21.887  1.00  0.00     0.189 HD
BRANCH  22  24
HETATM   24  N8  UNL     1       8.733 -13.741 -21.613  1.00  0.00    -0.343 N 
ATOM     25  H82 UNL     1       8.204 -14.537 -21.257  1.00  0.00     0.176 HD
ATOM     26  H81 UNL     1       8.245 -13.053 -22.188  1.00  0.00     0.176 HD
ENDBRANCH  22  24
ENDBRANCH  15  20
ENDBRANCH   5  15
ENDBRANCH   1   5
BRANCH   3  27
HETATM   27  C7  UNL     1      15.040 -13.975 -23.260  1.00  0.00     0.179 C 
HETATM   28  C8  UNL     1      15.457 -15.429 -23.348  1.00  0.00     0.037 C 
HETATM   29  C9  UNL     1      15.268 -15.809 -24.819  1.00  0.00     0.022 C 
HETATM   30  C10 UNL     1      14.238 -14.785 -25.245  1.00  0.00     0.127 C 
HETATM   31  N3  UNL     1      14.752 -13.579 -24.620  1.00  0.00    -0.333 N 
HETATM   32  C11 UNL     1      14.896 -12.331 -25.232  1.00  0.00     0.273 C 
HETATM   33  O4  UNL     1      15.312 -11.283 -24.704  1.00  0.00    -0.266 OA
BRANCH  32  34
HETATM   34  C12 UNL     1      14.504 -12.219 -26.708  1.00  0.00     0.260 C 
BRANCH  34  35
HETATM   35  N4  UNL     1      15.352 -12.415 -27.619  1.00  0.00    -0.376 NA
HETATM   36  C13 UNL     1      16.419 -12.475 -28.686  1.00  0.00     0.322 C 
HETATM   37  O5  UNL     1      17.098 -11.515 -28.932  1.00  0.00    -0.255 OA
BRANCH  36  38
HETATM   38  C14 UNL     1      16.563 -13.753 -29.390  1.00  0.00     0.293 C 
BRANCH  38  39
HETATM   39  N5  UNL     1      17.643 -13.600 -30.346  1.00  0.00    -0.065 N 
ATOM     40  H53 UNL     1      17.921 -12.628 -30.481  1.00  0.00     0.275 HD
ATOM     41  H52 UNL     1      18.537 -13.946 -29.997  1.00  0.00     0.275 HD
ATOM     42  H51 UNL     1      17.349 -14.054 -31.211  1.00  0.00     0.275 HD
ENDBRANCH  38  39
BRANCH  38  43
HETATM   43  C15 UNL     1      16.863 -14.944 -28.539  1.00  0.00     0.018 C 
HETATM   44  C16 UNL     1      15.656 -15.888 -28.526  1.00  0.00     0.012 C 
HETATM   45  C17 UNL     1      18.085 -15.718 -28.891  1.00  0.00     0.012 C 
ENDBRANCH  38  43
ENDBRANCH  36  38
ENDBRANCH  34  35
ENDBRANCH  32  34
ENDBRANCH   3  27
TORSDOF 16
ENDMDL
MODEL 3
REMARK VINA RESULT: -9.198090778      1.870      4.043
REMARK  16 active torsions:
REMARK  status: ('A' for Active; 'I' for Inactive)
REMARK    1  A    between atoms: C2_2  and  C3_3 
REMARK    2  A    between atoms: C2_2  and  N1_5 
REMARK    3  A    between atoms: N1_5  and  C4_7 
REMARK    4  A    between atoms: C4_7  and  O2_8 
REMARK    5  A    between atoms: C4_7  and  C5_10 
REMARK    6  A    between atoms: C5_10  and  N2_11 
REMARK    7  A    between atoms: C5_10  and  C18_34 
REMARK       I    between atoms: N2_11  and  C6_13 
REMARK    8  A    between atoms: C6_13  and  C7_15 
REMARK       I    between atoms: N3_19  and  C11_20 
REMARK    9  A    between atoms: C11_20  and  C12_22 
REMARK   10  A    between atoms: C12_22  and  N4_23 
REMARK       I    between atoms: N4_23  and  C13_24 
REMARK   11  A    between atoms: C13_24  and  C14_26 
REMARK   12  A    between atoms: C14_26  and  N5_27 
REMARK   13  A    between atoms: C14_26  and  C15_31 
REMARK   14  A    between atoms: C18_34  and  N6_35 
REMARK   15  A    between atoms: C18_34  and  C19_39 
REMARK       I    between atoms: C19_39  and  N7_41 
REMARK   16  A    between atoms: N7_41  and  N8_43 
ROOT
HETATM    1  N2  UNL     1      13.468 -13.354 -21.620  1.00  0.00    -0.345 N 
ATOM      2  H2  UNL     1      13.903 -12.432 -21.664  1.00  0.00     0.163 HD
HETATM    3  C6  UNL     1      14.014 -14.417 -22.345  1.00  0.00     0.241 C 
HETATM    4  O3  UNL     1      13.475 -15.554 -22.263  1.00  0.00    -0.271 OA
ENDROOT
BRANCH   1   5
HETATM    5  C5  UNL     1      12.280 -13.561 -20.803  1.00  0.00     0.198 C 
BRANCH   5   6
HETATM    6  C4  UNL     1      11.132 -13.187 -21.601  1.00  0.00     0.138 C 
BRANCH   6   7
HETATM    7  N1  UNL     1      10.122 -14.011 -22.063  1.00  0.00    -0.362 N 
ATOM      8  H1  UNL     1       9.828 -13.960 -23.039  1.00  0.00     0.162 HD
BRANCH   7   9
HETATM    9  C2  UNL     1       9.466 -14.968 -21.139  1.00  0.00     0.140 C 
HETATM   10  C1  UNL     1       8.041 -14.487 -20.935  1.00  0.00     0.039 C 
BRANCH   9  11
HETATM   11  C3  UNL     1       9.427 -16.305 -21.764  1.00  0.00     0.255 C 
HETATM   12  O1  UNL     1      10.093 -16.542 -22.772  1.00  0.00    -0.305 OA
ENDBRANCH   9  11
ENDBRANCH   7   9
ENDBRANCH   6   7
BRANCH   6  13
HETATM   13  O2  UNL     1      11.038 -11.927 -21.920  1.00  0.00    -0.348 OA
ATOM     14  H2  UNL     1      11.849 -11.494 -22.162  1.00  0.00     0.219 HD
ENDBRANCH   6  13
ENDBRANCH   5   6
BRANCH   5  15
HETATM   15  C18 UNL     1      12.321 -12.977 -19.444  1.00  0.00     0.306 C 
BRANCH  15  16
HETATM   16  N6  UNL     1      12.361 -14.106 -18.499  1.00  0.00    -0.064 N 
ATOM     17  H63 UNL     1      12.900 -14.900 -18.843  1.00  0.00     0.275 HD
ATOM     18  H62 UNL     1      12.924 -13.917 -17.669  1.00  0.00     0.275 HD
ATOM     19  H61 UNL     1      11.392 -14.342 -18.282  1.00  0.00     0.275 HD
ENDBRANCH  15  16
BRANCH  15  20
HETATM   20  C19 UNL     1      13.464 -12.082 -19.227  1.00  0.00     0.268 C 
HETATM   21  O6  UNL     1      14.569 -12.323 -19.747  1.00  0.00    -0.269 OA
HETATM   22  N7  UNL     1      13.323 -10.933 -18.418  1.00  0.00    -0.275 N 
ATOM     23  H7  UNL     1      12.406 -10.763 -18.002  1.00  0.00     0.189 HD
BRANCH  22  24
HETATM   24  N8  UNL     1      14.335 -10.006 -18.138  1.00  0.00    -0.343 N 
ATOM     25  H82 UNL     1      15.096 -10.337 -17.546  1.00  0.00     0.176 HD
ATOM     26  H81 UNL     1      14.366  -9.045 -18.477  1.00  0.00     0.176 HD
ENDBRANCH  22  24
ENDBRANCH  15  20
ENDBRANCH   5  15
ENDBRANCH   1   5
BRANCH   3  27
HETATM   27  C7  UNL     1      15.202 -14.311 -23.228  1.00  0.00     0.179 C 
HETATM   28  C8  UNL     1      15.863 -15.657 -23.453  1.00  0.00     0.037 C 
HETATM   29  C9  UNL     1      15.749 -15.908 -24.959  1.00  0.00     0.022 C 
HETATM   30  C10 UNL     1      14.561 -15.035 -25.303  1.00  0.00     0.127 C 
HETATM   31  N3  UNL     1      14.858 -13.831 -24.547  1.00  0.00    -0.333 N 
HETATM   32  C11 UNL     1      14.789 -12.520 -25.026  1.00  0.00     0.273 C 
HETATM   33  O4  UNL     1      15.017 -11.478 -24.385  1.00  0.00    -0.266 OA
BRANCH  32  34
HETATM   34  C12 UNL     1      14.392 -12.323 -26.492  1.00  0.00     0.260 C 
BRANCH  34  35
HETATM   35  N4  UNL     1      15.252 -12.395 -27.410  1.00  0.00    -0.376 NA
HETATM   36  C13 UNL     1      16.322 -12.306 -28.471  1.00  0.00     0.322 C 
HETATM   37  O5  UNL     1      16.948 -11.293 -28.631  1.00  0.00    -0.255 OA
BRANCH  36  38
HETATM   38  C14 UNL     1      16.539 -13.511 -29.278  1.00  0.00     0.293 C 
BRANCH  38  39
HETATM   39  N5  UNL     1      17.694 -13.266 -30.119  1.00  0.00    -0.065 N 
ATOM     40  H53 UNL     1      17.565 -13.587 -31.078  1.00  0.00     0.275 HD
ATOM     41  H52 UNL     1      17.833 -12.277 -30.328  1.00  0.00     0.275 HD
ATOM     42  H51 UNL     1      18.500 -13.693 -29.661  1.00  0.00     0.275 HD
ENDBRANCH  38  39
BRANCH  38  43
HETATM   43  C15 UNL     1      16.776 -14.778 -28.522  1.00  0.00     0.018 C 
HETATM   44  C16 UNL     1      15.584 -15.723 -28.708  1.00  0.00     0.012 C 
HETATM   45  C17 UNL     1      18.034 -15.509 -28.835  1.00  0.00     0.012 C 
ENDBRANCH  38  43
ENDBRANCH  36  38
ENDBRANCH  34  35
ENDBRANCH  32  34
ENDBRANCH   3  27
TORSDOF 16
ENDMDL
MODEL 4
REMARK VINA RESULT: -9.075419498      2.085      4.363
REMARK  16 active torsions:
REMARK  status: ('A' for Active; 'I' for Inactive)
REMARK    1  A    between atoms: C2_2  and  C3_3 
REMARK    2  A    between atoms: C2_2  and  N1_5 
REMARK    3  A    between atoms: N1_5  and  C4_7 
REMARK    4  A    between atoms: C4_7  and  O2_8 
REMARK    5  A    between atoms: C4_7  and  C5_10 
REMARK    6  A    between atoms: C5_10  and  N2_11 
REMARK    7  A    between atoms: C5_10  and  C18_34 
REMARK       I    between atoms: N2_11  and  C6_13 
REMARK    8  A    between atoms: C6_13  and  C7_15 
REMARK       I    between atoms: N3_19  and  C11_20 
REMARK    9  A    between atoms: C11_20  and  C12_22 
REMARK   10  A    between atoms: C12_22  and  N4_23 
REMARK       I    between atoms: N4_23  and  C13_24 
REMARK   11  A    between atoms: C13_24  and  C14_26 
REMARK   12  A    between atoms: C14_26  and  N5_27 
REMARK   13  A    between atoms: C14_26  and  C15_31 
REMARK   14  A    between atoms: C18_34  and  N6_35 
REMARK   15  A    between atoms: C18_34  and  C19_39 
REMARK       I    between atoms: C19_39  and  N7_41 
REMARK   16  A    between atoms: N7_41  and  N8_43 
ROOT
HETATM    1  N2  UNL     1      13.183 -14.469 -22.708  1.00  0.00    -0.345 N 
ATOM      2  H2  UNL     1      13.027 -13.780 -23.444  1.00  0.00     0.163 HD
HETATM    3  C6  UNL     1      14.391 -15.170 -22.653  1.00  0.00     0.241 C 
HETATM    4  O3  UNL     1      14.574 -16.003 -21.725  1.00  0.00    -0.271 OA
ENDROOT
BRANCH   1   5
HETATM    5  C5  UNL     1      12.148 -14.720 -21.714  1.00  0.00     0.198 C 
BRANCH   5   6
HETATM    6  C4  UNL     1      11.170 -15.600 -22.317  1.00  0.00     0.138 C 
BRANCH   6   7
HETATM    7  N1  UNL     1      10.859 -16.896 -21.947  1.00  0.00    -0.362 N 
ATOM      8  H1  UNL     1      11.598 -17.594 -21.865  1.00  0.00     0.162 HD
BRANCH   7   9
HETATM    9  C2  UNL     1       9.450 -17.269 -21.671  1.00  0.00     0.140 C 
HETATM   10  C1  UNL     1       9.222 -18.637 -22.287  1.00  0.00     0.039 C 
BRANCH   9  11
HETATM   11  C3  UNL     1       9.247 -17.369 -20.212  1.00  0.00     0.255 C 
HETATM   12  O1  UNL     1       9.198 -16.354 -19.518  1.00  0.00    -0.305 OA
ENDBRANCH   9  11
ENDBRANCH   7   9
ENDBRANCH   6   7
BRANCH   6  13
HETATM   13  O2  UNL     1      10.503 -15.114 -23.326  1.00  0.00    -0.348 OA
ATOM     14  H2  UNL     1       9.643 -14.760 -23.130  1.00  0.00     0.219 HD
ENDBRANCH   6  13
ENDBRANCH   5   6
BRANCH   5  15
HETATM   15  C18 UNL     1      11.592 -13.524 -21.044  1.00  0.00     0.306 C 
BRANCH  15  16
HETATM   16  N6  UNL     1      10.345 -13.947 -20.384  1.00  0.00    -0.064 N 
ATOM     17  H63 UNL     1       9.727 -14.479 -20.997  1.00  0.00     0.275 HD
ATOM     18  H62 UNL     1      10.488 -14.673 -19.682  1.00  0.00     0.275 HD
ATOM     19  H61 UNL     1       9.911 -13.105 -20.009  1.00  0.00     0.275 HD
ENDBRANCH  15  16
BRANCH  15  20
HETATM   20  C19 UNL     1      12.511 -12.919 -20.071  1.00  0.00     0.268 C 
HETATM   21  O6  UNL     1      13.696 -12.684 -20.376  1.00  0.00    -0.269 OA
HETATM   22  N7  UNL     1      12.061 -12.600 -18.771  1.00  0.00    -0.275 N 
ATOM     23  H7  UNL     1      11.087 -12.807 -18.550  1.00  0.00     0.189 HD
BRANCH  22  24
HETATM   24  N8  UNL     1      12.840 -12.022 -17.761  1.00  0.00    -0.343 N 
ATOM     25  H82 UNL     1      13.266 -12.669 -17.097  1.00  0.00     0.176 HD
ATOM     26  H81 UNL     1      13.009 -11.023 -17.643  1.00  0.00     0.176 HD
ENDBRANCH  22  24
ENDBRANCH  15  20
ENDBRANCH   5  15
ENDBRANCH   1   5
BRANCH   3  27
HETATM   27  C7  UNL     1      15.500 -15.013 -23.628  1.00  0.00     0.179 C 
HETATM   28  C8  UNL     1      16.056 -16.351 -24.073  1.00  0.00     0.037 C 
HETATM   29  C9  UNL     1      15.793 -16.409 -25.580  1.00  0.00     0.022 C 
HETATM   30  C10 UNL     1      14.634 -15.443 -25.702  1.00  0.00     0.127 C 
HETATM   31  N3  UNL     1      15.069 -14.358 -24.841  1.00  0.00    -0.333 N 
HETATM   32  C11 UNL     1      15.036 -12.995 -25.152  1.00  0.00     0.273 C 
HETATM   33  O4  UNL     1      15.381 -12.053 -24.417  1.00  0.00    -0.266 OA
BRANCH  32  34
HETATM   34  C12 UNL     1      14.522 -12.601 -26.540  1.00  0.00     0.260 C 
BRANCH  34  35
HETATM   35  N4  UNL     1      15.300 -12.555 -27.530  1.00  0.00    -0.376 NA
HETATM   36  C13 UNL     1      16.271 -12.328 -28.663  1.00  0.00     0.322 C 
HETATM   37  O5  UNL     1      16.849 -11.281 -28.778  1.00  0.00    -0.255 OA
BRANCH  36  38
HETATM   38  C14 UNL     1      16.454 -13.444 -29.595  1.00  0.00     0.293 C 
BRANCH  38  39
HETATM   39  N5  UNL     1      17.757 -13.285 -30.210  1.00  0.00    -0.065 N 
ATOM     40  H53 UNL     1      18.238 -12.437 -29.911  1.00  0.00     0.275 HD
ATOM     41  H52 UNL     1      18.445 -13.955 -29.865  1.00  0.00     0.275 HD
ATOM     42  H51 UNL     1      17.625 -13.333 -31.220  1.00  0.00     0.275 HD
ENDBRANCH  38  39
BRANCH  38  43
HETATM   43  C15 UNL     1      16.384 -14.816 -29.004  1.00  0.00     0.018 C 
HETATM   44  C16 UNL     1      15.542 -15.725 -29.905  1.00  0.00     0.012 C 
HETATM   45  C17 UNL     1      17.685 -15.479 -28.718  1.00  0.00     0.012 C 
ENDBRANCH  38  43
ENDBRANCH  36  38
ENDBRANCH  34  35
ENDBRANCH  32  34
ENDBRANCH   3  27
TORSDOF 16
ENDMDL
MODEL 5
REMARK VINA RESULT: -8.898442185      1.207      1.472
REMARK  16 active torsions:
REMARK  status: ('A' for Active; 'I' for Inactive)
REMARK    1  A    between atoms: C2_2  and  C3_3 
REMARK    2  A    between atoms: C2_2  and  N1_5 
REMARK    3  A    between atoms: N1_5  and  C4_7 
REMARK    4  A    between atoms: C4_7  and  O2_8 
REMARK    5  A    between atoms: C4_7  and  C5_10 
REMARK    6  A    between atoms: C5_10  and  N2_11 
REMARK    7  A    between atoms: C5_10  and  C18_34 
REMARK       I    between atoms: N2_11  and  C6_13 
REMARK    8  A    between atoms: C6_13  and  C7_15 
REMARK       I    between atoms: N3_19  and  C11_20 
REMARK    9  A    between atoms: C11_20  and  C12_22 
REMARK   10  A    between atoms: C12_22  and  N4_23 
REMARK       I    between atoms: N4_23  and  C13_24 
REMARK   11  A    between atoms: C13_24  and  C14_26 
REMARK   12  A    between atoms: C14_26  and  N5_27 
REMARK   13  A    between atoms: C14_26  and  C15_31 
REMARK   14  A    between atoms: C18_34  and  N6_35 
REMARK   15  A    between atoms: C18_34  and  C19_39 
REMARK       I    between atoms: C19_39  and  N7_41 
REMARK   16  A    between atoms: N7_41  and  N8_43 
ROOT
HETATM    1  N2  UNL     1      13.497 -13.759 -20.558  1.00  0.00    -0.345 N 
ATOM      2  H2  UNL     1      14.162 -14.332 -20.038  1.00  0.00     0.163 HD
HETATM    3  C6  UNL     1      13.796 -13.352 -21.861  1.00  0.00     0.241 C 
HETATM    4  O3  UNL     1      12.955 -12.661 -22.495  1.00  0.00    -0.271 OA
ENDROOT
BRANCH   1   5
HETATM    5  C5  UNL     1      12.237 -13.366 -19.942  1.00  0.00     0.198 C 
BRANCH   5   6
HETATM    6  C4  UNL     1      12.523 -12.298 -19.007  1.00  0.00     0.138 C 
BRANCH   6   7
HETATM    7  N1  UNL     1      12.451 -10.936 -19.234  1.00  0.00    -0.362 N 
ATOM      8  H1  UNL     1      12.324 -10.583 -20.182  1.00  0.00     0.162 HD
BRANCH   7   9
HETATM    9  C2  UNL     1      12.559  -9.990 -18.097  1.00  0.00     0.140 C 
HETATM   10  C1  UNL     1      13.995  -9.498 -18.060  1.00  0.00     0.039 C 
BRANCH   9  11
HETATM   11  C3  UNL     1      11.672  -8.834 -18.334  1.00  0.00     0.255 C 
HETATM   12  O1  UNL     1      12.098  -7.826 -18.896  1.00  0.00    -0.305 OA
ENDBRANCH   9  11
ENDBRANCH   7   9
ENDBRANCH   6   7
BRANCH   6  13
HETATM   13  O2  UNL     1      12.891 -12.664 -17.811  1.00  0.00    -0.348 OA
ATOM     14  H2  UNL     1      13.815 -12.571 -17.609  1.00  0.00     0.219 HD
ENDBRANCH   6  13
ENDBRANCH   5   6
BRANCH   5  15
HETATM   15  C18 UNL     1      11.408 -14.468 -19.407  1.00  0.00     0.306 C 
BRANCH  15  16
HETATM   16  N6  UNL     1      10.403 -13.854 -18.522  1.00  0.00    -0.064 N 
ATOM     17  H63 UNL     1       9.549 -13.586 -19.010  1.00  0.00     0.275 HD
ATOM     18  H62 UNL     1       9.980 -14.516 -17.873  1.00  0.00     0.275 HD
ATOM     19  H61 UNL     1      10.862 -13.071 -18.056  1.00  0.00     0.275 HD
ENDBRANCH  15  16
BRANCH  15  20
HETATM   20  C19 UNL     1      10.757 -15.269 -20.451  1.00  0.00     0.268 C 
HETATM   21  O6  UNL     1      11.359 -15.555 -21.502  1.00  0.00    -0.269 OA
HETATM   22  N7  UNL     1       9.431 -15.723 -20.275  1.00  0.00    -0.275 N 
ATOM     23  H7  UNL     1       8.962 -15.471 -19.405  1.00  0.00     0.189 HD
BRANCH  22  24
HETATM   24  N8  UNL     1       8.707 -16.492 -21.194  1.00  0.00    -0.343 N 
ATOM     25  H82 UNL     1       8.601 -16.094 -22.127  1.00  0.00     0.176 HD
ATOM     26  H81 UNL     1       8.286 -17.401 -21.004  1.00  0.00     0.176 HD
ENDBRANCH  22  24
ENDBRANCH  15  20
ENDBRANCH   5  15
ENDBRANCH   1   5
BRANCH   3  27
HETATM   27  C7  UNL     1      15.060 -13.671 -22.573  1.00  0.00     0.179 C 
HETATM   28  C8  UNL     1      15.642 -14.997 -22.127  1.00  0.00     0.037 C 
HETATM   29  C9  UNL     1      15.638 -15.875 -23.381  1.00  0.00     0.022 C 
HETATM   30  C10 UNL     1      14.548 -15.207 -24.191  1.00  0.00     0.127 C 
HETATM   31  N3  UNL     1      14.862 -13.802 -23.998  1.00  0.00    -0.333 N 
HETATM   32  C11 UNL     1      14.926 -12.828 -24.999  1.00  0.00     0.273 C 
HETATM   33  O4  UNL     1      15.170 -11.617 -24.847  1.00  0.00    -0.266 OA
BRANCH  32  34
HETATM   34  C12 UNL     1      14.668 -13.278 -26.440  1.00  0.00     0.260 C 
BRANCH  34  35
HETATM   35  N4  UNL     1      15.450 -14.079 -27.017  1.00  0.00    -0.376 NA
HETATM   36  C13 UNL     1      16.308 -15.172 -27.610  1.00  0.00     0.322 C 
HETATM   37  O5  UNL     1      16.165 -16.316 -27.274  1.00  0.00    -0.255 OA
BRANCH  36  38
HETATM   38  C14 UNL     1      17.306 -14.750 -28.598  1.00  0.00     0.293 C 
BRANCH  38  39
HETATM   39  N5  UNL     1      18.015 -15.939 -29.029  1.00  0.00    -0.065 N 
ATOM     40  H53 UNL     1      18.034 -16.047 -30.043  1.00  0.00     0.275 HD
ATOM     41  H52 UNL     1      19.023 -15.877 -28.884  1.00  0.00     0.275 HD
ATOM     42  H51 UNL     1      17.592 -16.735 -28.552  1.00  0.00     0.275 HD
ENDBRANCH  38  39
BRANCH  38  43
HETATM   43  C15 UNL     1      16.780 -14.058 -29.813  1.00  0.00     0.018 C 
HETATM   44  C16 UNL     1      17.069 -12.556 -29.719  1.00  0.00     0.012 C 
HETATM   45  C17 UNL     1      17.262 -14.568 -31.126  1.00  0.00     0.012 C 
ENDBRANCH  38  43
ENDBRANCH  36  38
ENDBRANCH  34  35
ENDBRANCH  32  34
ENDBRANCH   3  27
TORSDOF 16
ENDMDL
