MODEL 1
REMARK VINA RESULT: -6.425050997      0.000      0.000
REMARK  2 active torsions:
REMARK  status: ('A' for Active; 'I' for Inactive)
REMARK    1  A    between atoms: N1_1  and  C1_5 
REMARK    2  A    between atoms: C1_5  and  C2_6 
ROOT
HETATM    1  C2  UNL     1     -17.537   2.359 -11.254  1.00  0.00     0.011 C 
HETATM    2  C3  UNL     1     -16.589   3.500 -11.057  1.00  0.00     0.006 C 
HETATM    3  C4  UNL     1     -15.987   4.002 -12.351  1.00  0.00     0.000 C 
HETATM    4  C5  UNL     1     -16.976   4.067 -13.471  1.00  0.00     0.000 C 
HETATM    5  C6  UNL     1     -16.536   3.233 -14.617  1.00  0.00     0.000 C 
HETATM    6  C7  UNL     1     -17.126   1.889 -14.716  1.00  0.00     0.000 C 
HETATM    7  C8  UNL     1     -17.840   1.390 -13.499  1.00  0.00     0.000 C 
HETATM    8  C9  UNL     1     -17.010   1.361 -12.263  1.00  0.00     0.006 C 
ENDROOT
BRANCH   1   9
HETATM    9  C1  UNL     1     -17.747   1.708  -9.886  1.00  0.00     0.234 C 
BRANCH   9  10
HETATM   10  N1  UNL     1     -18.674   0.615 -10.096  1.00  0.00    -0.079 N 
ATOM     11  H13 UNL     1     -19.125   0.637 -11.011  1.00  0.00     0.274 HD
ATOM     12  H12 UNL     1     -18.216  -0.290 -10.204  1.00  0.00     0.274 HD
ATOM     13  H11 UNL     1     -19.332   0.647  -9.319  1.00  0.00     0.274 HD
ENDBRANCH   9  10
ENDBRANCH   1   9
TORSDOF 2
ENDMDL
MODEL 2
REMARK VINA RESULT: -6.272742124      0.769      2.339
REMARK  2 active torsions:
REMARK  status: ('A' for Active; 'I' for Inactive)
REMARK    1  A    between atoms: N1_1  and  C1_5 
REMARK    2  A    between atoms: C1_5  and  C2_6 
ROOT
HETATM    1  C2  UNL     1     -17.074   1.373 -11.828  1.00  0.00     0.011 C 
HETATM    2  C3  UNL     1     -18.056   0.881 -12.845  1.00  0.00     0.006 C 
HETATM    3  C4  UNL     1     -18.173   1.792 -14.046  1.00  0.00     0.000 C 
HETATM    4  C5  UNL     1     -16.855   2.324 -14.510  1.00  0.00     0.000 C 
HETATM    5  C6  UNL     1     -16.844   3.807 -14.492  1.00  0.00     0.000 C 
HETATM    6  C7  UNL     1     -16.228   4.445 -13.318  1.00  0.00     0.000 C 
HETATM    7  C8  UNL     1     -15.978   3.558 -12.139  1.00  0.00     0.000 C 
HETATM    8  C9  UNL     1     -17.190   2.867 -11.616  1.00  0.00     0.006 C 
ENDROOT
BRANCH   1   9
HETATM    9  C1  UNL     1     -17.346   0.605 -10.533  1.00  0.00     0.234 C 
BRANCH   9  10
HETATM   10  N1  UNL     1     -18.755   0.777 -10.250  1.00  0.00    -0.079 N 
ATOM     11  H13 UNL     1     -19.328   0.879 -11.088  1.00  0.00     0.274 HD
ATOM     12  H12 UNL     1     -19.204  -0.067  -9.894  1.00  0.00     0.274 HD
ATOM     13  H11 UNL     1     -18.822   1.572  -9.614  1.00  0.00     0.274 HD
ENDBRANCH   9  10
ENDBRANCH   1   9
TORSDOF 2
ENDMDL
MODEL 3
REMARK VINA RESULT: -6.247388658      1.338      1.338
REMARK  2 active torsions:
REMARK  status: ('A' for Active; 'I' for Inactive)
REMARK    1  A    between atoms: N1_1  and  C1_5 
REMARK    2  A    between atoms: C1_5  and  C2_6 
ROOT
HETATM    1  C2  UNL     1     -17.283   2.986 -11.077  1.00  0.00     0.011 C 
HETATM    2  C3  UNL     1     -16.256   4.040 -11.347  1.00  0.00     0.006 C 
HETATM    3  C4  UNL     1     -15.844   4.109 -12.801  1.00  0.00     0.000 C 
HETATM    4  C5  UNL     1     -16.996   3.961 -13.744  1.00  0.00     0.000 C 
HETATM    5  C6  UNL     1     -16.792   2.808 -14.655  1.00  0.00     0.000 C 
HETATM    6  C7  UNL     1     -17.462   1.552 -14.284  1.00  0.00     0.000 C 
HETATM    7  C8  UNL     1     -17.996   1.475 -12.888  1.00  0.00     0.000 C 
HETATM    8  C9  UNL     1     -16.980   1.704 -11.823  1.00  0.00     0.006 C 
ENDROOT
BRANCH   1   9
HETATM    9  C1  UNL     1     -17.305   2.757  -9.564  1.00  0.00     0.234 C 
BRANCH   9  10
HETATM   10  N1  UNL     1     -17.689   4.020  -8.970  1.00  0.00    -0.079 N 
ATOM     11  H13 UNL     1     -17.373   4.832  -9.502  1.00  0.00     0.274 HD
ATOM     12  H12 UNL     1     -18.689   4.211  -9.034  1.00  0.00     0.274 HD
ATOM     13  H11 UNL     1     -17.339   4.002  -8.013  1.00  0.00     0.274 HD
ENDBRANCH   9  10
ENDBRANCH   1   9
TORSDOF 2
ENDMDL
MODEL 4
REMARK VINA RESULT: -5.996154795      1.993      3.565
REMARK  2 active torsions:
REMARK  status: ('A' for Active; 'I' for Inactive)
REMARK    1  A    between atoms: N1_1  and  C1_5 
REMARK    2  A    between atoms: C1_5  and  C2_6 
ROOT
HETATM    1  C2  UNL     1     -17.052   1.858 -14.063  1.00  0.00     0.011 C 
HETATM    2  C3  UNL     1     -16.842   3.287 -14.457  1.00  0.00     0.006 C 
HETATM    3  C4  UNL     1     -16.746   4.222 -13.272  1.00  0.00     0.000 C 
HETATM    4  C5  UNL     1     -15.944   3.656 -12.143  1.00  0.00     0.000 C 
HETATM    5  C6  UNL     1     -16.751   3.586 -10.900  1.00  0.00     0.000 C 
HETATM    6  C7  UNL     1     -17.358   2.283 -10.584  1.00  0.00     0.000 C 
HETATM    7  C8  UNL     1     -17.372   1.275 -11.690  1.00  0.00     0.000 C 
HETATM    8  C9  UNL     1     -18.053   1.730 -12.934  1.00  0.00     0.006 C 
ENDROOT
BRANCH   1   9
HETATM    9  C1  UNL     1     -17.524   1.113 -15.312  1.00  0.00     0.234 C 
BRANCH   9  10
HETATM   10  N1  UNL     1     -18.486   1.979 -15.960  1.00  0.00    -0.079 N 
ATOM     11  H13 UNL     1     -19.454   1.691 -15.815  1.00  0.00     0.274 HD
ATOM     12  H12 UNL     1     -18.564   2.898 -15.523  1.00  0.00     0.274 HD
ATOM     13  H11 UNL     1     -18.217   2.018 -16.943  1.00  0.00     0.274 HD
ENDBRANCH   9  10
ENDBRANCH   1   9
TORSDOF 2
ENDMDL
MODEL 5
REMARK VINA RESULT: -5.876086726      2.335      4.179
REMARK  2 active torsions:
REMARK  status: ('A' for Active; 'I' for Inactive)
REMARK    1  A    between atoms: N1_1  and  C1_5 
REMARK    2  A    between atoms: C1_5  and  C2_6 
ROOT
HETATM    1  C2  UNL     1     -16.857   3.252 -13.298  1.00  0.00     0.011 C 
HETATM    2  C3  UNL     1     -17.170   2.001 -14.059  1.00  0.00     0.006 C 
HETATM    3  C4  UNL     1     -17.703   0.891 -13.181  1.00  0.00     0.000 C 
HETATM    4  C5  UNL     1     -18.672   1.373 -12.148  1.00  0.00     0.000 C 
HETATM    5  C6  UNL     1     -18.205   1.032 -10.782  1.00  0.00     0.000 C 
HETATM    6  C7  UNL     1     -17.511   2.097 -10.041  1.00  0.00     0.000 C 
HETATM    7  C8  UNL     1     -17.066   3.279 -10.843  1.00  0.00     0.000 C 
HETATM    8  C9  UNL     1     -16.168   2.950 -11.985  1.00  0.00     0.006 C 
ENDROOT
BRANCH   1   9
HETATM    9  C1  UNL     1     -15.977   4.118 -14.202  1.00  0.00     0.234 C 
BRANCH   9  10
HETATM   10  N1  UNL     1     -16.816   4.529 -15.308  1.00  0.00    -0.079 N 
ATOM     11  H13 UNL     1     -16.391   5.249 -15.893  1.00  0.00     0.274 HD
ATOM     12  H12 UNL     1     -16.908   3.818 -16.034  1.00  0.00     0.274 HD
ATOM     13  H11 UNL     1     -17.707   4.811 -14.900  1.00  0.00     0.274 HD
ENDBRANCH   9  10
ENDBRANCH   1   9
TORSDOF 2
ENDMDL
