MODEL 1
REMARK VINA RESULT: -5.934087039      0.000      0.000
REMARK  2 active torsions:
REMARK  status: ('A' for Active; 'I' for Inactive)
REMARK    1  A    between atoms: C2_2  and  N2_5 
REMARK    2  A    between atoms: N2_5  and  C4_7 
ROOT
HETATM    1  C1  UNL     1     -18.143   3.382  -8.920  1.00  0.00     0.048 C 
HETATM    2  C2  UNL     1     -17.386   2.561  -9.892  1.00  0.00     0.181 C 
HETATM    3  C3  UNL     1     -17.630   1.087  -9.566  1.00  0.00     0.083 C 
HETATM    4  N1  UNL     1     -17.921   0.009  -9.397  1.00  0.00    -0.195 NA
ENDROOT
BRANCH   2   5
HETATM    5  N2  UNL     1     -17.779   2.740 -11.232  1.00  0.00    -0.402 N 
ATOM      6  H2  UNL     1     -18.766   2.903 -11.432  1.00  0.00     0.154 HD
BRANCH   5   7
HETATM    7  C4  UNL     1     -16.884   2.704 -12.290  1.00  0.00     0.077 C 
HETATM    8  C5  UNL     1     -16.276   3.956 -12.790  1.00  0.00     0.024 C 
HETATM    9  C6  UNL     1     -16.476   3.854 -14.311  1.00  0.00     0.002 C 
HETATM   10  C7  UNL     1     -16.769   2.409 -14.636  1.00  0.00     0.002 C 
HETATM   11  C8  UNL     1     -17.491   1.925 -13.427  1.00  0.00     0.024 C 
ENDBRANCH   5   7
ENDBRANCH   2   5
TORSDOF 2
ENDMDL
MODEL 2
REMARK VINA RESULT: -5.551108651      0.912      1.565
REMARK  2 active torsions:
REMARK  status: ('A' for Active; 'I' for Inactive)
REMARK    1  A    between atoms: C2_2  and  N2_5 
REMARK    2  A    between atoms: N2_5  and  C4_7 
ROOT
HETATM    1  C1  UNL     1     -17.772   3.275  -9.816  1.00  0.00     0.048 C 
HETATM    2  C2  UNL     1     -16.968   2.069 -10.116  1.00  0.00     0.181 C 
HETATM    3  C3  UNL     1     -17.775   0.839  -9.697  1.00  0.00     0.083 C 
HETATM    4  N1  UNL     1     -18.430  -0.059  -9.505  1.00  0.00    -0.195 NA
ENDROOT
BRANCH   2   5
HETATM    5  N2  UNL     1     -16.668   1.898 -11.481  1.00  0.00    -0.402 N 
ATOM      6  H2  UNL     1     -15.821   1.389 -11.733  1.00  0.00     0.154 HD
BRANCH   5   7
HETATM    7  C4  UNL     1     -17.473   2.391 -12.496  1.00  0.00     0.077 C 
HETATM    8  C5  UNL     1     -18.223   1.460 -13.367  1.00  0.00     0.024 C 
HETATM    9  C6  UNL     1     -17.905   1.975 -14.780  1.00  0.00     0.002 C 
HETATM   10  C7  UNL     1     -17.381   3.385 -14.643  1.00  0.00     0.002 C 
HETATM   11  C8  UNL     1     -16.681   3.365 -13.330  1.00  0.00     0.024 C 
ENDBRANCH   5   7
ENDBRANCH   2   5
TORSDOF 2
ENDMDL
MODEL 3
REMARK VINA RESULT: -5.494980505      1.106      2.212
REMARK  2 active torsions:
REMARK  status: ('A' for Active; 'I' for Inactive)
REMARK    1  A    between atoms: C2_2  and  N2_5 
REMARK    2  A    between atoms: N2_5  and  C4_7 
ROOT
HETATM    1  C1  UNL     1     -17.480   0.838  -9.330  1.00  0.00     0.048 C 
HETATM    2  C2  UNL     1     -17.878   1.942 -10.232  1.00  0.00     0.181 C 
HETATM    3  C3  UNL     1     -17.894   3.239  -9.423  1.00  0.00     0.083 C 
HETATM    4  N1  UNL     1     -17.777   4.204  -8.849  1.00  0.00    -0.195 NA
ENDROOT
BRANCH   2   5
HETATM    5  N2  UNL     1     -16.995   2.158 -11.307  1.00  0.00    -0.402 N 
ATOM      6  H2  UNL     1     -15.999   1.993 -11.161  1.00  0.00     0.154 HD
BRANCH   5   7
HETATM    7  C4  UNL     1     -17.419   2.585 -12.556  1.00  0.00     0.077 C 
HETATM    8  C5  UNL     1     -17.654   1.602 -13.637  1.00  0.00     0.024 C 
HETATM    9  C6  UNL     1     -16.903   2.214 -14.830  1.00  0.00     0.002 C 
HETATM   10  C7  UNL     1     -16.666   3.673 -14.519  1.00  0.00     0.002 C 
HETATM   11  C8  UNL     1     -16.514   3.688 -13.039  1.00  0.00     0.024 C 
ENDBRANCH   5   7
ENDBRANCH   2   5
TORSDOF 2
ENDMDL
MODEL 4
REMARK VINA RESULT: -5.446347059      1.341      1.961
REMARK  2 active torsions:
REMARK  status: ('A' for Active; 'I' for Inactive)
REMARK    1  A    between atoms: C2_2  and  N2_5 
REMARK    2  A    between atoms: N2_5  and  C4_7 
ROOT
HETATM    1  C1  UNL     1     -18.019   0.684  -9.765  1.00  0.00     0.048 C 
HETATM    2  C2  UNL     1     -17.930   1.885 -10.625  1.00  0.00     0.181 C 
HETATM    3  C3  UNL     1     -17.895   3.119  -9.722  1.00  0.00     0.083 C 
HETATM    4  N1  UNL     1     -17.739   4.008  -9.044  1.00  0.00    -0.195 NA
ENDROOT
BRANCH   2   5
HETATM    5  N2  UNL     1     -16.769   1.944 -11.419  1.00  0.00    -0.402 N 
ATOM      6  H2  UNL     1     -15.860   1.938 -10.956  1.00  0.00     0.154 HD
BRANCH   5   7
HETATM    7  C4  UNL     1     -16.807   2.011 -12.803  1.00  0.00     0.077 C 
HETATM    8  C5  UNL     1     -16.633   3.310 -13.490  1.00  0.00     0.024 C 
HETATM    9  C6  UNL     1     -17.798   3.330 -14.492  1.00  0.00     0.002 C 
HETATM   10  C7  UNL     1     -18.293   1.911 -14.643  1.00  0.00     0.002 C 
HETATM   11  C8  UNL     1     -18.047   1.317 -13.301  1.00  0.00     0.024 C 
ENDBRANCH   5   7
ENDBRANCH   2   5
TORSDOF 2
ENDMDL
MODEL 5
REMARK VINA RESULT: -5.415577974      1.251      1.984
REMARK  2 active torsions:
REMARK  status: ('A' for Active; 'I' for Inactive)
REMARK    1  A    between atoms: C2_2  and  N2_5 
REMARK    2  A    between atoms: N2_5  and  C4_7 
ROOT
HETATM    1  C1  UNL     1     -17.430   0.718  -9.405  1.00  0.00     0.048 C 
HETATM    2  C2  UNL     1     -18.576   1.591  -9.746  1.00  0.00     0.181 C 
HETATM    3  C3  UNL     1     -18.307   2.982  -9.171  1.00  0.00     0.083 C 
HETATM    4  N1  UNL     1     -18.038   4.031  -8.856  1.00  0.00    -0.195 NA
ENDROOT
BRANCH   2   5
HETATM    5  N2  UNL     1     -18.780   1.767 -11.128  1.00  0.00    -0.402 N 
ATOM      6  H2  UNL     1     -19.727   1.948 -11.462  1.00  0.00     0.154 HD
BRANCH   5   7
HETATM    7  C4  UNL     1     -17.750   1.708 -12.054  1.00  0.00     0.077 C 
HETATM    8  C5  UNL     1     -16.823   2.850 -12.209  1.00  0.00     0.024 C 
HETATM    9  C6  UNL     1     -16.787   3.064 -13.730  1.00  0.00     0.002 C 
HETATM   10  C7  UNL     1     -17.314   1.806 -14.379  1.00  0.00     0.002 C 
HETATM   11  C8  UNL     1     -18.308   1.301 -13.393  1.00  0.00     0.024 C 
ENDBRANCH   5   7
ENDBRANCH   2   5
TORSDOF 2
ENDMDL
