MODEL 1
REMARK VINA RESULT: -4.879297498      0.000      0.000
REMARK  1 active torsions:
REMARK  status: ('A' for Active; 'I' for Inactive)
REMARK    1  A    between atoms: S1_2  and  C2_3 
ROOT
HETATM    1  C2  UNL     1     -17.044   1.439 -12.089  1.00  0.00     0.142 C 
HETATM    2  C3  UNL     1     -16.687   2.783 -11.609  1.00  0.00     0.036 C 
HETATM    3  C4  UNL     1     -17.160   3.225 -10.279  1.00  0.00     0.008 C 
HETATM    4  C5  UNL     1     -17.895   2.208  -9.468  1.00  0.00     0.044 C 
HETATM    5  C6  UNL     1     -17.562   0.788  -9.802  1.00  0.00     0.056 C 
HETATM    6  N1  UNL     1     -17.504   0.477 -11.173  1.00  0.00    -0.389 N 
ATOM      7  H1  UNL     1     -17.795  -0.444 -11.502  1.00  0.00     0.159 HD
ENDROOT
BRANCH   1   8
HETATM    8  S1  UNL     1     -18.277   1.541 -13.439  1.00  0.00    -0.148 SA
HETATM    9  C1  UNL     1     -17.507   1.585 -15.060  1.00  0.00     0.092 C 
ENDBRANCH   1   8
TORSDOF 1
ENDMDL
MODEL 2
REMARK VINA RESULT: -4.715035438      2.821      4.126
REMARK  1 active torsions:
REMARK  status: ('A' for Active; 'I' for Inactive)
REMARK    1  A    between atoms: S1_2  and  C2_3 
ROOT
HETATM    1  C2  UNL     1     -18.922   2.527  -9.049  1.00  0.00     0.142 C 
HETATM    2  C3  UNL     1     -17.973   3.609  -9.353  1.00  0.00     0.036 C 
HETATM    3  C4  UNL     1     -16.953   3.400 -10.404  1.00  0.00     0.008 C 
HETATM    4  C5  UNL     1     -17.037   2.114 -11.160  1.00  0.00     0.044 C 
HETATM    5  C6  UNL     1     -18.401   1.501 -11.192  1.00  0.00     0.056 C 
HETATM    6  N1  UNL     1     -19.094   1.478  -9.968  1.00  0.00    -0.389 N 
ATOM      7  H1  UNL     1     -19.718   0.701  -9.747  1.00  0.00     0.159 HD
ENDROOT
BRANCH   1   8
HETATM    8  S1  UNL     1     -18.546   1.774  -7.423  1.00  0.00    -0.148 SA
HETATM    9  C1  UNL     1     -16.838   2.031  -6.934  1.00  0.00     0.092 C 
ENDBRANCH   1   8
TORSDOF 1
ENDMDL
MODEL 3
REMARK VINA RESULT: -4.583412943      1.776      3.968
REMARK  1 active torsions:
REMARK  status: ('A' for Active; 'I' for Inactive)
REMARK    1  A    between atoms: S1_2  and  C2_3 
ROOT
HETATM    1  C2  UNL     1     -17.072   1.590 -12.356  1.00  0.00     0.142 C 
HETATM    2  C3  UNL     1     -17.590   1.007 -13.602  1.00  0.00     0.036 C 
HETATM    3  C4  UNL     1     -17.963   1.902 -14.719  1.00  0.00     0.008 C 
HETATM    4  C5  UNL     1     -17.680   3.356 -14.522  1.00  0.00     0.044 C 
HETATM    5  C6  UNL     1     -16.578   3.649 -13.555  1.00  0.00     0.056 C 
HETATM    6  N1  UNL     1     -16.602   2.915 -12.354  1.00  0.00    -0.389 N 
ATOM      7  H1  UNL     1     -16.280   3.343 -11.486  1.00  0.00     0.159 HD
ENDROOT
BRANCH   1   8
HETATM    8  S1  UNL     1     -18.307   1.449 -11.012  1.00  0.00    -0.148 SA
HETATM    9  C1  UNL     1     -17.582   0.844  -9.484  1.00  0.00     0.092 C 
ENDBRANCH   1   8
TORSDOF 1
ENDMDL
MODEL 4
REMARK VINA RESULT: -4.537040098      2.013      3.752
REMARK  1 active torsions:
REMARK  status: ('A' for Active; 'I' for Inactive)
REMARK    1  A    between atoms: S1_2  and  C2_3 
ROOT
HETATM    1  C2  UNL     1     -18.189   2.096 -10.284  1.00  0.00     0.142 C 
HETATM    2  C3  UNL     1     -17.171   3.074 -10.701  1.00  0.00     0.036 C 
HETATM    3  C4  UNL     1     -16.530   2.927 -12.026  1.00  0.00     0.008 C 
HETATM    4  C5  UNL     1     -17.053   1.832 -12.896  1.00  0.00     0.044 C 
HETATM    5  C6  UNL     1     -18.465   1.430 -12.608  1.00  0.00     0.056 C 
HETATM    6  N1  UNL     1     -18.794   1.273 -11.249  1.00  0.00    -0.389 N 
ATOM      7  H1  UNL     1     -19.470   0.563 -10.965  1.00  0.00     0.159 HD
ENDROOT
BRANCH   1   8
HETATM    8  S1  UNL     1     -17.537   1.004  -8.967  1.00  0.00    -0.148 SA
HETATM    9  C1  UNL     1     -17.188   1.902  -7.451  1.00  0.00     0.092 C 
ENDBRANCH   1   8
TORSDOF 1
ENDMDL
MODEL 5
REMARK VINA RESULT: -4.454354250      1.189      1.189
REMARK  1 active torsions:
REMARK  status: ('A' for Active; 'I' for Inactive)
REMARK    1  A    between atoms: S1_2  and  C2_3 
ROOT
HETATM    1  C2  UNL     1     -16.609   1.972 -11.955  1.00  0.00     0.142 C 
HETATM    2  C3  UNL     1     -16.710   3.142 -11.070  1.00  0.00     0.036 C 
HETATM    3  C4  UNL     1     -17.708   3.138  -9.978  1.00  0.00     0.008 C 
HETATM    4  C5  UNL     1     -18.482   1.874  -9.795  1.00  0.00     0.044 C 
HETATM    5  C6  UNL     1     -17.790   0.645 -10.293  1.00  0.00     0.056 C 
HETATM    6  N1  UNL     1     -17.181   0.751 -11.556  1.00  0.00    -0.389 N 
ATOM      7  H1  UNL     1     -17.153  -0.055 -12.181  1.00  0.00     0.159 HD
ENDROOT
BRANCH   1   8
HETATM    8  S1  UNL     1     -17.263   2.361 -13.620  1.00  0.00    -0.148 SA
HETATM    9  C1  UNL     1     -16.727   3.974 -14.200  1.00  0.00     0.092 C 
ENDBRANCH   1   8
TORSDOF 1
ENDMDL
