MODEL 1
REMARK VINA RESULT: -5.053480297      0.000      0.000
REMARK  1 active torsions:
REMARK  status: ('A' for Active; 'I' for Inactive)
REMARK    1  A    between atoms: N1_2  and  N3_6 
ROOT
HETATM    1  N3  UNL     1     -16.993   2.937 -12.493  1.00  0.00    -0.303 N 
HETATM    2  C2  UNL     1     -16.220   3.731 -11.556  1.00  0.00     0.145 C 
HETATM    3  C3  UNL     1     -16.856   3.600 -10.216  1.00  0.00     0.024 C 
HETATM    4  C4  UNL     1     -17.959   2.613 -10.430  1.00  0.00     0.033 C 
HETATM    5  C5  UNL     1     -17.622   1.912 -11.716  1.00  0.00     0.042 C 
HETATM    6  C6  UNL     1     -18.889   1.380 -12.325  1.00  0.00     0.039 C 
HETATM    7  C7  UNL     1     -16.644   0.786 -11.520  1.00  0.00     0.039 C 
ENDROOT
BRANCH   1   8
HETATM    8  N1  UNL     1     -17.036   3.218 -13.861  1.00  0.00    -0.247 N 
HETATM    9  C1  UNL     1     -16.819   2.221 -14.894  1.00  0.00     0.199 C 
HETATM   10  N2  UNL     1     -17.277   4.399 -14.258  1.00  0.00    -0.329 N 
ATOM     11  H22 UNL     1     -17.308   4.604 -15.257  1.00  0.00     0.178 HD
ATOM     12  H21 UNL     1     -17.430   5.099 -13.532  1.00  0.00     0.178 HD
ENDBRANCH   1   8
TORSDOF 1
ENDMDL
MODEL 2
REMARK VINA RESULT: -4.997673917      3.588      5.155
REMARK  1 active torsions:
REMARK  status: ('A' for Active; 'I' for Inactive)
REMARK    1  A    between atoms: N1_2  and  N3_6 
ROOT
HETATM    1  N3  UNL     1     -17.324   2.109  -8.401  1.00  0.00    -0.303 N 
HETATM    2  C2  UNL     1     -17.150   0.803  -9.012  1.00  0.00     0.145 C 
HETATM    3  C3  UNL     1     -18.218   0.635 -10.037  1.00  0.00     0.024 C 
HETATM    4  C4  UNL     1     -18.932   1.950 -10.040  1.00  0.00     0.033 C 
HETATM    5  C5  UNL     1     -17.988   2.916  -9.379  1.00  0.00     0.042 C 
HETATM    6  C6  UNL     1     -18.787   4.046  -8.792  1.00  0.00     0.039 C 
HETATM    7  C7  UNL     1     -16.962   3.464 -10.331  1.00  0.00     0.039 C 
ENDROOT
BRANCH   1   8
HETATM    8  N1  UNL     1     -16.887   2.397  -7.106  1.00  0.00    -0.247 N 
HETATM    9  C1  UNL     1     -17.571   1.947  -5.907  1.00  0.00     0.199 C 
HETATM   10  N2  UNL     1     -15.836   3.088  -6.931  1.00  0.00    -0.329 N 
ATOM     11  H22 UNL     1     -15.517   3.298  -5.985  1.00  0.00     0.178 HD
ATOM     12  H21 UNL     1     -15.356   3.403  -7.773  1.00  0.00     0.178 HD
ENDBRANCH   1   8
TORSDOF 1
ENDMDL
MODEL 3
REMARK VINA RESULT: -4.909320207      1.131      3.135
REMARK  1 active torsions:
REMARK  status: ('A' for Active; 'I' for Inactive)
REMARK    1  A    between atoms: N1_2  and  N3_6 
ROOT
HETATM    1  N3  UNL     1     -17.095   2.910 -12.827  1.00  0.00    -0.303 N 
HETATM    2  C2  UNL     1     -17.482   3.420 -14.130  1.00  0.00     0.145 C 
HETATM    3  C3  UNL     1     -17.593   2.260 -15.057  1.00  0.00     0.024 C 
HETATM    4  C4  UNL     1     -17.348   1.070 -14.185  1.00  0.00     0.033 C 
HETATM    5  C5  UNL     1     -17.560   1.558 -12.778  1.00  0.00     0.042 C 
HETATM    6  C6  UNL     1     -16.780   0.681 -11.839  1.00  0.00     0.039 C 
HETATM    7  C7  UNL     1     -19.011   1.560 -12.381  1.00  0.00     0.039 C 
ENDROOT
BRANCH   1   8
HETATM    8  N1  UNL     1     -16.405   3.685 -11.892  1.00  0.00    -0.247 N 
HETATM    9  C1  UNL     1     -16.772   3.769 -10.490  1.00  0.00     0.199 C 
HETATM   10  N2  UNL     1     -15.396   4.366 -12.253  1.00  0.00    -0.329 N 
ATOM     11  H22 UNL     1     -14.893   4.931 -11.569  1.00  0.00     0.178 HD
ATOM     12  H21 UNL     1     -15.138   4.306 -13.238  1.00  0.00     0.178 HD
ENDBRANCH   1   8
TORSDOF 1
ENDMDL
MODEL 4
REMARK VINA RESULT: -4.822890754      1.266      1.522
REMARK  1 active torsions:
REMARK  status: ('A' for Active; 'I' for Inactive)
REMARK    1  A    between atoms: N1_2  and  N3_6 
ROOT
HETATM    1  N3  UNL     1     -17.045   2.994 -11.597  1.00  0.00    -0.303 N 
HETATM    2  C2  UNL     1     -17.042   3.320 -10.183  1.00  0.00     0.145 C 
HETATM    3  C3  UNL     1     -18.206   2.635  -9.556  1.00  0.00     0.024 C 
HETATM    4  C4  UNL     1     -18.798   1.829 -10.668  1.00  0.00     0.033 C 
HETATM    5  C5  UNL     1     -17.719   1.736 -11.710  1.00  0.00     0.042 C 
HETATM    6  C6  UNL     1     -18.359   1.508 -13.050  1.00  0.00     0.039 C 
HETATM    7  C7  UNL     1     -16.735   0.634 -11.426  1.00  0.00     0.039 C 
ENDROOT
BRANCH   1   8
HETATM    8  N1  UNL     1     -16.471   3.825 -12.562  1.00  0.00    -0.247 N 
HETATM    9  C1  UNL     1     -17.045   4.046 -13.877  1.00  0.00     0.199 C 
HETATM   10  N2  UNL     1     -15.389   4.437 -12.309  1.00  0.00    -0.329 N 
ATOM     11  H22 UNL     1     -14.970   5.044 -13.014  1.00  0.00     0.178 HD
ATOM     12  H21 UNL     1     -14.986   4.282 -11.385  1.00  0.00     0.178 HD
ENDBRANCH   1   8
TORSDOF 1
ENDMDL
MODEL 5
REMARK VINA RESULT: -4.768228061      0.859      1.059
REMARK  1 active torsions:
REMARK  status: ('A' for Active; 'I' for Inactive)
REMARK    1  A    between atoms: N1_2  and  N3_6 
ROOT
HETATM    1  N3  UNL     1     -16.859   2.793 -12.681  1.00  0.00    -0.303 N 
HETATM    2  C2  UNL     1     -16.084   3.594 -11.751  1.00  0.00     0.145 C 
HETATM    3  C3  UNL     1     -16.796   3.586 -10.443  1.00  0.00     0.024 C 
HETATM    4  C4  UNL     1     -17.948   2.658 -10.659  1.00  0.00     0.033 C 
HETATM    5  C5  UNL     1     -17.591   1.859 -11.882  1.00  0.00     0.042 C 
HETATM    6  C6  UNL     1     -18.858   1.371 -12.527  1.00  0.00     0.039 C 
HETATM    7  C7  UNL     1     -16.701   0.689 -11.567  1.00  0.00     0.039 C 
ENDROOT
BRANCH   1   8
HETATM    8  N1  UNL     1     -16.813   2.991 -14.063  1.00  0.00    -0.247 N 
HETATM    9  C1  UNL     1     -16.758   4.301 -14.686  1.00  0.00     0.199 C 
HETATM   10  N2  UNL     1     -16.817   1.993 -14.847  1.00  0.00    -0.329 N 
ATOM     11  H22 UNL     1     -16.784   2.139 -15.856  1.00  0.00     0.178 HD
ATOM     12  H21 UNL     1     -16.856   1.073 -14.409  1.00  0.00     0.178 HD
ENDBRANCH   1   8
TORSDOF 1
ENDMDL
