MODEL 1
REMARK VINA RESULT: -7.937242633      0.000      0.000
REMARK  8 active torsions:
REMARK  status: ('A' for Active; 'I' for Inactive)
REMARK    1  A    between atoms: N5_12  and  C5_13 
REMARK    2  A    between atoms: C6_17  and  C7_18 
REMARK    3  A    between atoms: C7_18  and  N7_19 
REMARK    4  A    between atoms: C7_18  and  C8_23 
REMARK    5  A    between atoms: C8_23  and  O1_24 
REMARK    6  A    between atoms: C9_28  and  O2_29 
REMARK    7  A    between atoms: O2_29  and  C10_30 
REMARK    8  A    between atoms: C11_33  and  N12_34 
ROOT
HETATM    1  N1  UNL     1      11.165  10.838 115.263  1.00  0.00    -0.195 NA
HETATM    2  C1  UNL     1      12.069  11.300 115.834  1.00  0.00     0.089 C 
HETATM    3  C2  UNL     1      13.223  11.864 116.555  1.00  0.00     0.229 C 
HETATM    4  N2  UNL     1      14.430  11.381 115.968  1.00  0.00    -0.365 N 
ATOM      5  H2  UNL     1      15.021  11.966 115.377  1.00  0.00     0.161 HD
HETATM    6  C3  UNL     1      14.754  10.028 116.262  1.00  0.00     0.178 C 
HETATM    7  N3  UNL     1      14.111   9.456 117.406  1.00  0.00    -0.337 N 
ATOM      8  H3  UNL     1      14.036   8.443 117.503  1.00  0.00     0.168 HD
HETATM    9  C4  UNL     1      13.579  10.313 118.403  1.00  0.00     0.131 A 
HETATM   10  N4  UNL     1      13.389  10.230 119.734  1.00  0.00    -0.281 N 
ATOM     11  H4  UNL     1      13.631   9.430 120.318  1.00  0.00     0.189 HD
HETATM   12  N5  UNL     1      12.834  11.363 120.162  1.00  0.00    -0.266 N 
HETATM   13  C13 UNL     1      12.660  12.183 119.110  1.00  0.00     0.127 A 
HETATM   14  C14 UNL     1      13.119  11.546 117.998  1.00  0.00     0.041 A 
ENDROOT
BRANCH  12  15
HETATM   15  C5  UNL     1      12.506  11.582 121.554  1.00  0.00     0.354 C 
HETATM   16  N6  UNL     1      11.694  12.786 121.603  1.00  0.00    -0.027 N 
HETATM   17  C6  UNL     1      11.129  12.959 122.906  1.00  0.00     0.328 C 
ATOM     18  H62 UNL     1      12.218  13.608 121.305  1.00  0.00     0.281 HD
ATOM     19  H61 UNL     1      10.979  12.789 120.877  1.00  0.00     0.281 HD
HETATM   20  N8  UNL     1      11.888  12.208 123.875  1.00  0.00    -0.110 NA
HETATM   21  N9  UNL     1      13.258  12.345 123.681  1.00  0.00    -0.110 NA
HETATM   22  C9  UNL     1      13.711  11.805 122.413  1.00  0.00     0.286 C 
BRANCH  17  23
HETATM   23  C7  UNL     1       9.689  12.569 122.881  1.00  0.00     0.254 C 
BRANCH  23  24
HETATM   24  N7  UNL     1       9.419  11.252 123.370  1.00  0.00    -0.070 N 
ATOM     25  H73 UNL     1       8.636  11.270 124.024  1.00  0.00     0.274 HD
ATOM     26  H72 UNL     1       9.018  10.675 122.631  1.00  0.00     0.274 HD
ATOM     27  H71 UNL     1      10.220  10.781 123.791  1.00  0.00     0.274 HD
ENDBRANCH  23  24
BRANCH  23  28
HETATM   28  C8  UNL     1       8.794  13.580 123.576  1.00  0.00     0.200 C 
BRANCH  28  29
HETATM   29  O1  UNL     1       8.751  14.778 122.888  1.00  0.00    -0.399 OA
ATOM     30  H1  UNL     1       8.135  15.384 123.282  1.00  0.00     0.209 HD
ENDBRANCH  28  29
ENDBRANCH  23  28
ENDBRANCH  17  23
BRANCH  22  31
HETATM   31  O2  UNL     1      14.397  10.627 122.700  1.00  0.00    -0.319 OA
BRANCH  31  32
HETATM   32  C10 UNL     1      15.716  10.812 123.014  1.00  0.00     0.381 C 
HETATM   33  N10 UNL     1      15.973  10.710 124.418  1.00  0.00    -0.085 NA
HETATM   34  N11 UNL     1      17.155  11.442 124.587  1.00  0.00    -0.091 NA
HETATM   35  C11 UNL     1      17.459  12.030 123.308  1.00  0.00     0.342 C 
HETATM   36  O3  UNL     1      16.201  12.081 122.709  1.00  0.00    -0.305 OA
BRANCH  35  37
HETATM   37  N12 UNL     1      18.130  13.285 123.372  1.00  0.00    -0.326 N 
HETATM   38  C12 UNL     1      18.849  13.771 122.418  1.00  0.00     0.199 C 
HETATM   39  N13 UNL     1      18.966  12.988 121.235  1.00  0.00    -0.067 NA
HETATM   40  N14 UNL     1      19.499  15.024 122.521  1.00  0.00    -0.067 NA
ATOM     41  H12 UNL     1      18.036  13.834 124.227  1.00  0.00     0.165 HD
ENDBRANCH  35  37
ENDBRANCH  31  32
ENDBRANCH  22  31
ENDBRANCH  12  15
TORSDOF 8
ENDMDL
MODEL 2
REMARK VINA RESULT: -7.882376056      1.429      2.003
REMARK  8 active torsions:
REMARK  status: ('A' for Active; 'I' for Inactive)
REMARK    1  A    between atoms: N5_12  and  C5_13 
REMARK    2  A    between atoms: C6_17  and  C7_18 
REMARK    3  A    between atoms: C7_18  and  N7_19 
REMARK    4  A    between atoms: C7_18  and  C8_23 
REMARK    5  A    between atoms: C8_23  and  O1_24 
REMARK    6  A    between atoms: C9_28  and  O2_29 
REMARK    7  A    between atoms: O2_29  and  C10_30 
REMARK    8  A    between atoms: C11_33  and  N12_34 
ROOT
HETATM    1  N1  UNL     1      11.134  10.343 115.332  1.00  0.00    -0.195 NA
HETATM    2  C1  UNL     1      12.072  10.910 115.726  1.00  0.00     0.089 C 
HETATM    3  C2  UNL     1      13.269  11.607 116.226  1.00  0.00     0.229 C 
HETATM    4  N2  UNL     1      14.434  11.020 115.647  1.00  0.00    -0.365 N 
ATOM      5  H2  UNL     1      14.966  11.480 114.907  1.00  0.00     0.161 HD
HETATM    6  C3  UNL     1      14.805   9.751 116.171  1.00  0.00     0.178 C 
HETATM    7  N3  UNL     1      14.266   9.413 117.453  1.00  0.00    -0.337 N 
ATOM      8  H3  UNL     1      14.218   8.438 117.752  1.00  0.00     0.168 HD
HETATM    9  C4  UNL     1      13.800  10.447 118.305  1.00  0.00     0.131 A 
HETATM   10  N4  UNL     1      13.719  10.625 119.637  1.00  0.00    -0.281 N 
ATOM     11  H4  UNL     1      14.022   9.955 120.344  1.00  0.00     0.189 HD
HETATM   12  N5  UNL     1      13.180  11.819 119.880  1.00  0.00    -0.266 N 
HETATM   13  C13 UNL     1      12.907  12.417 118.708  1.00  0.00     0.127 A 
HETATM   14  C14 UNL     1      13.287  11.576 117.706  1.00  0.00     0.041 A 
ENDROOT
BRANCH  12  15
HETATM   15  C5  UNL     1      12.961  12.305 121.226  1.00  0.00     0.354 C 
HETATM   16  N6  UNL     1      11.796  13.172 121.168  1.00  0.00    -0.027 N 
HETATM   17  C6  UNL     1      11.361  13.521 122.485  1.00  0.00     0.328 C 
ATOM     18  H62 UNL     1      11.967  13.998 120.594  1.00  0.00     0.281 HD
ATOM     19  H61 UNL     1      11.044  12.759 120.618  1.00  0.00     0.281 HD
HETATM   20  N8  UNL     1      12.439  13.332 123.425  1.00  0.00    -0.110 NA
HETATM   21  N9  UNL     1      13.646  13.817 122.934  1.00  0.00    -0.110 NA
HETATM   22  C9  UNL     1      14.107  13.110 121.753  1.00  0.00     0.286 C 
BRANCH  17  23
HETATM   23  C7  UNL     1      10.150  12.723 122.838  1.00  0.00     0.254 C 
BRANCH  23  24
HETATM   24  N7  UNL     1      10.423  11.483 123.497  1.00  0.00    -0.070 N 
ATOM     25  H73 UNL     1      11.214  11.014 123.055  1.00  0.00     0.274 HD
ATOM     26  H72 UNL     1      10.814  11.652 124.423  1.00  0.00     0.274 HD
ATOM     27  H71 UNL     1       9.626  10.849 123.559  1.00  0.00     0.274 HD
ENDBRANCH  23  24
BRANCH  23  28
HETATM   28  C8  UNL     1       9.129  13.523 123.627  1.00  0.00     0.200 C 
BRANCH  28  29
HETATM   29  O1  UNL     1       8.707  14.638 122.929  1.00  0.00    -0.399 OA
ATOM     30  H1  UNL     1       8.350  14.405 122.080  1.00  0.00     0.209 HD
ENDBRANCH  28  29
ENDBRANCH  23  28
ENDBRANCH  17  23
BRANCH  22  31
HETATM   31  O2  UNL     1      15.183  12.321 122.152  1.00  0.00    -0.319 OA
BRANCH  31  32
HETATM   32  C10 UNL     1      16.202  13.022 122.739  1.00  0.00     0.381 C 
HETATM   33  N10 UNL     1      17.251  13.350 121.823  1.00  0.00    -0.085 NA
HETATM   34  N11 UNL     1      18.365  13.530 122.655  1.00  0.00    -0.091 NA
HETATM   35  C11 UNL     1      17.942  13.182 123.987  1.00  0.00     0.342 C 
HETATM   36  O3  UNL     1      16.877  12.319 123.734  1.00  0.00    -0.305 OA
BRANCH  35  37
HETATM   37  N12 UNL     1      18.962  12.628 124.811  1.00  0.00    -0.326 N 
HETATM   38  C12 UNL     1      19.088  12.875 126.071  1.00  0.00     0.199 C 
HETATM   39  N13 UNL     1      18.136  13.758 126.654  1.00  0.00    -0.067 NA
HETATM   40  N14 UNL     1      20.117  12.303 126.857  1.00  0.00    -0.067 NA
ATOM     41  H12 UNL     1      19.637  11.997 124.378  1.00  0.00     0.165 HD
ENDBRANCH  35  37
ENDBRANCH  31  32
ENDBRANCH  22  31
ENDBRANCH  12  15
TORSDOF 8
ENDMDL
MODEL 3
REMARK VINA RESULT: -7.761010102      3.011      6.060
REMARK  8 active torsions:
REMARK  status: ('A' for Active; 'I' for Inactive)
REMARK    1  A    between atoms: N5_12  and  C5_13 
REMARK    2  A    between atoms: C6_17  and  C7_18 
REMARK    3  A    between atoms: C7_18  and  N7_19 
REMARK    4  A    between atoms: C7_18  and  C8_23 
REMARK    5  A    between atoms: C8_23  and  O1_24 
REMARK    6  A    between atoms: C9_28  and  O2_29 
REMARK    7  A    between atoms: O2_29  and  C10_30 
REMARK    8  A    between atoms: C11_33  and  N12_34 
ROOT
HETATM    1  N1  UNL     1      12.629   6.651 127.410  1.00  0.00    -0.195 NA
HETATM    2  C1  UNL     1      13.373   6.570 126.518  1.00  0.00     0.089 C 
HETATM    3  C2  UNL     1      14.332   6.473 125.403  1.00  0.00     0.229 C 
HETATM    4  N2  UNL     1      15.552   5.904 125.877  1.00  0.00    -0.365 N 
ATOM      5  H2  UNL     1      15.822   4.943 125.666  1.00  0.00     0.161 HD
HETATM    6  C3  UNL     1      16.365   6.767 126.662  1.00  0.00     0.178 C 
HETATM    7  N3  UNL     1      16.109   8.170 126.535  1.00  0.00    -0.337 N 
ATOM      8  H3  UNL     1      16.409   8.817 127.264  1.00  0.00     0.168 HD
HETATM    9  C4  UNL     1      15.433   8.649 125.384  1.00  0.00     0.131 A 
HETATM   10  N4  UNL     1      15.448   9.794 124.674  1.00  0.00    -0.281 N 
ATOM     11  H4  UNL     1      16.025  10.610 124.877  1.00  0.00     0.189 HD
HETATM   12  N5  UNL     1      14.584   9.686 123.665  1.00  0.00    -0.266 N 
HETATM   13  C13 UNL     1      14.006   8.473 123.718  1.00  0.00     0.127 A 
HETATM   14  C14 UNL     1      14.522   7.806 124.787  1.00  0.00     0.041 A 
ENDROOT
BRANCH  12  15
HETATM   15  C5  UNL     1      14.371  10.758 122.716  1.00  0.00     0.354 C 
HETATM   16  N6  UNL     1      12.948  10.773 122.422  1.00  0.00    -0.027 N 
HETATM   17  C6  UNL     1      12.601  11.940 121.671  1.00  0.00     0.328 C 
ATOM     18  H62 UNL     1      12.650   9.918 121.952  1.00  0.00     0.281 HD
ATOM     19  H61 UNL     1      12.386  10.686 123.268  1.00  0.00     0.281 HD
HETATM   20  N8  UNL     1      13.775  12.479 121.029  1.00  0.00    -0.110 NA
HETATM   21  N9  UNL     1      14.556  11.483 120.455  1.00  0.00    -0.110 NA
HETATM   22  C9  UNL     1      15.105  10.556 121.428  1.00  0.00     0.286 C 
BRANCH  17  23
HETATM   23  C7  UNL     1      11.935  12.930 122.567  1.00  0.00     0.254 C 
BRANCH  23  24
HETATM   24  N7  UNL     1      11.732  14.221 121.985  1.00  0.00    -0.070 N 
ATOM     25  H73 UNL     1      12.165  14.942 122.562  1.00  0.00     0.274 HD
ATOM     26  H72 UNL     1      12.288  14.317 121.136  1.00  0.00     0.274 HD
ATOM     27  H71 UNL     1      10.757  14.455 121.798  1.00  0.00     0.274 HD
ENDBRANCH  23  24
BRANCH  23  28
HETATM   28  C8  UNL     1      10.636  12.410 123.155  1.00  0.00     0.200 C 
BRANCH  28  29
HETATM   29  O1  UNL     1       9.556  12.708 122.346  1.00  0.00    -0.399 OA
ATOM     30  H1  UNL     1       9.185  11.926 121.956  1.00  0.00     0.209 HD
ENDBRANCH  28  29
ENDBRANCH  23  28
ENDBRANCH  17  23
BRANCH  22  31
HETATM   31  O2  UNL     1      16.464  10.839 121.529  1.00  0.00    -0.319 OA
BRANCH  31  32
HETATM   32  C10 UNL     1      16.774  11.747 122.506  1.00  0.00     0.381 C 
HETATM   33  N10 UNL     1      17.302  12.969 121.981  1.00  0.00    -0.085 NA
HETATM   34  N11 UNL     1      18.040  13.492 123.052  1.00  0.00    -0.091 NA
HETATM   35  C11 UNL     1      18.006  12.499 124.095  1.00  0.00     0.342 C 
HETATM   36  O3  UNL     1      17.783  11.329 123.371  1.00  0.00    -0.305 OA
BRANCH  35  37
HETATM   37  N12 UNL     1      19.165  12.465 124.922  1.00  0.00    -0.326 N 
HETATM   38  C12 UNL     1      19.209  12.928 126.126  1.00  0.00     0.199 C 
HETATM   39  N13 UNL     1      18.014  13.503 126.640  1.00  0.00    -0.067 NA
HETATM   40  N14 UNL     1      20.382  12.873 126.916  1.00  0.00    -0.067 NA
ATOM     41  H12 UNL     1      20.014  12.048 124.539  1.00  0.00     0.165 HD
ENDBRANCH  35  37
ENDBRANCH  31  32
ENDBRANCH  22  31
ENDBRANCH  12  15
TORSDOF 8
ENDMDL
MODEL 4
REMARK VINA RESULT: -7.321931860      3.652      7.763
REMARK  8 active torsions:
REMARK  status: ('A' for Active; 'I' for Inactive)
REMARK    1  A    between atoms: N5_12  and  C5_13 
REMARK    2  A    between atoms: C6_17  and  C7_18 
REMARK    3  A    between atoms: C7_18  and  N7_19 
REMARK    4  A    between atoms: C7_18  and  C8_23 
REMARK    5  A    between atoms: C8_23  and  O1_24 
REMARK    6  A    between atoms: C9_28  and  O2_29 
REMARK    7  A    between atoms: O2_29  and  C10_30 
REMARK    8  A    between atoms: C11_33  and  N12_34 
ROOT
HETATM    1  N1  UNL     1      14.417  11.016 119.424  1.00  0.00    -0.195 NA
HETATM    2  C1  UNL     1      14.646  11.037 120.566  1.00  0.00     0.089 C 
HETATM    3  C2  UNL     1      14.926  11.085 122.011  1.00  0.00     0.229 C 
HETATM    4  N2  UNL     1      13.848  11.736 122.681  1.00  0.00    -0.365 N 
ATOM      5  H2  UNL     1      13.163  11.223 123.237  1.00  0.00     0.161 HD
HETATM    6  C3  UNL     1      13.793  13.148 122.521  1.00  0.00     0.178 C 
HETATM    7  N3  UNL     1      15.002  13.787 122.099  1.00  0.00    -0.337 N 
ATOM      8  H3  UNL     1      14.974  14.710 121.667  1.00  0.00     0.168 HD
HETATM    9  C4  UNL     1      16.240  13.121 122.288  1.00  0.00     0.131 A 
HETATM   10  N4  UNL     1      17.511  13.509 122.509  1.00  0.00    -0.281 N 
ATOM     11  H4  UNL     1      17.831  14.474 122.587  1.00  0.00     0.189 HD
HETATM   12  N5  UNL     1      18.281  12.425 122.608  1.00  0.00    -0.266 N 
HETATM   13  C13 UNL     1      17.513  11.334 122.450  1.00  0.00     0.127 A 
HETATM   14  C14 UNL     1      16.231  11.744 122.248  1.00  0.00     0.041 A 
ENDROOT
BRANCH  12  15
HETATM   15  C5  UNL     1      19.706  12.513 122.847  1.00  0.00     0.354 C 
HETATM   16  N6  UNL     1      20.352  11.797 121.761  1.00  0.00    -0.027 N 
HETATM   17  C6  UNL     1      21.765  12.019 121.781  1.00  0.00     0.328 C 
ATOM     18  H62 UNL     1      20.125  10.803 121.775  1.00  0.00     0.281 HD
ATOM     19  H61 UNL     1      19.944  12.033 120.857  1.00  0.00     0.281 HD
HETATM   20  N8  UNL     1      22.175  12.457 123.092  1.00  0.00    -0.110 NA
HETATM   21  N9  UNL     1      21.568  11.717 124.100  1.00  0.00    -0.110 NA
HETATM   22  C9  UNL     1      20.126  11.874 124.133  1.00  0.00     0.286 C 
BRANCH  17  23
HETATM   23  C7  UNL     1      22.131  12.994 120.712  1.00  0.00     0.254 C 
BRANCH  23  24
HETATM   24  N7  UNL     1      21.104  13.235 119.746  1.00  0.00    -0.070 N 
ATOM     25  H73 UNL     1      20.508  12.413 119.650  1.00  0.00     0.274 HD
ATOM     26  H72 UNL     1      20.426  13.903 120.109  1.00  0.00     0.274 HD
ATOM     27  H71 UNL     1      21.442  13.536 118.831  1.00  0.00     0.274 HD
ENDBRANCH  23  24
BRANCH  23  28
HETATM   28  C8  UNL     1      22.647  14.309 121.268  1.00  0.00     0.200 C 
BRANCH  28  29
HETATM   29  O1  UNL     1      21.612  15.150 121.629  1.00  0.00    -0.399 OA
ATOM     30  H1  UNL     1      21.716  16.015 121.249  1.00  0.00     0.209 HD
ENDBRANCH  28  29
ENDBRANCH  23  28
ENDBRANCH  17  23
BRANCH  22  31
HETATM   31  O2  UNL     1      19.832  12.657 125.247  1.00  0.00    -0.319 OA
BRANCH  31  32
HETATM   32  C10 UNL     1      18.799  12.180 126.009  1.00  0.00     0.381 C 
HETATM   33  N10 UNL     1      19.158  12.000 127.382  1.00  0.00    -0.085 NA
HETATM   34  N11 UNL     1      18.242  11.041 127.835  1.00  0.00    -0.091 NA
HETATM   35  C11 UNL     1      17.482  10.625 126.685  1.00  0.00     0.342 C 
HETATM   36  O3  UNL     1      18.362  10.910 125.641  1.00  0.00    -0.305 OA
BRANCH  35  37
HETATM   37  N12 UNL     1      17.035   9.274 126.723  1.00  0.00    -0.326 N 
HETATM   38  C12 UNL     1      15.868   8.887 126.330  1.00  0.00     0.199 C 
HETATM   39  N13 UNL     1      14.990   9.888 125.830  1.00  0.00    -0.067 NA
HETATM   40  N14 UNL     1      15.462   7.531 126.384  1.00  0.00    -0.067 NA
ATOM     41  H12 UNL     1      17.676   8.568 127.084  1.00  0.00     0.165 HD
ENDBRANCH  35  37
ENDBRANCH  31  32
ENDBRANCH  22  31
ENDBRANCH  12  15
TORSDOF 8
ENDMDL
MODEL 5
REMARK VINA RESULT: -7.220729368      1.142      1.951
REMARK  8 active torsions:
REMARK  status: ('A' for Active; 'I' for Inactive)
REMARK    1  A    between atoms: N5_12  and  C5_13 
REMARK    2  A    between atoms: C6_17  and  C7_18 
REMARK    3  A    between atoms: C7_18  and  N7_19 
REMARK    4  A    between atoms: C7_18  and  C8_23 
REMARK    5  A    between atoms: C8_23  and  O1_24 
REMARK    6  A    between atoms: C9_28  and  O2_29 
REMARK    7  A    between atoms: O2_29  and  C10_30 
REMARK    8  A    between atoms: C11_33  and  N12_34 
ROOT
HETATM    1  N1  UNL     1      16.666   9.142 118.333  1.00  0.00    -0.195 NA
HETATM    2  C1  UNL     1      15.506   9.149 118.241  1.00  0.00     0.089 C 
HETATM    3  C2  UNL     1      14.038   9.176 118.111  1.00  0.00     0.229 C 
HETATM    4  N2  UNL     1      13.688   9.570 116.785  1.00  0.00    -0.365 N 
ATOM      5  H2  UNL     1      13.336   8.905 116.095  1.00  0.00     0.161 HD
HETATM    6  C3  UNL     1      13.861  10.950 116.491  1.00  0.00     0.178 C 
HETATM    7  N3  UNL     1      13.942  11.833 117.615  1.00  0.00    -0.337 N 
ATOM      8  H3  UNL     1      14.368  12.755 117.517  1.00  0.00     0.168 HD
HETATM    9  C4  UNL     1      13.423  11.412 118.866  1.00  0.00     0.131 A 
HETATM   10  N4  UNL     1      12.867  12.029 119.927  1.00  0.00    -0.281 N 
ATOM     11  H4  UNL     1      12.709  13.032 120.013  1.00  0.00     0.189 HD
HETATM   12  N5  UNL     1      12.559  11.112 120.844  1.00  0.00    -0.266 N 
HETATM   13  C13 UNL     1      12.916   9.902 120.383  1.00  0.00     0.127 A 
HETATM   14  C14 UNL     1      13.459  10.064 119.145  1.00  0.00     0.041 A 
ENDROOT
BRANCH  12  15
HETATM   15  C5  UNL     1      11.944  11.464 122.107  1.00  0.00     0.354 C 
HETATM   16  N6  UNL     1      11.098  12.615 121.847  1.00  0.00    -0.027 N 
HETATM   17  C6  UNL     1      10.271  12.898 122.980  1.00  0.00     0.328 C 
ATOM     18  H62 UNL     1      11.642  13.430 121.564  1.00  0.00     0.281 HD
ATOM     19  H61 UNL     1      10.547  12.497 120.998  1.00  0.00     0.281 HD
HETATM   20  N8  UNL     1      10.840  12.304 124.165  1.00  0.00    -0.110 NA
HETATM   21  N9  UNL     1      12.215  12.499 124.234  1.00  0.00    -0.110 NA
HETATM   22  C9  UNL     1      12.938  11.851 123.156  1.00  0.00     0.286 C 
BRANCH  17  23
HETATM   23  C7  UNL     1       8.881  12.423 122.714  1.00  0.00     0.254 C 
BRANCH  23  24
HETATM   24  N7  UNL     1       8.537  11.193 123.359  1.00  0.00    -0.070 N 
ATOM     25  H73 UNL     1       9.376  10.725 123.700  1.00  0.00     0.274 HD
ATOM     26  H72 UNL     1       8.066  11.377 124.245  1.00  0.00     0.274 HD
ATOM     27  H71 UNL     1       7.982  10.554 122.790  1.00  0.00     0.274 HD
ENDBRANCH  23  24
BRANCH  23  28
HETATM   28  C8  UNL     1       7.832  13.481 123.008  1.00  0.00     0.200 C 
BRANCH  28  29
HETATM   29  O1  UNL     1       8.385  14.746 123.055  1.00  0.00    -0.399 OA
ATOM     30  H1  UNL     1       8.366  15.167 122.203  1.00  0.00     0.209 HD
ENDBRANCH  28  29
ENDBRANCH  23  28
ENDBRANCH  17  23
BRANCH  22  31
HETATM   31  O2  UNL     1      13.591  10.754 123.714  1.00  0.00    -0.319 OA
BRANCH  31  32
HETATM   32  C10 UNL     1      14.954  10.800 123.603  1.00  0.00     0.381 C 
HETATM   33  N10 UNL     1      15.622  10.553 124.844  1.00  0.00    -0.085 NA
HETATM   34  N11 UNL     1      16.869  11.167 124.672  1.00  0.00    -0.091 NA
HETATM   35  C11 UNL     1      16.822  11.840 123.399  1.00  0.00     0.342 C 
HETATM   36  O3  UNL     1      15.453  12.048 123.235  1.00  0.00    -0.305 OA
BRANCH  35  37
HETATM   37  N12 UNL     1      17.608  13.025 123.322  1.00  0.00    -0.326 N 
HETATM   38  C12 UNL     1      18.555  13.210 122.465  1.00  0.00     0.199 C 
HETATM   39  N13 UNL     1      18.813  12.152 121.550  1.00  0.00    -0.067 NA
HETATM   40  N14 UNL     1      19.314  14.404 122.421  1.00  0.00    -0.067 NA
ATOM     41  H12 UNL     1      17.411  13.774 123.986  1.00  0.00     0.165 HD
ENDBRANCH  35  37
ENDBRANCH  31  32
ENDBRANCH  22  31
ENDBRANCH  12  15
TORSDOF 8
ENDMDL
