MODEL 1
REMARK VINA RESULT: -6.911464475      0.000      0.000
REMARK  13 active torsions:
REMARK  status: ('A' for Active; 'I' for Inactive)
REMARK    1  A    between atoms: N1_1  and  C1_4 
REMARK    2  A    between atoms: C2_7  and  N3_8 
REMARK    3  A    between atoms: N3_8  and  C3_10 
REMARK    4  A    between atoms: C3_10  and  O1_11 
REMARK    5  A    between atoms: C3_10  and  C4_13 
REMARK    6  A    between atoms: C4_13  and  N4_14 
REMARK    7  A    between atoms: C5_18  and  C6_19 
REMARK    8  A    between atoms: C6_19  and  O2_20 
REMARK    9  A    between atoms: C8_23  and  O3_24 
REMARK   10  A    between atoms: C9_26  and  O4_27 
REMARK   11  A    between atoms: C9_26  and  N5_29 
REMARK   12  A    between atoms: C13_39  and  O7_40 
REMARK   13  A    between atoms: C14_42  and  O8_43 
ROOT
HETATM    1  C1  UNL     1      17.838  11.519 124.849  1.00  0.00     0.679 A 
HETATM    2  N2  UNL     1      16.898  10.637 124.540  1.00  0.00    -0.176 N 
ATOM      3  H2  UNL     1      16.845   9.790 125.107  1.00  0.00     0.186 HD
HETATM    4  C2  UNL     1      15.997  10.770 123.530  1.00  0.00     0.132 A 
HETATM    5  C5  UNL     1      16.064  11.922 122.759  1.00  0.00     0.074 A 
HETATM    6  C14 UNL     1      17.043  12.841 123.076  1.00  0.00     0.168 A 
HETATM    7  N8  UNL     1      17.902  12.617 124.112  1.00  0.00    -0.170 N 
ATOM      8  H8  UNL     1      18.614  13.315 124.324  1.00  0.00     0.186 HD
ENDROOT
BRANCH   5   9
HETATM    9  C6  UNL     1      15.115  12.181 121.698  1.00  0.00     0.126 C 
HETATM   10  C7  UNL     1      13.792  12.702 122.333  1.00  0.00     0.083 C 
HETATM   11  C8  UNL     1      12.942  12.894 121.011  1.00  0.00     0.180 C 
HETATM   12  C9  UNL     1      13.128  11.493 120.498  1.00  0.00     0.198 C 
HETATM   13  C13 UNL     1      14.535  11.046 120.927  1.00  0.00     0.216 C 
BRANCH   9  14
HETATM   14  O2  UNL     1      15.540  13.262 120.914  1.00  0.00    -0.382 OA
ATOM     15  H2  UNL     1      15.853  12.957 120.071  1.00  0.00     0.211 HD
ENDBRANCH   9  14
BRANCH  11  16
HETATM   16  O3  UNL     1      11.639  13.133 121.353  1.00  0.00    -0.390 OA
ATOM     17  H3  UNL     1      11.084  12.504 120.907  1.00  0.00     0.210 HD
ENDBRANCH  11  16
BRANCH  12  18
HETATM   18  O4  UNL     1      12.140  10.714 121.155  1.00  0.00    -0.366 OA
ATOM     19  H4  UNL     1      11.339  11.222 121.101  1.00  0.00     0.212 HD
ENDBRANCH  12  18
BRANCH  12  20
HETATM   20  N5  UNL     1      12.862  11.413 119.118  1.00  0.00    -0.257 N 
HETATM   21  C10 UNL     1      12.830  12.473 118.304  1.00  0.00     0.195 A 
HETATM   22  N6  UNL     1      12.571  12.404 116.986  1.00  0.00    -0.304 N 
HETATM   23  C11 UNL     1      12.324  11.220 116.408  1.00  0.00     0.329 A 
ATOM     24  H6  UNL     1      12.563  13.256 116.424  1.00  0.00     0.171 HD
HETATM   25  O5  UNL     1      12.077  11.147 115.160  1.00  0.00    -0.247 OA
HETATM   26  N7  UNL     1      12.346  10.129 117.183  1.00  0.00    -0.260 N 
HETATM   27  C12 UNL     1      12.606  10.217 118.495  1.00  0.00     0.334 A 
ATOM     28  H7  UNL     1      12.162   9.216 116.768  1.00  0.00     0.175 HD
HETATM   29  O6  UNL     1      12.621   9.185 119.203  1.00  0.00    -0.246 OA
ENDBRANCH  12  20
BRANCH  13  30
HETATM   30  O7  UNL     1      15.147  10.680 119.751  1.00  0.00    -0.387 OA
ATOM     31  H7  UNL     1      15.055   9.781 119.459  1.00  0.00     0.210 HD
ENDBRANCH  13  30
ENDBRANCH   5   9
BRANCH   4  32
HETATM   32  N3  UNL     1      15.098   9.728 123.261  1.00  0.00    -0.348 N 
ATOM     33  H3  UNL     1      14.652   9.642 122.348  1.00  0.00     0.163 HD
BRANCH  32  34
HETATM   34  C3  UNL     1      14.821   8.768 124.328  1.00  0.00     0.244 C 
BRANCH  34  35
HETATM   35  O1  UNL     1      14.415   9.442 125.481  1.00  0.00    -0.375 OA
ATOM     36  H1  UNL     1      14.133   8.818 126.139  1.00  0.00     0.212 HD
ENDBRANCH  34  35
BRANCH  34  37
HETATM   37  C4  UNL     1      13.693   7.830 123.953  1.00  0.00     0.282 C 
BRANCH  37  38
HETATM   38  N4  UNL     1      12.644   8.510 123.223  1.00  0.00    -0.075 N 
ATOM     39  H43 UNL     1      11.938   7.854 122.891  1.00  0.00     0.274 HD
ATOM     40  H42 UNL     1      12.062   9.071 123.846  1.00  0.00     0.274 HD
ATOM     41  H41 UNL     1      13.016   9.073 122.457  1.00  0.00     0.274 HD
ENDBRANCH  37  38
ENDBRANCH  34  37
ENDBRANCH  32  34
ENDBRANCH   4  32
BRANCH   6  42
HETATM   42  O8  UNL     1      17.284  14.044 122.435  1.00  0.00    -0.345 OA
ATOM     43  H8  UNL     1      16.633  14.629 122.064  1.00  0.00     0.219 HD
ENDBRANCH   6  42
BRANCH   1  44
HETATM   44  N1  UNL     1      18.666  11.323 125.834  1.00  0.00    -0.234 N 
ATOM     45  H12 UNL     1      19.402  10.621 125.770  1.00  0.00     0.174 HD
ATOM     46  H11 UNL     1      18.609  11.861 126.700  1.00  0.00     0.174 HD
ENDBRANCH   1  44
TORSDOF 13
ENDMDL
MODEL 2
REMARK VINA RESULT: -6.444947332      1.242      1.289
REMARK  13 active torsions:
REMARK  status: ('A' for Active; 'I' for Inactive)
REMARK    1  A    between atoms: N1_1  and  C1_4 
REMARK    2  A    between atoms: C2_7  and  N3_8 
REMARK    3  A    between atoms: N3_8  and  C3_10 
REMARK    4  A    between atoms: C3_10  and  O1_11 
REMARK    5  A    between atoms: C3_10  and  C4_13 
REMARK    6  A    between atoms: C4_13  and  N4_14 
REMARK    7  A    between atoms: C5_18  and  C6_19 
REMARK    8  A    between atoms: C6_19  and  O2_20 
REMARK    9  A    between atoms: C8_23  and  O3_24 
REMARK   10  A    between atoms: C9_26  and  O4_27 
REMARK   11  A    between atoms: C9_26  and  N5_29 
REMARK   12  A    between atoms: C13_39  and  O7_40 
REMARK   13  A    between atoms: C14_42  and  O8_43 
ROOT
HETATM    1  C1  UNL     1      17.930  11.516 124.454  1.00  0.00     0.679 A 
HETATM    2  N2  UNL     1      17.216  10.526 123.938  1.00  0.00    -0.176 N 
ATOM      3  H2  UNL     1      17.376   9.589 124.311  1.00  0.00     0.186 HD
HETATM    4  C2  UNL     1      16.289  10.655 122.952  1.00  0.00     0.132 A 
HETATM    5  C5  UNL     1      16.066  11.928 122.445  1.00  0.00     0.074 A 
HETATM    6  C14 UNL     1      16.808  12.961 122.978  1.00  0.00     0.168 A 
HETATM    7  N8  UNL     1      17.718  12.730 123.968  1.00  0.00    -0.170 N 
ATOM      8  H8  UNL     1      18.251  13.514 124.344  1.00  0.00     0.186 HD
ENDROOT
BRANCH   5   9
HETATM    9  C6  UNL     1      15.061  12.177 121.434  1.00  0.00     0.126 C 
HETATM   10  C7  UNL     1      13.752  12.635 122.142  1.00  0.00     0.083 C 
HETATM   11  C8  UNL     1      12.835  12.827 120.865  1.00  0.00     0.180 C 
HETATM   12  C9  UNL     1      13.046  11.446 120.309  1.00  0.00     0.198 C 
HETATM   13  C13 UNL     1      14.486  11.040 120.662  1.00  0.00     0.216 C 
BRANCH   9  14
HETATM   14  O2  UNL     1      15.412  13.290 120.659  1.00  0.00    -0.382 OA
ATOM     15  H2  UNL     1      15.641  13.022 119.777  1.00  0.00     0.211 HD
ENDBRANCH   9  14
BRANCH  11  16
HETATM   16  O3  UNL     1      11.542  13.011 121.271  1.00  0.00    -0.390 OA
ATOM     17  H3  UNL     1      10.959  12.745 120.570  1.00  0.00     0.210 HD
ENDBRANCH  11  16
BRANCH  12  18
HETATM   18  O4  UNL     1      12.118  10.617 120.991  1.00  0.00    -0.366 OA
ATOM     19  H4  UNL     1      11.285  10.756 120.554  1.00  0.00     0.212 HD
ENDBRANCH  12  18
BRANCH  12  20
HETATM   20  N5  UNL     1      12.720  11.389 118.941  1.00  0.00    -0.257 N 
HETATM   21  C10 UNL     1      12.569  12.468 118.166  1.00  0.00     0.195 A 
HETATM   22  N6  UNL     1      12.252  12.421 116.860  1.00  0.00    -0.304 N 
HETATM   23  C11 UNL     1      12.065  11.239 116.254  1.00  0.00     0.329 A 
ATOM     24  H6  UNL     1      12.153  13.285 116.328  1.00  0.00     0.171 HD
HETATM   25  O5  UNL     1      11.764  11.186 115.017  1.00  0.00    -0.247 OA
HETATM   26  N7  UNL     1      12.206  10.130 116.989  1.00  0.00    -0.260 N 
HETATM   27  C12 UNL     1      12.523  10.196 118.289  1.00  0.00     0.334 A 
ATOM     28  H7  UNL     1      12.070   9.218 116.552  1.00  0.00     0.175 HD
HETATM   29  O6  UNL     1      12.649   9.147 118.960  1.00  0.00    -0.246 OA
ENDBRANCH  12  20
BRANCH  13  30
HETATM   30  O7  UNL     1      15.056  10.724 119.451  1.00  0.00    -0.387 OA
ATOM     31  H7  UNL     1      15.583  11.385 119.018  1.00  0.00     0.210 HD
ENDBRANCH  13  30
ENDBRANCH   5   9
BRANCH   4  32
HETATM   32  N3  UNL     1      15.654   9.513 122.441  1.00  0.00    -0.348 N 
ATOM     33  H3  UNL     1      14.673   9.537 122.165  1.00  0.00     0.163 HD
BRANCH  32  34
HETATM   34  C3  UNL     1      16.442   8.288 122.318  1.00  0.00     0.244 C 
BRANCH  34  35
HETATM   35  O1  UNL     1      16.639   7.719 123.577  1.00  0.00    -0.375 OA
ATOM     36  H1  UNL     1      17.337   7.077 123.537  1.00  0.00     0.212 HD
ENDBRANCH  34  35
BRANCH  34  37
HETATM   37  C4  UNL     1      15.728   7.250 121.478  1.00  0.00     0.282 C 
BRANCH  37  38
HETATM   38  N4  UNL     1      15.299   7.788 120.204  1.00  0.00    -0.075 N 
ATOM     39  H43 UNL     1      15.690   8.716 120.043  1.00  0.00     0.274 HD
ATOM     40  H42 UNL     1      15.736   7.292 119.427  1.00  0.00     0.274 HD
ATOM     41  H41 UNL     1      14.283   7.793 120.116  1.00  0.00     0.274 HD
ENDBRANCH  37  38
ENDBRANCH  34  37
ENDBRANCH  32  34
ENDBRANCH   4  32
BRANCH   6  42
HETATM   42  O8  UNL     1      16.747  14.295 122.613  1.00  0.00    -0.345 OA
ATOM     43  H8  UNL     1      16.252  14.663 121.890  1.00  0.00     0.219 HD
ENDBRANCH   6  42
BRANCH   1  44
HETATM   44  N1  UNL     1      18.800  11.315 125.400  1.00  0.00    -0.234 N 
ATOM     45  H12 UNL     1      19.585  11.951 125.536  1.00  0.00     0.174 HD
ATOM     46  H11 UNL     1      18.731  10.520 126.035  1.00  0.00     0.174 HD
ENDBRANCH   1  44
TORSDOF 13
ENDMDL
MODEL 3
REMARK VINA RESULT: -6.289543566      3.021      6.171
REMARK  13 active torsions:
REMARK  status: ('A' for Active; 'I' for Inactive)
REMARK    1  A    between atoms: N1_1  and  C1_4 
REMARK    2  A    between atoms: C2_7  and  N3_8 
REMARK    3  A    between atoms: N3_8  and  C3_10 
REMARK    4  A    between atoms: C3_10  and  O1_11 
REMARK    5  A    between atoms: C3_10  and  C4_13 
REMARK    6  A    between atoms: C4_13  and  N4_14 
REMARK    7  A    between atoms: C5_18  and  C6_19 
REMARK    8  A    between atoms: C6_19  and  O2_20 
REMARK    9  A    between atoms: C8_23  and  O3_24 
REMARK   10  A    between atoms: C9_26  and  O4_27 
REMARK   11  A    between atoms: C9_26  and  N5_29 
REMARK   12  A    between atoms: C13_39  and  O7_40 
REMARK   13  A    between atoms: C14_42  and  O8_43 
ROOT
HETATM    1  C1  UNL     1      11.026  13.089 122.595  1.00  0.00     0.679 A 
HETATM    2  N2  UNL     1      11.368  11.814 122.714  1.00  0.00    -0.176 N 
ATOM      3  H2  UNL     1      10.614  11.134 122.813  1.00  0.00     0.186 HD
HETATM    4  C2  UNL     1      12.643  11.338 122.713  1.00  0.00     0.132 A 
HETATM    5  C5  UNL     1      13.670  12.259 122.574  1.00  0.00     0.074 A 
HETATM    6  C14 UNL     1      13.319  13.588 122.453  1.00  0.00     0.168 A 
HETATM    7  N8  UNL     1      12.009  13.967 122.465  1.00  0.00    -0.170 N 
ATOM      8  H8  UNL     1      11.779  14.956 122.372  1.00  0.00     0.186 HD
ENDROOT
BRANCH   5   9
HETATM    9  C6  UNL     1      15.055  11.847 122.506  1.00  0.00     0.126 C 
HETATM   10  C7  UNL     1      15.431  11.151 123.847  1.00  0.00     0.083 C 
HETATM   11  C8  UNL     1      16.947  10.814 123.535  1.00  0.00     0.180 C 
HETATM   12  C9  UNL     1      17.351  12.218 123.179  1.00  0.00     0.198 C 
HETATM   13  C13 UNL     1      16.137  12.872 122.501  1.00  0.00     0.216 C 
BRANCH   9  14
HETATM   14  O2  UNL     1      15.216  10.826 121.560  1.00  0.00    -0.382 OA
ATOM     15  H2  UNL     1      15.859  11.076 120.907  1.00  0.00     0.211 HD
ENDBRANCH   9  14
BRANCH  11  16
HETATM   16  O3  UNL     1      17.554  10.394 124.687  1.00  0.00    -0.390 OA
ATOM     17  H3  UNL     1      18.034   9.594 124.507  1.00  0.00     0.210 HD
ENDBRANCH  11  16
BRANCH  12  18
HETATM   18  O4  UNL     1      17.630  12.857 124.416  1.00  0.00    -0.366 OA
ATOM     19  H4  UNL     1      17.920  13.733 124.190  1.00  0.00     0.212 HD
ENDBRANCH  12  18
BRANCH  12  20
HETATM   20  N5  UNL     1      18.543  12.235 122.432  1.00  0.00    -0.257 N 
HETATM   21  C10 UNL     1      19.081  11.149 121.864  1.00  0.00     0.195 A 
HETATM   22  N6  UNL     1      20.223  11.157 121.154  1.00  0.00    -0.304 N 
HETATM   23  C11 UNL     1      20.898  12.301 120.976  1.00  0.00     0.329 A 
ATOM     24  H6  UNL     1      20.575  10.290 120.748  1.00  0.00     0.171 HD
HETATM   25  O5  UNL     1      21.982  12.316 120.304  1.00  0.00    -0.247 OA
HETATM   26  N7  UNL     1      20.399  13.415 121.525  1.00  0.00    -0.260 N 
HETATM   27  C12 UNL     1      19.260  13.388 122.230  1.00  0.00     0.334 A 
ATOM     28  H7  UNL     1      20.894  14.299 121.404  1.00  0.00     0.175 HD
HETATM   29  O6  UNL     1      18.809  14.441 122.736  1.00  0.00    -0.246 OA
ENDBRANCH  12  20
BRANCH  13  30
HETATM   30  O7  UNL     1      16.618  13.302 121.287  1.00  0.00    -0.387 OA
ATOM     31  H7  UNL     1      16.935  14.196 121.222  1.00  0.00     0.210 HD
ENDBRANCH  13  30
ENDBRANCH   5   9
BRANCH   4  32
HETATM   32  N3  UNL     1      12.872   9.970 122.920  1.00  0.00    -0.348 N 
ATOM     33  H3  UNL     1      13.391   9.642 123.735  1.00  0.00     0.163 HD
BRANCH  32  34
HETATM   34  C3  UNL     1      12.346   9.028 121.934  1.00  0.00     0.244 C 
BRANCH  34  35
HETATM   35  O1  UNL     1      12.270   9.642 120.682  1.00  0.00    -0.375 OA
ATOM     36  H1  UNL     1      11.378   9.608 120.357  1.00  0.00     0.212 HD
ENDBRANCH  34  35
BRANCH  34  37
HETATM   37  C4  UNL     1      13.251   7.825 121.774  1.00  0.00     0.282 C 
BRANCH  37  38
HETATM   38  N4  UNL     1      14.507   7.998 122.473  1.00  0.00    -0.075 N 
ATOM     39  H43 UNL     1      14.357   8.179 123.465  1.00  0.00     0.274 HD
ATOM     40  H42 UNL     1      15.015   7.116 122.546  1.00  0.00     0.274 HD
ATOM     41  H41 UNL     1      15.084   8.724 122.047  1.00  0.00     0.274 HD
ENDBRANCH  37  38
ENDBRANCH  34  37
ENDBRANCH  32  34
ENDBRANCH   4  32
BRANCH   6  42
HETATM   42  O8  UNL     1      14.183  14.661 122.312  1.00  0.00    -0.345 OA
ATOM     43  H8  UNL     1      14.053  15.540 122.647  1.00  0.00     0.219 HD
ENDBRANCH   6  42
BRANCH   1  44
HETATM   44  N1  UNL     1       9.782  13.470 122.603  1.00  0.00    -0.234 N 
ATOM     45  H12 UNL     1       9.044  12.861 122.252  1.00  0.00     0.174 HD
ATOM     46  H11 UNL     1       9.501  14.384 122.959  1.00  0.00     0.174 HD
ENDBRANCH   1  44
TORSDOF 13
ENDMDL
MODEL 4
REMARK VINA RESULT: -6.027667110      3.219      5.579
REMARK  13 active torsions:
REMARK  status: ('A' for Active; 'I' for Inactive)
REMARK    1  A    between atoms: N1_1  and  C1_4 
REMARK    2  A    between atoms: C2_7  and  N3_8 
REMARK    3  A    between atoms: N3_8  and  C3_10 
REMARK    4  A    between atoms: C3_10  and  O1_11 
REMARK    5  A    between atoms: C3_10  and  C4_13 
REMARK    6  A    between atoms: C4_13  and  N4_14 
REMARK    7  A    between atoms: C5_18  and  C6_19 
REMARK    8  A    between atoms: C6_19  and  O2_20 
REMARK    9  A    between atoms: C8_23  and  O3_24 
REMARK   10  A    between atoms: C9_26  and  O4_27 
REMARK   11  A    between atoms: C9_26  and  N5_29 
REMARK   12  A    between atoms: C13_39  and  O7_40 
REMARK   13  A    between atoms: C14_42  and  O8_43 
ROOT
HETATM    1  C1  UNL     1       8.526  13.112 123.015  1.00  0.00     0.679 A 
HETATM    2  N2  UNL     1       8.913  11.851 123.138  1.00  0.00    -0.176 N 
ATOM      3  H2  UNL     1       8.199  11.164 123.382  1.00  0.00     0.186 HD
HETATM    4  C2  UNL     1      10.184  11.398 122.965  1.00  0.00     0.132 A 
HETATM    5  C5  UNL     1      11.156  12.329 122.630  1.00  0.00     0.074 A 
HETATM    6  C14 UNL     1      10.758  13.644 122.503  1.00  0.00     0.168 A 
HETATM    7  N8  UNL     1       9.455  14.001 122.697  1.00  0.00    -0.170 N 
ATOM      8  H8  UNL     1       9.190  14.980 122.594  1.00  0.00     0.186 HD
ENDROOT
BRANCH   5   9
HETATM    9  C6  UNL     1      12.524  11.938 122.371  1.00  0.00     0.126 C 
HETATM   10  C7  UNL     1      13.308  13.185 121.864  1.00  0.00     0.083 C 
HETATM   11  C8  UNL     1      14.726  12.514 121.648  1.00  0.00     0.180 C 
HETATM   12  C9  UNL     1      14.244  11.408 120.751  1.00  0.00     0.198 C 
HETATM   13  C13 UNL     1      12.834  11.029 121.232  1.00  0.00     0.216 C 
BRANCH   9  14
HETATM   14  O2  UNL     1      13.177  11.616 123.568  1.00  0.00    -0.382 OA
ATOM     15  H2  UNL     1      12.569  11.648 124.297  1.00  0.00     0.211 HD
ENDBRANCH   9  14
BRANCH  11  16
HETATM   16  O3  UNL     1      15.532  13.390 120.974  1.00  0.00    -0.390 OA
ATOM     17  H3  UNL     1      16.288  12.920 120.643  1.00  0.00     0.210 HD
ENDBRANCH  11  16
BRANCH  12  18
HETATM   18  O4  UNL     1      14.186  11.973 119.450  1.00  0.00    -0.366 OA
ATOM     19  H4  UNL     1      13.881  11.275 118.883  1.00  0.00     0.212 HD
ENDBRANCH  12  18
BRANCH  12  20
HETATM   20  N5  UNL     1      15.170  10.350 120.698  1.00  0.00    -0.257 N 
HETATM   21  C10 UNL     1      16.114  10.141 121.622  1.00  0.00     0.195 A 
HETATM   22  N6  UNL     1      17.006   9.136 121.574  1.00  0.00    -0.304 N 
HETATM   23  C11 UNL     1      16.986   8.264 120.556  1.00  0.00     0.329 A 
ATOM     24  H6  UNL     1      17.700   9.036 122.315  1.00  0.00     0.171 HD
HETATM   25  O5  UNL     1      17.828   7.308 120.504  1.00  0.00    -0.247 OA
HETATM   26  N7  UNL     1      16.058   8.432 119.607  1.00  0.00    -0.260 N 
HETATM   27  C12 UNL     1      15.177   9.440 119.670  1.00  0.00     0.334 A 
ATOM     28  H7  UNL     1      16.020   7.782 118.821  1.00  0.00     0.175 HD
HETATM   29  O6  UNL     1      14.316   9.580 118.772  1.00  0.00    -0.246 OA
ENDBRANCH  12  20
BRANCH  13  30
HETATM   30  O7  UNL     1      12.913   9.679 121.482  1.00  0.00    -0.387 OA
ATOM     31  H7  UNL     1      12.318   9.102 121.018  1.00  0.00     0.210 HD
ENDBRANCH  13  30
ENDBRANCH   5   9
BRANCH   4  32
HETATM   32  N3  UNL     1      10.476  10.046 123.198  1.00  0.00    -0.348 N 
ATOM     33  H3  UNL     1      11.399   9.756 123.519  1.00  0.00     0.163 HD
BRANCH  32  34
HETATM   34  C3  UNL     1       9.416   9.065 122.967  1.00  0.00     0.244 C 
BRANCH  34  35
HETATM   35  O1  UNL     1       8.954   9.165 121.653  1.00  0.00    -0.375 OA
ATOM     36  H1  UNL     1       8.506   8.364 121.406  1.00  0.00     0.212 HD
ENDBRANCH  34  35
BRANCH  34  37
HETATM   37  C4  UNL     1       9.921   7.649 123.144  1.00  0.00     0.282 C 
BRANCH  37  38
HETATM   38  N4  UNL     1      11.319   7.617 123.518  1.00  0.00    -0.075 N 
ATOM     39  H43 UNL     1      11.919   7.513 122.700  1.00  0.00     0.274 HD
ATOM     40  H42 UNL     1      11.639   8.532 123.836  1.00  0.00     0.274 HD
ATOM     41  H41 UNL     1      11.511   6.895 124.213  1.00  0.00     0.274 HD
ENDBRANCH  37  38
ENDBRANCH  34  37
ENDBRANCH  32  34
ENDBRANCH   4  32
BRANCH   6  42
HETATM   42  O8  UNL     1      11.563  14.723 122.184  1.00  0.00    -0.345 OA
ATOM     43  H8  UNL     1      12.354  14.994 122.636  1.00  0.00     0.219 HD
ENDBRANCH   6  42
BRANCH   1  44
HETATM   44  N1  UNL     1       7.288  13.472 123.194  1.00  0.00    -0.234 N 
ATOM     45  H12 UNL     1       6.521  12.827 123.007  1.00  0.00     0.174 HD
ATOM     46  H11 UNL     1       7.041  14.404 123.527  1.00  0.00     0.174 HD
ENDBRANCH   1  44
TORSDOF 13
ENDMDL
MODEL 5
REMARK VINA RESULT: -6.021814968      1.937      6.989
REMARK  13 active torsions:
REMARK  status: ('A' for Active; 'I' for Inactive)
REMARK    1  A    between atoms: N1_1  and  C1_4 
REMARK    2  A    between atoms: C2_7  and  N3_8 
REMARK    3  A    between atoms: N3_8  and  C3_10 
REMARK    4  A    between atoms: C3_10  and  O1_11 
REMARK    5  A    between atoms: C3_10  and  C4_13 
REMARK    6  A    between atoms: C4_13  and  N4_14 
REMARK    7  A    between atoms: C5_18  and  C6_19 
REMARK    8  A    between atoms: C6_19  and  O2_20 
REMARK    9  A    between atoms: C8_23  and  O3_24 
REMARK   10  A    between atoms: C9_26  and  O4_27 
REMARK   11  A    between atoms: C9_26  and  N5_29 
REMARK   12  A    between atoms: C13_39  and  O7_40 
REMARK   13  A    between atoms: C14_42  and  O8_43 
ROOT
HETATM    1  C1  UNL     1      12.193  11.629 117.201  1.00  0.00     0.679 A 
HETATM    2  N2  UNL     1      12.588  12.388 118.213  1.00  0.00    -0.176 N 
ATOM      3  H2  UNL     1      12.378  13.386 118.160  1.00  0.00     0.186 HD
HETATM    4  C2  UNL     1      13.249  11.947 119.317  1.00  0.00     0.132 A 
HETATM    5  C5  UNL     1      13.533  10.591 119.393  1.00  0.00     0.074 A 
HETATM    6  C14 UNL     1      13.127   9.797 118.341  1.00  0.00     0.168 A 
HETATM    7  N8  UNL     1      12.468  10.336 117.274  1.00  0.00    -0.170 N 
ATOM      8  H8  UNL     1      12.177   9.724 116.512  1.00  0.00     0.186 HD
ENDROOT
BRANCH   5   9
HETATM    9  C6  UNL     1      14.183  10.016 120.551  1.00  0.00     0.126 C 
HETATM   10  C7  UNL     1      13.086   9.555 121.556  1.00  0.00     0.083 C 
HETATM   11  C8  UNL     1      14.022   8.991 122.702  1.00  0.00     0.180 C 
HETATM   12  C9  UNL     1      14.837  10.244 122.871  1.00  0.00     0.198 C 
HETATM   13  C13 UNL     1      14.953  10.889 121.481  1.00  0.00     0.216 C 
BRANCH   9  14
HETATM   14  O2  UNL     1      14.826   8.820 120.208  1.00  0.00    -0.382 OA
ATOM     15  H2  UNL     1      14.427   8.086 120.661  1.00  0.00     0.211 HD
ENDBRANCH   9  14
BRANCH  11  16
HETATM   16  O3  UNL     1      13.261   8.736 123.810  1.00  0.00    -0.390 OA
ATOM     17  H3  UNL     1      13.640   8.003 124.281  1.00  0.00     0.210 HD
ENDBRANCH  11  16
BRANCH  12  18
HETATM   18  O4  UNL     1      14.081  11.074 123.740  1.00  0.00    -0.366 OA
ATOM     19  H4  UNL     1      13.988  11.902 123.283  1.00  0.00     0.212 HD
ENDBRANCH  12  18
BRANCH  12  20
HETATM   20  N5  UNL     1      16.058   9.977 123.518  1.00  0.00    -0.257 N 
HETATM   21  C10 UNL     1      16.559   8.749 123.685  1.00  0.00     0.195 A 
HETATM   22  N6  UNL     1      17.722   8.487 124.307  1.00  0.00    -0.304 N 
HETATM   23  C11 UNL     1      18.460   9.489 124.808  1.00  0.00     0.329 A 
ATOM     24  H6  UNL     1      18.045   7.524 124.399  1.00  0.00     0.171 HD
HETATM   25  O5  UNL     1      19.563   9.248 125.399  1.00  0.00    -0.247 OA
HETATM   26  N7  UNL     1      17.999  10.737 124.665  1.00  0.00    -0.260 N 
HETATM   27  C12 UNL     1      16.838  10.979 124.041  1.00  0.00     0.334 A 
ATOM     28  H7  UNL     1      18.541  11.517 125.036  1.00  0.00     0.175 HD
HETATM   29  O6  UNL     1      16.424  12.154 123.918  1.00  0.00    -0.246 OA
ENDBRANCH  12  20
BRANCH  13  30
HETATM   30  O7  UNL     1      16.307  11.018 121.279  1.00  0.00    -0.387 OA
ATOM     31  H7  UNL     1      16.738  11.795 121.615  1.00  0.00     0.210 HD
ENDBRANCH  13  30
ENDBRANCH   5   9
BRANCH   4  32
HETATM   32  N3  UNL     1      13.676  12.868 120.284  1.00  0.00    -0.348 N 
ATOM     33  H3  UNL     1      14.668  13.005 120.477  1.00  0.00     0.163 HD
BRANCH  32  34
HETATM   34  C3  UNL     1      12.656  13.625 121.009  1.00  0.00     0.244 C 
BRANCH  34  35
HETATM   35  O1  UNL     1      11.508  12.846 121.167  1.00  0.00    -0.375 OA
ATOM     36  H1  UNL     1      10.879  13.304 121.712  1.00  0.00     0.212 HD
ENDBRANCH  34  35
BRANCH  34  37
HETATM   37  C4  UNL     1      13.124  13.999 122.399  1.00  0.00     0.282 C 
BRANCH  37  38
HETATM   38  N4  UNL     1      14.561  14.163 122.460  1.00  0.00    -0.075 N 
ATOM     39  H43 UNL     1      15.044  13.307 122.186  1.00  0.00     0.274 HD
ATOM     40  H42 UNL     1      14.895  14.780 121.719  1.00  0.00     0.274 HD
ATOM     41  H41 UNL     1      14.869  14.486 123.377  1.00  0.00     0.274 HD
ENDBRANCH  37  38
ENDBRANCH  34  37
ENDBRANCH  32  34
ENDBRANCH   4  32
BRANCH   6  42
HETATM   42  O8  UNL     1      13.315   8.431 118.216  1.00  0.00    -0.345 OA
ATOM     43  H8  UNL     1      12.913   7.860 117.572  1.00  0.00     0.219 HD
ENDBRANCH   6  42
BRANCH   1  44
HETATM   44  N1  UNL     1      11.562  12.124 116.176  1.00  0.00    -0.234 N 
ATOM     45  H12 UNL     1      11.602  13.120 115.965  1.00  0.00     0.174 HD
ATOM     46  H11 UNL     1      11.009  11.538 115.550  1.00  0.00     0.174 HD
ENDBRANCH   1  44
TORSDOF 13
ENDMDL
