MODEL 1
REMARK VINA RESULT: -8.675485345      0.000      0.000
REMARK  5 active torsions:
REMARK  status: ('A' for Active; 'I' for Inactive)
REMARK    1  A    between atoms: C4_9  and  N4_10 
REMARK    2  A    between atoms: C5_12  and  O1_13 
REMARK    3  A    between atoms: C5_12  and  C6_15 
REMARK    4  A    between atoms: C6_15  and  N5_16 
REMARK    5  A    between atoms: C6_15  and  C8_21 
REMARK       I    between atoms: N5_16  and  C7_18 
ROOT
HETATM    1  N4  UNL     1      30.958  76.322  32.807  1.00  0.00    -0.322 N 
ATOM      2  H4  UNL     1      30.429  75.979  32.005  1.00  0.00     0.169 HD
HETATM    3  C5  UNL     1      32.133  75.662  32.715  1.00  0.00     0.151 C 
ENDROOT
BRANCH   3   4
HETATM    4  O1  UNL     1      32.519  75.403  31.501  1.00  0.00    -0.347 OA
ATOM      5  H1  UNL     1      32.639  74.481  31.309  1.00  0.00     0.219 HD
ENDBRANCH   3   4
BRANCH   3   6
HETATM    6  C6  UNL     1      33.020  75.199  33.809  1.00  0.00     0.260 C 
BRANCH   6   7
HETATM    7  N5  UNL     1      33.618  73.949  33.718  1.00  0.00    -0.346 N 
HETATM    8  C7  UNL     1      33.550  72.924  34.638  1.00  0.00     0.198 C 
HETATM    9  N6  UNL     1      32.252  72.524  35.124  1.00  0.00    -0.067 NA
HETATM   10  N7  UNL     1      34.528  72.937  35.698  1.00  0.00    -0.067 NA
ATOM     11  H5  UNL     1      34.167  73.769  32.877  1.00  0.00     0.163 HD
ENDBRANCH   6   7
BRANCH   6  12
HETATM   12  C8  UNL     1      33.988  76.273  34.214  1.00  0.00     0.205 C 
HETATM   13  O2  UNL     1      34.137  77.247  33.449  1.00  0.00    -0.646 OA
HETATM   14  O3  UNL     1      34.681  76.185  35.387  1.00  0.00    -0.646 OA
ENDBRANCH   6  12
ENDBRANCH   3   6
BRANCH   1  15
HETATM   15  C4  UNL     1      30.201  77.100  33.333  1.00  0.00     0.149 A 
HETATM   16  C1  UNL     1      28.811  76.971  33.128  1.00  0.00     0.160 A 
HETATM   17  N1  UNL     1      28.299  75.915  32.326  1.00  0.00    -0.079 NA
HETATM   18  N2  UNL     1      27.986  77.841  33.698  1.00  0.00    -0.350 N 
HETATM   19  C2  UNL     1      28.408  78.852  34.469  1.00  0.00     0.106 A 
ATOM     20  H2  UNL     1      26.984  77.735  33.542  1.00  0.00     0.166 HD
HETATM   21  C3  UNL     1      29.752  79.010  34.692  1.00  0.00     0.107 A 
HETATM   22  N3  UNL     1      30.588  78.118  34.108  1.00  0.00    -0.348 N 
ATOM     23  H3  UNL     1      31.588  78.232  34.273  1.00  0.00     0.167 HD
ENDBRANCH   1  15
TORSDOF 5
ENDMDL
MODEL 2
REMARK VINA RESULT: -8.563768608      3.235      4.570
REMARK  5 active torsions:
REMARK  status: ('A' for Active; 'I' for Inactive)
REMARK    1  A    between atoms: C4_9  and  N4_10 
REMARK    2  A    between atoms: C5_12  and  O1_13 
REMARK    3  A    between atoms: C5_12  and  C6_15 
REMARK    4  A    between atoms: C6_15  and  N5_16 
REMARK    5  A    between atoms: C6_15  and  C8_21 
REMARK       I    between atoms: N5_16  and  C7_18 
ROOT
HETATM    1  N4  UNL     1      32.053  74.701  30.827  1.00  0.00    -0.322 N 
ATOM      2  H4  UNL     1      32.920  74.555  30.309  1.00  0.00     0.169 HD
HETATM    3  C5  UNL     1      32.470  74.848  32.103  1.00  0.00     0.151 C 
ENDROOT
BRANCH   3   4
HETATM    4  O1  UNL     1      33.635  75.412  32.235  1.00  0.00    -0.347 OA
ATOM      5  H1  UNL     1      34.358  74.809  32.361  1.00  0.00     0.219 HD
ENDBRANCH   3   4
BRANCH   3   6
HETATM    6  C6  UNL     1      31.780  74.448  33.353  1.00  0.00     0.260 C 
BRANCH   6   7
HETATM    7  N5  UNL     1      32.492  74.414  34.543  1.00  0.00    -0.346 N 
HETATM    8  C7  UNL     1      33.320  73.405  34.990  1.00  0.00     0.198 C 
HETATM    9  N6  UNL     1      34.338  72.908  34.097  1.00  0.00    -0.067 NA
HETATM   10  N7  UNL     1      32.698  72.333  35.727  1.00  0.00    -0.067 NA
ATOM     11  H5  UNL     1      32.393  75.225  35.155  1.00  0.00     0.163 HD
ENDBRANCH   6   7
BRANCH   6  12
HETATM   12  C8  UNL     1      30.459  75.149  33.491  1.00  0.00     0.205 C 
HETATM   13  O2  UNL     1      29.667  74.742  34.364  1.00  0.00    -0.646 OA
HETATM   14  O3  UNL     1      30.139  76.203  32.684  1.00  0.00    -0.646 OA
ENDBRANCH   6  12
ENDBRANCH   3   6
BRANCH   1  15
HETATM   15  C4  UNL     1      31.202  74.651  29.974  1.00  0.00     0.149 A 
HETATM   16  C1  UNL     1      31.519  75.012  28.648  1.00  0.00     0.160 A 
HETATM   17  N1  UNL     1      32.840  75.411  28.308  1.00  0.00    -0.079 NA
HETATM   18  N2  UNL     1      30.571  74.968  27.718  1.00  0.00    -0.350 N 
HETATM   19  C2  UNL     1      29.311  74.594  27.975  1.00  0.00     0.106 A 
ATOM     20  H2  UNL     1      30.815  75.231  26.763  1.00  0.00     0.166 HD
HETATM   21  C3  UNL     1      28.965  74.236  29.252  1.00  0.00     0.107 A 
HETATM   22  N3  UNL     1      29.937  74.282  30.196  1.00  0.00    -0.348 N 
ATOM     23  H3  UNL     1      29.683  74.015  31.147  1.00  0.00     0.167 HD
ENDBRANCH   1  15
TORSDOF 5
ENDMDL
MODEL 3
REMARK VINA RESULT: -8.301271103      3.034      4.232
REMARK  5 active torsions:
REMARK  status: ('A' for Active; 'I' for Inactive)
REMARK    1  A    between atoms: C4_9  and  N4_10 
REMARK    2  A    between atoms: C5_12  and  O1_13 
REMARK    3  A    between atoms: C5_12  and  C6_15 
REMARK    4  A    between atoms: C6_15  and  N5_16 
REMARK    5  A    between atoms: C6_15  and  C8_21 
REMARK       I    between atoms: N5_16  and  C7_18 
ROOT
HETATM    1  N4  UNL     1      32.270  74.610  31.280  1.00  0.00    -0.322 N 
ATOM      2  H4  UNL     1      33.059  74.429  30.659  1.00  0.00     0.169 HD
HETATM    3  C5  UNL     1      32.857  74.936  32.451  1.00  0.00     0.151 C 
ENDROOT
BRANCH   3   4
HETATM    4  O1  UNL     1      33.996  75.554  32.337  1.00  0.00    -0.347 OA
ATOM      5  H1  UNL     1      33.948  76.402  31.912  1.00  0.00     0.219 HD
ENDBRANCH   3   4
BRANCH   3   6
HETATM    6  C6  UNL     1      32.377  74.677  33.830  1.00  0.00     0.260 C 
BRANCH   6   7
HETATM    7  N5  UNL     1      33.235  74.884  34.900  1.00  0.00    -0.346 N 
HETATM    8  C7  UNL     1      33.774  73.926  35.734  1.00  0.00     0.198 C 
HETATM    9  N6  UNL     1      34.422  72.784  35.137  1.00  0.00    -0.067 NA
HETATM   10  N7  UNL     1      32.986  73.545  36.881  1.00  0.00    -0.067 NA
ATOM     11  H5  UNL     1      33.497  75.852  35.091  1.00  0.00     0.163 HD
ENDBRANCH   6   7
BRANCH   6  12
HETATM   12  C8  UNL     1      31.019  75.279  34.053  1.00  0.00     0.205 C 
HETATM   13  O2  UNL     1      30.940  76.518  34.174  1.00  0.00    -0.646 OA
HETATM   14  O3  UNL     1      29.907  74.491  34.117  1.00  0.00    -0.646 OA
ENDBRANCH   6  12
ENDBRANCH   3   6
BRANCH   1  15
HETATM   15  C4  UNL     1      31.309  74.418  30.577  1.00  0.00     0.149 A 
HETATM   16  C1  UNL     1      31.350  74.798  29.218  1.00  0.00     0.160 A 
HETATM   17  N1  UNL     1      32.523  75.381  28.671  1.00  0.00    -0.079 NA
HETATM   18  N2  UNL     1      30.281  74.597  28.455  1.00  0.00    -0.350 N 
HETATM   19  C2  UNL     1      29.149  74.046  28.912  1.00  0.00     0.106 A 
ATOM     20  H2  UNL     1      30.325  74.875  27.475  1.00  0.00     0.166 HD
HETATM   21  C3  UNL     1      29.071  73.664  30.227  1.00  0.00     0.107 A 
HETATM   22  N3  UNL     1      30.165  73.870  31.000  1.00  0.00    -0.348 N 
ATOM     23  H3  UNL     1      30.112  73.586  31.977  1.00  0.00     0.167 HD
ENDBRANCH   1  15
TORSDOF 5
ENDMDL
MODEL 4
REMARK VINA RESULT: -8.272908092      2.252      3.327
REMARK  5 active torsions:
REMARK  status: ('A' for Active; 'I' for Inactive)
REMARK    1  A    between atoms: C4_9  and  N4_10 
REMARK    2  A    between atoms: C5_12  and  O1_13 
REMARK    3  A    between atoms: C5_12  and  C6_15 
REMARK    4  A    between atoms: C6_15  and  N5_16 
REMARK    5  A    between atoms: C6_15  and  C8_21 
REMARK       I    between atoms: N5_16  and  C7_18 
ROOT
HETATM    1  N4  UNL     1      31.059  75.406  32.720  1.00  0.00    -0.322 N 
ATOM      2  H4  UNL     1      30.274  76.042  32.865  1.00  0.00     0.169 HD
HETATM    3  C5  UNL     1      31.571  75.249  33.960  1.00  0.00     0.151 C 
ENDROOT
BRANCH   3   4
HETATM    4  O1  UNL     1      30.697  75.301  34.922  1.00  0.00    -0.347 OA
ATOM      5  H1  UNL     1      30.734  74.575  35.533  1.00  0.00     0.219 HD
ENDBRANCH   3   4
BRANCH   3   6
HETATM    6  C6  UNL     1      32.984  75.034  34.355  1.00  0.00     0.260 C 
BRANCH   6   7
HETATM    7  N5  UNL     1      33.578  73.803  34.116  1.00  0.00    -0.346 N 
HETATM    8  C7  UNL     1      33.627  72.721  34.970  1.00  0.00     0.198 C 
HETATM    9  N6  UNL     1      32.397  72.270  35.575  1.00  0.00    -0.067 NA
HETATM   10  N7  UNL     1      34.720  72.683  35.909  1.00  0.00    -0.067 NA
ATOM     11  H5  UNL     1      34.028  73.686  33.208  1.00  0.00     0.163 HD
ENDBRANCH   6   7
BRANCH   6  12
HETATM   12  C8  UNL     1      33.847  76.186  33.927  1.00  0.00     0.205 C 
HETATM   13  O2  UNL     1      34.259  76.204  32.750  1.00  0.00    -0.646 OA
HETATM   14  O3  UNL     1      34.168  77.183  34.803  1.00  0.00    -0.646 OA
ENDBRANCH   6  12
ENDBRANCH   3   6
BRANCH   1  15
HETATM   15  C4  UNL     1      31.035  75.195  31.533  1.00  0.00     0.149 A 
HETATM   16  C1  UNL     1      29.795  75.084  30.867  1.00  0.00     0.160 A 
HETATM   17  N1  UNL     1      28.579  75.243  31.583  1.00  0.00    -0.079 NA
HETATM   18  N2  UNL     1      29.779  74.836  29.562  1.00  0.00    -0.350 N 
HETATM   19  C2  UNL     1      30.891  74.682  28.832  1.00  0.00     0.106 A 
ATOM     20  H2  UNL     1      28.876  74.759  29.094  1.00  0.00     0.166 HD
HETATM   21  C3  UNL     1      32.114  74.784  29.444  1.00  0.00     0.107 A 
HETATM   22  N3  UNL     1      32.125  75.038  30.775  1.00  0.00    -0.348 N 
ATOM     23  H3  UNL     1      33.032  75.115  31.233  1.00  0.00     0.167 HD
ENDBRANCH   1  15
TORSDOF 5
ENDMDL
MODEL 5
REMARK VINA RESULT: -8.256459392      2.246      3.568
REMARK  5 active torsions:
REMARK  status: ('A' for Active; 'I' for Inactive)
REMARK    1  A    between atoms: C4_9  and  N4_10 
REMARK    2  A    between atoms: C5_12  and  O1_13 
REMARK    3  A    between atoms: C5_12  and  C6_15 
REMARK    4  A    between atoms: C6_15  and  N5_16 
REMARK    5  A    between atoms: C6_15  and  C8_21 
REMARK       I    between atoms: N5_16  and  C7_18 
ROOT
HETATM    1  N4  UNL     1      31.108  76.088  32.143  1.00  0.00    -0.322 N 
ATOM      2  H4  UNL     1      30.895  77.005  31.747  1.00  0.00     0.169 HD
HETATM    3  C5  UNL     1      31.737  76.383  33.300  1.00  0.00     0.151 C 
ENDROOT
BRANCH   3   4
HETATM    4  O1  UNL     1      31.334  77.476  33.879  1.00  0.00    -0.347 OA
ATOM      5  H1  UNL     1      31.563  77.549  34.797  1.00  0.00     0.219 HD
ENDBRANCH   3   4
BRANCH   3   6
HETATM    6  C6  UNL     1      32.820  75.632  33.981  1.00  0.00     0.260 C 
BRANCH   6   7
HETATM    7  N5  UNL     1      33.187  74.383  33.501  1.00  0.00    -0.346 N 
HETATM    8  C7  UNL     1      33.233  73.199  34.208  1.00  0.00     0.198 C 
HETATM    9  N6  UNL     1      32.076  72.818  34.981  1.00  0.00    -0.067 NA
HETATM   10  N7  UNL     1      34.456  72.910  34.914  1.00  0.00    -0.067 NA
ATOM     11  H5  UNL     1      33.453  74.335  32.517  1.00  0.00     0.163 HD
ENDBRANCH   6   7
BRANCH   6  12
HETATM   12  C8  UNL     1      34.002  76.516  34.257  1.00  0.00     0.205 C 
HETATM   13  O2  UNL     1      34.284  77.396  33.420  1.00  0.00    -0.646 OA
HETATM   14  O3  UNL     1      34.742  76.359  35.393  1.00  0.00    -0.646 OA
ENDBRANCH   6  12
ENDBRANCH   3   6
BRANCH   1  15
HETATM   15  C4  UNL     1      30.663  75.318  31.328  1.00  0.00     0.149 A 
HETATM   16  C1  UNL     1      31.536  74.678  30.423  1.00  0.00     0.160 A 
HETATM   17  N1  UNL     1      32.935  74.917  30.483  1.00  0.00    -0.079 NA
HETATM   18  N2  UNL     1      31.035  73.843  29.519  1.00  0.00    -0.350 N 
HETATM   19  C2  UNL     1      29.728  73.573  29.416  1.00  0.00     0.106 A 
ATOM     20  H2  UNL     1      31.678  73.387  28.871  1.00  0.00     0.166 HD
HETATM   21  C3  UNL     1      28.849  74.176  30.279  1.00  0.00     0.107 A 
HETATM   22  N3  UNL     1      29.365  75.025  31.200  1.00  0.00    -0.348 N 
ATOM     23  H3  UNL     1      28.715  75.475  31.843  1.00  0.00     0.167 HD
ENDBRANCH   1  15
TORSDOF 5
ENDMDL
