MODEL 1
REMARK VINA RESULT: -8.752447687      0.000      0.000
REMARK  4 active torsions:
REMARK  status: ('A' for Active; 'I' for Inactive)
REMARK    1  A    between atoms: C2_3  and  N2_4 
REMARK    2  A    between atoms: C2_3  and  S1_8 
REMARK    3  A    between atoms: S1_8  and  C3_9 
REMARK    4  A    between atoms: C4_12  and  C5_13 
REMARK       I    between atoms: C5_13  and  N4_15 
ROOT
HETATM    1  N1  UNL     1      28.619  71.881  30.641  1.00  0.00    -0.194 NA
HETATM    2  C1  UNL     1      28.522  72.640  29.774  1.00  0.00     0.103 C 
HETATM    3  C2  UNL     1      28.410  73.619  28.680  1.00  0.00     0.358 C 
ENDROOT
BRANCH   3   4
HETATM    4  N2  UNL     1      27.103  74.276  28.711  1.00  0.00    -0.053 N 
ATOM      5  H23 UNL     1      26.537  74.035  27.897  1.00  0.00     0.276 HD
ATOM      6  H22 UNL     1      26.500  73.887  29.435  1.00  0.00     0.276 HD
ATOM      7  H21 UNL     1      27.213  75.286  28.811  1.00  0.00     0.276 HD
ENDBRANCH   3   4
BRANCH   3   8
HETATM    8  S1  UNL     1      29.662  74.887  28.833  1.00  0.00    -0.046 SA
BRANCH   8   9
HETATM    9  C3  UNL     1      30.129  75.194  30.523  1.00  0.00     0.164 A 
HETATM   10  N3  UNL     1      31.335  74.835  30.951  1.00  0.00    -0.317 N 
HETATM   11  C4  UNL     1      31.779  75.027  32.216  1.00  0.00     0.191 A 
ATOM     12  H3  UNL     1      31.964  74.387  30.286  1.00  0.00     0.169 HD
HETATM   13  N7  UNL     1      30.906  75.624  33.053  1.00  0.00    -0.171 N 
HETATM   14  C7  UNL     1      29.670  76.008  32.674  1.00  0.00     0.679 A 
ATOM     15  H7  UNL     1      31.193  75.792  34.017  1.00  0.00     0.186 HD
HETATM   16  N8  UNL     1      28.860  76.572  33.484  1.00  0.00    -0.234 N 
HETATM   17  N9  UNL     1      29.290  75.786  31.396  1.00  0.00    -0.170 N 
ATOM     18  H82 UNL     1      29.147  76.740  34.448  1.00  0.00     0.174 HD
ATOM     19  H81 UNL     1      27.926  76.863  33.196  1.00  0.00     0.174 HD
ATOM     20  H9  UNL     1      28.359  76.070  31.089  1.00  0.00     0.186 HD
BRANCH  11  21
HETATM   21  C5  UNL     1      33.099  74.619  32.638  1.00  0.00     0.292 C 
HETATM   22  O1  UNL     1      34.094  75.258  32.256  1.00  0.00    -0.264 OA
HETATM   23  N4  UNL     1      33.259  73.501  33.481  1.00  0.00    -0.297 N 
HETATM   24  C6  UNL     1      33.628  73.648  34.722  1.00  0.00     0.203 C 
ATOM     25  H4  UNL     1      33.083  72.565  33.114  1.00  0.00     0.171 HD
HETATM   26  N5  UNL     1      33.789  72.537  35.571  1.00  0.00    -0.066 NA
HETATM   27  N6  UNL     1      33.865  74.954  35.216  1.00  0.00    -0.066 NA
ENDBRANCH  11  21
ENDBRANCH   8   9
ENDBRANCH   3   8
TORSDOF 4
ENDMDL
MODEL 2
REMARK VINA RESULT: -8.741183355      2.710      6.552
REMARK  4 active torsions:
REMARK  status: ('A' for Active; 'I' for Inactive)
REMARK    1  A    between atoms: C2_3  and  N2_4 
REMARK    2  A    between atoms: C2_3  and  S1_8 
REMARK    3  A    between atoms: S1_8  and  C3_9 
REMARK    4  A    between atoms: C4_12  and  C5_13 
REMARK       I    between atoms: C5_13  and  N4_15 
ROOT
HETATM    1  N1  UNL     1      33.185  73.762  36.850  1.00  0.00    -0.194 NA
HETATM    2  C1  UNL     1      33.195  73.957  35.710  1.00  0.00     0.103 C 
HETATM    3  C2  UNL     1      33.188  74.205  34.259  1.00  0.00     0.358 C 
ENDROOT
BRANCH   3   4
HETATM    4  N2  UNL     1      33.497  72.976  33.527  1.00  0.00    -0.053 N 
ATOM      5  H23 UNL     1      33.801  72.228  34.151  1.00  0.00     0.276 HD
ATOM      6  H22 UNL     1      32.656  72.533  33.158  1.00  0.00     0.276 HD
ATOM      7  H21 UNL     1      34.181  73.159  32.792  1.00  0.00     0.276 HD
ENDBRANCH   3   4
BRANCH   3   8
HETATM    8  S1  UNL     1      31.579  74.770  33.721  1.00  0.00    -0.046 SA
BRANCH   8   9
HETATM    9  C3  UNL     1      31.254  74.399  32.010  1.00  0.00     0.164 A 
HETATM   10  N3  UNL     1      30.162  73.719  31.678  1.00  0.00    -0.317 N 
HETATM   11  C4  UNL     1      29.830  73.389  30.406  1.00  0.00     0.191 A 
ATOM     12  H3  UNL     1      29.535  73.426  32.427  1.00  0.00     0.169 HD
HETATM   13  N7  UNL     1      30.695  73.803  29.457  1.00  0.00    -0.171 N 
HETATM   14  C7  UNL     1      31.818  74.495  29.736  1.00  0.00     0.679 A 
ATOM     15  H7  UNL     1      30.490  73.581  28.482  1.00  0.00     0.186 HD
HETATM   16  N8  UNL     1      32.622  74.875  28.821  1.00  0.00    -0.234 N 
HETATM   17  N9  UNL     1      32.089  74.790  31.027  1.00  0.00    -0.170 N 
ATOM     18  H82 UNL     1      32.417  74.653  27.846  1.00  0.00     0.174 HD
ATOM     19  H81 UNL     1      33.471  75.399  29.032  1.00  0.00     0.174 HD
ATOM     20  H9  UNL     1      32.933  75.313  31.260  1.00  0.00     0.186 HD
BRANCH  11  21
HETATM   21  C5  UNL     1      28.632  72.647  30.092  1.00  0.00     0.292 C 
HETATM   22  O1  UNL     1      28.365  71.610  30.723  1.00  0.00    -0.264 OA
HETATM   23  N4  UNL     1      27.769  73.095  29.073  1.00  0.00    -0.297 N 
HETATM   24  C6  UNL     1      26.596  73.586  29.360  1.00  0.00     0.203 C 
ATOM     25  H4  UNL     1      28.065  73.035  28.099  1.00  0.00     0.171 HD
HETATM   26  N5  UNL     1      25.727  74.036  28.349  1.00  0.00    -0.066 NA
HETATM   27  N6  UNL     1      26.200  73.664  30.718  1.00  0.00    -0.066 NA
ENDBRANCH  11  21
ENDBRANCH   8   9
ENDBRANCH   3   8
TORSDOF 4
ENDMDL
MODEL 3
REMARK VINA RESULT: -8.521719785      0.778      1.281
REMARK  4 active torsions:
REMARK  status: ('A' for Active; 'I' for Inactive)
REMARK    1  A    between atoms: C2_3  and  N2_4 
REMARK    2  A    between atoms: C2_3  and  S1_8 
REMARK    3  A    between atoms: S1_8  and  C3_9 
REMARK    4  A    between atoms: C4_12  and  C5_13 
REMARK       I    between atoms: C5_13  and  N4_15 
ROOT
HETATM    1  N1  UNL     1      25.833  74.113  28.617  1.00  0.00    -0.194 NA
HETATM    2  C1  UNL     1      26.889  73.726  28.885  1.00  0.00     0.103 C 
HETATM    3  C2  UNL     1      28.242  73.250  29.218  1.00  0.00     0.358 C 
ENDROOT
BRANCH   3   4
HETATM    4  N2  UNL     1      28.667  72.212  28.278  1.00  0.00    -0.053 N 
ATOM      5  H23 UNL     1      28.148  72.259  27.400  1.00  0.00     0.276 HD
ATOM      6  H22 UNL     1      29.601  72.392  27.911  1.00  0.00     0.276 HD
ATOM      7  H21 UNL     1      28.600  71.289  28.709  1.00  0.00     0.276 HD
ENDBRANCH   3   4
BRANCH   3   8
HETATM    8  S1  UNL     1      29.425  74.588  29.124  1.00  0.00    -0.046 SA
BRANCH   8   9
HETATM    9  C3  UNL     1      30.045  75.073  30.720  1.00  0.00     0.164 A 
HETATM   10  N3  UNL     1      31.257  74.684  31.104  1.00  0.00    -0.317 N 
HETATM   11  C4  UNL     1      31.813  75.003  32.298  1.00  0.00     0.191 A 
ATOM     12  H3  UNL     1      31.801  74.110  30.461  1.00  0.00     0.169 HD
HETATM   13  N7  UNL     1      31.050  75.765  33.108  1.00  0.00    -0.171 N 
HETATM   14  C7  UNL     1      29.814  76.187  32.770  1.00  0.00     0.679 A 
ATOM     15  H7  UNL     1      31.424  76.033  34.018  1.00  0.00     0.186 HD
HETATM   16  N8  UNL     1      29.110  76.907  33.554  1.00  0.00    -0.234 N 
HETATM   17  N9  UNL     1      29.319  75.832  31.564  1.00  0.00    -0.170 N 
ATOM     18  H82 UNL     1      29.484  77.175  34.465  1.00  0.00     0.174 HD
ATOM     19  H81 UNL     1      28.176  77.227  33.299  1.00  0.00     0.174 HD
ATOM     20  H9  UNL     1      28.387  76.142  31.290  1.00  0.00     0.186 HD
BRANCH  11  21
HETATM   21  C5  UNL     1      33.135  74.556  32.674  1.00  0.00     0.292 C 
HETATM   22  O1  UNL     1      34.135  75.154  32.242  1.00  0.00    -0.264 OA
HETATM   23  N4  UNL     1      33.290  73.448  33.530  1.00  0.00    -0.297 N 
HETATM   24  C6  UNL     1      33.712  73.603  34.753  1.00  0.00     0.203 C 
ATOM     25  H4  UNL     1      33.068  72.513  33.188  1.00  0.00     0.171 HD
HETATM   26  N5  UNL     1      33.870  72.501  35.615  1.00  0.00    -0.066 NA
HETATM   27  N6  UNL     1      34.014  74.908  35.213  1.00  0.00    -0.066 NA
ENDBRANCH  11  21
ENDBRANCH   8   9
ENDBRANCH   3   8
TORSDOF 4
ENDMDL
MODEL 4
REMARK VINA RESULT: -8.447830441      2.798      6.654
REMARK  4 active torsions:
REMARK  status: ('A' for Active; 'I' for Inactive)
REMARK    1  A    between atoms: C2_3  and  N2_4 
REMARK    2  A    between atoms: C2_3  and  S1_8 
REMARK    3  A    between atoms: S1_8  and  C3_9 
REMARK    4  A    between atoms: C4_12  and  C5_13 
REMARK       I    between atoms: C5_13  and  N4_15 
ROOT
HETATM    1  N1  UNL     1      34.254  75.979  34.853  1.00  0.00    -0.194 NA
HETATM    2  C1  UNL     1      33.793  75.248  34.084  1.00  0.00     0.103 C 
HETATM    3  C2  UNL     1      33.189  74.326  33.108  1.00  0.00     0.358 C 
ENDROOT
BRANCH   3   4
HETATM    4  N2  UNL     1      32.946  73.019  33.719  1.00  0.00    -0.053 N 
ATOM      5  H23 UNL     1      32.121  73.028  34.320  1.00  0.00     0.276 HD
ATOM      6  H22 UNL     1      32.627  72.334  33.035  1.00  0.00     0.276 HD
ATOM      7  H21 UNL     1      33.775  72.698  34.220  1.00  0.00     0.276 HD
ENDBRANCH   3   4
BRANCH   3   8
HETATM    8  S1  UNL     1      31.620  74.957  32.528  1.00  0.00    -0.046 SA
BRANCH   8   9
HETATM    9  C3  UNL     1      31.497  74.972  30.752  1.00  0.00     0.164 A 
HETATM   10  N3  UNL     1      30.300  74.946  30.173  1.00  0.00    -0.317 N 
HETATM   11  C4  UNL     1      30.106  74.954  28.832  1.00  0.00     0.191 A 
ATOM     12  H3  UNL     1      29.478  74.918  30.775  1.00  0.00     0.169 HD
HETATM   13  N7  UNL     1      31.228  74.992  28.084  1.00  0.00    -0.171 N 
HETATM   14  C7  UNL     1      32.467  75.019  28.618  1.00  0.00     0.679 A 
ATOM     15  H7  UNL     1      31.136  75.001  27.069  1.00  0.00     0.186 HD
HETATM   16  N8  UNL     1      33.514  75.054  27.890  1.00  0.00    -0.234 N 
HETATM   17  N9  UNL     1      32.588  75.008  29.964  1.00  0.00    -0.170 N 
ATOM     18  H82 UNL     1      33.422  75.062  26.874  1.00  0.00     0.174 HD
ATOM     19  H81 UNL     1      34.451  75.075  28.294  1.00  0.00     0.174 HD
ATOM     20  H9  UNL     1      33.517  75.028  30.387  1.00  0.00     0.186 HD
BRANCH  11  21
HETATM   21  C5  UNL     1      28.786  74.924  28.246  1.00  0.00     0.292 C 
HETATM   22  O1  UNL     1      28.651  75.089  27.021  1.00  0.00    -0.264 OA
HETATM   23  N4  UNL     1      27.656  74.708  29.058  1.00  0.00    -0.297 N 
HETATM   24  C6  UNL     1      26.990  73.589  28.993  1.00  0.00     0.203 C 
ATOM     25  H4  UNL     1      27.355  75.435  29.706  1.00  0.00     0.171 HD
HETATM   26  N5  UNL     1      25.860  73.364  29.800  1.00  0.00    -0.066 NA
HETATM   27  N6  UNL     1      27.424  72.587  28.089  1.00  0.00    -0.066 NA
ENDBRANCH  11  21
ENDBRANCH   8   9
ENDBRANCH   3   8
TORSDOF 4
ENDMDL
MODEL 5
REMARK VINA RESULT: -8.199198408      3.207      6.246
REMARK  4 active torsions:
REMARK  status: ('A' for Active; 'I' for Inactive)
REMARK    1  A    between atoms: C2_3  and  N2_4 
REMARK    2  A    between atoms: C2_3  and  S1_8 
REMARK    3  A    between atoms: S1_8  and  C3_9 
REMARK    4  A    between atoms: C4_12  and  C5_13 
REMARK       I    between atoms: C5_13  and  N4_15 
ROOT
HETATM    1  N1  UNL     1      27.553  77.453  33.129  1.00  0.00    -0.194 NA
HETATM    2  C1  UNL     1      28.704  77.542  33.204  1.00  0.00     0.103 C 
HETATM    3  C2  UNL     1      30.170  77.637  33.305  1.00  0.00     0.358 C 
ENDROOT
BRANCH   3   4
HETATM    4  N2  UNL     1      30.555  78.372  34.511  1.00  0.00    -0.053 N 
ATOM      5  H23 UNL     1      31.562  78.336  34.672  1.00  0.00     0.276 HD
ATOM      6  H22 UNL     1      30.456  79.379  34.388  1.00  0.00     0.276 HD
ATOM      7  H21 UNL     1      30.029  78.035  35.318  1.00  0.00     0.276 HD
ENDBRANCH   3   4
BRANCH   3   8
HETATM    8  S1  UNL     1      30.905  76.009  33.400  1.00  0.00    -0.046 SA
BRANCH   8   9
HETATM    9  C3  UNL     1      30.897  75.157  31.838  1.00  0.00     0.164 A 
HETATM   10  N3  UNL     1      29.861  74.393  31.507  1.00  0.00    -0.317 N 
HETATM   11  C4  UNL     1      29.764  73.707  30.343  1.00  0.00     0.191 A 
ATOM     12  H3  UNL     1      29.090  74.319  32.171  1.00  0.00     0.169 HD
HETATM   13  N7  UNL     1      30.811  73.842  29.502  1.00  0.00    -0.171 N 
HETATM   14  C7  UNL     1      31.888  74.602  29.786  1.00  0.00     0.679 A 
ATOM     15  H7  UNL     1      30.786  73.346  28.611  1.00  0.00     0.186 HD
HETATM   16  N8  UNL     1      32.866  74.715  28.975  1.00  0.00    -0.234 N 
HETATM   17  N9  UNL     1      31.919  75.260  30.966  1.00  0.00    -0.170 N 
ATOM     18  H82 UNL     1      32.842  74.218  28.084  1.00  0.00     0.174 HD
ATOM     19  H81 UNL     1      33.681  75.290  29.189  1.00  0.00     0.174 HD
ATOM     20  H9  UNL     1      32.725  75.841  31.200  1.00  0.00     0.186 HD
BRANCH  11  21
HETATM   21  C5  UNL     1      28.618  72.887  30.026  1.00  0.00     0.292 C 
HETATM   22  O1  UNL     1      28.448  71.808  30.619  1.00  0.00    -0.264 OA
HETATM   23  N4  UNL     1      27.694  73.308  29.050  1.00  0.00    -0.297 N 
HETATM   24  C6  UNL     1      26.496  73.695  29.387  1.00  0.00     0.203 C 
ATOM     25  H4  UNL     1      27.967  73.312  28.067  1.00  0.00     0.171 HD
HETATM   26  N5  UNL     1      25.567  74.118  28.418  1.00  0.00    -0.066 NA
HETATM   27  N6  UNL     1      26.133  73.686  30.756  1.00  0.00    -0.066 NA
ENDBRANCH  11  21
ENDBRANCH   8   9
ENDBRANCH   3   8
TORSDOF 4
ENDMDL
