MODEL 1
REMARK VINA RESULT: -7.346312105      0.000      0.000
REMARK  6 active torsions:
REMARK  status: ('A' for Active; 'I' for Inactive)
REMARK       I    between atoms: C1_4  and  N3_6 
REMARK    1  A    between atoms: N3_6  and  N4_8 
REMARK    2  A    between atoms: C2_10  and  C3_11 
REMARK    3  A    between atoms: C2_10  and  N6_16 
REMARK    4  A    between atoms: C3_11  and  N5_12 
REMARK    5  A    between atoms: N6_16  and  N7_18 
REMARK    6  A    between atoms: C5_24  and  C6_25 
ROOT
HETATM    1  N4  UNL     1      33.552  76.068  32.816  1.00  0.00    -0.284 N 
ATOM      2  H4  UNL     1      34.251  75.535  32.298  1.00  0.00     0.188 HD
HETATM    3  C2  UNL     1      32.319  75.712  32.684  1.00  0.00     0.138 C 
ENDROOT
BRANCH   3   4
HETATM    4  C3  UNL     1      31.277  76.448  33.409  1.00  0.00     0.308 C 
BRANCH   4   5
HETATM    5  N5  UNL     1      30.292  75.591  34.026  1.00  0.00    -0.073 N 
ATOM      6  H53 UNL     1      30.708  74.700  34.297  1.00  0.00     0.274 HD
ATOM      7  H52 UNL     1      30.032  75.943  34.948  1.00  0.00     0.274 HD
ATOM      8  H51 UNL     1      29.464  75.443  33.450  1.00  0.00     0.274 HD
ENDBRANCH   4   5
ENDBRANCH   3   4
BRANCH   3   9
HETATM    9  N6  UNL     1      32.059  74.609  31.827  1.00  0.00    -0.263 N 
ATOM     10  H6  UNL     1      32.071  73.674  32.235  1.00  0.00     0.190 HD
BRANCH   9  11
HETATM   11  N7  UNL     1      31.789  74.720  30.467  1.00  0.00    -0.175 N 
HETATM   12  N8  UNL     1      32.659  75.054  29.551  1.00  0.00    -0.273 N 
HETATM   13  C4  UNL     1      32.070  75.065  28.356  1.00  0.00     0.201 A 
ATOM     14  H8  UNL     1      33.640  75.272  29.723  1.00  0.00     0.190 HD
HETATM   15  N9  UNL     1      30.793  74.730  28.534  1.00  0.00    -0.333 N 
HETATM   16  C5  UNL     1      30.613  74.514  29.847  1.00  0.00     0.182 A 
ATOM     17  H9  UNL     1      30.082  74.652  27.806  1.00  0.00     0.168 HD
BRANCH  16  18
HETATM   18  C6  UNL     1      29.355  74.126  30.469  1.00  0.00     0.160 C 
HETATM   19  N10 UNL     1      28.700  74.956  31.401  1.00  0.00    -0.086 NA
HETATM   20  S1  UNL     1      28.698  72.699  30.072  1.00  0.00    -0.060 SA
ENDBRANCH  16  18
ENDBRANCH   9  11
ENDBRANCH   3   9
BRANCH   1  21
HETATM   21  N3  UNL     1      34.003  77.107  33.597  1.00  0.00    -0.272 N 
HETATM   22  C1  UNL     1      34.841  76.870  34.742  1.00  0.00     0.200 C 
HETATM   23  N1  UNL     1      35.891  77.590  34.954  1.00  0.00    -0.372 N 
HETATM   24  N2  UNL     1      34.546  75.846  35.669  1.00  0.00    -0.062 NA
ATOM     25  H12 UNL     1      36.485  77.422  35.766  1.00  0.00     0.158 HD
ATOM     26  H11 UNL     1      36.104  78.329  34.285  1.00  0.00     0.158 HD
ATOM     27  H3  UNL     1      33.738  78.063  33.359  1.00  0.00     0.189 HD
ENDBRANCH   1  21
TORSDOF 6
ENDMDL
MODEL 2
REMARK VINA RESULT: -7.318889816      1.612      1.807
REMARK  6 active torsions:
REMARK  status: ('A' for Active; 'I' for Inactive)
REMARK       I    between atoms: C1_4  and  N3_6 
REMARK    1  A    between atoms: N3_6  and  N4_8 
REMARK    2  A    between atoms: C2_10  and  C3_11 
REMARK    3  A    between atoms: C2_10  and  N6_16 
REMARK    4  A    between atoms: C3_11  and  N5_12 
REMARK    5  A    between atoms: N6_16  and  N7_18 
REMARK    6  A    between atoms: C5_24  and  C6_25 
ROOT
HETATM    1  N4  UNL     1      32.046  75.694  32.262  1.00  0.00    -0.284 N 
ATOM      2  H4  UNL     1      32.777  75.317  31.658  1.00  0.00     0.188 HD
HETATM    3  C2  UNL     1      30.867  75.182  32.153  1.00  0.00     0.138 C 
ENDROOT
BRANCH   3   4
HETATM    4  C3  UNL     1      29.781  75.691  32.999  1.00  0.00     0.308 C 
BRANCH   4   5
HETATM    5  N5  UNL     1      28.749  76.376  32.258  1.00  0.00    -0.073 N 
ATOM      6  H53 UNL     1      29.107  77.240  31.852  1.00  0.00     0.274 HD
ATOM      7  H52 UNL     1      28.520  75.870  31.403  1.00  0.00     0.274 HD
ATOM      8  H51 UNL     1      27.908  76.556  32.806  1.00  0.00     0.274 HD
ENDBRANCH   4   5
ENDBRANCH   3   4
BRANCH   3   9
HETATM    9  N6  UNL     1      30.706  74.139  31.201  1.00  0.00    -0.263 N 
ATOM     10  H6  UNL     1      30.767  73.177  31.532  1.00  0.00     0.190 HD
BRANCH   9  11
HETATM   11  N7  UNL     1      30.472  74.346  29.845  1.00  0.00    -0.175 N 
HETATM   12  N8  UNL     1      31.235  75.044  29.046  1.00  0.00    -0.273 N 
HETATM   13  C4  UNL     1      30.721  75.038  27.818  1.00  0.00     0.201 A 
ATOM     14  H8  UNL     1      32.094  75.519  29.321  1.00  0.00     0.190 HD
HETATM   15  N9  UNL     1      29.601  74.317  27.852  1.00  0.00    -0.333 N 
HETATM   16  C5  UNL     1      29.442  73.883  29.114  1.00  0.00     0.182 A 
ATOM     17  H9  UNL     1      28.979  74.128  27.066  1.00  0.00     0.168 HD
BRANCH  16  18
HETATM   18  C6  UNL     1      28.339  73.057  29.584  1.00  0.00     0.160 C 
HETATM   19  N10 UNL     1      28.533  72.020  30.518  1.00  0.00    -0.086 NA
HETATM   20  S1  UNL     1      26.850  73.349  29.014  1.00  0.00    -0.060 SA
ENDBRANCH  16  18
ENDBRANCH   9  11
ENDBRANCH   3   9
BRANCH   1  21
HETATM   21  N3  UNL     1      32.400  76.707  33.122  1.00  0.00    -0.272 N 
HETATM   22  C1  UNL     1      33.636  76.665  33.857  1.00  0.00     0.200 C 
HETATM   23  N1  UNL     1      34.397  77.704  33.932  1.00  0.00    -0.372 N 
HETATM   24  N2  UNL     1      34.058  75.489  34.516  1.00  0.00    -0.062 NA
ATOM     25  H12 UNL     1      35.274  77.673  34.453  1.00  0.00     0.158 HD
ATOM     26  H11 UNL     1      34.093  78.553  33.455  1.00  0.00     0.158 HD
ATOM     27  H3  UNL     1      31.773  77.504  33.241  1.00  0.00     0.189 HD
ENDBRANCH   1  21
TORSDOF 6
ENDMDL
MODEL 3
REMARK VINA RESULT: -6.966575207      2.754      5.917
REMARK  6 active torsions:
REMARK  status: ('A' for Active; 'I' for Inactive)
REMARK       I    between atoms: C1_4  and  N3_6 
REMARK    1  A    between atoms: N3_6  and  N4_8 
REMARK    2  A    between atoms: C2_10  and  C3_11 
REMARK    3  A    between atoms: C2_10  and  N6_16 
REMARK    4  A    between atoms: C3_11  and  N5_12 
REMARK    5  A    between atoms: N6_16  and  N7_18 
REMARK    6  A    between atoms: C5_24  and  C6_25 
ROOT
HETATM    1  N4  UNL     1      30.608  73.794  30.097  1.00  0.00    -0.284 N 
ATOM      2  H4  UNL     1      30.465  73.522  31.070  1.00  0.00     0.188 HD
HETATM    3  C2  UNL     1      31.510  74.685  29.859  1.00  0.00     0.138 C 
ENDROOT
BRANCH   3   4
HETATM    4  C3  UNL     1      31.754  75.110  28.476  1.00  0.00     0.308 C 
BRANCH   4   5
HETATM    5  N5  UNL     1      33.135  74.987  28.072  1.00  0.00    -0.073 N 
ATOM      6  H53 UNL     1      33.333  75.589  27.273  1.00  0.00     0.274 HD
ATOM      7  H52 UNL     1      33.754  75.413  28.762  1.00  0.00     0.274 HD
ATOM      8  H51 UNL     1      33.417  74.026  27.879  1.00  0.00     0.274 HD
ENDBRANCH   4   5
ENDBRANCH   3   4
BRANCH   3   9
HETATM    9  N6  UNL     1      32.216  75.199  30.981  1.00  0.00    -0.263 N 
ATOM     10  H6  UNL     1      32.905  75.932  30.816  1.00  0.00     0.190 HD
BRANCH   9  11
HETATM   11  N7  UNL     1      32.029  74.766  32.290  1.00  0.00    -0.175 N 
HETATM   12  N8  UNL     1      32.800  73.921  32.922  1.00  0.00    -0.273 N 
HETATM   13  C4  UNL     1      32.335  73.726  34.154  1.00  0.00     0.201 A 
ATOM     14  H8  UNL     1      33.631  73.478  32.531  1.00  0.00     0.190 HD
HETATM   15  N9  UNL     1      31.239  74.471  34.294  1.00  0.00    -0.333 N 
HETATM   16  C5  UNL     1      31.045  75.121  33.135  1.00  0.00     0.182 A 
ATOM     17  H9  UNL     1      30.655  74.535  35.129  1.00  0.00     0.168 HD
BRANCH  16  18
HETATM   18  C6  UNL     1      29.951  76.043  32.864  1.00  0.00     0.160 C 
HETATM   19  N10 UNL     1      28.907  75.716  31.976  1.00  0.00    -0.086 NA
HETATM   20  S1  UNL     1      29.944  77.482  33.609  1.00  0.00    -0.060 SA
ENDBRANCH  16  18
ENDBRANCH   9  11
ENDBRANCH   3   9
BRANCH   1  21
HETATM   21  N3  UNL     1      29.823  73.181  29.149  1.00  0.00    -0.272 N 
HETATM   22  C1  UNL     1      28.547  72.613  29.492  1.00  0.00     0.200 C 
HETATM   23  N1  UNL     1      27.509  72.822  28.753  1.00  0.00    -0.372 N 
HETATM   24  N2  UNL     1      28.385  71.811  30.643  1.00  0.00    -0.062 NA
ATOM     25  H12 UNL     1      26.604  72.418  28.996  1.00  0.00     0.158 HD
ATOM     26  H11 UNL     1      27.625  73.401  27.922  1.00  0.00     0.158 HD
ATOM     27  H3  UNL     1      30.152  73.129  28.185  1.00  0.00     0.189 HD
ENDBRANCH   1  21
TORSDOF 6
ENDMDL
MODEL 4
REMARK VINA RESULT: -6.959937251      3.059      6.135
REMARK  6 active torsions:
REMARK  status: ('A' for Active; 'I' for Inactive)
REMARK       I    between atoms: C1_4  and  N3_6 
REMARK    1  A    between atoms: N3_6  and  N4_8 
REMARK    2  A    between atoms: C2_10  and  C3_11 
REMARK    3  A    between atoms: C2_10  and  N6_16 
REMARK    4  A    between atoms: C3_11  and  N5_12 
REMARK    5  A    between atoms: N6_16  and  N7_18 
REMARK    6  A    between atoms: C5_24  and  C6_25 
ROOT
HETATM    1  N4  UNL     1      30.533  73.677  31.437  1.00  0.00    -0.284 N 
ATOM      2  H4  UNL     1      31.054  72.870  31.780  1.00  0.00     0.188 HD
HETATM    3  C2  UNL     1      30.449  74.702  32.216  1.00  0.00     0.138 C 
ENDROOT
BRANCH   3   4
HETATM    4  C3  UNL     1      29.711  75.888  31.768  1.00  0.00     0.308 C 
BRANCH   4   5
HETATM    5  N5  UNL     1      28.593  76.225  32.618  1.00  0.00    -0.073 N 
ATOM      6  H53 UNL     1      27.937  76.834  32.129  1.00  0.00     0.274 HD
ATOM      7  H52 UNL     1      27.993  75.413  32.766  1.00  0.00     0.274 HD
ATOM      8  H51 UNL     1      28.871  76.635  33.509  1.00  0.00     0.274 HD
ENDBRANCH   4   5
ENDBRANCH   3   4
BRANCH   3   9
HETATM    9  N6  UNL     1      31.094  74.601  33.479  1.00  0.00    -0.263 N 
ATOM     10  H6  UNL     1      30.647  74.033  34.199  1.00  0.00     0.190 HD
BRANCH   9  11
HETATM   11  N7  UNL     1      32.294  75.228  33.798  1.00  0.00    -0.175 N 
HETATM   12  N8  UNL     1      32.716  76.353  33.286  1.00  0.00    -0.273 N 
HETATM   13  C4  UNL     1      33.899  76.668  33.809  1.00  0.00     0.201 A 
ATOM     14  H8  UNL     1      32.215  76.907  32.591  1.00  0.00     0.190 HD
HETATM   15  N9  UNL     1      34.225  75.708  34.674  1.00  0.00    -0.333 N 
HETATM   16  C5  UNL     1      33.228  74.809  34.670  1.00  0.00     0.182 A 
ATOM     17  H9  UNL     1      35.077  75.665  35.235  1.00  0.00     0.168 HD
BRANCH  16  18
HETATM   18  C6  UNL     1      33.188  73.597  35.478  1.00  0.00     0.160 C 
HETATM   19  N10 UNL     1      32.484  72.450  35.061  1.00  0.00    -0.086 NA
HETATM   20  S1  UNL     1      33.978  73.579  36.893  1.00  0.00    -0.060 SA
ENDBRANCH  16  18
ENDBRANCH   9  11
ENDBRANCH   3   9
BRANCH   1  21
HETATM   21  N3  UNL     1      29.978  73.582  30.182  1.00  0.00    -0.272 N 
HETATM   22  C1  UNL     1      28.680  72.994  29.982  1.00  0.00     0.200 C 
HETATM   23  N1  UNL     1      27.807  73.561  29.220  1.00  0.00    -0.372 N 
HETATM   24  N2  UNL     1      28.318  71.783  30.612  1.00  0.00    -0.062 NA
ATOM     25  H12 UNL     1      26.887  73.145  29.078  1.00  0.00     0.158 HD
ATOM     26  H11 UNL     1      28.069  74.436  28.766  1.00  0.00     0.158 HD
ATOM     27  H3  UNL     1      30.498  73.934  29.378  1.00  0.00     0.189 HD
ENDBRANCH   1  21
TORSDOF 6
ENDMDL
MODEL 5
REMARK VINA RESULT: -6.902535581      2.761      6.345
REMARK  6 active torsions:
REMARK  status: ('A' for Active; 'I' for Inactive)
REMARK       I    between atoms: C1_4  and  N3_6 
REMARK    1  A    between atoms: N3_6  and  N4_8 
REMARK    2  A    between atoms: C2_10  and  C3_11 
REMARK    3  A    between atoms: C2_10  and  N6_16 
REMARK    4  A    between atoms: C3_11  and  N5_12 
REMARK    5  A    between atoms: N6_16  and  N7_18 
REMARK    6  A    between atoms: C5_24  and  C6_25 
ROOT
HETATM    1  N4  UNL     1      30.643  73.675  30.306  1.00  0.00    -0.284 N 
ATOM      2  H4  UNL     1      30.459  73.344  31.253  1.00  0.00     0.188 HD
HETATM    3  C2  UNL     1      31.561  74.569  30.160  1.00  0.00     0.138 C 
ENDROOT
BRANCH   3   4
HETATM    4  C3  UNL     1      31.863  75.077  28.817  1.00  0.00     0.308 C 
BRANCH   4   5
HETATM    5  N5  UNL     1      33.215  74.802  28.389  1.00  0.00    -0.073 N 
ATOM      6  H53 UNL     1      33.711  75.669  28.179  1.00  0.00     0.274 HD
ATOM      7  H52 UNL     1      33.781  74.468  29.169  1.00  0.00     0.274 HD
ATOM      8  H51 UNL     1      33.268  74.156  27.602  1.00  0.00     0.274 HD
ENDBRANCH   4   5
ENDBRANCH   3   4
BRANCH   3   9
HETATM    9  N6  UNL     1      32.227  75.003  31.339  1.00  0.00    -0.263 N 
ATOM     10  H6  UNL     1      33.158  74.633  31.525  1.00  0.00     0.190 HD
BRANCH   9  11
HETATM   11  N7  UNL     1      31.690  75.901  32.256  1.00  0.00    -0.175 N 
HETATM   12  N8  UNL     1      30.517  76.469  32.156  1.00  0.00    -0.273 N 
HETATM   13  C4  UNL     1      30.317  77.270  33.201  1.00  0.00     0.201 A 
ATOM     14  H8  UNL     1      29.856  76.322  31.394  1.00  0.00     0.190 HD
HETATM   15  N9  UNL     1      31.399  77.200  33.976  1.00  0.00    -0.333 N 
HETATM   16  C5  UNL     1      32.257  76.348  33.391  1.00  0.00     0.182 A 
ATOM     17  H9  UNL     1      31.548  77.702  34.852  1.00  0.00     0.168 HD
BRANCH  16  18
HETATM   18  C6  UNL     1      33.567  75.987  33.912  1.00  0.00     0.160 C 
HETATM   19  N10 UNL     1      33.975  74.644  34.031  1.00  0.00    -0.086 NA
HETATM   20  S1  UNL     1      34.578  77.171  34.365  1.00  0.00    -0.060 SA
ENDBRANCH  16  18
ENDBRANCH   9  11
ENDBRANCH   3   9
BRANCH   1  21
HETATM   21  N3  UNL     1      29.891  73.132  29.292  1.00  0.00    -0.272 N 
HETATM   22  C1  UNL     1      28.579  72.595  29.540  1.00  0.00     0.200 C 
HETATM   23  N1  UNL     1      27.591  72.872  28.757  1.00  0.00    -0.372 N 
HETATM   24  N2  UNL     1      28.328  71.751  30.645  1.00  0.00    -0.062 NA
ATOM     25  H12 UNL     1      26.661  72.491  28.934  1.00  0.00     0.158 HD
ATOM     26  H11 UNL     1      27.772  73.481  27.960  1.00  0.00     0.158 HD
ATOM     27  H3  UNL     1      30.270  73.109  28.345  1.00  0.00     0.189 HD
ENDBRANCH   1  21
TORSDOF 6
ENDMDL
