MODEL 1
REMARK VINA RESULT: -7.344633470      0.000      0.000
REMARK  8 active torsions:
REMARK  status: ('A' for Active; 'I' for Inactive)
REMARK    1  A    between atoms: N1_1  and  C1_4 
REMARK    2  A    between atoms: C2_7  and  C3_8 
REMARK    3  A    between atoms: C3_8  and  C4_10 
REMARK    4  A    between atoms: C4_10  and  N3_11 
REMARK    5  A    between atoms: C4_10  and  C5_15 
REMARK    6  A    between atoms: C5_15  and  C6_16 
REMARK    7  A    between atoms: C9_25  and  N7_26 
REMARK    8  A    between atoms: N7_26  and  N8_28 
ROOT
HETATM    1  C1  UNL     1      33.263  74.046  34.128  1.00  0.00     0.692 A 
HETATM    2  N2  UNL     1      32.424  73.999  33.083  1.00  0.00    -0.172 N 
ATOM      3  H2  UNL     1      31.965  73.115  32.863  1.00  0.00     0.186 HD
HETATM    4  C2  UNL     1      32.162  75.071  32.312  1.00  0.00     0.184 A 
HETATM    5  N6  UNL     1      32.800  76.204  32.657  1.00  0.00    -0.170 N 
ATOM      6  H6  UNL     1      32.636  77.046  32.105  1.00  0.00     0.186 HD
HETATM    7  C9  UNL     1      33.640  76.271  33.696  1.00  0.00     0.712 A 
HETATM    8  N9  UNL     1      33.890  75.190  34.454  1.00  0.00    -0.021 N 
ATOM      9  H9  UNL     1      34.530  75.236  35.247  1.00  0.00     0.203 HD
ENDROOT
BRANCH   4  10
HETATM   10  C3  UNL     1      31.252  75.037  31.179  1.00  0.00     0.224 C 
HETATM   11  O1  UNL     1      31.673  74.514  30.110  1.00  0.00    -0.287 OA
BRANCH  10  12
HETATM   12  C4  UNL     1      29.883  75.565  31.184  1.00  0.00     0.266 C 
BRANCH  12  13
HETATM   13  N3  UNL     1      29.021  74.831  30.268  1.00  0.00    -0.068 N 
ATOM     14  H33 UNL     1      29.463  73.967  29.953  1.00  0.00     0.275 HD
ATOM     15  H32 UNL     1      28.218  74.432  30.753  1.00  0.00     0.275 HD
ATOM     16  H31 UNL     1      28.731  75.409  29.480  1.00  0.00     0.275 HD
ENDBRANCH  12  13
BRANCH  12  17
HETATM   17  C5  UNL     1      29.220  75.529  32.550  1.00  0.00     0.099 C 
BRANCH  17  18
HETATM   18  C6  UNL     1      28.905  76.861  33.065  1.00  0.00     0.028 A 
HETATM   19  C7  UNL     1      29.762  77.865  33.453  1.00  0.00     0.114 A 
HETATM   20  N4  UNL     1      29.005  78.908  33.856  1.00  0.00    -0.360 N 
HETATM   21  C8  UNL     1      27.706  78.575  33.726  1.00  0.00     0.180 A 
ATOM     22  H4  UNL     1      29.359  79.799  34.202  1.00  0.00     0.166 HD
HETATM   23  N5  UNL     1      27.666  77.342  33.250  1.00  0.00    -0.355 N 
ATOM     24  H5  UNL     1      26.809  76.826  33.051  1.00  0.00     0.166 HD
ENDBRANCH  17  18
ENDBRANCH  12  17
ENDBRANCH  10  12
ENDBRANCH   4  10
BRANCH   1  25
HETATM   25  N1  UNL     1      33.520  73.015  34.875  1.00  0.00    -0.234 N 
ATOM     26  H12 UNL     1      33.262  73.093  35.859  1.00  0.00     0.174 HD
ATOM     27  H11 UNL     1      33.957  72.166  34.518  1.00  0.00     0.174 HD
ENDBRANCH   1  25
BRANCH   7  28
HETATM   28  N7  UNL     1      34.250  77.366  34.021  1.00  0.00    -0.138 N 
ATOM     29  H7  UNL     1      33.914  78.266  33.678  1.00  0.00     0.205 HD
BRANCH  28  30
HETATM   30  N8  UNL     1      35.367  77.298  34.844  1.00  0.00    -0.331 N 
ATOM     31  H82 UNL     1      35.455  76.531  35.510  1.00  0.00     0.177 HD
ATOM     32  H81 UNL     1      36.084  78.019  34.767  1.00  0.00     0.177 HD
ENDBRANCH  28  30
ENDBRANCH   7  28
TORSDOF 8
ENDMDL
MODEL 2
REMARK VINA RESULT: -7.162561685      1.827      4.785
REMARK  8 active torsions:
REMARK  status: ('A' for Active; 'I' for Inactive)
REMARK    1  A    between atoms: N1_1  and  C1_4 
REMARK    2  A    between atoms: C2_7  and  C3_8 
REMARK    3  A    between atoms: C3_8  and  C4_10 
REMARK    4  A    between atoms: C4_10  and  N3_11 
REMARK    5  A    between atoms: C4_10  and  C5_15 
REMARK    6  A    between atoms: C5_15  and  C6_16 
REMARK    7  A    between atoms: C9_25  and  N7_26 
REMARK    8  A    between atoms: N7_26  and  N8_28 
ROOT
HETATM    1  C1  UNL     1      29.260  72.934  30.208  1.00  0.00     0.692 A 
HETATM    2  N2  UNL     1      30.179  73.374  31.081  1.00  0.00    -0.172 N 
ATOM      3  H2  UNL     1      30.331  72.845  31.939  1.00  0.00     0.186 HD
HETATM    4  C2  UNL     1      30.908  74.486  30.872  1.00  0.00     0.184 A 
HETATM    5  N6  UNL     1      30.657  75.136  29.720  1.00  0.00    -0.170 N 
ATOM      6  H6  UNL     1      31.183  75.985  29.513  1.00  0.00     0.186 HD
HETATM    7  C9  UNL     1      29.745  74.713  28.837  1.00  0.00     0.712 A 
HETATM    8  N9  UNL     1      29.026  73.601  29.064  1.00  0.00    -0.021 N 
ATOM      9  H9  UNL     1      28.330  73.275  28.393  1.00  0.00     0.203 HD
ENDROOT
BRANCH   4  10
HETATM   10  C3  UNL     1      31.910  74.973  31.805  1.00  0.00     0.224 C 
HETATM   11  O1  UNL     1      33.092  75.095  31.378  1.00  0.00    -0.287 OA
BRANCH  10  12
HETATM   12  C4  UNL     1      31.652  75.332  33.204  1.00  0.00     0.266 C 
BRANCH  12  13
HETATM   13  N3  UNL     1      32.725  74.886  34.080  1.00  0.00    -0.068 N 
ATOM     14  H33 UNL     1      33.570  75.442  33.947  1.00  0.00     0.275 HD
ATOM     15  H32 UNL     1      32.533  75.119  35.053  1.00  0.00     0.275 HD
ATOM     16  H31 UNL     1      32.915  73.890  33.966  1.00  0.00     0.275 HD
ENDBRANCH  12  13
BRANCH  12  17
HETATM   17  C5  UNL     1      31.481  76.825  33.428  1.00  0.00     0.099 C 
BRANCH  17  18
HETATM   18  C6  UNL     1      30.086  77.256  33.349  1.00  0.00     0.028 A 
HETATM   19  C7  UNL     1      28.949  76.492  33.219  1.00  0.00     0.114 A 
HETATM   20  N4  UNL     1      27.897  77.337  33.188  1.00  0.00    -0.360 N 
HETATM   21  C8  UNL     1      28.353  78.600  33.297  1.00  0.00     0.180 A 
ATOM     22  H4  UNL     1      26.918  77.064  33.098  1.00  0.00     0.166 HD
HETATM   23  N5  UNL     1      29.670  78.531  33.391  1.00  0.00    -0.355 N 
ATOM     24  H5  UNL     1      30.287  79.338  33.483  1.00  0.00     0.166 HD
ENDBRANCH  17  18
ENDBRANCH  12  17
ENDBRANCH  10  12
ENDBRANCH   4  10
BRANCH   1  25
HETATM   25  N1  UNL     1      28.553  71.863  30.405  1.00  0.00    -0.234 N 
ATOM     26  H12 UNL     1      27.540  71.983  30.403  1.00  0.00     0.174 HD
ATOM     27  H11 UNL     1      28.969  70.944  30.558  1.00  0.00     0.174 HD
ENDBRANCH   1  25
BRANCH   7  28
HETATM   28  N7  UNL     1      29.511  75.345  27.732  1.00  0.00    -0.138 N 
ATOM     29  H7  UNL     1      30.191  75.326  26.971  1.00  0.00     0.205 HD
BRANCH  28  30
HETATM   30  N8  UNL     1      28.321  76.050  27.596  1.00  0.00    -0.331 N 
ATOM     31  H82 UNL     1      27.491  75.571  27.247  1.00  0.00     0.177 HD
ATOM     32  H81 UNL     1      28.298  77.037  27.849  1.00  0.00     0.177 HD
ENDBRANCH  28  30
ENDBRANCH   7  28
TORSDOF 8
ENDMDL
MODEL 3
REMARK VINA RESULT: -7.120169551      2.234      3.471
REMARK  8 active torsions:
REMARK  status: ('A' for Active; 'I' for Inactive)
REMARK    1  A    between atoms: N1_1  and  C1_4 
REMARK    2  A    between atoms: C2_7  and  C3_8 
REMARK    3  A    between atoms: C3_8  and  C4_10 
REMARK    4  A    between atoms: C4_10  and  N3_11 
REMARK    5  A    between atoms: C4_10  and  C5_15 
REMARK    6  A    between atoms: C5_15  and  C6_16 
REMARK    7  A    between atoms: C9_25  and  N7_26 
REMARK    8  A    between atoms: N7_26  and  N8_28 
ROOT
HETATM    1  C1  UNL     1      33.376  74.135  34.342  1.00  0.00     0.692 A 
HETATM    2  N2  UNL     1      32.728  74.028  33.172  1.00  0.00    -0.172 N 
ATOM      3  H2  UNL     1      32.305  73.132  32.928  1.00  0.00     0.186 HD
HETATM    4  C2  UNL     1      32.612  75.052  32.308  1.00  0.00     0.184 A 
HETATM    5  N6  UNL     1      33.192  76.204  32.693  1.00  0.00    -0.170 N 
ATOM      6  H6  UNL     1      33.134  77.013  32.074  1.00  0.00     0.186 HD
HETATM    7  C9  UNL     1      33.843  76.331  33.855  1.00  0.00     0.712 A 
HETATM    8  N9  UNL     1      33.949  75.296  34.705  1.00  0.00    -0.021 N 
ATOM      9  H9  UNL     1      34.445  75.388  35.592  1.00  0.00     0.203 HD
ENDROOT
BRANCH   4  10
HETATM   10  C3  UNL     1      31.909  74.953  31.040  1.00  0.00     0.224 C 
HETATM   11  O1  UNL     1      32.598  75.040  29.985  1.00  0.00    -0.287 OA
BRANCH  10  12
HETATM   12  C4  UNL     1      30.462  74.761  30.893  1.00  0.00     0.266 C 
BRANCH  12  13
HETATM   13  N3  UNL     1      29.709  75.689  31.723  1.00  0.00    -0.068 N 
ATOM     14  H33 UNL     1      30.250  76.530  31.926  1.00  0.00     0.275 HD
ATOM     15  H32 UNL     1      28.942  76.114  31.204  1.00  0.00     0.275 HD
ATOM     16  H31 UNL     1      29.379  75.245  32.580  1.00  0.00     0.275 HD
ENDBRANCH  12  13
BRANCH  12  17
HETATM   17  C5  UNL     1      29.966  74.930  29.466  1.00  0.00     0.099 C 
BRANCH  17  18
HETATM   18  C6  UNL     1      28.747  74.171  29.194  1.00  0.00     0.028 A 
HETATM   19  C7  UNL     1      28.473  72.848  29.454  1.00  0.00     0.114 A 
HETATM   20  N4  UNL     1      27.217  72.604  29.024  1.00  0.00    -0.360 N 
HETATM   21  C8  UNL     1      26.709  73.739  28.506  1.00  0.00     0.180 A 
ATOM     22  H4  UNL     1      26.734  71.708  29.080  1.00  0.00     0.166 HD
HETATM   23  N5  UNL     1      27.643  74.669  28.617  1.00  0.00    -0.355 N 
ATOM     24  H5  UNL     1      27.538  75.635  28.306  1.00  0.00     0.166 HD
ENDBRANCH  17  18
ENDBRANCH  12  17
ENDBRANCH  10  12
ENDBRANCH   4  10
BRANCH   1  25
HETATM   25  N1  UNL     1      33.492  73.149  35.179  1.00  0.00    -0.234 N 
ATOM     26  H12 UNL     1      33.830  72.267  34.795  1.00  0.00     0.174 HD
ATOM     27  H11 UNL     1      33.260  73.231  36.170  1.00  0.00     0.174 HD
ENDBRANCH   1  25
BRANCH   7  28
HETATM   28  N7  UNL     1      34.399  77.443  34.216  1.00  0.00    -0.138 N 
ATOM     29  H7  UNL     1      33.954  78.336  34.003  1.00  0.00     0.205 HD
BRANCH  28  30
HETATM   30  N8  UNL     1      35.608  77.403  34.900  1.00  0.00    -0.331 N 
ATOM     31  H82 UNL     1      36.474  77.258  34.381  1.00  0.00     0.177 HD
ATOM     32  H81 UNL     1      35.608  77.519  35.913  1.00  0.00     0.177 HD
ENDBRANCH  28  30
ENDBRANCH   7  28
TORSDOF 8
ENDMDL
MODEL 4
REMARK VINA RESULT: -7.102162323      1.600      5.572
REMARK  8 active torsions:
REMARK  status: ('A' for Active; 'I' for Inactive)
REMARK    1  A    between atoms: N1_1  and  C1_4 
REMARK    2  A    between atoms: C2_7  and  C3_8 
REMARK    3  A    between atoms: C3_8  and  C4_10 
REMARK    4  A    between atoms: C4_10  and  N3_11 
REMARK    5  A    between atoms: C4_10  and  C5_15 
REMARK    6  A    between atoms: C5_15  and  C6_16 
REMARK    7  A    between atoms: C9_25  and  N7_26 
REMARK    8  A    between atoms: N7_26  and  N8_28 
ROOT
HETATM    1  C1  UNL     1      29.602  78.695  34.581  1.00  0.00     0.692 A 
HETATM    2  N2  UNL     1      30.010  77.682  33.802  1.00  0.00    -0.172 N 
ATOM      3  H2  UNL     1      31.005  77.457  33.774  1.00  0.00     0.186 HD
HETATM    4  C2  UNL     1      29.162  76.950  33.058  1.00  0.00     0.184 A 
HETATM    5  N6  UNL     1      27.865  77.299  33.143  1.00  0.00    -0.170 N 
ATOM      6  H6  UNL     1      27.180  76.776  32.598  1.00  0.00     0.186 HD
HETATM    7  C9  UNL     1      27.439  78.306  33.913  1.00  0.00     0.712 A 
HETATM    8  N9  UNL     1      28.301  79.027  34.650  1.00  0.00    -0.021 N 
ATOM      9  H9  UNL     1      27.980  79.796  35.239  1.00  0.00     0.203 HD
ENDROOT
BRANCH   4  10
HETATM   10  C3  UNL     1      29.587  75.846  32.212  1.00  0.00     0.224 C 
HETATM   11  O1  UNL     1      28.923  75.629  31.161  1.00  0.00    -0.287 OA
BRANCH  10  12
HETATM   12  C4  UNL     1      30.729  74.967  32.488  1.00  0.00     0.266 C 
BRANCH  12  13
HETATM   13  N3  UNL     1      30.564  73.662  31.867  1.00  0.00    -0.068 N 
ATOM     14  H33 UNL     1      29.665  73.245  32.111  1.00  0.00     0.275 HD
ATOM     15  H32 UNL     1      30.434  73.742  30.859  1.00  0.00     0.275 HD
ATOM     16  H31 UNL     1      31.336  73.036  32.094  1.00  0.00     0.275 HD
ENDBRANCH  12  13
BRANCH  12  17
HETATM   17  C5  UNL     1      32.059  75.527  32.011  1.00  0.00     0.099 C 
BRANCH  17  18
HETATM   18  C6  UNL     1      32.979  75.821  33.108  1.00  0.00     0.028 A 
HETATM   19  C7  UNL     1      33.357  75.019  34.161  1.00  0.00     0.114 A 
HETATM   20  N4  UNL     1      34.225  75.726  34.915  1.00  0.00    -0.360 N 
HETATM   21  C8  UNL     1      34.395  76.940  34.356  1.00  0.00     0.180 A 
ATOM     22  H4  UNL     1      34.677  75.395  35.767  1.00  0.00     0.166 HD
HETATM   23  N5  UNL     1      33.638  76.978  33.272  1.00  0.00    -0.355 N 
ATOM     24  H5  UNL     1      33.564  77.780  32.645  1.00  0.00     0.166 HD
ENDBRANCH  17  18
ENDBRANCH  12  17
ENDBRANCH  10  12
ENDBRANCH   4  10
BRANCH   1  25
HETATM   25  N1  UNL     1      30.416  79.405  35.302  1.00  0.00    -0.234 N 
ATOM     26  H12 UNL     1      31.060  80.011  34.792  1.00  0.00     0.174 HD
ATOM     27  H11 UNL     1      30.429  79.372  36.321  1.00  0.00     0.174 HD
ENDBRANCH   1  25
BRANCH   7  28
HETATM   28  N7  UNL     1      26.189  78.635  33.989  1.00  0.00    -0.138 N 
ATOM     29  H7  UNL     1      25.524  78.306  33.289  1.00  0.00     0.205 HD
BRANCH  28  30
HETATM   30  N8  UNL     1      25.766  79.444  35.038  1.00  0.00    -0.331 N 
ATOM     31  H82 UNL     1      25.182  80.256  34.842  1.00  0.00     0.177 HD
ATOM     32  H81 UNL     1      26.049  79.208  35.989  1.00  0.00     0.177 HD
ENDBRANCH  28  30
ENDBRANCH   7  28
TORSDOF 8
ENDMDL
MODEL 5
REMARK VINA RESULT: -7.097627856      2.072      3.126
REMARK  8 active torsions:
REMARK  status: ('A' for Active; 'I' for Inactive)
REMARK    1  A    between atoms: N1_1  and  C1_4 
REMARK    2  A    between atoms: C2_7  and  C3_8 
REMARK    3  A    between atoms: C3_8  and  C4_10 
REMARK    4  A    between atoms: C4_10  and  N3_11 
REMARK    5  A    between atoms: C4_10  and  C5_15 
REMARK    6  A    between atoms: C5_15  and  C6_16 
REMARK    7  A    between atoms: C9_25  and  N7_26 
REMARK    8  A    between atoms: N7_26  and  N8_28 
ROOT
HETATM    1  C1  UNL     1      32.200  74.553  33.736  1.00  0.00     0.692 A 
HETATM    2  N2  UNL     1      31.008  75.155  33.613  1.00  0.00    -0.172 N 
ATOM      3  H2  UNL     1      30.166  74.579  33.613  1.00  0.00     0.186 HD
HETATM    4  C2  UNL     1      30.876  76.488  33.490  1.00  0.00     0.184 A 
HETATM    5  N6  UNL     1      32.025  77.189  33.498  1.00  0.00    -0.170 N 
ATOM      6  H6  UNL     1      31.981  78.204  33.408  1.00  0.00     0.186 HD
HETATM    7  C9  UNL     1      33.223  76.606  33.619  1.00  0.00     0.712 A 
HETATM    8  N9  UNL     1      33.335  75.273  33.740  1.00  0.00    -0.021 N 
ATOM      9  H9  UNL     1      34.247  74.824  33.833  1.00  0.00     0.203 HD
ENDROOT
BRANCH   4  10
HETATM   10  C3  UNL     1      29.591  77.157  33.361  1.00  0.00     0.224 C 
HETATM   11  O1  UNL     1      28.846  76.804  32.405  1.00  0.00    -0.287 OA
BRANCH  10  12
HETATM   12  C4  UNL     1      29.096  78.208  34.256  1.00  0.00     0.266 C 
BRANCH  12  13
HETATM   13  N3  UNL     1      30.175  79.059  34.735  1.00  0.00    -0.068 N 
ATOM     14  H33 UNL     1      30.439  79.753  34.036  1.00  0.00     0.275 HD
ATOM     15  H32 UNL     1      29.855  79.687  35.471  1.00  0.00     0.275 HD
ATOM     16  H31 UNL     1      30.981  78.511  35.037  1.00  0.00     0.275 HD
ENDBRANCH  12  13
BRANCH  12  17
HETATM   17  C5  UNL     1      28.058  79.115  33.617  1.00  0.00     0.099 C 
BRANCH  17  18
HETATM   18  C6  UNL     1      26.911  79.370  34.487  1.00  0.00     0.028 A 
HETATM   19  C7  UNL     1      26.890  79.875  35.767  1.00  0.00     0.114 A 
HETATM   20  N4  UNL     1      25.600  79.929  36.158  1.00  0.00    -0.360 N 
HETATM   21  C8  UNL     1      24.824  79.473  35.155  1.00  0.00     0.180 A 
ATOM     22  H4  UNL     1      25.267  80.260  37.063  1.00  0.00     0.166 HD
HETATM   23  N5  UNL     1      25.630  79.141  34.161  1.00  0.00    -0.355 N 
ATOM     24  H5  UNL     1      25.320  78.762  33.266  1.00  0.00     0.166 HD
ENDBRANCH  17  18
ENDBRANCH  12  17
ENDBRANCH  10  12
ENDBRANCH   4  10
BRANCH   1  25
HETATM   25  N1  UNL     1      32.333  73.266  33.854  1.00  0.00    -0.234 N 
ATOM     26  H12 UNL     1      31.607  72.783  34.384  1.00  0.00     0.174 HD
ATOM     27  H11 UNL     1      33.114  72.749  33.449  1.00  0.00     0.174 HD
ENDBRANCH   1  25
BRANCH   7  28
HETATM   28  N7  UNL     1      34.324  77.288  33.626  1.00  0.00    -0.138 N 
ATOM     29  H7  UNL     1      34.587  77.854  32.819  1.00  0.00     0.205 HD
BRANCH  28  30
HETATM   30  N8  UNL     1      35.142  77.238  34.748  1.00  0.00    -0.331 N 
ATOM     31  H82 UNL     1      35.370  76.335  35.164  1.00  0.00     0.177 HD
ATOM     32  H81 UNL     1      35.502  78.109  35.138  1.00  0.00     0.177 HD
ENDBRANCH  28  30
ENDBRANCH   7  28
TORSDOF 8
ENDMDL
