MODEL 1
REMARK VINA RESULT: -5.308890598      0.000      0.000
REMARK  3 active torsions:
REMARK  status: ('A' for Active; 'I' for Inactive)
REMARK       I    between atoms: C2_2  and  N1_4 
REMARK    1  A    between atoms: N1_4  and  C3_6 
REMARK    2  A    between atoms: C3_6  and  S2_8 
REMARK    3  A    between atoms: S2_8  and  C4_9 
ROOT
HETATM    1  C3  UNL     1      23.050  30.960  11.309  1.00  0.00     0.141 C 
HETATM    2  S1  UNL     1      22.686  32.490  10.796  1.00  0.00    -0.052 SA
ENDROOT
BRANCH   1   3
HETATM    3  N1  UNL     1      23.612  30.825  12.602  1.00  0.00    -0.313 N 
HETATM    4  C2  UNL     1      25.003  30.910  12.830  1.00  0.00     0.219 C 
HETATM    5  C1  UNL     1      25.527  30.758  14.221  1.00  0.00     0.117 C 
HETATM    6  O1  UNL     1      25.837  31.110  11.919  1.00  0.00    -0.274 OA
ATOM      7  H1  UNL     1      22.991  30.660  13.394  1.00  0.00     0.170 HD
ENDBRANCH   1   3
BRANCH   1   8
HETATM    8  S2  UNL     1      22.708  29.580  10.229  1.00  0.00    -0.096 SA
BRANCH   8   9
HETATM    9  C4  UNL     1      21.119  28.859  10.723  1.00  0.00     0.054 C 
HETATM   10  C5  UNL     1      20.846  27.569   9.970  1.00  0.00     0.015 C 
HETATM   11  C6  UNL     1      19.372  27.452   9.703  1.00  0.00     0.001 C 
HETATM   12  C7  UNL     1      18.914  28.450   8.654  1.00  0.00     0.000 C 
HETATM   13  C8  UNL     1      19.879  29.629   8.767  1.00  0.00     0.001 C 
HETATM   14  C9  UNL     1      20.047  29.868  10.275  1.00  0.00     0.015 C 
ENDBRANCH   8   9
ENDBRANCH   1   8
TORSDOF 3
ENDMDL
MODEL 2
REMARK VINA RESULT: -5.238109483      3.346      6.141
REMARK  3 active torsions:
REMARK  status: ('A' for Active; 'I' for Inactive)
REMARK       I    between atoms: C2_2  and  N1_4 
REMARK    1  A    between atoms: N1_4  and  C3_6 
REMARK    2  A    between atoms: C3_6  and  S2_8 
REMARK    3  A    between atoms: S2_8  and  C4_9 
ROOT
HETATM    1  C3  UNL     1      20.163  28.031  10.259  1.00  0.00     0.141 C 
HETATM    2  S1  UNL     1      20.347  26.514  10.892  1.00  0.00    -0.052 SA
ENDROOT
BRANCH   1   3
HETATM    3  N1  UNL     1      18.841  28.486  10.038  1.00  0.00    -0.313 N 
HETATM    4  C2  UNL     1      18.308  28.650   8.740  1.00  0.00     0.219 C 
HETATM    5  C1  UNL     1      16.904  29.135   8.581  1.00  0.00     0.117 C 
HETATM    6  O1  UNL     1      18.955  28.409   7.697  1.00  0.00    -0.274 OA
ATOM      7  H1  UNL     1      18.253  28.703  10.843  1.00  0.00     0.170 HD
ENDBRANCH   1   3
BRANCH   1   8
HETATM    8  S2  UNL     1      21.617  29.004   9.904  1.00  0.00    -0.096 SA
BRANCH   8   9
HETATM    9  C4  UNL     1      21.582  30.474  10.965  1.00  0.00     0.054 C 
HETATM   10  C5  UNL     1      22.288  31.644  10.302  1.00  0.00     0.015 C 
HETATM   11  C6  UNL     1      22.983  32.465  11.351  1.00  0.00     0.001 C 
HETATM   12  C7  UNL     1      24.191  31.738  11.916  1.00  0.00     0.000 C 
HETATM   13  C8  UNL     1      23.875  30.251  11.774  1.00  0.00     0.001 C 
HETATM   14  C9  UNL     1      22.409  30.108  12.211  1.00  0.00     0.015 C 
ENDBRANCH   8   9
ENDBRANCH   1   8
TORSDOF 3
ENDMDL
MODEL 3
REMARK VINA RESULT: -5.182835741      1.131      1.743
REMARK  3 active torsions:
REMARK  status: ('A' for Active; 'I' for Inactive)
REMARK       I    between atoms: C2_2  and  N1_4 
REMARK    1  A    between atoms: N1_4  and  C3_6 
REMARK    2  A    between atoms: C3_6  and  S2_8 
REMARK    3  A    between atoms: S2_8  and  C4_9 
ROOT
HETATM    1  C3  UNL     1      23.054  30.950  11.417  1.00  0.00     0.141 C 
HETATM    2  S1  UNL     1      22.755  32.476  10.854  1.00  0.00    -0.052 SA
ENDROOT
BRANCH   1   3
HETATM    3  N1  UNL     1      24.394  30.626  11.738  1.00  0.00    -0.313 N 
HETATM    4  C2  UNL     1      24.927  30.824  13.031  1.00  0.00     0.219 C 
HETATM    5  C1  UNL     1      26.351  30.460  13.299  1.00  0.00     0.117 C 
HETATM    6  O1  UNL     1      24.264  31.292  13.982  1.00  0.00    -0.274 OA
ATOM      7  H1  UNL     1      24.995  30.238  11.010  1.00  0.00     0.170 HD
ENDBRANCH   1   3
BRANCH   1   8
HETATM    8  S2  UNL     1      21.690  29.811  11.600  1.00  0.00    -0.096 SA
BRANCH   8   9
HETATM    9  C4  UNL     1      21.103  29.366   9.943  1.00  0.00     0.054 C 
HETATM   10  C5  UNL     1      19.587  29.412   9.868  1.00  0.00     0.015 C 
HETATM   11  C6  UNL     1      19.102  28.329   8.946  1.00  0.00     0.001 C 
HETATM   12  C7  UNL     1      19.276  26.952   9.563  1.00  0.00     0.000 C 
HETATM   13  C8  UNL     1      20.466  27.079  10.512  1.00  0.00     0.001 C 
HETATM   14  C9  UNL     1      21.512  27.896   9.738  1.00  0.00     0.015 C 
ENDBRANCH   8   9
ENDBRANCH   1   8
TORSDOF 3
ENDMDL
MODEL 4
REMARK VINA RESULT: -5.107772597      3.029      5.291
REMARK  3 active torsions:
REMARK  status: ('A' for Active; 'I' for Inactive)
REMARK       I    between atoms: C2_2  and  N1_4 
REMARK    1  A    between atoms: N1_4  and  C3_6 
REMARK    2  A    between atoms: C3_6  and  S2_8 
REMARK    3  A    between atoms: S2_8  and  C4_9 
ROOT
HETATM    1  C3  UNL     1      19.363  29.334   9.348  1.00  0.00     0.141 C 
HETATM    2  S1  UNL     1      17.965  29.571   8.496  1.00  0.00    -0.052 SA
ENDROOT
BRANCH   1   3
HETATM    3  N1  UNL     1      19.390  28.255  10.265  1.00  0.00    -0.313 N 
HETATM    4  C2  UNL     1      20.427  27.297  10.269  1.00  0.00     0.219 C 
HETATM    5  C1  UNL     1      20.391  26.185  11.266  1.00  0.00     0.117 C 
HETATM    6  O1  UNL     1      21.392  27.326   9.474  1.00  0.00    -0.274 OA
ATOM      7  H1  UNL     1      18.635  28.168  10.946  1.00  0.00     0.170 HD
ENDBRANCH   1   3
BRANCH   1   8
HETATM    8  S2  UNL     1      20.748  30.425   9.062  1.00  0.00    -0.096 SA
BRANCH   8   9
HETATM    9  C4  UNL     1      21.134  31.263  10.623  1.00  0.00     0.054 C 
HETATM   10  C5  UNL     1      22.218  32.310  10.428  1.00  0.00     0.015 C 
HETATM   11  C6  UNL     1      23.083  32.364  11.655  1.00  0.00     0.001 C 
HETATM   12  C7  UNL     1      23.956  31.127  11.776  1.00  0.00     0.000 C 
HETATM   13  C8  UNL     1      23.181  30.012  11.077  1.00  0.00     0.001 C 
HETATM   14  C9  UNL     1      21.726  30.181  11.542  1.00  0.00     0.015 C 
ENDBRANCH   8   9
ENDBRANCH   1   8
TORSDOF 3
ENDMDL
MODEL 5
REMARK VINA RESULT: -5.094317436      1.859      2.170
REMARK  3 active torsions:
REMARK  status: ('A' for Active; 'I' for Inactive)
REMARK       I    between atoms: C2_2  and  N1_4 
REMARK    1  A    between atoms: N1_4  and  C3_6 
REMARK    2  A    between atoms: C3_6  and  S2_8 
REMARK    3  A    between atoms: S2_8  and  C4_9 
ROOT
HETATM    1  C3  UNL     1      23.571  30.037  11.438  1.00  0.00     0.141 C 
HETATM    2  S1  UNL     1      23.784  28.967  12.682  1.00  0.00    -0.052 SA
ENDROOT
BRANCH   1   3
HETATM    3  N1  UNL     1      24.172  31.312  11.567  1.00  0.00    -0.313 N 
HETATM    4  C2  UNL     1      23.436  32.508  11.422  1.00  0.00     0.219 C 
HETATM    5  C1  UNL     1      24.136  33.820  11.572  1.00  0.00     0.117 C 
HETATM    6  O1  UNL     1      22.211  32.535  11.171  1.00  0.00    -0.274 OA
ATOM      7  H1  UNL     1      25.170  31.368  11.773  1.00  0.00     0.170 HD
ENDBRANCH   1   3
BRANCH   1   8
HETATM    8  S2  UNL     1      22.621  29.530  10.013  1.00  0.00    -0.096 SA
BRANCH   8   9
HETATM    9  C4  UNL     1      21.041  28.861  10.600  1.00  0.00     0.054 C 
HETATM   10  C5  UNL     1      20.735  27.526   9.945  1.00  0.00     0.015 C 
HETATM   11  C6  UNL     1      19.252  27.406   9.729  1.00  0.00     0.001 C 
HETATM   12  C7  UNL     1      18.773  28.335   8.628  1.00  0.00     0.000 C 
HETATM   13  C8  UNL     1      19.750  29.509   8.632  1.00  0.00     0.001 C 
HETATM   14  C9  UNL     1      19.965  29.848  10.115  1.00  0.00     0.015 C 
ENDBRANCH   8   9
ENDBRANCH   1   8
TORSDOF 3
ENDMDL
