MODEL 1
REMARK VINA RESULT: -6.595787141      0.000      0.000
REMARK  1 active torsions:
REMARK  status: ('A' for Active; 'I' for Inactive)
REMARK    1  A    between atoms: S1_2  and  C2_3 
ROOT
HETATM    1  C2  UNL     1      19.197  29.483   9.831  1.00  0.00     0.183 C 
HETATM    2  C3  UNL     1      19.213  30.705   8.966  1.00  0.00     0.046 C 
HETATM    3  C4  UNL     1      20.713  30.890   8.757  1.00  0.00     0.043 C 
HETATM    4  C5  UNL     1      21.230  30.406  10.086  1.00  0.00     0.082 C 
HETATM    5  C6  UNL     1      21.245  31.574  11.058  1.00  0.00     0.040 C 
HETATM    6  C7  UNL     1      22.460  32.398  10.723  1.00  0.00     0.008 C 
HETATM    7  C8  UNL     1      23.653  32.111  11.565  1.00  0.00     0.044 C 
HETATM    8  C9  UNL     1      23.901  30.702  11.937  1.00  0.00     0.056 C 
HETATM    9  N1  UNL     1      23.099  29.699  11.357  1.00  0.00    -0.395 N 
ATOM     10  H1  UNL     1      22.856  28.858  11.880  1.00  0.00     0.159 HD
HETATM   11  C10 UNL     1      22.638  29.887  10.028  1.00  0.00     0.111 C 
HETATM   12  C11 UNL     1      22.567  28.509   9.378  1.00  0.00     0.035 C 
HETATM   13  O1  UNL     1      20.375  29.426  10.542  1.00  0.00    -0.362 OA
ENDROOT
BRANCH   1  14
HETATM   14  S1  UNL     1      19.019  27.945   8.919  1.00  0.00    -0.142 SA
HETATM   15  C1  UNL     1      19.433  26.482   9.870  1.00  0.00     0.092 C 
ENDBRANCH   1  14
TORSDOF 1
ENDMDL
MODEL 2
REMARK VINA RESULT: -6.154660434      2.403      4.894
REMARK  1 active torsions:
REMARK  status: ('A' for Active; 'I' for Inactive)
REMARK    1  A    between atoms: S1_2  and  C2_3 
ROOT
HETATM    1  C2  UNL     1      22.601  30.914  11.654  1.00  0.00     0.183 C 
HETATM    2  C3  UNL     1      23.576  29.906  11.130  1.00  0.00     0.046 C 
HETATM    3  C4  UNL     1      22.831  29.398   9.899  1.00  0.00     0.043 C 
HETATM    4  C5  UNL     1      21.411  29.487  10.390  1.00  0.00     0.082 C 
HETATM    5  C6  UNL     1      21.061  28.193  11.107  1.00  0.00     0.040 C 
HETATM    6  C7  UNL     1      20.780  27.170  10.039  1.00  0.00     0.008 C 
HETATM    7  C8  UNL     1      19.338  26.994   9.716  1.00  0.00     0.044 C 
HETATM    8  C9  UNL     1      18.490  28.205   9.700  1.00  0.00     0.056 C 
HETATM    9  N1  UNL     1      19.108  29.464   9.836  1.00  0.00    -0.395 N 
ATOM     10  H1  UNL     1      18.636  30.228  10.318  1.00  0.00     0.159 HD
HETATM   11  C10 UNL     1      20.404  29.643   9.286  1.00  0.00     0.111 C 
HETATM   12  C11 UNL     1      20.497  31.091   8.816  1.00  0.00     0.035 C 
HETATM   13  O1  UNL     1      21.331  30.546  11.267  1.00  0.00    -0.362 OA
ENDROOT
BRANCH   1  14
HETATM   14  S1  UNL     1      22.899  32.589  11.074  1.00  0.00    -0.142 SA
HETATM   15  C1  UNL     1      24.365  33.350  11.773  1.00  0.00     0.092 C 
ENDBRANCH   1  14
TORSDOF 1
ENDMDL
MODEL 3
REMARK VINA RESULT: -5.972316093      2.456      4.626
REMARK  1 active torsions:
REMARK  status: ('A' for Active; 'I' for Inactive)
REMARK    1  A    between atoms: S1_2  and  C2_3 
ROOT
HETATM    1  C2  UNL     1      23.012  30.826  10.449  1.00  0.00     0.183 C 
HETATM    2  C3  UNL     1      21.872  31.763  10.697  1.00  0.00     0.046 C 
HETATM    3  C4  UNL     1      20.802  30.791  11.188  1.00  0.00     0.043 C 
HETATM    4  C5  UNL     1      21.145  29.578  10.364  1.00  0.00     0.082 C 
HETATM    5  C6  UNL     1      20.418  29.671   9.033  1.00  0.00     0.040 C 
HETATM    6  C7  UNL     1      18.990  29.269   9.293  1.00  0.00     0.008 C 
HETATM    7  C8  UNL     1      18.683  27.845   8.986  1.00  0.00     0.044 C 
HETATM    8  C9  UNL     1      19.715  26.839   9.314  1.00  0.00     0.056 C 
HETATM    9  N1  UNL     1      20.855  27.251  10.032  1.00  0.00    -0.395 N 
ATOM     10  H1  UNL     1      21.763  26.817   9.864  1.00  0.00     0.159 HD
HETATM   11  C10 UNL     1      20.712  28.285  10.993  1.00  0.00     0.111 C 
HETATM   12  C11 UNL     1      21.701  27.995  12.117  1.00  0.00     0.035 C 
HETATM   13  O1  UNL     1      22.507  29.578  10.156  1.00  0.00    -0.362 OA
ENDROOT
BRANCH   1  14
HETATM   14  S1  UNL     1      24.138  30.661  11.841  1.00  0.00    -0.142 SA
HETATM   15  C1  UNL     1      24.847  32.213  12.390  1.00  0.00     0.092 C 
ENDBRANCH   1  14
TORSDOF 1
ENDMDL
MODEL 4
REMARK VINA RESULT: -5.937688720      1.260      1.490
REMARK  1 active torsions:
REMARK  status: ('A' for Active; 'I' for Inactive)
REMARK    1  A    between atoms: S1_2  and  C2_3 
ROOT
HETATM    1  C2  UNL     1      19.491  30.297   9.764  1.00  0.00     0.183 C 
HETATM    2  C3  UNL     1      20.143  31.521   9.198  1.00  0.00     0.046 C 
HETATM    3  C4  UNL     1      21.605  31.084   9.179  1.00  0.00     0.043 C 
HETATM    4  C5  UNL     1      21.641  30.217  10.409  1.00  0.00     0.082 C 
HETATM    5  C6  UNL     1      21.943  31.093  11.614  1.00  0.00     0.040 C 
HETATM    6  C7  UNL     1      23.423  31.367  11.588  1.00  0.00     0.008 C 
HETATM    7  C8  UNL     1      24.234  30.468  12.454  1.00  0.00     0.044 C 
HETATM    8  C9  UNL     1      23.835  29.048  12.524  1.00  0.00     0.056 C 
HETATM    9  N1  UNL     1      22.819  28.588  11.662  1.00  0.00    -0.395 N 
ATOM     10  H1  UNL     1      22.174  27.857  11.959  1.00  0.00     0.159 HD
HETATM   11  C10 UNL     1      22.715  29.168  10.371  1.00  0.00     0.111 C 
HETATM   12  C11 UNL     1      22.223  28.076   9.426  1.00  0.00     0.035 C 
HETATM   13  O1  UNL     1      20.403  29.631  10.552  1.00  0.00    -0.362 OA
ENDROOT
BRANCH   1  14
HETATM   14  S1  UNL     1      18.885  29.151   8.518  1.00  0.00    -0.142 SA
HETATM   15  C1  UNL     1      17.115  28.871   8.586  1.00  0.00     0.092 C 
ENDBRANCH   1  14
TORSDOF 1
ENDMDL
MODEL 5
REMARK VINA RESULT: -5.814157360      2.505      4.834
REMARK  1 active torsions:
REMARK  status: ('A' for Active; 'I' for Inactive)
REMARK    1  A    between atoms: S1_2  and  C2_3 
ROOT
HETATM    1  C2  UNL     1      22.208  30.058  11.932  1.00  0.00     0.183 C 
HETATM    2  C3  UNL     1      22.779  28.719  11.585  1.00  0.00     0.046 C 
HETATM    3  C4  UNL     1      22.335  28.585  10.130  1.00  0.00     0.043 C 
HETATM    4  C5  UNL     1      21.011  29.299  10.189  1.00  0.00     0.082 C 
HETATM    5  C6  UNL     1      19.936  28.299  10.584  1.00  0.00     0.040 C 
HETATM    6  C7  UNL     1      19.614  27.500   9.349  1.00  0.00     0.008 C 
HETATM    7  C8  UNL     1      18.425  27.981   8.594  1.00  0.00     0.044 C 
HETATM    8  C9  UNL     1      18.223  29.441   8.498  1.00  0.00     0.056 C 
HETATM    9  N1  UNL     1      19.233  30.296   8.983  1.00  0.00    -0.395 N 
ATOM     10  H1  UNL     1      18.998  31.194   9.407  1.00  0.00     0.159 HD
HETATM   11  C10 UNL     1      20.584  29.878   8.871  1.00  0.00     0.111 C 
HETATM   12  C11 UNL     1      21.426  31.131   8.654  1.00  0.00     0.035 C 
HETATM   13  O1  UNL     1      21.104  30.289  11.141  1.00  0.00    -0.362 OA
ENDROOT
BRANCH   1  14
HETATM   14  S1  UNL     1      23.356  31.423  11.705  1.00  0.00    -0.142 SA
HETATM   15  C1  UNL     1      25.036  31.052  12.211  1.00  0.00     0.092 C 
ENDBRANCH   1  14
TORSDOF 1
ENDMDL
