MODEL 1
REMARK VINA RESULT: -6.538241817      0.000      0.000
REMARK  4 active torsions:
REMARK  status: ('A' for Active; 'I' for Inactive)
REMARK    1  A    between atoms: O1_2  and  C2_3 
REMARK    2  A    between atoms: C2_3  and  C3_5 
REMARK    3  A    between atoms: C8_10  and  C9_11 
REMARK    4  A    between atoms: C9_11  and  O3_13 
ROOT
HETATM    1  C3  UNL     1      15.772  -8.143  -7.429  1.00  0.00     0.019 C 
HETATM    2  C4  UNL     1      15.467  -7.783  -8.650  1.00  0.00    -0.071 C 
HETATM    3  C5  UNL     1      16.048  -6.518  -9.107  1.00  0.00     0.044 C 
HETATM    4  C6  UNL     1      14.594  -8.476  -9.692  1.00  0.00     0.035 C 
HETATM    5  C7  UNL     1      13.359  -8.926  -9.020  1.00  0.00     0.011 C 
HETATM    6  C8  UNL     1      13.222 -10.322  -8.634  1.00  0.00     0.014 C 
HETATM    7  C11 UNL     1      14.368 -11.131  -8.249  1.00  0.00     0.007 C 
HETATM    8  C12 UNL     1      15.534 -10.541  -7.598  1.00  0.00     0.005 C 
HETATM    9  C13 UNL     1      15.322  -9.400  -6.674  1.00  0.00     0.045 C 
ENDROOT
BRANCH   1  10
HETATM   10  C2  UNL     1      16.620  -7.300  -6.662  1.00  0.00     0.289 C 
HETATM   11  O2  UNL     1      16.148  -6.580  -5.712  1.00  0.00    -0.260 OA
BRANCH  10  12
HETATM   12  O1  UNL     1      17.963  -7.157  -6.828  1.00  0.00    -0.323 OA
HETATM   13  C1  UNL     1      18.699  -5.995  -6.458  1.00  0.00     0.213 C 
ENDBRANCH  10  12
ENDBRANCH   1  10
BRANCH   6  14
HETATM   14  C9  UNL     1      12.498 -11.052  -9.786  1.00  0.00     0.118 C 
HETATM   15  C10 UNL     1      12.349 -12.515  -9.495  1.00  0.00     0.040 C 
BRANCH  14  16
HETATM   16  O3  UNL     1      13.163 -10.815 -10.986  1.00  0.00    -0.396 OA
ATOM     17  H3  UNL     1      13.275  -9.880 -11.112  1.00  0.00     0.210 HD
ENDBRANCH  14  16
ENDBRANCH   6  14
TORSDOF 4
ENDMDL
MODEL 2
REMARK VINA RESULT: -6.491439947      0.634      1.186
REMARK  4 active torsions:
REMARK  status: ('A' for Active; 'I' for Inactive)
REMARK    1  A    between atoms: O1_2  and  C2_3 
REMARK    2  A    between atoms: C2_3  and  C3_5 
REMARK    3  A    between atoms: C8_10  and  C9_11 
REMARK    4  A    between atoms: C9_11  and  O3_13 
ROOT
HETATM    1  C3  UNL     1      15.786  -8.098  -7.393  1.00  0.00     0.019 C 
HETATM    2  C4  UNL     1      15.483  -7.748  -8.618  1.00  0.00    -0.071 C 
HETATM    3  C5  UNL     1      16.061  -6.484  -9.082  1.00  0.00     0.044 C 
HETATM    4  C6  UNL     1      14.615  -8.451  -9.657  1.00  0.00     0.035 C 
HETATM    5  C7  UNL     1      13.380  -8.901  -8.984  1.00  0.00     0.011 C 
HETATM    6  C8  UNL     1      13.246 -10.294  -8.589  1.00  0.00     0.014 C 
HETATM    7  C11 UNL     1      14.394 -11.096  -8.194  1.00  0.00     0.007 C 
HETATM    8  C12 UNL     1      15.557 -10.497  -7.545  1.00  0.00     0.005 C 
HETATM    9  C13 UNL     1      15.338  -9.350  -6.630  1.00  0.00     0.045 C 
ENDROOT
BRANCH   1  10
HETATM   10  C2  UNL     1      16.629  -7.246  -6.630  1.00  0.00     0.289 C 
HETATM   11  O2  UNL     1      17.888  -7.185  -6.861  1.00  0.00    -0.260 OA
BRANCH  10  12
HETATM   12  O1  UNL     1      16.229  -6.431  -5.615  1.00  0.00    -0.323 OA
HETATM   13  C1  UNL     1      15.257  -5.399  -5.749  1.00  0.00     0.213 C 
ENDBRANCH  10  12
ENDBRANCH   1  10
BRANCH   6  14
HETATM   14  C9  UNL     1      12.528 -11.035  -9.737  1.00  0.00     0.118 C 
HETATM   15  C10 UNL     1      12.270 -12.468  -9.383  1.00  0.00     0.040 C 
BRANCH  14  16
HETATM   16  O3  UNL     1      13.260 -10.902 -10.915  1.00  0.00    -0.396 OA
ATOM     17  H3  UNL     1      13.906 -11.596 -10.971  1.00  0.00     0.210 HD
ENDBRANCH  14  16
ENDBRANCH   6  14
TORSDOF 4
ENDMDL
MODEL 3
REMARK VINA RESULT: -6.320279501      1.058      1.556
REMARK  4 active torsions:
REMARK  status: ('A' for Active; 'I' for Inactive)
REMARK    1  A    between atoms: O1_2  and  C2_3 
REMARK    2  A    between atoms: C2_3  and  C3_5 
REMARK    3  A    between atoms: C8_10  and  C9_11 
REMARK    4  A    between atoms: C9_11  and  O3_13 
ROOT
HETATM    1  C3  UNL     1      15.667  -8.182  -7.136  1.00  0.00     0.019 C 
HETATM    2  C4  UNL     1      15.483  -7.853  -8.389  1.00  0.00    -0.071 C 
HETATM    3  C5  UNL     1      16.091  -6.588  -8.813  1.00  0.00     0.044 C 
HETATM    4  C6  UNL     1      14.729  -8.580  -9.498  1.00  0.00     0.035 C 
HETATM    5  C7  UNL     1      13.438  -9.035  -8.944  1.00  0.00     0.011 C 
HETATM    6  C8  UNL     1      13.280 -10.425  -8.542  1.00  0.00     0.014 C 
HETATM    7  C11 UNL     1      14.392 -11.207  -8.025  1.00  0.00     0.007 C 
HETATM    8  C12 UNL     1      15.478 -10.586  -7.273  1.00  0.00     0.005 C 
HETATM    9  C13 UNL     1      15.159  -9.429  -6.401  1.00  0.00     0.045 C 
ENDROOT
BRANCH   1  10
HETATM   10  C2  UNL     1      16.421  -7.310  -6.306  1.00  0.00     0.289 C 
HETATM   11  O2  UNL     1      17.695  -7.422  -6.217  1.00  0.00    -0.260 OA
BRANCH  10  12
HETATM   12  O1  UNL     1      15.917  -6.301  -5.544  1.00  0.00    -0.323 OA
HETATM   13  C1  UNL     1      15.713  -6.383  -4.137  1.00  0.00     0.213 C 
ENDBRANCH  10  12
ENDBRANCH   1  10
BRANCH   6  14
HETATM   14  C9  UNL     1      12.686 -11.190  -9.745  1.00  0.00     0.118 C 
HETATM   15  C10 UNL     1      12.340 -10.257 -10.866  1.00  0.00     0.040 C 
BRANCH  14  16
HETATM   16  O3  UNL     1      11.594 -11.948  -9.328  1.00  0.00    -0.396 OA
ATOM     17  H3  UNL     1      10.996 -11.403  -8.832  1.00  0.00     0.210 HD
ENDBRANCH  14  16
ENDBRANCH   6  14
TORSDOF 4
ENDMDL
MODEL 4
REMARK VINA RESULT: -6.217934815      1.428      2.582
REMARK  4 active torsions:
REMARK  status: ('A' for Active; 'I' for Inactive)
REMARK    1  A    between atoms: O1_2  and  C2_3 
REMARK    2  A    between atoms: C2_3  and  C3_5 
REMARK    3  A    between atoms: C8_10  and  C9_11 
REMARK    4  A    between atoms: C9_11  and  O3_13 
ROOT
HETATM    1  C3  UNL     1      15.478  -8.520  -7.791  1.00  0.00     0.019 C 
HETATM    2  C4  UNL     1      15.289  -9.413  -6.853  1.00  0.00    -0.071 C 
HETATM    3  C5  UNL     1      16.078  -9.234  -5.631  1.00  0.00     0.044 C 
HETATM    4  C6  UNL     1      14.367 -10.628  -6.823  1.00  0.00     0.035 C 
HETATM    5  C7  UNL     1      14.504 -11.333  -8.113  1.00  0.00     0.011 C 
HETATM    6  C8  UNL     1      13.489 -11.152  -9.140  1.00  0.00     0.014 C 
HETATM    7  C11 UNL     1      12.754  -9.905  -9.284  1.00  0.00     0.007 C 
HETATM    8  C12 UNL     1      13.356  -8.620  -8.938  1.00  0.00     0.005 C 
HETATM    9  C13 UNL     1      14.810  -8.439  -9.169  1.00  0.00     0.045 C 
ENDROOT
BRANCH   1  10
HETATM   10  C2  UNL     1      16.411  -7.474  -7.556  1.00  0.00     0.289 C 
HETATM   11  O2  UNL     1      17.670  -7.710  -7.513  1.00  0.00    -0.260 OA
BRANCH  10  12
HETATM   12  O1  UNL     1      16.104  -6.163  -7.360  1.00  0.00    -0.323 OA
HETATM   13  C1  UNL     1      15.369  -5.668  -6.245  1.00  0.00     0.213 C 
ENDBRANCH  10  12
ENDBRANCH   1  10
BRANCH   6  14
HETATM   14  C9  UNL     1      12.458 -12.289  -8.977  1.00  0.00     0.118 C 
HETATM   15  C10 UNL     1      12.538 -13.263 -10.112  1.00  0.00     0.040 C 
BRANCH  14  16
HETATM   16  O3  UNL     1      11.181 -11.749  -8.828  1.00  0.00    -0.396 OA
ATOM     17  H3  UNL     1      10.812 -11.558  -9.682  1.00  0.00     0.210 HD
ENDBRANCH  14  16
ENDBRANCH   6  14
TORSDOF 4
ENDMDL
MODEL 5
REMARK VINA RESULT: -6.165336165      1.424      2.689
REMARK  4 active torsions:
REMARK  status: ('A' for Active; 'I' for Inactive)
REMARK    1  A    between atoms: O1_2  and  C2_3 
REMARK    2  A    between atoms: C2_3  and  C3_5 
REMARK    3  A    between atoms: C8_10  and  C9_11 
REMARK    4  A    between atoms: C9_11  and  O3_13 
ROOT
HETATM    1  C3  UNL     1      16.523  -7.726  -6.950  1.00  0.00     0.019 C 
HETATM    2  C4  UNL     1      16.218  -8.659  -6.084  1.00  0.00    -0.071 C 
HETATM    3  C5  UNL     1      16.888  -8.568  -4.784  1.00  0.00     0.044 C 
HETATM    4  C6  UNL     1      15.265  -9.844  -6.208  1.00  0.00     0.035 C 
HETATM    5  C7  UNL     1      15.508 -10.486  -7.515  1.00  0.00     0.011 C 
HETATM    6  C8  UNL     1      14.604 -10.221  -8.623  1.00  0.00     0.014 C 
HETATM    7  C11 UNL     1      13.921  -8.945  -8.771  1.00  0.00     0.007 C 
HETATM    8  C12 UNL     1      14.521  -7.699  -8.301  1.00  0.00     0.005 C 
HETATM    9  C13 UNL     1      15.995  -7.554  -8.380  1.00  0.00     0.045 C 
ENDROOT
BRANCH   1  10
HETATM   10  C2  UNL     1      17.456  -6.724  -6.571  1.00  0.00     0.289 C 
HETATM   11  O2  UNL     1      18.698  -6.835  -6.866  1.00  0.00    -0.260 OA
BRANCH  10  12
HETATM   12  O1  UNL     1      17.166  -5.584  -5.888  1.00  0.00    -0.323 OA
HETATM   13  C1  UNL     1      15.875  -4.985  -5.835  1.00  0.00     0.213 C 
ENDBRANCH  10  12
ENDBRANCH   1  10
BRANCH   6  14
HETATM   14  C9  UNL     1      13.530 -11.330  -8.622  1.00  0.00     0.118 C 
HETATM   15  C10 UNL     1      13.279 -11.847 -10.006  1.00  0.00     0.040 C 
BRANCH  14  16
HETATM   16  O3  UNL     1      12.369 -10.862  -8.010  1.00  0.00    -0.396 OA
ATOM     17  H3  UNL     1      11.608 -11.205  -8.462  1.00  0.00     0.210 HD
ENDBRANCH  14  16
ENDBRANCH   6  14
TORSDOF 4
ENDMDL
