MODEL 1
REMARK VINA RESULT: -6.440172770      0.000      0.000
REMARK  3 active torsions:
REMARK  status: ('A' for Active; 'I' for Inactive)
REMARK    1  A    between atoms: N1_1  and  N2_4 
REMARK    2  A    between atoms: N3_6  and  C1_8 
REMARK    3  A    between atoms: C1_8  and  N4_9 
ROOT
HETATM    1  C1  UNL     1      15.970  -6.453  -7.990  1.00  0.00     0.120 C 
HETATM    2  C7  UNL     1      17.023  -7.467  -7.512  1.00  0.00     0.055 C 
HETATM    3  C8  UNL     1      18.152  -6.615  -6.950  1.00  0.00     0.004 C 
HETATM    4  C9  UNL     1      17.744  -5.803  -5.781  1.00  0.00     0.000 C 
HETATM    5  C10 UNL     1      16.391  -5.196  -5.840  1.00  0.00     0.004 C 
HETATM    6  C11 UNL     1      15.387  -5.890  -6.685  1.00  0.00     0.055 C 
ENDROOT
BRANCH   1   7
HETATM    7  N3  UNL     1      16.675  -5.439  -8.709  1.00  0.00    -0.294 N 
HETATM    8  N2  UNL     1      16.237  -4.806  -9.669  1.00  0.00    -0.252 N 
ATOM      9  H2  UNL     1      15.612  -4.127  -9.234  1.00  0.00     0.207 HD
ATOM     10  H3  UNL     1      17.623  -5.222  -8.400  1.00  0.00     0.184 HD
BRANCH   8  11
HETATM   11  N1  UNL     1      16.140  -4.542 -10.881  1.00  0.00    -0.331 N 
ATOM     12  H12 UNL     1      15.894  -5.458 -11.256  1.00  0.00     0.178 HD
ATOM     13  H11 UNL     1      16.174  -3.917 -11.686  1.00  0.00     0.178 HD
ENDBRANCH   8  11
ENDBRANCH   1   7
BRANCH   1  14
HETATM   14  N4  UNL     1      14.903  -7.074  -8.678  1.00  0.00    -0.352 N 
HETATM   15  C2  UNL     1      14.485  -8.269  -8.614  1.00  0.00     0.074 C 
HETATM   16  C3  UNL     1      15.132  -9.242  -7.726  1.00  0.00     0.076 C 
HETATM   17  N5  UNL     1      13.372  -8.693  -9.408  1.00  0.00    -0.380 N 
HETATM   18  C4  UNL     1      14.298 -10.522  -7.589  1.00  0.00     0.009 C 
HETATM   19  C5  UNL     1      14.043 -10.964  -9.037  1.00  0.00     0.020 C 
HETATM   20  C6  UNL     1      12.940 -10.062  -9.545  1.00  0.00     0.121 C 
ATOM     21  H5  UNL     1      12.849  -7.977  -9.912  1.00  0.00     0.160 HD
ATOM     22  H4  UNL     1      14.393  -6.470  -9.321  1.00  0.00     0.163 HD
ENDBRANCH   1  14
TORSDOF 3
ENDMDL
MODEL 2
REMARK VINA RESULT: -6.283852876      1.619      5.208
REMARK  3 active torsions:
REMARK  status: ('A' for Active; 'I' for Inactive)
REMARK    1  A    between atoms: N1_1  and  N2_4 
REMARK    2  A    between atoms: N3_6  and  C1_8 
REMARK    3  A    between atoms: C1_8  and  N4_9 
ROOT
HETATM    1  C1  UNL     1      14.412  -9.177  -9.290  1.00  0.00     0.120 C 
HETATM    2  C7  UNL     1      13.184  -8.868  -8.417  1.00  0.00     0.055 C 
HETATM    3  C8  UNL     1      12.628 -10.233  -8.036  1.00  0.00     0.004 C 
HETATM    4  C9  UNL     1      13.567 -11.039  -7.225  1.00  0.00     0.000 C 
HETATM    5  C10 UNL     1      14.998 -10.965  -7.605  1.00  0.00     0.004 C 
HETATM    6  C11 UNL     1      15.441  -9.724  -8.290  1.00  0.00     0.055 C 
ENDROOT
BRANCH   1   7
HETATM    7  N3  UNL     1      14.013 -10.192 -10.213  1.00  0.00    -0.294 N 
HETATM    8  N2  UNL     1      13.290 -10.023 -11.195  1.00  0.00    -0.252 N 
ATOM      9  H2  UNL     1      13.918  -9.588 -11.872  1.00  0.00     0.207 HD
ATOM     10  H3  UNL     1      14.355 -11.138 -10.043  1.00  0.00     0.184 HD
BRANCH   8  11
HETATM   11  N1  UNL     1      12.213 -10.092 -11.813  1.00  0.00    -0.331 N 
ATOM     12  H12 UNL     1      12.331 -10.980 -12.301  1.00  0.00     0.178 HD
ATOM     13  H11 UNL     1      11.293  -9.748 -12.089  1.00  0.00     0.178 HD
ENDBRANCH   8  11
ENDBRANCH   1   7
BRANCH   1  14
HETATM   14  N4  UNL     1      14.974  -8.010  -9.854  1.00  0.00    -0.352 N 
HETATM   15  C2  UNL     1      15.609  -7.065  -9.297  1.00  0.00     0.074 C 
HETATM   16  C3  UNL     1      15.856  -7.081  -7.850  1.00  0.00     0.076 C 
HETATM   17  N5  UNL     1      16.098  -5.963 -10.068  1.00  0.00    -0.380 N 
HETATM   18  C4  UNL     1      16.876  -6.011  -7.439  1.00  0.00     0.009 C 
HETATM   19  C5  UNL     1      16.319  -4.710  -8.036  1.00  0.00     0.020 C 
HETATM   20  C6  UNL     1      16.666  -4.762  -9.507  1.00  0.00     0.121 C 
ATOM     21  H5  UNL     1      16.041  -6.033 -11.083  1.00  0.00     0.160 HD
ATOM     22  H4  UNL     1      14.850  -7.913 -10.862  1.00  0.00     0.163 HD
ENDBRANCH   1  14
TORSDOF 3
ENDMDL
MODEL 3
REMARK VINA RESULT: -6.163231675      1.309      4.975
REMARK  3 active torsions:
REMARK  status: ('A' for Active; 'I' for Inactive)
REMARK    1  A    between atoms: N1_1  and  N2_4 
REMARK    2  A    between atoms: N3_6  and  C1_8 
REMARK    3  A    between atoms: C1_8  and  N4_9 
ROOT
HETATM    1  C1  UNL     1      14.568  -8.407  -8.631  1.00  0.00     0.120 C 
HETATM    2  C7  UNL     1      13.081  -8.778  -8.500  1.00  0.00     0.055 C 
HETATM    3  C8  UNL     1      12.987 -10.194  -9.050  1.00  0.00     0.004 C 
HETATM    4  C9  UNL     1      13.769 -11.177  -8.266  1.00  0.00     0.000 C 
HETATM    5  C10 UNL     1      15.089 -10.722  -7.768  1.00  0.00     0.004 C 
HETATM    6  C11 UNL     1      15.254  -9.262  -7.555  1.00  0.00     0.055 C 
ENDROOT
BRANCH   1   7
HETATM    7  N3  UNL     1      14.977  -8.813  -9.938  1.00  0.00    -0.294 N 
HETATM    8  N2  UNL     1      14.552  -8.351 -10.997  1.00  0.00    -0.252 N 
ATOM      9  H2  UNL     1      15.039  -7.458 -11.073  1.00  0.00     0.207 HD
ATOM     10  H3  UNL     1      15.681  -9.549  -9.999  1.00  0.00     0.184 HD
BRANCH   8  11
HETATM   11  N1  UNL     1      13.854  -8.380 -12.027  1.00  0.00    -0.331 N 
ATOM     12  H12 UNL     1      14.304  -9.138 -12.540  1.00  0.00     0.178 HD
ATOM     13  H11 UNL     1      13.090  -8.061 -12.622  1.00  0.00     0.178 HD
ENDBRANCH   8  11
ENDBRANCH   1   7
BRANCH   1  14
HETATM   14  N4  UNL     1      14.814  -7.056  -8.295  1.00  0.00    -0.352 N 
HETATM   15  C2  UNL     1      15.825  -6.531  -7.741  1.00  0.00     0.074 C 
HETATM   16  C3  UNL     1      16.975  -7.354  -7.348  1.00  0.00     0.076 C 
HETATM   17  N5  UNL     1      15.867  -5.123  -7.490  1.00  0.00    -0.380 N 
HETATM   18  C4  UNL     1      18.186  -6.490  -6.972  1.00  0.00     0.009 C 
HETATM   19  C5  UNL     1      17.640  -5.510  -5.924  1.00  0.00     0.020 C 
HETATM   20  C6  UNL     1      16.883  -4.461  -6.708  1.00  0.00     0.121 C 
ATOM     21  H5  UNL     1      15.127  -4.547  -7.891  1.00  0.00     0.160 HD
ATOM     22  H4  UNL     1      14.064  -6.408  -8.533  1.00  0.00     0.163 HD
ENDBRANCH   1  14
TORSDOF 3
ENDMDL
MODEL 4
REMARK VINA RESULT: -6.130823583      1.953      2.583
REMARK  3 active torsions:
REMARK  status: ('A' for Active; 'I' for Inactive)
REMARK    1  A    between atoms: N1_1  and  N2_4 
REMARK    2  A    between atoms: N3_6  and  C1_8 
REMARK    3  A    between atoms: C1_8  and  N4_9 
ROOT
HETATM    1  C1  UNL     1      16.067  -7.672  -7.326  1.00  0.00     0.120 C 
HETATM    2  C7  UNL     1      17.555  -7.444  -7.011  1.00  0.00     0.055 C 
HETATM    3  C8  UNL     1      17.611  -7.299  -5.497  1.00  0.00     0.004 C 
HETATM    4  C9  UNL     1      17.179  -8.518  -4.778  1.00  0.00     0.000 C 
HETATM    5  C10 UNL     1      16.023  -9.249  -5.354  1.00  0.00     0.004 C 
HETATM    6  C11 UNL     1      15.800  -9.095  -6.814  1.00  0.00     0.055 C 
ENDROOT
BRANCH   1   7
HETATM    7  N3  UNL     1      15.335  -6.712  -6.562  1.00  0.00    -0.294 N 
HETATM    8  N2  UNL     1      15.354  -5.494  -6.736  1.00  0.00    -0.252 N 
ATOM      9  H2  UNL     1      14.757  -5.367  -7.554  1.00  0.00     0.207 HD
ATOM     10  H3  UNL     1      14.747  -7.067  -5.808  1.00  0.00     0.184 HD
BRANCH   8  11
HETATM   11  N1  UNL     1      15.703  -4.332  -6.459  1.00  0.00    -0.331 N 
ATOM     12  H12 UNL     1      16.700  -4.469  -6.294  1.00  0.00     0.178 HD
ATOM     13  H11 UNL     1      15.535  -3.338  -6.310  1.00  0.00     0.178 HD
ENDBRANCH   8  11
ENDBRANCH   1   7
BRANCH   1  14
HETATM   14  N4  UNL     1      15.811  -7.686  -8.716  1.00  0.00    -0.352 N 
HETATM   15  C2  UNL     1      14.880  -8.253  -9.363  1.00  0.00     0.074 C 
HETATM   16  C3  UNL     1      13.857  -9.042  -8.665  1.00  0.00     0.076 C 
HETATM   17  N5  UNL     1      14.808  -8.136 -10.787  1.00  0.00    -0.380 N 
HETATM   18  C4  UNL     1      12.683  -9.388  -9.590  1.00  0.00     0.009 C 
HETATM   19  C5  UNL     1      13.345 -10.035 -10.815  1.00  0.00     0.020 C 
HETATM   20  C6  UNL     1      13.905  -8.886 -11.625  1.00  0.00     0.121 C 
ATOM     21  H5  UNL     1      15.439  -7.476 -11.241  1.00  0.00     0.160 HD
ATOM     22  H4  UNL     1      16.476  -7.161  -9.284  1.00  0.00     0.163 HD
ENDBRANCH   1  14
TORSDOF 3
ENDMDL
MODEL 5
REMARK VINA RESULT: -5.805541670      2.322      3.253
REMARK  3 active torsions:
REMARK  status: ('A' for Active; 'I' for Inactive)
REMARK    1  A    between atoms: N1_1  and  N2_4 
REMARK    2  A    between atoms: N3_6  and  C1_8 
REMARK    3  A    between atoms: C1_8  and  N4_9 
ROOT
HETATM    1  C1  UNL     1      16.373  -7.210  -6.894  1.00  0.00     0.120 C 
HETATM    2  C7  UNL     1      15.783  -6.288  -7.974  1.00  0.00     0.055 C 
HETATM    3  C8  UNL     1      16.039  -4.878  -7.460  1.00  0.00     0.004 C 
HETATM    4  C9  UNL     1      17.478  -4.557  -7.329  1.00  0.00     0.000 C 
HETATM    5  C10 UNL     1      18.351  -5.642  -6.817  1.00  0.00     0.004 C 
HETATM    6  C11 UNL     1      17.890  -7.033  -7.052  1.00  0.00     0.055 C 
ENDROOT
BRANCH   1   7
HETATM    7  N3  UNL     1      15.932  -6.699  -5.635  1.00  0.00    -0.294 N 
HETATM    8  N2  UNL     1      16.108  -7.236  -4.542  1.00  0.00    -0.252 N 
ATOM      9  H2  UNL     1      17.085  -7.029  -4.336  1.00  0.00     0.207 HD
ATOM     10  H3  UNL     1      15.427  -5.812  -5.642  1.00  0.00     0.184 HD
BRANCH   8  11
HETATM   11  N1  UNL     1      15.745  -7.895  -3.551  1.00  0.00    -0.331 N 
ATOM     12  H12 UNL     1      14.783  -8.115  -3.811  1.00  0.00     0.178 HD
ATOM     13  H11 UNL     1      15.886  -8.326  -2.637  1.00  0.00     0.178 HD
ENDBRANCH   8  11
ENDBRANCH   1   7
BRANCH   1  14
HETATM   14  N4  UNL     1      16.094  -8.573  -7.143  1.00  0.00    -0.352 N 
HETATM   15  C2  UNL     1      15.176  -9.097  -7.843  1.00  0.00     0.074 C 
HETATM   16  C3  UNL     1      14.199  -8.256  -8.546  1.00  0.00     0.076 C 
HETATM   17  N5  UNL     1      15.075 -10.519  -7.962  1.00  0.00    -0.380 N 
HETATM   18  C4  UNL     1      13.374  -9.071  -9.551  1.00  0.00     0.009 C 
HETATM   19  C5  UNL     1      12.819 -10.240  -8.724  1.00  0.00     0.020 C 
HETATM   20  C6  UNL     1      13.970 -11.211  -8.578  1.00  0.00     0.121 C 
ATOM     21  H5  UNL     1      15.837 -11.082  -7.585  1.00  0.00     0.160 HD
ATOM     22  H4  UNL     1      16.725  -9.233  -6.692  1.00  0.00     0.163 HD
ENDBRANCH   1  14
TORSDOF 3
ENDMDL
