MODEL 1
REMARK VINA RESULT: -6.747188231      0.000      0.000
REMARK  2 active torsions:
REMARK  status: ('A' for Active; 'I' for Inactive)
REMARK    1  A    between atoms: C2_2  and  C3_3 
REMARK       I    between atoms: C3_3  and  N1_5 
REMARK    2  A    between atoms: N1_5  and  C4_7 
ROOT
HETATM    1  C4  UNL     1      15.655  -7.526  -8.872  1.00  0.00     0.098 A 
HETATM    2  S1  UNL     1      16.051  -8.164  -7.260  1.00  0.00    -0.075 SA
HETATM    3  C5  UNL     1      15.366  -9.678  -7.379  1.00  0.00    -0.007 A 
HETATM    4  C6  UNL     1      14.832  -9.701  -8.649  1.00  0.00    -0.021 A 
HETATM    5  C7  UNL     1      14.996  -8.578  -9.399  1.00  0.00     0.085 A 
HETATM    6  C8  UNL     1      14.455  -8.519 -10.781  1.00  0.00     0.103 C 
HETATM    7  N2  UNL     1      14.010  -8.515 -11.870  1.00  0.00    -0.191 NA
HETATM    8  C9  UNL     1      14.131 -11.014  -9.022  1.00  0.00     0.041 C 
HETATM    9  C10 UNL     1      13.277 -11.447  -7.900  1.00  0.00     0.005 C 
HETATM   10  C11 UNL     1      13.675 -11.106  -6.521  1.00  0.00     0.005 C 
HETATM   11  C12 UNL     1      15.195 -10.914  -6.500  1.00  0.00     0.047 C 
ENDROOT
BRANCH   1  12
HETATM   12  N1  UNL     1      16.039  -6.231  -9.260  1.00  0.00    -0.317 N 
HETATM   13  C3  UNL     1      16.176  -5.018  -8.623  1.00  0.00     0.245 C 
HETATM   14  O1  UNL     1      15.986  -4.703  -7.438  1.00  0.00    -0.268 OA
ATOM     15  H1  UNL     1      16.272  -6.177 -10.251  1.00  0.00     0.169 HD
BRANCH  13  16
HETATM   16  C2  UNL     1      16.627  -3.835  -9.430  1.00  0.00     0.064 C 
HETATM   17  C1  UNL     1      16.054  -3.570 -10.553  1.00  0.00     0.017 C 
ENDBRANCH  13  16
ENDBRANCH   1  12
TORSDOF 2
ENDMDL
MODEL 2
REMARK VINA RESULT: -6.692058361      3.145      4.982
REMARK  2 active torsions:
REMARK  status: ('A' for Active; 'I' for Inactive)
REMARK    1  A    between atoms: C2_2  and  C3_3 
REMARK       I    between atoms: C3_3  and  N1_5 
REMARK    2  A    between atoms: N1_5  and  C4_7 
ROOT
HETATM    1  C4  UNL     1      14.947  -9.047  -8.257  1.00  0.00     0.098 A 
HETATM    2  S1  UNL     1      15.864  -7.524  -8.265  1.00  0.00    -0.075 SA
HETATM    3  C5  UNL     1      16.583  -7.618  -6.765  1.00  0.00    -0.007 A 
HETATM    4  C6  UNL     1      16.126  -8.813  -6.253  1.00  0.00    -0.021 A 
HETATM    5  C7  UNL     1      15.283  -9.531  -7.043  1.00  0.00     0.085 A 
HETATM    6  C8  UNL     1      14.744 -10.832  -6.569  1.00  0.00     0.103 C 
HETATM    7  N2  UNL     1      14.342 -11.857  -6.155  1.00  0.00    -0.191 NA
HETATM    8  C9  UNL     1      16.652  -9.148  -4.851  1.00  0.00     0.041 C 
HETATM    9  C10 UNL     1      16.570  -7.948  -3.998  1.00  0.00     0.005 C 
HETATM   10  C11 UNL     1      16.711  -6.616  -4.617  1.00  0.00     0.005 C 
HETATM   11  C12 UNL     1      17.523  -6.776  -5.907  1.00  0.00     0.047 C 
ENDROOT
BRANCH   1  12
HETATM   12  N1  UNL     1      14.151  -9.428  -9.350  1.00  0.00    -0.317 N 
HETATM   13  C3  UNL     1      14.066  -9.060 -10.675  1.00  0.00     0.245 C 
HETATM   14  O1  UNL     1      14.718  -8.227 -11.324  1.00  0.00    -0.268 OA
ATOM     15  H1  UNL     1      13.474 -10.149  -9.104  1.00  0.00     0.169 HD
BRANCH  13  16
HETATM   16  C2  UNL     1      13.039  -9.735 -11.538  1.00  0.00     0.064 C 
HETATM   17  C1  UNL     1      12.120 -10.456 -10.996  1.00  0.00     0.017 C 
ENDBRANCH  13  16
ENDBRANCH   1  12
TORSDOF 2
ENDMDL
MODEL 3
REMARK VINA RESULT: -6.627253125      3.365      5.046
REMARK  2 active torsions:
REMARK  status: ('A' for Active; 'I' for Inactive)
REMARK    1  A    between atoms: C2_2  and  C3_3 
REMARK       I    between atoms: C3_3  and  N1_5 
REMARK    2  A    between atoms: N1_5  and  C4_7 
ROOT
HETATM    1  C4  UNL     1      15.636  -8.471  -8.046  1.00  0.00     0.098 A 
HETATM    2  S1  UNL     1      16.605  -6.996  -7.827  1.00  0.00    -0.075 SA
HETATM    3  C5  UNL     1      17.100  -7.214  -6.252  1.00  0.00    -0.007 A 
HETATM    4  C6  UNL     1      16.527  -8.413  -5.887  1.00  0.00    -0.021 A 
HETATM    5  C7  UNL     1      15.777  -9.042  -6.832  1.00  0.00     0.085 A 
HETATM    6  C8  UNL     1      15.126 -10.341  -6.524  1.00  0.00     0.103 C 
HETATM    7  N2  UNL     1      14.628 -11.368  -6.238  1.00  0.00    -0.191 NA
HETATM    8  C9  UNL     1      16.835  -8.857  -4.451  1.00  0.00     0.041 C 
HETATM    9  C10 UNL     1      16.681  -7.707  -3.541  1.00  0.00     0.005 C 
HETATM   10  C11 UNL     1      16.961  -6.349  -4.045  1.00  0.00     0.005 C 
HETATM   11  C12 UNL     1      17.941  -6.471  -5.217  1.00  0.00     0.047 C 
ENDROOT
BRANCH   1  12
HETATM   12  N1  UNL     1      14.989  -8.747  -9.263  1.00  0.00    -0.317 N 
HETATM   13  C3  UNL     1      13.723  -9.148  -9.629  1.00  0.00     0.245 C 
HETATM   14  O1  UNL     1      12.723  -9.396  -8.937  1.00  0.00    -0.268 OA
ATOM     15  H1  UNL     1      15.603  -8.620 -10.066  1.00  0.00     0.169 HD
BRANCH  13  16
HETATM   16  C2  UNL     1      13.429  -9.335 -11.089  1.00  0.00     0.064 C 
HETATM   17  C1  UNL     1      12.441 -10.076 -11.454  1.00  0.00     0.017 C 
ENDBRANCH  13  16
ENDBRANCH   1  12
TORSDOF 2
ENDMDL
MODEL 4
REMARK VINA RESULT: -6.570213059      3.480      4.784
REMARK  2 active torsions:
REMARK  status: ('A' for Active; 'I' for Inactive)
REMARK    1  A    between atoms: C2_2  and  C3_3 
REMARK       I    between atoms: C3_3  and  N1_5 
REMARK    2  A    between atoms: N1_5  and  C4_7 
ROOT
HETATM    1  C4  UNL     1      15.387  -9.355  -7.184  1.00  0.00     0.098 A 
HETATM    2  S1  UNL     1      15.093  -8.254  -8.549  1.00  0.00    -0.075 SA
HETATM    3  C5  UNL     1      13.851  -9.066  -9.305  1.00  0.00    -0.007 A 
HETATM    4  C6  UNL     1      13.657 -10.181  -8.518  1.00  0.00    -0.021 A 
HETATM    5  C7  UNL     1      14.462 -10.306  -7.429  1.00  0.00     0.085 A 
HETATM    6  C8  UNL     1      14.318 -11.476  -6.525  1.00  0.00     0.103 C 
HETATM    7  N2  UNL     1      14.171 -12.417  -5.836  1.00  0.00    -0.191 NA
HETATM    8  C9  UNL     1      12.541 -11.117  -9.002  1.00  0.00     0.041 C 
HETATM    9  C10 UNL     1      12.660 -11.306 -10.460  1.00  0.00     0.005 C 
HETATM   10  C11 UNL     1      13.214 -10.213 -11.283  1.00  0.00     0.005 C 
HETATM   11  C12 UNL     1      12.975  -8.893 -10.543  1.00  0.00     0.047 C 
ENDROOT
BRANCH   1  12
HETATM   12  N1  UNL     1      16.383  -9.086  -6.228  1.00  0.00    -0.317 N 
HETATM   13  C3  UNL     1      16.393  -8.754  -4.892  1.00  0.00     0.245 C 
HETATM   14  O1  UNL     1      15.456  -8.588  -4.095  1.00  0.00    -0.268 OA
ATOM     15  H1  UNL     1      17.322  -9.152  -6.619  1.00  0.00     0.169 HD
BRANCH  13  16
HETATM   16  C2  UNL     1      17.718  -8.545  -4.219  1.00  0.00     0.064 C 
HETATM   17  C1  UNL     1      17.763  -8.270  -2.962  1.00  0.00     0.017 C 
ENDBRANCH  13  16
ENDBRANCH   1  12
TORSDOF 2
ENDMDL
MODEL 5
REMARK VINA RESULT: -6.451662966      1.942      2.956
REMARK  2 active torsions:
REMARK  status: ('A' for Active; 'I' for Inactive)
REMARK    1  A    between atoms: C2_2  and  C3_3 
REMARK       I    between atoms: C3_3  and  N1_5 
REMARK    2  A    between atoms: N1_5  and  C4_7 
ROOT
HETATM    1  C4  UNL     1      14.802  -8.399  -8.946  1.00  0.00     0.098 A 
HETATM    2  S1  UNL     1      13.575  -8.801 -10.169  1.00  0.00    -0.075 SA
HETATM    3  C5  UNL     1      12.957 -10.196  -9.500  1.00  0.00    -0.007 A 
HETATM    4  C6  UNL     1      13.684 -10.360  -8.342  1.00  0.00    -0.021 A 
HETATM    5  C7  UNL     1      14.631  -9.418  -8.079  1.00  0.00     0.085 A 
HETATM    6  C8  UNL     1      15.459  -9.516  -6.849  1.00  0.00     0.103 C 
HETATM    7  N2  UNL     1      16.092  -9.632  -5.865  1.00  0.00    -0.191 NA
HETATM    8  C9  UNL     1      13.302 -11.596  -7.518  1.00  0.00     0.041 C 
HETATM    9  C10 UNL     1      13.155 -12.756  -8.417  1.00  0.00     0.005 C 
HETATM   10  C11 UNL     1      12.702 -12.536  -9.805  1.00  0.00     0.005 C 
HETATM   11  C12 UNL     1      11.891 -11.236  -9.838  1.00  0.00     0.047 C 
ENDROOT
BRANCH   1  12
HETATM   12  N1  UNL     1      15.617  -7.261  -9.074  1.00  0.00    -0.317 N 
HETATM   13  C3  UNL     1      15.870  -6.147  -8.305  1.00  0.00     0.245 C 
HETATM   14  O1  UNL     1      15.417  -5.808  -7.200  1.00  0.00    -0.268 OA
ATOM     15  H1  UNL     1      16.147  -7.261  -9.945  1.00  0.00     0.169 HD
BRANCH  13  16
HETATM   16  C2  UNL     1      16.845  -5.129  -8.824  1.00  0.00     0.064 C 
HETATM   17  C1  UNL     1      16.416  -4.107  -9.479  1.00  0.00     0.017 C 
ENDBRANCH  13  16
ENDBRANCH   1  12
TORSDOF 2
ENDMDL
