MODEL 1
REMARK VINA RESULT: -5.690714946      0.000      0.000
REMARK  4 active torsions:
REMARK  status: ('A' for Active; 'I' for Inactive)
REMARK    1  A    between atoms: C2_3  and  C3_4 
REMARK    2  A    between atoms: C4_5  and  C5_6 
REMARK    3  A    between atoms: C5_6  and  C7_9 
REMARK    4  A    between atoms: C11_13  and  O1_14 
ROOT
HETATM    1  N1  UNL     1      15.721  -9.030  -4.231  1.00  0.00    -0.197 NA
HETATM    2  C1  UNL     1      16.139  -9.377  -5.263  1.00  0.00     0.063 C 
HETATM    3  C2  UNL     1      16.677  -9.801  -6.530  1.00  0.00     0.158 C 
ENDROOT
BRANCH   3   4
HETATM    4  C3  UNL     1      15.772  -9.388  -7.681  1.00  0.00    -0.056 C 
HETATM    5  C4  UNL     1      15.626  -8.218  -8.246  1.00  0.00    -0.055 C 
HETATM    6  C10 UNL     1      14.610  -8.280  -9.357  1.00  0.00     0.074 C 
HETATM    7  C11 UNL     1      13.875  -9.560  -9.079  1.00  0.00     0.069 C 
HETATM    8  C12 UNL     1      12.718  -9.425  -8.147  1.00  0.00     0.039 C 
HETATM    9  C15 UNL     1      14.883 -10.396  -8.327  1.00  0.00     0.050 C 
HETATM   10  C13 UNL     1      13.076 -10.122  -6.867  1.00  0.00     0.004 C 
HETATM   11  C14 UNL     1      14.091 -11.148  -7.281  1.00  0.00     0.012 C 
BRANCH   5  12
HETATM   12  C5  UNL     1      16.381  -7.003  -7.822  1.00  0.00     0.126 C 
HETATM   13  C6  UNL     1      16.430  -6.017  -8.934  1.00  0.00     0.068 C 
HETATM   14  N2  UNL     1      16.479  -5.265  -9.810  1.00  0.00    -0.197 NA
BRANCH  12  15
HETATM   15  C7  UNL     1      15.729  -6.302  -6.667  1.00  0.00     0.007 A 
HETATM   16  C8  UNL     1      16.732  -5.827  -5.617  1.00  0.00     0.007 A 
HETATM   17  C9  UNL     1      15.923  -4.847  -6.453  1.00  0.00     0.007 A 
ENDBRANCH  12  15
ENDBRANCH   5  12
BRANCH   7  18
HETATM   18  O1  UNL     1      13.479 -10.173 -10.258  1.00  0.00    -0.389 OA
ATOM     19  H1  UNL     1      13.745 -11.084 -10.274  1.00  0.00     0.210 HD
ENDBRANCH   7  18
ENDBRANCH   3   4
TORSDOF 4
ENDMDL
MODEL 2
REMARK VINA RESULT: -5.528063982      2.408      4.585
REMARK  4 active torsions:
REMARK  status: ('A' for Active; 'I' for Inactive)
REMARK    1  A    between atoms: C2_3  and  C3_4 
REMARK    2  A    between atoms: C4_5  and  C5_6 
REMARK    3  A    between atoms: C5_6  and  C7_9 
REMARK    4  A    between atoms: C11_13  and  O1_14 
ROOT
HETATM    1  N1  UNL     1      14.231 -12.067  -6.069  1.00  0.00    -0.197 NA
HETATM    2  C1  UNL     1      13.698 -11.045  -6.248  1.00  0.00     0.063 C 
HETATM    3  C2  UNL     1      13.021  -9.794  -6.474  1.00  0.00     0.158 C 
ENDROOT
BRANCH   3   4
HETATM    4  C3  UNL     1      13.910  -8.809  -7.219  1.00  0.00    -0.056 C 
HETATM    5  C4  UNL     1      14.066  -8.637  -8.505  1.00  0.00    -0.055 C 
HETATM    6  C10 UNL     1      15.059  -7.539  -8.785  1.00  0.00     0.074 C 
HETATM    7  C11 UNL     1      15.777  -7.383  -7.476  1.00  0.00     0.069 C 
HETATM    8  C12 UNL     1      16.954  -8.283  -7.300  1.00  0.00     0.039 C 
HETATM    9  C15 UNL     1      14.769  -7.858  -6.456  1.00  0.00     0.050 C 
HETATM   10  C13 UNL     1      16.609  -9.288  -6.239  1.00  0.00     0.004 C 
HETATM   11  C14 UNL     1      15.568  -8.597  -5.405  1.00  0.00     0.012 C 
BRANCH   5  12
HETATM   12  C5  UNL     1      13.340  -9.439  -9.534  1.00  0.00     0.126 C 
HETATM   13  C6  UNL     1      13.723  -8.989 -10.898  1.00  0.00     0.068 C 
HETATM   14  N2  UNL     1      14.013  -8.620 -11.954  1.00  0.00    -0.197 NA
BRANCH  12  15
HETATM   15  C7  UNL     1      13.679 -10.898  -9.461  1.00  0.00     0.007 A 
HETATM   16  C8  UNL     1      12.446 -11.789  -9.325  1.00  0.00     0.007 A 
HETATM   17  C9  UNL     1      13.320 -11.818 -10.568  1.00  0.00     0.007 A 
ENDBRANCH  12  15
ENDBRANCH   5  12
BRANCH   7  18
HETATM   18  O1  UNL     1      16.139  -6.063  -7.260  1.00  0.00    -0.389 OA
ATOM     19  H1  UNL     1      16.977  -5.869  -7.664  1.00  0.00     0.210 HD
ENDBRANCH   7  18
ENDBRANCH   3   4
TORSDOF 4
ENDMDL
MODEL 3
REMARK VINA RESULT: -5.334222783      1.700      2.176
REMARK  4 active torsions:
REMARK  status: ('A' for Active; 'I' for Inactive)
REMARK    1  A    between atoms: C2_3  and  C3_4 
REMARK    2  A    between atoms: C4_5  and  C5_6 
REMARK    3  A    between atoms: C5_6  and  C7_9 
REMARK    4  A    between atoms: C11_13  and  O1_14 
ROOT
HETATM    1  N1  UNL     1      18.248  -7.992  -3.306  1.00  0.00    -0.197 NA
HETATM    2  C1  UNL     1      17.230  -8.281  -3.797  1.00  0.00     0.063 C 
HETATM    3  C2  UNL     1      15.969  -8.653  -4.386  1.00  0.00     0.158 C 
ENDROOT
BRANCH   3   4
HETATM    4  C3  UNL     1      16.027  -8.587  -5.905  1.00  0.00    -0.056 C 
HETATM    5  C4  UNL     1      16.338  -7.583  -6.682  1.00  0.00    -0.055 C 
HETATM    6  C10 UNL     1      16.259  -7.980  -8.133  1.00  0.00     0.074 C 
HETATM    7  C11 UNL     1      15.446  -9.242  -8.099  1.00  0.00     0.069 C 
HETATM    8  C12 UNL     1      13.969  -9.034  -8.166  1.00  0.00     0.039 C 
HETATM    9  C15 UNL     1      15.697  -9.794  -6.716  1.00  0.00     0.050 C 
HETATM   10  C13 UNL     1      13.393  -9.407  -6.830  1.00  0.00     0.004 C 
HETATM   11  C14 UNL     1      14.380 -10.387  -6.266  1.00  0.00     0.012 C 
BRANCH   5  12
HETATM   12  C5  UNL     1      16.718  -6.234  -6.168  1.00  0.00     0.126 C 
HETATM   13  C6  UNL     1      18.123  -5.920  -6.542  1.00  0.00     0.068 C 
HETATM   14  N2  UNL     1      19.220  -5.693  -6.822  1.00  0.00    -0.197 NA
BRANCH  12  15
HETATM   15  C7  UNL     1      15.873  -5.143  -6.754  1.00  0.00     0.007 A 
HETATM   16  C8  UNL     1      15.354  -4.163  -5.703  1.00  0.00     0.007 A 
HETATM   17  C9  UNL     1      16.349  -3.738  -6.770  1.00  0.00     0.007 A 
ENDBRANCH  12  15
ENDBRANCH   5  12
BRANCH   7  18
HETATM   18  O1  UNL     1      15.856 -10.126  -9.085  1.00  0.00    -0.389 OA
ATOM     19  H1  UNL     1      15.817 -11.023  -8.776  1.00  0.00     0.210 HD
ENDBRANCH   7  18
ENDBRANCH   3   4
TORSDOF 4
ENDMDL
MODEL 4
REMARK VINA RESULT: -5.317792160      2.409      4.065
REMARK  4 active torsions:
REMARK  status: ('A' for Active; 'I' for Inactive)
REMARK    1  A    between atoms: C2_3  and  C3_4 
REMARK    2  A    between atoms: C4_5  and  C5_6 
REMARK    3  A    between atoms: C5_6  and  C7_9 
REMARK    4  A    between atoms: C11_13  and  O1_14 
ROOT
HETATM    1  N1  UNL     1      16.091  -4.624  -8.276  1.00  0.00    -0.197 NA
HETATM    2  C1  UNL     1      16.594  -5.618  -7.931  1.00  0.00     0.063 C 
HETATM    3  C2  UNL     1      17.225  -6.848  -7.525  1.00  0.00     0.158 C 
ENDROOT
BRANCH   3   4
HETATM    4  C3  UNL     1      16.310  -7.670  -6.629  1.00  0.00    -0.056 C 
HETATM    5  C4  UNL     1      16.403  -7.919  -5.349  1.00  0.00    -0.055 C 
HETATM    6  C10 UNL     1      15.262  -8.787  -4.885  1.00  0.00     0.074 C 
HETATM    7  C11 UNL     1      14.723  -9.358  -6.165  1.00  0.00     0.069 C 
HETATM    8  C12 UNL     1      15.384 -10.618  -6.613  1.00  0.00     0.039 C 
HETATM    9  C15 UNL     1      15.102  -8.330  -7.204  1.00  0.00     0.050 C 
HETATM   10  C13 UNL     1      16.172 -10.307  -7.853  1.00  0.00     0.004 C 
HETATM   11  C14 UNL     1      15.471  -9.117  -8.442  1.00  0.00     0.012 C 
BRANCH   5  12
HETATM   12  C5  UNL     1      17.505  -7.395  -4.490  1.00  0.00     0.126 C 
HETATM   13  C6  UNL     1      17.396  -5.918  -4.360  1.00  0.00     0.068 C 
HETATM   14  N2  UNL     1      17.314  -4.769  -4.280  1.00  0.00    -0.197 NA
BRANCH  12  15
HETATM   15  C7  UNL     1      17.450  -7.946  -3.096  1.00  0.00     0.007 A 
HETATM   16  C8  UNL     1      18.825  -8.335  -2.555  1.00  0.00     0.007 A 
HETATM   17  C9  UNL     1      18.024  -7.189  -1.957  1.00  0.00     0.007 A 
ENDBRANCH  12  15
ENDBRANCH   5  12
BRANCH   7  18
HETATM   18  O1  UNL     1      13.349  -9.530  -6.093  1.00  0.00    -0.389 OA
ATOM     19  H1  UNL     1      13.105 -10.421  -6.313  1.00  0.00     0.210 HD
ENDBRANCH   7  18
ENDBRANCH   3   4
TORSDOF 4
ENDMDL
MODEL 5
REMARK VINA RESULT: -5.230201242      1.360      1.614
REMARK  4 active torsions:
REMARK  status: ('A' for Active; 'I' for Inactive)
REMARK    1  A    between atoms: C2_3  and  C3_4 
REMARK    2  A    between atoms: C4_5  and  C5_6 
REMARK    3  A    between atoms: C5_6  and  C7_9 
REMARK    4  A    between atoms: C11_13  and  O1_14 
ROOT
HETATM    1  N1  UNL     1      15.353  -8.620  -4.123  1.00  0.00    -0.197 NA
HETATM    2  C1  UNL     1      15.838  -9.024  -5.105  1.00  0.00     0.063 C 
HETATM    3  C2  UNL     1      16.456  -9.526  -6.305  1.00  0.00     0.158 C 
ENDROOT
BRANCH   3   4
HETATM    4  C3  UNL     1      15.982  -8.763  -7.532  1.00  0.00    -0.056 C 
HETATM    5  C4  UNL     1      15.966  -7.475  -7.757  1.00  0.00    -0.055 C 
HETATM    6  C10 UNL     1      15.403  -7.173  -9.122  1.00  0.00     0.074 C 
HETATM    7  C11 UNL     1      14.701  -8.447  -9.493  1.00  0.00     0.069 C 
HETATM    8  C12 UNL     1      13.286  -8.537  -9.026  1.00  0.00     0.039 C 
HETATM    9  C15 UNL     1      15.437  -9.505  -8.706  1.00  0.00     0.050 C 
HETATM   10  C13 UNL     1      13.222  -9.587  -7.954  1.00  0.00     0.004 C 
HETATM   11  C14 UNL     1      14.381 -10.492  -8.260  1.00  0.00     0.012 C 
BRANCH   5  12
HETATM   12  C5  UNL     1      16.450  -6.465  -6.771  1.00  0.00     0.126 C 
HETATM   13  C6  UNL     1      17.925  -6.312  -6.876  1.00  0.00     0.068 C 
HETATM   14  N2  UNL     1      19.073  -6.213  -6.952  1.00  0.00    -0.197 NA
BRANCH  12  15
HETATM   15  C7  UNL     1      15.867  -5.105  -7.018  1.00  0.00     0.007 A 
HETATM   16  C8  UNL     1      15.391  -4.420  -5.738  1.00  0.00     0.007 A 
HETATM   17  C9  UNL     1      16.562  -3.883  -6.544  1.00  0.00     0.007 A 
ENDBRANCH  12  15
ENDBRANCH   5  12
BRANCH   7  18
HETATM   18  O1  UNL     1      14.776  -8.679 -10.857  1.00  0.00    -0.389 OA
ATOM     19  H1  UNL     1      14.346  -9.493 -11.089  1.00  0.00     0.210 HD
ENDBRANCH   7  18
ENDBRANCH   3   4
TORSDOF 4
ENDMDL
