MODEL 1
REMARK VINA RESULT: -6.912556651      0.000      0.000
REMARK  5 active torsions:
REMARK  status: ('A' for Active; 'I' for Inactive)
REMARK    1  A    between atoms: C1_2  and  C2_3 
REMARK    2  A    between atoms: C1_2  and  O2_10 
REMARK    3  A    between atoms: C2_3  and  C3_4 
REMARK    4  A    between atoms: O2_10  and  N1_11 
REMARK    5  A    between atoms: N1_11  and  C9_12 
ROOT
HETATM    1  O1  UNL     1      14.134 -12.290  -5.995  1.00  0.00    -0.264 OA
HETATM    2  C1  UNL     1      14.202 -11.123  -6.412  1.00  0.00     0.277 C 
ENDROOT
BRANCH   2   3
HETATM    3  C2  UNL     1      13.105 -10.481  -7.138  1.00  0.00     0.117 C 
BRANCH   3   4
HETATM    4  C3  UNL     1      13.411 -10.342  -8.587  1.00  0.00    -0.005 C 
HETATM    5  C4  UNL     1      13.417  -8.839  -8.939  1.00  0.00     0.005 C 
HETATM    6  C5  UNL     1      14.026  -8.768 -10.330  1.00  0.00     0.000 C 
HETATM    7  C6  UNL     1      13.300  -9.599 -11.334  1.00  0.00     0.000 C 
HETATM    8  C7  UNL     1      13.040 -11.018 -10.889  1.00  0.00     0.000 C 
HETATM    9  C8  UNL     1      12.375 -10.931  -9.512  1.00  0.00     0.005 C 
ENDBRANCH   3   4
ENDBRANCH   2   3
BRANCH   2  10
HETATM   10  O2  UNL     1      15.363 -10.355  -6.197  1.00  0.00    -0.204 OA
BRANCH  10  11
HETATM   11  N1  UNL     1      15.286  -9.346  -5.291  1.00  0.00    -0.059 NA
BRANCH  11  12
HETATM   12  C9  UNL     1      15.876  -8.121  -5.737  1.00  0.00     0.241 C 
HETATM   13  C10 UNL     1      17.099  -7.736  -4.932  1.00  0.00     0.051 C 
HETATM   14  C11 UNL     1      17.536  -6.370  -5.432  1.00  0.00     0.006 C 
HETATM   15  C12 UNL     1      17.870  -6.531  -6.907  1.00  0.00     0.026 C 
HETATM   16  C13 UNL     1      16.639  -7.034  -7.605  1.00  0.00     0.170 C 
HETATM   17  O3  UNL     1      16.280  -8.285  -7.055  1.00  0.00    -0.367 OA
ENDBRANCH  11  12
ENDBRANCH  10  11
ENDBRANCH   2  10
TORSDOF 5
ENDMDL
MODEL 2
REMARK VINA RESULT: -6.798200996      0.932      1.190
REMARK  5 active torsions:
REMARK  status: ('A' for Active; 'I' for Inactive)
REMARK    1  A    between atoms: C1_2  and  C2_3 
REMARK    2  A    between atoms: C1_2  and  O2_10 
REMARK    3  A    between atoms: C2_3  and  C3_4 
REMARK    4  A    between atoms: O2_10  and  N1_11 
REMARK    5  A    between atoms: N1_11  and  C9_12 
ROOT
HETATM    1  O1  UNL     1      14.225 -12.109  -6.071  1.00  0.00    -0.264 OA
HETATM    2  C1  UNL     1      14.282 -10.882  -6.246  1.00  0.00     0.277 C 
ENDROOT
BRANCH   2   3
HETATM    3  C2  UNL     1      13.257 -10.142  -6.983  1.00  0.00     0.117 C 
BRANCH   3   4
HETATM    4  C3  UNL     1      13.493 -10.188  -8.451  1.00  0.00    -0.005 C 
HETATM    5  C4  UNL     1      13.356  -8.754  -9.008  1.00  0.00     0.005 C 
HETATM    6  C5  UNL     1      13.902  -8.834 -10.424  1.00  0.00     0.000 C 
HETATM    7  C6  UNL     1      13.212  -9.855 -11.265  1.00  0.00     0.000 C 
HETATM    8  C7  UNL     1      13.092 -11.212 -10.615  1.00  0.00     0.000 C 
HETATM    9  C8  UNL     1      12.476 -10.983  -9.232  1.00  0.00     0.005 C 
ENDBRANCH   3   4
ENDBRANCH   2   3
BRANCH   2  10
HETATM   10  O2  UNL     1      15.361 -10.137  -5.729  1.00  0.00    -0.204 OA
BRANCH  10  11
HETATM   11  N1  UNL     1      15.080  -8.924  -5.187  1.00  0.00    -0.059 NA
BRANCH  11  12
HETATM   12  C9  UNL     1      15.828  -7.847  -5.761  1.00  0.00     0.241 C 
HETATM   13  C10 UNL     1      16.466  -8.219  -7.082  1.00  0.00     0.051 C 
HETATM   14  C11 UNL     1      17.320  -7.035  -7.502  1.00  0.00     0.006 C 
HETATM   15  C12 UNL     1      16.379  -5.850  -7.653  1.00  0.00     0.026 C 
HETATM   16  C13 UNL     1      15.700  -5.631  -6.332  1.00  0.00     0.170 C 
HETATM   17  O3  UNL     1      14.962  -6.790  -6.001  1.00  0.00    -0.367 OA
ENDBRANCH  11  12
ENDBRANCH  10  11
ENDBRANCH   2  10
TORSDOF 5
ENDMDL
MODEL 3
REMARK VINA RESULT: -6.790403407      1.013      1.065
REMARK  5 active torsions:
REMARK  status: ('A' for Active; 'I' for Inactive)
REMARK    1  A    between atoms: C1_2  and  C2_3 
REMARK    2  A    between atoms: C1_2  and  O2_10 
REMARK    3  A    between atoms: C2_3  and  C3_4 
REMARK    4  A    between atoms: O2_10  and  N1_11 
REMARK    5  A    between atoms: N1_11  and  C9_12 
ROOT
HETATM    1  O1  UNL     1      14.313 -11.754  -6.151  1.00  0.00    -0.264 OA
HETATM    2  C1  UNL     1      14.147 -10.528  -6.238  1.00  0.00     0.277 C 
ENDROOT
BRANCH   2   3
HETATM    3  C2  UNL     1      13.105  -9.930  -7.073  1.00  0.00     0.117 C 
BRANCH   3   4
HETATM    4  C3  UNL     1      13.399 -10.093  -8.522  1.00  0.00    -0.005 C 
HETATM    5  C4  UNL     1      13.220  -8.722  -9.210  1.00  0.00     0.005 C 
HETATM    6  C5  UNL     1      13.824  -8.900 -10.593  1.00  0.00     0.000 C 
HETATM    7  C6  UNL     1      13.213 -10.023 -11.363  1.00  0.00     0.000 C 
HETATM    8  C7  UNL     1      13.129 -11.322 -10.598  1.00  0.00     0.000 C 
HETATM    9  C8  UNL     1      12.451 -11.002  -9.263  1.00  0.00     0.005 C 
ENDBRANCH   3   4
ENDBRANCH   2   3
BRANCH   2  10
HETATM   10  O2  UNL     1      14.975  -9.644  -5.517  1.00  0.00    -0.204 OA
BRANCH  10  11
HETATM   11  N1  UNL     1      16.043  -9.116  -6.170  1.00  0.00    -0.059 NA
BRANCH  11  12
HETATM   12  C9  UNL     1      15.803  -7.812  -6.709  1.00  0.00     0.241 C 
HETATM   13  C10 UNL     1      16.279  -6.705  -5.793  1.00  0.00     0.051 C 
HETATM   14  C11 UNL     1      15.849  -5.396  -6.432  1.00  0.00     0.006 C 
HETATM   15  C12 UNL     1      16.532  -5.327  -7.789  1.00  0.00     0.026 C 
HETATM   16  C13 UNL     1      16.099  -6.526  -8.583  1.00  0.00     0.170 C 
HETATM   17  O3  UNL     1      16.504  -7.696  -7.901  1.00  0.00    -0.367 OA
ENDBRANCH  11  12
ENDBRANCH  10  11
ENDBRANCH   2  10
TORSDOF 5
ENDMDL
MODEL 4
REMARK VINA RESULT: -6.739169669      0.889      1.329
REMARK  5 active torsions:
REMARK  status: ('A' for Active; 'I' for Inactive)
REMARK    1  A    between atoms: C1_2  and  C2_3 
REMARK    2  A    between atoms: C1_2  and  O2_10 
REMARK    3  A    between atoms: C2_3  and  C3_4 
REMARK    4  A    between atoms: O2_10  and  N1_11 
REMARK    5  A    between atoms: N1_11  and  C9_12 
ROOT
HETATM    1  O1  UNL     1      14.212 -12.149  -6.048  1.00  0.00    -0.264 OA
HETATM    2  C1  UNL     1      14.416 -10.979  -6.410  1.00  0.00     0.277 C 
ENDROOT
BRANCH   2   3
HETATM    3  C2  UNL     1      13.394 -10.171  -7.075  1.00  0.00     0.117 C 
BRANCH   3   4
HETATM    4  C3  UNL     1      13.539 -10.208  -8.556  1.00  0.00    -0.005 C 
HETATM    5  C4  UNL     1      13.429  -8.763  -9.089  1.00  0.00     0.005 C 
HETATM    6  C5  UNL     1      13.885  -8.848 -10.537  1.00  0.00     0.000 C 
HETATM    7  C6  UNL     1      13.103  -9.829 -11.344  1.00  0.00     0.000 C 
HETATM    8  C7  UNL     1      12.965 -11.188 -10.702  1.00  0.00     0.000 C 
HETATM    9  C8  UNL     1      12.444 -10.951  -9.281  1.00  0.00     0.005 C 
ENDBRANCH   3   4
ENDBRANCH   2   3
BRANCH   2  10
HETATM   10  O2  UNL     1      15.668 -10.372  -6.189  1.00  0.00    -0.204 OA
BRANCH  10  11
HETATM   11  N1  UNL     1      15.747  -9.445  -5.200  1.00  0.00    -0.059 NA
BRANCH  11  12
HETATM   12  C9  UNL     1      16.387  -8.228  -5.599  1.00  0.00     0.241 C 
HETATM   13  C10 UNL     1      15.431  -7.253  -6.251  1.00  0.00     0.051 C 
HETATM   14  C11 UNL     1      16.267  -6.078  -6.728  1.00  0.00     0.006 C 
HETATM   15  C12 UNL     1      16.919  -5.476  -5.494  1.00  0.00     0.026 C 
HETATM   16  C13 UNL     1      17.748  -6.546  -4.844  1.00  0.00     0.170 C 
HETATM   17  O3  UNL     1      16.901  -7.613  -4.466  1.00  0.00    -0.367 OA
ENDBRANCH  11  12
ENDBRANCH  10  11
ENDBRANCH   2  10
TORSDOF 5
ENDMDL
MODEL 5
REMARK VINA RESULT: -6.731938435      0.738      1.340
REMARK  5 active torsions:
REMARK  status: ('A' for Active; 'I' for Inactive)
REMARK    1  A    between atoms: C1_2  and  C2_3 
REMARK    2  A    between atoms: C1_2  and  O2_10 
REMARK    3  A    between atoms: C2_3  and  C3_4 
REMARK    4  A    between atoms: O2_10  and  N1_11 
REMARK    5  A    between atoms: N1_11  and  C9_12 
ROOT
HETATM    1  O1  UNL     1      14.479 -11.881  -6.100  1.00  0.00    -0.264 OA
HETATM    2  C1  UNL     1      13.825 -11.002  -6.682  1.00  0.00     0.277 C 
ENDROOT
BRANCH   2   3
HETATM    3  C2  UNL     1      12.932 -11.296  -7.803  1.00  0.00     0.117 C 
BRANCH   3   4
HETATM    4  C3  UNL     1      13.083 -10.304  -8.902  1.00  0.00    -0.005 C 
HETATM    5  C4  UNL     1      12.569 -10.947 -10.209  1.00  0.00     0.005 C 
HETATM    6  C5  UNL     1      12.471  -9.796 -11.196  1.00  0.00     0.000 C 
HETATM    7  C6  UNL     1      13.758  -9.062 -11.374  1.00  0.00     0.000 C 
HETATM    8  C7  UNL     1      14.423  -8.658 -10.081  1.00  0.00     0.000 C 
HETATM    9  C8  UNL     1      14.508  -9.921  -9.218  1.00  0.00     0.005 C 
ENDBRANCH   3   4
ENDBRANCH   2   3
BRANCH   2  10
HETATM   10  O2  UNL     1      13.918  -9.656  -6.274  1.00  0.00    -0.204 OA
BRANCH  10  11
HETATM   11  N1  UNL     1      14.875  -9.345  -5.362  1.00  0.00    -0.059 NA
BRANCH  11  12
HETATM   12  C9  UNL     1      15.612  -8.159  -5.678  1.00  0.00     0.241 C 
HETATM   13  C10 UNL     1      16.829  -7.977  -4.797  1.00  0.00     0.051 C 
HETATM   14  C11 UNL     1      17.431  -6.630  -5.161  1.00  0.00     0.006 C 
HETATM   15  C12 UNL     1      17.814  -6.706  -6.630  1.00  0.00     0.026 C 
HETATM   16  C13 UNL     1      16.571  -7.012  -7.415  1.00  0.00     0.170 C 
HETATM   17  O3  UNL     1      16.058  -8.258  -6.989  1.00  0.00    -0.367 OA
ENDBRANCH  11  12
ENDBRANCH  10  11
ENDBRANCH   2  10
TORSDOF 5
ENDMDL
