MODEL 1
REMARK VINA RESULT: -6.941362496      0.000      0.000
REMARK  5 active torsions:
REMARK  status: ('A' for Active; 'I' for Inactive)
REMARK    1  A    between atoms: C2_2  and  O2_4 
REMARK    2  A    between atoms: O2_4  and  C3_5 
REMARK    3  A    between atoms: C6_10  and  O5_11 
REMARK    4  A    between atoms: C8_15  and  O6_16 
REMARK    5  A    between atoms: C14_23  and  C15_24 
ROOT
HETATM    1  C3  UNL     1      25.810  13.029  20.254  1.00  0.00     0.214 C 
HETATM    2  O3  UNL     1      26.323  14.292  20.115  1.00  0.00    -0.342 OA
HETATM    3  C4  UNL     1      27.283  14.605  21.060  1.00  0.00     0.182 C 
HETATM    4  C5  UNL     1      28.687  14.078  20.601  1.00  0.00     0.163 C 
HETATM    5  O4  UNL     1      29.404  13.805  21.723  1.00  0.00    -0.351 OA
HETATM    6  C6  UNL     1      28.544  13.697  22.749  1.00  0.00     0.282 C 
HETATM    7  C7  UNL     1      27.160  13.535  22.125  1.00  0.00     0.132 C 
HETATM    8 BR1  UNL     1      25.976  13.646  23.506  1.00  0.00    -0.074 Br
HETATM    9  C8  UNL     1      27.059  12.486  21.069  1.00  0.00     0.146 C 
HETATM   10  C9  UNL     1      28.124  12.790  20.081  1.00  0.00     0.066 C 
HETATM   11  C10 UNL     1      28.909  11.618  19.774  1.00  0.00     0.013 C 
HETATM   12  C11 UNL     1      29.912  11.138  20.800  1.00  0.00     0.015 C 
HETATM   13  C12 UNL     1      27.916  10.530  19.406  1.00  0.00    -0.025 C 
HETATM   14  C13 UNL     1      26.519  10.798  19.184  1.00  0.00    -0.020 C 
HETATM   15  C14 UNL     1      25.867  12.101  19.076  1.00  0.00     0.077 C 
ENDROOT
BRANCH   1  16
HETATM   16  O2  UNL     1      24.722  12.988  21.073  1.00  0.00    -0.280 OA
BRANCH  16  17
HETATM   17  C2  UNL     1      23.742  12.053  21.201  1.00  0.00     0.257 C 
HETATM   18  C1  UNL     1      22.277  12.354  20.923  1.00  0.00     0.126 C 
HETATM   19  O1  UNL     1      23.949  10.866  21.563  1.00  0.00    -0.266 OA
ENDBRANCH  16  17
ENDBRANCH   1  16
BRANCH   9  20
HETATM   20  O6  UNL     1      26.904  11.299  21.607  1.00  0.00    -0.382 OA
ATOM     21  H6  UNL     1      27.443  11.126  22.370  1.00  0.00     0.210 HD
ENDBRANCH   9  20
BRANCH  15  22
HETATM   22  C15 UNL     1      24.513  11.953  18.422  1.00  0.00    -0.010 C 
HETATM   23  C16 UNL     1      24.483  10.869  17.345  1.00  0.00     0.010 C 
HETATM   24  C17 UNL     1      24.267  13.188  17.480  1.00  0.00     0.010 C 
ENDBRANCH  15  22
BRANCH   6  25
HETATM   25  O5  UNL     1      28.809  12.854  23.778  1.00  0.00    -0.369 OA
ATOM     26  H5  UNL     1      28.098  12.468  24.275  1.00  0.00     0.212 HD
ENDBRANCH   6  25
TORSDOF 5
ENDMDL
MODEL 2
REMARK VINA RESULT: -6.932523738      1.450      4.771
REMARK  5 active torsions:
REMARK  status: ('A' for Active; 'I' for Inactive)
REMARK    1  A    between atoms: C2_2  and  O2_4 
REMARK    2  A    between atoms: O2_4  and  C3_5 
REMARK    3  A    between atoms: C6_10  and  O5_11 
REMARK    4  A    between atoms: C8_15  and  O6_16 
REMARK    5  A    between atoms: C14_23  and  C15_24 
ROOT
HETATM    1  C3  UNL     1      27.038  12.318  20.569  1.00  0.00     0.214 C 
HETATM    2  O3  UNL     1      26.766  10.990  20.766  1.00  0.00    -0.342 OA
HETATM    3  C4  UNL     1      25.420  10.720  20.933  1.00  0.00     0.182 C 
HETATM    4  C5  UNL     1      24.722  10.566  19.536  1.00  0.00     0.163 C 
HETATM    5  O4  UNL     1      23.428  10.953  19.687  1.00  0.00    -0.351 OA
HETATM    6  C6  UNL     1      23.340  11.681  20.812  1.00  0.00     0.282 C 
HETATM    7  C7  UNL     1      24.771  12.066  21.179  1.00  0.00     0.132 C 
HETATM    8 BR1  UNL     1      24.672  12.828  22.833  1.00  0.00    -0.074 Br
HETATM    9  C8  UNL     1      25.571  12.663  20.071  1.00  0.00     0.146 C 
HETATM   10  C9  UNL     1      25.485  11.709  18.938  1.00  0.00     0.066 C 
HETATM   11  C10 UNL     1      25.128  12.379  17.710  1.00  0.00     0.013 C 
HETATM   12  C11 UNL     1      23.693  12.821  17.527  1.00  0.00     0.015 C 
HETATM   13  C12 UNL     1      26.097  13.538  17.565  1.00  0.00    -0.025 C 
HETATM   14  C13 UNL     1      27.260  13.686  18.399  1.00  0.00    -0.020 C 
HETATM   15  C14 UNL     1      27.810  12.715  19.344  1.00  0.00     0.077 C 
ENDROOT
BRANCH   1  16
HETATM   16  O2  UNL     1      27.258  12.991  21.733  1.00  0.00    -0.280 OA
BRANCH  16  17
HETATM   17  C2  UNL     1      28.295  12.930  22.611  1.00  0.00     0.257 C 
HETATM   18  C1  UNL     1      28.958  14.171  23.189  1.00  0.00     0.126 C 
HETATM   19  O1  UNL     1      28.804  11.855  23.022  1.00  0.00    -0.266 OA
ENDBRANCH  16  17
ENDBRANCH   1  16
BRANCH   9  20
HETATM   20  O6  UNL     1      25.309  13.943  19.947  1.00  0.00    -0.382 OA
ATOM     21  H6  UNL     1      25.929  14.527  20.367  1.00  0.00     0.210 HD
ENDBRANCH   9  20
BRANCH  15  22
HETATM   22  C15 UNL     1      29.240  13.068  19.681  1.00  0.00    -0.010 C 
HETATM   23  C16 UNL     1      29.572  14.537  19.417  1.00  0.00     0.010 C 
HETATM   24  C17 UNL     1      30.186  12.443  18.592  1.00  0.00     0.010 C 
ENDBRANCH  15  22
BRANCH   6  25
HETATM   25  O5  UNL     1      22.435  12.687  20.908  1.00  0.00    -0.369 OA
ATOM     26  H5  UNL     1      22.726  13.590  20.948  1.00  0.00     0.212 HD
ENDBRANCH   6  25
TORSDOF 5
ENDMDL
MODEL 3
REMARK VINA RESULT: -6.667270765      2.099      3.739
REMARK  5 active torsions:
REMARK  status: ('A' for Active; 'I' for Inactive)
REMARK    1  A    between atoms: C2_2  and  O2_4 
REMARK    2  A    between atoms: O2_4  and  C3_5 
REMARK    3  A    between atoms: C6_10  and  O5_11 
REMARK    4  A    between atoms: C8_15  and  O6_16 
REMARK    5  A    between atoms: C14_23  and  C15_24 
ROOT
HETATM    1  C3  UNL     1      25.086  12.209  20.606  1.00  0.00     0.214 C 
HETATM    2  O3  UNL     1      25.642  11.048  20.137  1.00  0.00    -0.342 OA
HETATM    3  C4  UNL     1      26.825  11.241  19.447  1.00  0.00     0.182 C 
HETATM    4  C5  UNL     1      28.030  11.313  20.449  1.00  0.00     0.163 C 
HETATM    5  O4  UNL     1      28.977  12.107  19.885  1.00  0.00    -0.351 OA
HETATM    6  C6  UNL     1      28.390  12.835  18.921  1.00  0.00     0.282 C 
HETATM    7  C7  UNL     1      26.887  12.729  19.169  1.00  0.00     0.132 C 
HETATM    8 BR1  UNL     1      26.089  13.498  17.722  1.00  0.00    -0.074 Br
HETATM    9  C8  UNL     1      26.452  13.016  20.567  1.00  0.00     0.146 C 
HETATM   10  C9  UNL     1      27.262  12.131  21.442  1.00  0.00     0.066 C 
HETATM   11  C10 UNL     1      27.858  12.869  22.530  1.00  0.00     0.013 C 
HETATM   12  C11 UNL     1      29.043  13.759  22.228  1.00  0.00     0.015 C 
HETATM   13  C12 UNL     1      26.728  13.640  23.186  1.00  0.00    -0.025 C 
HETATM   14  C13 UNL     1      25.342  13.404  22.872  1.00  0.00    -0.020 C 
HETATM   15  C14 UNL     1      24.783  12.316  22.072  1.00  0.00     0.077 C 
ENDROOT
BRANCH   1  16
HETATM   16  O2  UNL     1      24.231  12.784  19.713  1.00  0.00    -0.280 OA
BRANCH  16  17
HETATM   17  C2  UNL     1      23.063  12.330  19.183  1.00  0.00     0.257 C 
HETATM   18  C1  UNL     1      21.863  13.233  18.945  1.00  0.00     0.126 C 
HETATM   19  O1  UNL     1      22.864  11.134  18.848  1.00  0.00    -0.266 OA
ENDBRANCH  16  17
ENDBRANCH   1  16
BRANCH   9  20
HETATM   20  O6  UNL     1      26.346  14.309  20.764  1.00  0.00    -0.382 OA
ATOM     21  H6  UNL     1      26.804  14.854  20.135  1.00  0.00     0.210 HD
ENDBRANCH   9  20
BRANCH  15  22
HETATM   22  C15 UNL     1      23.302  12.179  22.342  1.00  0.00    -0.010 C 
HETATM   23  C16 UNL     1      22.910  12.608  23.756  1.00  0.00     0.010 C 
HETATM   24  C17 UNL     1      22.952  10.652  22.484  1.00  0.00     0.010 C 
ENDBRANCH  15  22
BRANCH   6  25
HETATM   25  O5  UNL     1      28.835  14.085  18.640  1.00  0.00    -0.369 OA
ATOM     26  H5  UNL     1      28.282  14.839  18.804  1.00  0.00     0.212 HD
ENDBRANCH   6  25
TORSDOF 5
ENDMDL
MODEL 4
REMARK VINA RESULT: -6.602755978      2.537      4.842
REMARK  5 active torsions:
REMARK  status: ('A' for Active; 'I' for Inactive)
REMARK    1  A    between atoms: C2_2  and  O2_4 
REMARK    2  A    between atoms: O2_4  and  C3_5 
REMARK    3  A    between atoms: C6_10  and  O5_11 
REMARK    4  A    between atoms: C8_15  and  O6_16 
REMARK    5  A    between atoms: C14_23  and  C15_24 
ROOT
HETATM    1  C3  UNL     1      23.758  12.178  21.582  1.00  0.00     0.214 C 
HETATM    2  O3  UNL     1      23.649  10.836  21.328  1.00  0.00    -0.342 OA
HETATM    3  C4  UNL     1      23.822  10.509  19.996  1.00  0.00     0.182 C 
HETATM    4  C5  UNL     1      25.349  10.359  19.669  1.00  0.00     0.163 C 
HETATM    5  O4  UNL     1      25.517  10.690  18.362  1.00  0.00    -0.351 OA
HETATM    6  C6  UNL     1      24.440  11.389  17.968  1.00  0.00     0.282 C 
HETATM    7  C7  UNL     1      23.728  11.822  19.247  1.00  0.00     0.132 C 
HETATM    8 BR1  UNL     1      22.141  12.543  18.712  1.00  0.00    -0.074 Br
HETATM    9  C8  UNL     1      24.597  12.476  20.267  1.00  0.00     0.146 C 
HETATM   10  C9  UNL     1      25.728  11.544  20.505  1.00  0.00     0.066 C 
HETATM   11  C10 UNL     1      26.998  12.226  20.430  1.00  0.00     0.013 C 
HETATM   12  C11 UNL     1      27.524  12.615  19.066  1.00  0.00     0.015 C 
HETATM   13  C12 UNL     1      26.887  13.426  21.353  1.00  0.00    -0.025 C 
HETATM   14  C13 UNL     1      25.790  13.602  22.269  1.00  0.00    -0.020 C 
HETATM   15  C14 UNL     1      24.750  12.633  22.612  1.00  0.00     0.077 C 
ENDROOT
BRANCH   1  16
HETATM   16  O2  UNL     1      22.568  12.834  21.479  1.00  0.00    -0.280 OA
BRANCH  16  17
HETATM   17  C2  UNL     1      21.359  12.574  22.047  1.00  0.00     0.257 C 
HETATM   18  C1  UNL     1      20.611  11.268  21.826  1.00  0.00     0.126 C 
HETATM   19  O1  UNL     1      20.749  13.379  22.796  1.00  0.00    -0.266 OA
ENDBRANCH  16  17
ENDBRANCH   1  16
BRANCH   9  20
HETATM   20  O6  UNL     1      24.768  13.747  19.987  1.00  0.00    -0.382 OA
ATOM     21  H6  UNL     1      25.661  14.062  20.062  1.00  0.00     0.210 HD
ENDBRANCH   9  20
BRANCH  15  22
HETATM   22  C15 UNL     1      24.068  13.035  23.898  1.00  0.00    -0.010 C 
HETATM   23  C16 UNL     1      25.047  13.510  24.972  1.00  0.00     0.010 C 
HETATM   24  C17 UNL     1      23.568  11.738  24.633  1.00  0.00     0.010 C 
ENDBRANCH  15  22
BRANCH   6  25
HETATM   25  O5  UNL     1      24.558  12.355  17.025  1.00  0.00    -0.369 OA
ATOM     26  H5  UNL     1      23.998  13.121  17.051  1.00  0.00     0.212 HD
ENDBRANCH   6  25
TORSDOF 5
ENDMDL
MODEL 5
REMARK VINA RESULT: -6.587889438      1.719      2.354
REMARK  5 active torsions:
REMARK  status: ('A' for Active; 'I' for Inactive)
REMARK    1  A    between atoms: C2_2  and  O2_4 
REMARK    2  A    between atoms: O2_4  and  C3_5 
REMARK    3  A    between atoms: C6_10  and  O5_11 
REMARK    4  A    between atoms: C8_15  and  O6_16 
REMARK    5  A    between atoms: C14_23  and  C15_24 
ROOT
HETATM    1  C3  UNL     1      25.763  12.918  21.534  1.00  0.00     0.214 C 
HETATM    2  O3  UNL     1      25.984  14.236  21.229  1.00  0.00    -0.342 OA
HETATM    3  C4  UNL     1      27.325  14.567  21.147  1.00  0.00     0.182 C 
HETATM    4  C5  UNL     1      27.879  14.232  19.718  1.00  0.00     0.163 C 
HETATM    5  O4  UNL     1      29.199  13.942  19.854  1.00  0.00    -0.351 OA
HETATM    6  C6  UNL     1      29.431  13.655  21.146  1.00  0.00     0.282 C 
HETATM    7  C7  UNL     1      28.063  13.402  21.774  1.00  0.00     0.132 C 
HETATM    8 BR1  UNL     1      28.357  13.268  23.568  1.00  0.00    -0.074 Br
HETATM    9  C8  UNL     1      27.192  12.443  21.033  1.00  0.00     0.146 C 
HETATM   10  C9  UNL     1      27.121  12.941  19.637  1.00  0.00     0.066 C 
HETATM   11  C10 UNL     1      27.395  11.890  18.687  1.00  0.00     0.013 C 
HETATM   12  C11 UNL     1      28.827  11.433  18.517  1.00  0.00     0.015 C 
HETATM   13  C12 UNL     1      26.477  10.739  19.056  1.00  0.00    -0.025 C 
HETATM   14  C13 UNL     1      25.407  10.875  20.010  1.00  0.00    -0.020 C 
HETATM   15  C14 UNL     1      24.900  12.107  20.613  1.00  0.00     0.077 C 
ENDROOT
BRANCH   1  16
HETATM   16  O2  UNL     1      25.689  12.692  22.876  1.00  0.00    -0.280 OA
BRANCH  16  17
HETATM   17  C2  UNL     1      24.942  13.297  23.839  1.00  0.00     0.257 C 
HETATM   18  C1  UNL     1      23.620  12.730  24.332  1.00  0.00     0.126 C 
HETATM   19  O1  UNL     1      25.266  14.373  24.403  1.00  0.00    -0.266 OA
ENDBRANCH  16  17
ENDBRANCH   1  16
BRANCH   9  20
HETATM   20  O6  UNL     1      27.507  11.204  21.333  1.00  0.00    -0.382 OA
ATOM     21  H6  UNL     1      28.287  10.870  20.906  1.00  0.00     0.210 HD
ENDBRANCH   9  20
BRANCH  15  22
HETATM   22  C15 UNL     1      23.529  11.873  21.202  1.00  0.00    -0.010 C 
HETATM   23  C16 UNL     1      23.193  10.390  21.366  1.00  0.00     0.010 C 
HETATM   24  C17 UNL     1      22.446  12.210  20.113  1.00  0.00     0.010 C 
ENDBRANCH  15  22
BRANCH   6  25
HETATM   25  O5  UNL     1      30.390  12.760  21.486  1.00  0.00    -0.369 OA
ATOM     26  H5  UNL     1      30.909  12.888  22.271  1.00  0.00     0.212 HD
ENDBRANCH   6  25
TORSDOF 5
ENDMDL
