MODEL 1
REMARK VINA RESULT: -6.655249833      0.000      0.000
REMARK  5 active torsions:
REMARK  status: ('A' for Active; 'I' for Inactive)
REMARK    1  A    between atoms: S1_2  and  C2_3 
REMARK    2  A    between atoms: C2_3  and  N1_5 
REMARK    3  A    between atoms: N2_8  and  C5_9 
REMARK    4  A    between atoms: C6_12  and  N4_13 
REMARK    5  A    between atoms: C8_18  and  N5_19 
ROOT
HETATM    1  C5  UNL     1      23.904  10.795  20.478  1.00  0.00     0.684 A 
HETATM    2  N3  UNL     1      23.749  11.344  19.282  1.00  0.00    -0.175 N 
ATOM      3  H3  UNL     1      22.802  11.472  18.926  1.00  0.00     0.186 HD
HETATM    4  C6  UNL     1      24.791  11.745  18.510  1.00  0.00     0.136 A 
HETATM    5  C7  UNL     1      26.064  11.548  19.041  1.00  0.00     0.099 A 
HETATM    6 BR1  UNL     1      27.593  12.074  18.043  1.00  0.00    -0.043 Br
HETATM    7  C8  UNL     1      26.248  10.979  20.278  1.00  0.00     0.140 A 
HETATM    8  N6  UNL     1      25.127  10.616  20.963  1.00  0.00    -0.175 N 
ATOM      9  H6  UNL     1      25.232  10.191  21.884  1.00  0.00     0.186 HD
ENDROOT
BRANCH   1  10
HETATM   10  N2  UNL     1      22.775  10.406  21.235  1.00  0.00    -0.200 N 
HETATM   11  C4  UNL     1      21.441  10.079  20.788  1.00  0.00     0.163 C 
HETATM   12  C3  UNL     1      20.552  10.708  21.812  1.00  0.00     0.146 C 
HETATM   13  N1  UNL     1      21.388  10.818  22.984  1.00  0.00    -0.348 N 
HETATM   14  C13 UNL     1      22.696  10.254  22.701  1.00  0.00     0.269 C 
BRANCH  13  15
HETATM   15  C2  UNL     1      20.987  11.395  24.219  1.00  0.00     0.137 C 
HETATM   16  S2  UNL     1      22.122  12.117  25.179  1.00  0.00    -0.053 SA
BRANCH  15  17
HETATM   17  S1  UNL     1      19.309  11.383  24.794  1.00  0.00    -0.105 SA
HETATM   18  C1  UNL     1      19.279  11.790  26.560  1.00  0.00     0.098 C 
ENDBRANCH  15  17
ENDBRANCH  13  15
ENDBRANCH   1  10
BRANCH   4  19
HETATM   19  N4  UNL     1      24.633  12.278  17.348  1.00  0.00    -0.384 N 
ATOM     20  H42 UNL     1      24.046  11.834  16.642  1.00  0.00     0.157 HD
ATOM     21  H41 UNL     1      25.078  13.156  17.077  1.00  0.00     0.157 HD
ENDBRANCH   4  19
BRANCH   7  22
HETATM   22  N5  UNL     1      27.545  10.765  20.868  1.00  0.00    -0.366 N 
HETATM   23  C9  UNL     1      28.288   9.542  20.846  1.00  0.00     0.124 C 
HETATM   24  C10 UNL     1      29.236   9.640  22.000  1.00  0.00     0.021 C 
HETATM   25  C11 UNL     1      29.007  10.975  22.645  1.00  0.00     0.021 C 
HETATM   26  C12 UNL     1      28.301  11.762  21.573  1.00  0.00     0.124 C 
ENDBRANCH   7  22
TORSDOF 5
ENDMDL
MODEL 2
REMARK VINA RESULT: -6.651331958      0.502      1.015
REMARK  5 active torsions:
REMARK  status: ('A' for Active; 'I' for Inactive)
REMARK    1  A    between atoms: S1_2  and  C2_3 
REMARK    2  A    between atoms: C2_3  and  N1_5 
REMARK    3  A    between atoms: N2_8  and  C5_9 
REMARK    4  A    between atoms: C6_12  and  N4_13 
REMARK    5  A    between atoms: C8_18  and  N5_19 
ROOT
HETATM    1  C5  UNL     1      23.906  10.796  20.488  1.00  0.00     0.684 A 
HETATM    2  N3  UNL     1      23.751  11.325  19.283  1.00  0.00    -0.175 N 
ATOM      3  H3  UNL     1      22.804  11.451  18.926  1.00  0.00     0.186 HD
HETATM    4  C6  UNL     1      24.793  11.706  18.501  1.00  0.00     0.136 A 
HETATM    5  C7  UNL     1      26.067  11.512  19.033  1.00  0.00     0.099 A 
HETATM    6 BR1  UNL     1      27.597  12.012  18.023  1.00  0.00    -0.043 Br
HETATM    7  C8  UNL     1      26.251  10.965  20.280  1.00  0.00     0.140 A 
HETATM    8  N6  UNL     1      25.129  10.620  20.974  1.00  0.00    -0.175 N 
ATOM      9  H6  UNL     1      25.234  10.211  21.902  1.00  0.00     0.186 HD
ENDROOT
BRANCH   1  10
HETATM   10  N2  UNL     1      22.777  10.426  21.255  1.00  0.00    -0.200 N 
HETATM   11  C4  UNL     1      21.434  10.122  20.818  1.00  0.00     0.163 C 
HETATM   12  C3  UNL     1      20.564  10.767  21.848  1.00  0.00     0.146 C 
HETATM   13  N1  UNL     1      21.411  10.863  23.014  1.00  0.00    -0.348 N 
HETATM   14  C13 UNL     1      22.706  10.277  22.721  1.00  0.00     0.269 C 
BRANCH  13  15
HETATM   15  C2  UNL     1      21.029  11.448  24.251  1.00  0.00     0.137 C 
HETATM   16  S2  UNL     1      19.454  11.347  24.740  1.00  0.00    -0.053 SA
BRANCH  15  17
HETATM   17  S1  UNL     1      22.170  12.293  25.315  1.00  0.00    -0.105 SA
HETATM   18  C1  UNL     1      21.504  12.324  27.001  1.00  0.00     0.098 C 
ENDBRANCH  15  17
ENDBRANCH  13  15
ENDBRANCH   1  10
BRANCH   4  19
HETATM   19  N4  UNL     1      24.636  12.219  17.330  1.00  0.00    -0.384 N 
ATOM     20  H42 UNL     1      24.003  13.005  17.183  1.00  0.00     0.157 HD
ATOM     21  H41 UNL     1      25.128  11.875  16.504  1.00  0.00     0.157 HD
ENDBRANCH   4  19
BRANCH   7  22
HETATM   22  N5  UNL     1      27.547  10.754  20.871  1.00  0.00    -0.366 N 
HETATM   23  C9  UNL     1      28.286   9.529  20.865  1.00  0.00     0.124 C 
HETATM   24  C10 UNL     1      29.236   9.640  22.017  1.00  0.00     0.021 C 
HETATM   25  C11 UNL     1      29.012  10.984  22.644  1.00  0.00     0.021 C 
HETATM   26  C12 UNL     1      28.308  11.759  21.561  1.00  0.00     0.124 C 
ENDBRANCH   7  22
TORSDOF 5
ENDMDL
MODEL 3
REMARK VINA RESULT: -6.599250321      2.090      2.826
REMARK  5 active torsions:
REMARK  status: ('A' for Active; 'I' for Inactive)
REMARK    1  A    between atoms: S1_2  and  C2_3 
REMARK    2  A    between atoms: C2_3  and  N1_5 
REMARK    3  A    between atoms: N2_8  and  C5_9 
REMARK    4  A    between atoms: C6_12  and  N4_13 
REMARK    5  A    between atoms: C8_18  and  N5_19 
ROOT
HETATM    1  C5  UNL     1      23.115  11.274  22.177  1.00  0.00     0.684 A 
HETATM    2  N3  UNL     1      22.236  11.327  21.187  1.00  0.00    -0.175 N 
ATOM      3  H3  UNL     1      21.242  11.312  21.419  1.00  0.00     0.186 HD
HETATM    4  C6  UNL     1      22.593  11.400  19.880  1.00  0.00     0.136 A 
HETATM    5  C7  UNL     1      23.962  11.417  19.615  1.00  0.00     0.099 A 
HETATM    6 BR1  UNL     1      24.573  11.519  17.818  1.00  0.00    -0.043 Br
HETATM    7  C8  UNL     1      24.891  11.362  20.625  1.00  0.00     0.140 A 
HETATM    8  N6  UNL     1      24.414  11.290  21.900  1.00  0.00    -0.175 N 
ATOM      9  H6  UNL     1      25.080  11.248  22.671  1.00  0.00     0.186 HD
ENDROOT
BRANCH   1  10
HETATM   10  N2  UNL     1      22.675  11.206  23.519  1.00  0.00    -0.200 N 
HETATM   11  C4  UNL     1      22.038  10.115  24.219  1.00  0.00     0.163 C 
HETATM   12  C3  UNL     1      20.992  10.783  25.053  1.00  0.00     0.146 C 
HETATM   13  N1  UNL     1      21.475  12.135  25.207  1.00  0.00    -0.348 N 
HETATM   14  C13 UNL     1      22.756  12.271  24.537  1.00  0.00     0.269 C 
BRANCH  13  15
HETATM   15  C2  UNL     1      20.793  13.169  25.902  1.00  0.00     0.137 C 
HETATM   16  S2  UNL     1      19.491  13.898  25.191  1.00  0.00    -0.053 SA
BRANCH  15  17
HETATM   17  S1  UNL     1      21.270  13.728  27.517  1.00  0.00    -0.105 SA
HETATM   18  C1  UNL     1      21.900  12.323  28.474  1.00  0.00     0.098 C 
ENDBRANCH  15  17
ENDBRANCH  13  15
ENDBRANCH   1  10
BRANCH   4  19
HETATM   19  N4  UNL     1      21.733  11.451  18.922  1.00  0.00    -0.384 N 
ATOM     20  H42 UNL     1      21.141  10.649  18.706  1.00  0.00     0.157 HD
ATOM     21  H41 UNL     1      21.599  12.280  18.342  1.00  0.00     0.157 HD
ENDBRANCH   4  19
BRANCH   7  22
HETATM   22  N5  UNL     1      26.313  11.385  20.397  1.00  0.00    -0.366 N 
HETATM   23  C9  UNL     1      27.108  12.549  20.152  1.00  0.00     0.124 C 
HETATM   24  C10 UNL     1      28.332  12.047  19.452  1.00  0.00     0.021 C 
HETATM   25  C11 UNL     1      28.196  10.557  19.343  1.00  0.00     0.021 C 
HETATM   26  C12 UNL     1      27.162  10.226  20.386  1.00  0.00     0.124 C 
ENDBRANCH   7  22
TORSDOF 5
ENDMDL
MODEL 4
REMARK VINA RESULT: -6.528764959      4.645      8.737
REMARK  5 active torsions:
REMARK  status: ('A' for Active; 'I' for Inactive)
REMARK    1  A    between atoms: S1_2  and  C2_3 
REMARK    2  A    between atoms: C2_3  and  N1_5 
REMARK    3  A    between atoms: N2_8  and  C5_9 
REMARK    4  A    between atoms: C6_12  and  N4_13 
REMARK    5  A    between atoms: C8_18  and  N5_19 
ROOT
HETATM    1  C5  UNL     1      20.308  11.692  24.075  1.00  0.00     0.684 A 
HETATM    2  N3  UNL     1      20.611  10.769  24.975  1.00  0.00    -0.175 N 
ATOM      3  H3  UNL     1      21.058   9.909  24.657  1.00  0.00     0.186 HD
HETATM    4  C6  UNL     1      20.357  10.913  26.301  1.00  0.00     0.136 A 
HETATM    5  C7  UNL     1      19.746  12.105  26.686  1.00  0.00     0.099 A 
HETATM    6 BR1  UNL     1      19.346  12.411  28.518  1.00  0.00    -0.043 Br
HETATM    7  C8  UNL     1      19.421  13.076  25.769  1.00  0.00     0.140 A 
HETATM    8  N6  UNL     1      19.725  12.820  24.465  1.00  0.00    -0.175 N 
ATOM      9  H6  UNL     1      19.495  13.522  23.762  1.00  0.00     0.186 HD
ENDROOT
BRANCH   1  10
HETATM   10  N2  UNL     1      20.606  11.482  22.709  1.00  0.00    -0.200 N 
HETATM   11  C4  UNL     1      20.463  10.285  21.915  1.00  0.00     0.163 C 
HETATM   12  C3  UNL     1      21.692  10.266  21.064  1.00  0.00     0.146 C 
HETATM   13  N1  UNL     1      22.106  11.649  21.013  1.00  0.00    -0.348 N 
HETATM   14  C13 UNL     1      21.164  12.464  21.759  1.00  0.00     0.269 C 
BRANCH  13  15
HETATM   15  C2  UNL     1      23.261  12.129  20.341  1.00  0.00     0.137 C 
HETATM   16  S2  UNL     1      24.687  12.245  21.168  1.00  0.00    -0.053 SA
BRANCH  15  17
HETATM   17  S1  UNL     1      23.256  12.618  18.635  1.00  0.00    -0.105 SA
HETATM   18  C1  UNL     1      24.513  11.668  17.738  1.00  0.00     0.098 C 
ENDBRANCH  15  17
ENDBRANCH  13  15
ENDBRANCH   1  10
BRANCH   4  19
HETATM   19  N4  UNL     1      20.655  10.011  27.171  1.00  0.00    -0.384 N 
ATOM     20  H42 UNL     1      21.238  10.233  27.978  1.00  0.00     0.157 HD
ATOM     21  H41 UNL     1      20.329   9.046  27.102  1.00  0.00     0.157 HD
ENDBRANCH   4  19
BRANCH   7  22
HETATM   22  N5  UNL     1      18.797  14.325  26.124  1.00  0.00    -0.366 N 
HETATM   23  C9  UNL     1      19.471  15.560  26.383  1.00  0.00     0.124 C 
HETATM   24  C10 UNL     1      18.517  16.360  27.214  1.00  0.00     0.021 C 
HETATM   25  C11 UNL     1      17.278  15.530  27.382  1.00  0.00     0.021 C 
HETATM   26  C12 UNL     1      17.381  14.524  26.267  1.00  0.00     0.124 C 
ENDBRANCH   7  22
TORSDOF 5
ENDMDL
MODEL 5
REMARK VINA RESULT: -6.513176571      3.903      5.945
REMARK  5 active torsions:
REMARK  status: ('A' for Active; 'I' for Inactive)
REMARK    1  A    between atoms: S1_2  and  C2_3 
REMARK    2  A    between atoms: C2_3  and  N1_5 
REMARK    3  A    between atoms: N2_8  and  C5_9 
REMARK    4  A    between atoms: C6_12  and  N4_13 
REMARK    5  A    between atoms: C8_18  and  N5_19 
ROOT
HETATM    1  C5  UNL     1      22.070  12.565  25.027  1.00  0.00     0.684 A 
HETATM    2  N3  UNL     1      23.358  12.782  25.249  1.00  0.00    -0.175 N 
ATOM      3  H3  UNL     1      23.668  12.924  26.210  1.00  0.00     0.186 HD
HETATM    4  C6  UNL     1      24.284  12.824  24.257  1.00  0.00     0.136 A 
HETATM    5  C7  UNL     1      23.810  12.625  22.962  1.00  0.00     0.099 A 
HETATM    6 BR1  UNL     1      25.023  12.663  21.498  1.00  0.00    -0.043 Br
HETATM    7  C8  UNL     1      22.479  12.399  22.709  1.00  0.00     0.140 A 
HETATM    8  N6  UNL     1      21.642  12.379  23.784  1.00  0.00    -0.175 N 
ATOM      9  H6  UNL     1      20.648  12.214  23.628  1.00  0.00     0.186 HD
ENDROOT
BRANCH   1  10
HETATM   10  N2  UNL     1      21.157  12.526  26.107  1.00  0.00    -0.200 N 
HETATM   11  C4  UNL     1      20.248  11.475  26.499  1.00  0.00     0.163 C 
HETATM   12  C3  UNL     1      19.004  12.202  26.894  1.00  0.00     0.146 C 
HETATM   13  N1  UNL     1      19.464  13.526  27.240  1.00  0.00    -0.348 N 
HETATM   14  C13 UNL     1      20.908  13.589  27.100  1.00  0.00     0.269 C 
BRANCH  13  15
HETATM   15  C2  UNL     1      18.627  14.598  27.649  1.00  0.00     0.137 C 
HETATM   16  S2  UNL     1      17.302  14.277  28.582  1.00  0.00    -0.053 SA
BRANCH  15  17
HETATM   17  S1  UNL     1      18.932  16.289  27.203  1.00  0.00    -0.105 SA
HETATM   18  C1  UNL     1      18.620  16.505  25.431  1.00  0.00     0.098 C 
ENDBRANCH  15  17
ENDBRANCH  13  15
ENDBRANCH   1  10
BRANCH   4  19
HETATM   19  N4  UNL     1      25.536  13.036  24.479  1.00  0.00    -0.384 N 
ATOM     20  H42 UNL     1      25.838  13.783  25.104  1.00  0.00     0.157 HD
ATOM     21  H41 UNL     1      26.275  12.478  24.052  1.00  0.00     0.157 HD
ENDBRANCH   4  19
BRANCH   7  22
HETATM   22  N5  UNL     1      21.948  12.181  21.387  1.00  0.00    -0.366 N 
HETATM   23  C9  UNL     1      21.669  10.910  20.792  1.00  0.00     0.124 C 
HETATM   24  C10 UNL     1      21.681  11.159  19.316  1.00  0.00     0.021 C 
HETATM   25  C11 UNL     1      21.951  12.622  19.119  1.00  0.00     0.021 C 
HETATM   26  C12 UNL     1      21.608  13.221  20.457  1.00  0.00     0.124 C 
ENDBRANCH   7  22
TORSDOF 5
ENDMDL
