MODEL 1
REMARK VINA RESULT: -8.142032137      0.000      0.000
REMARK  3 active torsions:
REMARK  status: ('A' for Active; 'I' for Inactive)
REMARK    1  A    between atoms: C2_2  and  C3_4 
REMARK    2  A    between atoms: C12_16  and  O5_17 
REMARK    3  A    between atoms: C14_21  and  O6_22 
ROOT
HETATM    1  C3  UNL     1      18.860  15.955  26.496  1.00  0.00     0.061 C 
HETATM    2  C4  UNL     1      17.677  15.805  27.408  1.00  0.00     0.013 C 
HETATM    3  C5  UNL     1      16.927  14.575  26.925  1.00  0.00     0.010 C 
HETATM    4  C6  UNL     1      17.962  13.705  26.248  1.00  0.00     0.023 C 
HETATM    5  C7  UNL     1      18.898  13.015  27.164  1.00  0.00    -0.036 C 
HETATM    6  C8  UNL     1      19.190  12.187  28.159  1.00  0.00     0.180 C 
HETATM    7  O2  UNL     1      20.534  12.055  28.483  1.00  0.00    -0.207 OA
HETATM    8  O3  UNL     1      21.281  13.150  28.553  1.00  0.00    -0.202 OA
HETATM    9  C9  UNL     1      20.933  14.160  27.665  1.00  0.00     0.310 C 
HETATM   10  O4  UNL     1      22.123  14.636  27.115  1.00  0.00    -0.357 OA
HETATM   11  C10 UNL     1      22.953  13.633  26.690  1.00  0.00     0.178 C 
HETATM   12  C11 UNL     1      22.256  12.600  25.878  1.00  0.00     0.045 C 
HETATM   13  C12 UNL     1      23.025  12.458  24.554  1.00  0.00     0.141 C 
HETATM   14  C13 UNL     1      22.343  11.448  23.698  1.00  0.00     0.115 C 
HETATM   15 BR1  UNL     1      21.886  12.169  21.955  1.00  0.00    -0.086 Br
HETATM   16  C14 UNL     1      21.159  10.781  24.303  1.00  0.00     0.135 C 
HETATM   17  C15 UNL     1      20.184  11.681  24.997  1.00  0.00     0.039 C 
HETATM   18  C16 UNL     1      20.838  12.924  25.505  1.00  0.00     0.015 C 
HETATM   19  C17 UNL     1      20.082  13.690  26.528  1.00  0.00     0.047 C 
HETATM   20  C18 UNL     1      19.116  14.621  25.895  1.00  0.00     0.023 C 
ENDROOT
BRANCH   1  21
HETATM   21  C2  UNL     1      18.505  16.939  25.435  1.00  0.00     0.127 C 
HETATM   22  C1  UNL     1      17.990  16.483  24.098  1.00  0.00     0.091 C 
HETATM   23  O1  UNL     1      18.641  18.127  25.673  1.00  0.00    -0.298 OA
ENDBRANCH   1  21
BRANCH  13  24
HETATM   24  O5  UNL     1      24.332  12.096  24.891  1.00  0.00    -0.394 OA
ATOM     25  H5  UNL     1      24.301  11.183  25.149  1.00  0.00     0.210 HD
ENDBRANCH  13  24
BRANCH  16  26
HETATM   26  O6  UNL     1      21.485   9.653  25.086  1.00  0.00    -0.394 OA
ATOM     27  H6  UNL     1      20.730   9.134  25.338  1.00  0.00     0.210 HD
ENDBRANCH  16  26
TORSDOF 3
ENDMDL
MODEL 2
REMARK VINA RESULT: -8.068750733      5.247      8.471
REMARK  3 active torsions:
REMARK  status: ('A' for Active; 'I' for Inactive)
REMARK    1  A    between atoms: C2_2  and  C3_4 
REMARK    2  A    between atoms: C12_16  and  O5_17 
REMARK    3  A    between atoms: C14_21  and  O6_22 
ROOT
HETATM    1  C3  UNL     1      22.167  11.247  20.568  1.00  0.00     0.061 C 
HETATM    2  C4  UNL     1      21.339  11.342  19.319  1.00  0.00     0.013 C 
HETATM    3  C5  UNL     1      21.538  12.752  18.790  1.00  0.00     0.010 C 
HETATM    4  C6  UNL     1      22.894  13.190  19.293  1.00  0.00     0.023 C 
HETATM    5  C7  UNL     1      24.049  12.561  18.614  1.00  0.00    -0.036 C 
HETATM    6  C8  UNL     1      24.792  12.281  17.549  1.00  0.00     0.180 C 
HETATM    7  O2  UNL     1      25.914  11.493  17.766  1.00  0.00    -0.207 OA
HETATM    8  O3  UNL     1      25.801  10.426  18.548  1.00  0.00    -0.202 OA
HETATM    9  C9  UNL     1      24.899  10.557  19.596  1.00  0.00     0.310 C 
HETATM   10  O4  UNL     1      25.525  10.035  20.728  1.00  0.00    -0.357 OA
HETATM   11  C10 UNL     1      26.805  10.494  20.891  1.00  0.00     0.178 C 
HETATM   12  C11 UNL     1      26.924  11.968  20.733  1.00  0.00     0.045 C 
HETATM   13  C12 UNL     1      27.618  12.512  21.993  1.00  0.00     0.141 C 
HETATM   14  C13 UNL     1      27.734  13.993  21.886  1.00  0.00     0.115 C 
HETATM   15 BR1  UNL     1      26.937  14.891  23.410  1.00  0.00    -0.086 Br
HETATM   16  C14 UNL     1      27.233  14.591  20.620  1.00  0.00     0.135 C 
HETATM   17  C15 UNL     1      25.904  14.095  20.140  1.00  0.00     0.039 C 
HETATM   18  C16 UNL     1      25.622  12.710  20.621  1.00  0.00     0.015 C 
HETATM   19  C17 UNL     1      24.545  11.977  19.907  1.00  0.00     0.047 C 
HETATM   20  C18 UNL     1      23.212  12.297  20.476  1.00  0.00     0.023 C 
ENDROOT
BRANCH   1  21
HETATM   21  C2  UNL     1      21.277  11.505  21.735  1.00  0.00     0.127 C 
HETATM   22  C1  UNL     1      21.454  12.733  22.585  1.00  0.00     0.091 C 
HETATM   23  O1  UNL     1      20.399  10.698  21.989  1.00  0.00    -0.298 OA
ENDBRANCH   1  21
BRANCH  13  24
HETATM   24  O5  UNL     1      28.857  11.871  22.070  1.00  0.00    -0.394 OA
ATOM     25  H5  UNL     1      28.720  10.982  21.764  1.00  0.00     0.210 HD
ENDBRANCH  13  24
BRANCH  16  26
HETATM   26  O6  UNL     1      28.193  14.609  19.585  1.00  0.00    -0.394 OA
ATOM     27  H6  UNL     1      28.445  15.484  19.314  1.00  0.00     0.210 HD
ENDBRANCH  16  26
TORSDOF 3
ENDMDL
MODEL 3
REMARK VINA RESULT: -7.857120560      2.796      6.287
REMARK  3 active torsions:
REMARK  status: ('A' for Active; 'I' for Inactive)
REMARK    1  A    between atoms: C2_2  and  C3_4 
REMARK    2  A    between atoms: C12_16  and  O5_17 
REMARK    3  A    between atoms: C14_21  and  O6_22 
ROOT
HETATM    1  C3  UNL     1      21.238   9.956  21.040  1.00  0.00     0.061 C 
HETATM    2  C4  UNL     1      22.277  10.455  20.078  1.00  0.00     0.013 C 
HETATM    3  C5  UNL     1      22.014  11.942  19.910  1.00  0.00     0.010 C 
HETATM    4  C6  UNL     1      21.338  12.384  21.188  1.00  0.00     0.023 C 
HETATM    5  C7  UNL     1      22.226  12.475  22.369  1.00  0.00    -0.036 C 
HETATM    6  C8  UNL     1      23.274  12.949  23.033  1.00  0.00     0.180 C 
HETATM    7  O2  UNL     1      23.472  12.455  24.314  1.00  0.00    -0.207 OA
HETATM    8  O3  UNL     1      23.342  11.150  24.520  1.00  0.00    -0.202 OA
HETATM    9  C9  UNL     1      22.386  10.521  23.733  1.00  0.00     0.310 C 
HETATM   10  O4  UNL     1      21.667   9.675  24.577  1.00  0.00    -0.357 OA
HETATM   11  C10 UNL     1      21.276  10.285  25.738  1.00  0.00     0.178 C 
HETATM   12  C11 UNL     1      20.661  11.622  25.520  1.00  0.00     0.045 C 
HETATM   13  C12 UNL     1      19.289  11.617  26.216  1.00  0.00     0.141 C 
HETATM   14  C13 UNL     1      18.627  12.934  25.998  1.00  0.00     0.115 C 
HETATM   15 BR1  UNL     1      16.870  12.733  25.200  1.00  0.00    -0.086 Br
HETATM   16  C14 UNL     1      19.420  13.940  25.245  1.00  0.00     0.135 C 
HETATM   17  C15 UNL     1      20.104  13.444  24.008  1.00  0.00     0.039 C 
HETATM   18  C16 UNL     1      20.399  11.982  24.085  1.00  0.00     0.015 C 
HETATM   19  C17 UNL     1      21.401  11.466  23.118  1.00  0.00     0.047 C 
HETATM   20  C18 UNL     1      20.769  11.130  21.819  1.00  0.00     0.023 C 
ENDROOT
BRANCH   1  21
HETATM   21  C2  UNL     1      20.115   9.377  20.250  1.00  0.00     0.127 C 
HETATM   22  C1  UNL     1      20.087   9.490  18.751  1.00  0.00     0.091 C 
HETATM   23  O1  UNL     1      19.215   8.809  20.845  1.00  0.00    -0.298 OA
ENDBRANCH   1  21
BRANCH  13  24
HETATM   24  O5  UNL     1      19.530  11.343  27.564  1.00  0.00    -0.394 OA
ATOM     25  H5  UNL     1      19.483  10.399  27.660  1.00  0.00     0.210 HD
ENDBRANCH  13  24
BRANCH  16  26
HETATM   26  O6  UNL     1      20.289  14.701  26.058  1.00  0.00    -0.394 OA
ATOM     27  H6  UNL     1      20.111  14.617  26.987  1.00  0.00     0.210 HD
ENDBRANCH  16  26
TORSDOF 3
ENDMDL
MODEL 4
REMARK VINA RESULT: -7.723621208      5.093      8.348
REMARK  3 active torsions:
REMARK  status: ('A' for Active; 'I' for Inactive)
REMARK    1  A    between atoms: C2_2  and  C3_4 
REMARK    2  A    between atoms: C12_16  and  O5_17 
REMARK    3  A    between atoms: C14_21  and  O6_22 
ROOT
HETATM    1  C3  UNL     1      22.945  10.492  22.153  1.00  0.00     0.061 C 
HETATM    2  C4  UNL     1      21.643  10.428  21.408  1.00  0.00     0.013 C 
HETATM    3  C5  UNL     1      21.352  11.846  20.948  1.00  0.00     0.010 C 
HETATM    4  C6  UNL     1      22.698  12.522  20.830  1.00  0.00     0.023 C 
HETATM    5  C7  UNL     1      23.513  12.102  19.668  1.00  0.00    -0.036 C 
HETATM    6  C8  UNL     1      23.736  11.950  18.368  1.00  0.00     0.180 C 
HETATM    7  O2  UNL     1      24.947  11.375  18.010  1.00  0.00    -0.207 OA
HETATM    8  O3  UNL     1      25.372  10.312  18.683  1.00  0.00    -0.202 OA
HETATM    9  C9  UNL     1      25.026  10.290  20.028  1.00  0.00     0.310 C 
HETATM   10  O4  UNL     1      26.167   9.897  20.727  1.00  0.00    -0.357 OA
HETATM   11  C10 UNL     1      27.291  10.577  20.340  1.00  0.00     0.178 C 
HETATM   12  C11 UNL     1      27.085  12.047  20.252  1.00  0.00     0.045 C 
HETATM   13  C12 UNL     1      28.171  12.717  21.111  1.00  0.00     0.141 C 
HETATM   14  C13 UNL     1      27.984  14.194  21.071  1.00  0.00     0.115 C 
HETATM   15 BR1  UNL     1      27.819  14.949  22.851  1.00  0.00    -0.086 Br
HETATM   16  C14 UNL     1      26.881  14.683  20.202  1.00  0.00     0.135 C 
HETATM   17  C15 UNL     1      25.578  13.955  20.325  1.00  0.00     0.039 C 
HETATM   18  C16 UNL     1      25.769  12.545  20.780  1.00  0.00     0.015 C 
HETATM   19  C17 UNL     1      24.622  11.627  20.565  1.00  0.00     0.047 C 
HETATM   20  C18 UNL     1      23.652  11.711  21.684  1.00  0.00     0.023 C 
ENDROOT
BRANCH   1  21
HETATM   21  C2  UNL     1      22.642  10.598  23.607  1.00  0.00     0.127 C 
HETATM   22  C1  UNL     1      23.003  11.835  24.384  1.00  0.00     0.091 C 
HETATM   23  O1  UNL     1      22.094   9.660  24.160  1.00  0.00    -0.298 OA
ENDBRANCH   1  21
BRANCH  13  24
HETATM   24  O5  UNL     1      29.400  12.306  20.588  1.00  0.00    -0.394 OA
ATOM     25  H5  UNL     1      29.863  11.873  21.295  1.00  0.00     0.210 HD
ENDBRANCH  13  24
BRANCH  16  26
HETATM   26  O6  UNL     1      27.259  14.862  18.854  1.00  0.00    -0.394 OA
ATOM     27  H6  UNL     1      28.171  14.657  18.684  1.00  0.00     0.210 HD
ENDBRANCH  16  26
TORSDOF 3
ENDMDL
MODEL 5
REMARK VINA RESULT: -7.680444452      2.112      3.153
REMARK  3 active torsions:
REMARK  status: ('A' for Active; 'I' for Inactive)
REMARK    1  A    between atoms: C2_2  and  C3_4 
REMARK    2  A    between atoms: C12_16  and  O5_17 
REMARK    3  A    between atoms: C14_21  and  O6_22 
ROOT
HETATM    1  C3  UNL     1      19.266  16.890  27.134  1.00  0.00     0.061 C 
HETATM    2  C4  UNL     1      18.114  17.727  26.658  1.00  0.00     0.013 C 
HETATM    3  C5  UNL     1      17.958  17.423  25.177  1.00  0.00     0.010 C 
HETATM    4  C6  UNL     1      18.509  16.029  24.985  1.00  0.00     0.023 C 
HETATM    5  C7  UNL     1      17.651  14.938  25.500  1.00  0.00    -0.036 C 
HETATM    6  C8  UNL     1      16.525  14.236  25.547  1.00  0.00     0.180 C 
HETATM    7  O2  UNL     1      16.491  13.178  26.444  1.00  0.00    -0.207 OA
HETATM    8  O3  UNL     1      16.976  13.364  27.666  1.00  0.00    -0.202 OA
HETATM    9  C9  UNL     1      18.053  14.236  27.746  1.00  0.00     0.310 C 
HETATM   10  O4  UNL     1      18.990  13.637  28.588  1.00  0.00    -0.357 OA
HETATM   11  C10 UNL     1      19.220  12.322  28.283  1.00  0.00     0.178 C 
HETATM   12  C11 UNL     1      19.443  12.089  26.831  1.00  0.00     0.045 C 
HETATM   13  C12 UNL     1      20.775  11.334  26.685  1.00  0.00     0.141 C 
HETATM   14  C13 UNL     1      21.049  11.102  25.239  1.00  0.00     0.115 C 
HETATM   15 BR1  UNL     1      22.781  11.802  24.712  1.00  0.00    -0.086 Br
HETATM   16  C14 UNL     1      19.998  11.572  24.298  1.00  0.00     0.135 C 
HETATM   17  C15 UNL     1      19.455  12.944  24.554  1.00  0.00     0.039 C 
HETATM   18  C16 UNL     1      19.572  13.329  25.992  1.00  0.00     0.015 C 
HETATM   19  C17 UNL     1      18.732  14.471  26.434  1.00  0.00     0.047 C 
HETATM   20  C18 UNL     1      19.410  15.765  26.175  1.00  0.00     0.023 C 
ENDROOT
BRANCH   1  21
HETATM   21  C2  UNL     1      20.490  17.738  27.123  1.00  0.00     0.127 C 
HETATM   22  C1  UNL     1      20.391  19.238  27.099  1.00  0.00     0.091 C 
HETATM   23  O1  UNL     1      21.580  17.191  27.134  1.00  0.00    -0.298 OA
ENDBRANCH   1  21
BRANCH  13  24
HETATM   24  O5  UNL     1      20.641  10.149  27.413  1.00  0.00    -0.394 OA
ATOM     25  H5  UNL     1      21.469   9.689  27.333  1.00  0.00     0.210 HD
ENDBRANCH  13  24
BRANCH  16  26
HETATM   26  O6  UNL     1      18.969  10.630  24.082  1.00  0.00    -0.394 OA
ATOM     27  H6  UNL     1      18.270  10.676  24.723  1.00  0.00     0.210 HD
ENDBRANCH  16  26
TORSDOF 3
ENDMDL
