MODEL 1
REMARK VINA RESULT: -10.260891177      0.000      0.000
REMARK  10 active torsions:
REMARK  status: ('A' for Active; 'I' for Inactive)
REMARK    1  A    between atoms: C2_2  and  C5_5 
REMARK    2  A    between atoms: C5_5  and  N1_6 
REMARK    3  A    between atoms: C5_5  and  C21_30 
REMARK       I    between atoms: N1_6  and  C6_8 
REMARK    4  A    between atoms: C6_8  and  C7_10 
REMARK    5  A    between atoms: N2_14  and  C11_15 
REMARK    6  A    between atoms: C11_15  and  O2_16 
REMARK    7  A    between atoms: C11_15  and  C12_18 
REMARK       I    between atoms: C21_30  and  N3_32 
REMARK    8  A    between atoms: N3_32  and  C22_34 
REMARK    9  A    between atoms: C22_34  and  C23_35 
REMARK       I    between atoms: C23_35  and  N4_37 
REMARK   10  A    between atoms: C24_38  and  C25_39 
ROOT
HETATM    1  N1  UNL     1      -8.389 -24.193  -9.598  1.00  0.00    -0.342 N 
ATOM      2  H1  UNL     1      -8.937 -23.377  -9.327  1.00  0.00     0.163 HD
HETATM    3  C6  UNL     1      -8.667 -24.806 -10.847  1.00  0.00     0.265 C 
HETATM    4  O1  UNL     1      -7.991 -25.816 -11.097  1.00  0.00    -0.266 OA
ENDROOT
BRANCH   1   5
HETATM    5  C5  UNL     1      -7.360 -24.668  -8.681  1.00  0.00     0.184 C 
BRANCH   5   6
HETATM    6  C2  UNL     1      -6.691 -23.583  -7.958  1.00  0.00    -0.022 C 
HETATM    7  C1  UNL     1      -6.953 -23.570  -6.468  1.00  0.00     0.017 C 
HETATM    8  C3  UNL     1      -7.228 -22.264  -8.539  1.00  0.00     0.017 C 
HETATM    9  C4  UNL     1      -5.209 -23.526  -8.159  1.00  0.00     0.017 C 
ENDBRANCH   5   6
BRANCH   5  10
HETATM   10  C21 UNL     1      -7.934 -25.769  -7.822  1.00  0.00     0.241 C 
HETATM   11  O3  UNL     1      -9.072 -25.593  -7.327  1.00  0.00    -0.271 OA
HETATM   12  N3  UNL     1      -7.279 -26.982  -7.546  1.00  0.00    -0.351 N 
ATOM     13  H3  UNL     1      -6.349 -27.154  -7.929  1.00  0.00     0.163 HD
BRANCH  12  14
HETATM   14  C22 UNL     1      -7.915 -27.993  -6.722  1.00  0.00     0.225 C 
BRANCH  14  15
HETATM   15  C23 UNL     1      -6.923 -28.992  -6.247  1.00  0.00     0.238 C 
HETATM   16  O4  UNL     1      -6.833 -30.106  -6.867  1.00  0.00    -0.272 OA
HETATM   17  N4  UNL     1      -6.060 -28.805  -5.143  1.00  0.00    -0.331 N 
HETATM   18  C24 UNL     1      -5.970 -27.621  -4.325  1.00  0.00     0.189 C 
HETATM   19  C29 UNL     1      -5.170 -29.814  -4.628  1.00  0.00     0.092 A 
HETATM   20  C26 UNL     1      -5.318 -28.032  -3.036  1.00  0.00     0.043 C 
HETATM   21  C27 UNL     1      -4.653 -29.335  -3.319  1.00  0.00     0.013 A 
HETATM   22  C28 UNL     1      -3.709 -29.476  -4.430  1.00  0.00     0.032 A 
BRANCH  18  23
HETATM   23  C25 UNL     1      -5.238 -26.496  -4.915  1.00  0.00     0.197 C 
HETATM   24  O5  UNL     1      -4.833 -26.527  -6.092  1.00  0.00    -0.646 OA
HETATM   25  O6  UNL     1      -4.991 -25.373  -4.148  1.00  0.00    -0.646 OA
ENDBRANCH  18  23
ENDBRANCH  14  15
ENDBRANCH  12  14
ENDBRANCH   5  10
ENDBRANCH   1   5
BRANCH   3  26
HETATM   26  C7  UNL     1      -9.673 -24.318 -11.806  1.00  0.00     0.087 C 
HETATM   27  C8  UNL     1     -10.732 -23.434 -11.309  1.00  0.00     0.056 A 
HETATM   28  C9  UNL     1     -11.988 -24.032 -12.028  1.00  0.00     0.023 A 
HETATM   29  C18 UNL     1     -11.964 -23.628 -10.600  1.00  0.00    -0.032 A 
HETATM   30  C10 UNL     1     -11.587 -25.441 -12.397  1.00  0.00     0.137 C 
HETATM   31  N2  UNL     1     -10.179 -25.219 -12.783  1.00  0.00    -0.329 N 
HETATM   32  C19 UNL     1     -12.294 -24.624  -9.542  1.00  0.00     0.016 C 
HETATM   33  C20 UNL     1     -12.803 -22.338 -10.377  1.00  0.00     0.016 C 
BRANCH  31  34
HETATM   34  C11 UNL     1      -9.636 -25.832 -13.905  1.00  0.00     0.123 C 
BRANCH  34  35
HETATM   35  O2  UNL     1      -8.813 -26.816 -13.658  1.00  0.00    -0.349 OA
ATOM     36  H2  UNL     1      -7.909 -26.658 -13.905  1.00  0.00     0.219 HD
ENDBRANCH  34  35
BRANCH  34  37
HETATM   37  C12 UNL     1      -9.826 -25.576 -15.328  1.00  0.00     0.074 C 
HETATM   38  C13 UNL     1      -8.581 -25.517 -16.177  1.00  0.00     0.027 C 
HETATM   39  C14 UNL     1      -8.779 -24.182 -16.860  1.00  0.00     0.094 C 
HETATM   40  C15 UNL     1      -9.104 -23.313 -15.636  1.00  0.00     0.190 C 
HETATM   41  C17 UNL     1     -10.272 -24.146 -17.116  1.00  0.00     0.257 C 
HETATM   42  F1  UNL     1      -9.298 -21.998 -15.912  1.00  0.00    -0.248 F 
HETATM   43  C16 UNL     1     -10.350 -24.167 -15.595  1.00  0.00     0.105 C 
HETATM   44  F2  UNL     1     -10.739 -22.990 -17.699  1.00  0.00    -0.205 F 
HETATM   45  F3  UNL     1     -10.823 -25.287 -17.647  1.00  0.00    -0.205 F 
ENDBRANCH  34  37
ENDBRANCH  31  34
ENDBRANCH   3  26
TORSDOF 10
ENDMDL
MODEL 2
REMARK VINA RESULT: -9.915760822      1.654      2.577
REMARK  10 active torsions:
REMARK  status: ('A' for Active; 'I' for Inactive)
REMARK    1  A    between atoms: C2_2  and  C5_5 
REMARK    2  A    between atoms: C5_5  and  N1_6 
REMARK    3  A    between atoms: C5_5  and  C21_30 
REMARK       I    between atoms: N1_6  and  C6_8 
REMARK    4  A    between atoms: C6_8  and  C7_10 
REMARK    5  A    between atoms: N2_14  and  C11_15 
REMARK    6  A    between atoms: C11_15  and  O2_16 
REMARK    7  A    between atoms: C11_15  and  C12_18 
REMARK       I    between atoms: C21_30  and  N3_32 
REMARK    8  A    between atoms: N3_32  and  C22_34 
REMARK    9  A    between atoms: C22_34  and  C23_35 
REMARK       I    between atoms: C23_35  and  N4_37 
REMARK   10  A    between atoms: C24_38  and  C25_39 
ROOT
HETATM    1  N1  UNL     1      -7.654 -22.987  -8.962  1.00  0.00    -0.342 N 
ATOM      2  H1  UNL     1      -7.832 -21.983  -9.005  1.00  0.00     0.163 HD
HETATM    3  C6  UNL     1      -8.535 -23.856  -9.657  1.00  0.00     0.265 C 
HETATM    4  O1  UNL     1      -8.285 -25.065  -9.532  1.00  0.00    -0.266 OA
ENDROOT
BRANCH   1   5
HETATM    5  C5  UNL     1      -6.508 -23.452  -8.192  1.00  0.00     0.184 C 
BRANCH   5   6
HETATM    6  C2  UNL     1      -5.420 -22.472  -8.134  1.00  0.00    -0.022 C 
HETATM    7  C1  UNL     1      -5.162 -21.907  -6.754  1.00  0.00     0.017 C 
HETATM    8  C3  UNL     1      -5.824 -21.304  -9.050  1.00  0.00     0.017 C 
HETATM    9  C4  UNL     1      -4.114 -22.963  -8.676  1.00  0.00     0.017 C 
ENDBRANCH   5   6
BRANCH   5  10
HETATM   10  C21 UNL     1      -6.988 -23.976  -6.859  1.00  0.00     0.241 C 
HETATM   11  O3  UNL     1      -8.020 -23.463  -6.366  1.00  0.00    -0.271 OA
HETATM   12  N3  UNL     1      -6.357 -25.006  -6.140  1.00  0.00    -0.351 N 
ATOM     13  H3  UNL     1      -5.513 -25.440  -6.511  1.00  0.00     0.163 HD
BRANCH  12  14
HETATM   14  C22 UNL     1      -6.900 -25.458  -4.872  1.00  0.00     0.225 C 
BRANCH  14  15
HETATM   15  C23 UNL     1      -5.952 -26.373  -4.186  1.00  0.00     0.238 C 
HETATM   16  O4  UNL     1      -5.506 -26.041  -3.035  1.00  0.00    -0.272 OA
HETATM   17  N4  UNL     1      -5.493 -27.600  -4.717  1.00  0.00    -0.331 N 
HETATM   18  C24 UNL     1      -5.888 -28.181  -5.976  1.00  0.00     0.189 C 
HETATM   19  C29 UNL     1      -4.500 -28.436  -4.092  1.00  0.00     0.092 A 
HETATM   20  C26 UNL     1      -4.831 -29.184  -6.343  1.00  0.00     0.043 C 
HETATM   21  C27 UNL     1      -4.094 -29.471  -5.079  1.00  0.00     0.013 A 
HETATM   22  C28 UNL     1      -4.803 -29.902  -3.872  1.00  0.00     0.032 A 
BRANCH  18  23
HETATM   23  C25 UNL     1      -7.207 -28.821  -5.995  1.00  0.00     0.197 C 
HETATM   24  O5  UNL     1      -7.438 -29.856  -5.342  1.00  0.00    -0.646 OA
HETATM   25  O6  UNL     1      -8.218 -28.265  -6.754  1.00  0.00    -0.646 OA
ENDBRANCH  18  23
ENDBRANCH  14  15
ENDBRANCH  12  14
ENDBRANCH   5  10
ENDBRANCH   1   5
BRANCH   3  26
HETATM   26  C7  UNL     1      -9.675 -23.405 -10.474  1.00  0.00     0.087 C 
HETATM   27  C8  UNL     1     -10.856 -22.878  -9.785  1.00  0.00     0.056 A 
HETATM   28  C9  UNL     1     -12.009 -23.566 -10.590  1.00  0.00     0.023 A 
HETATM   29  C18 UNL     1     -11.980 -23.461  -9.111  1.00  0.00    -0.032 A 
HETATM   30  C10 UNL     1     -11.358 -24.758 -11.253  1.00  0.00     0.137 C 
HETATM   31  N2  UNL     1     -10.049 -24.176 -11.609  1.00  0.00    -0.329 N 
HETATM   32  C19 UNL     1     -12.040 -24.697  -8.279  1.00  0.00     0.016 C 
HETATM   33  C20 UNL     1     -13.044 -22.445  -8.607  1.00  0.00     0.016 C 
BRANCH  31  34
HETATM   34  C11 UNL     1      -9.464 -24.423 -12.844  1.00  0.00     0.123 C 
BRANCH  34  35
HETATM   35  O2  UNL     1      -9.018 -25.640 -13.015  1.00  0.00    -0.349 OA
ATOM     36  H2  UNL     1      -8.132 -25.703 -13.349  1.00  0.00     0.219 HD
ENDBRANCH  34  35
BRANCH  34  37
HETATM   37  C12 UNL     1      -9.258 -23.562 -14.003  1.00  0.00     0.074 C 
HETATM   38  C13 UNL     1      -9.059 -22.093 -13.727  1.00  0.00     0.027 C 
HETATM   39  C14 UNL     1     -10.111 -21.499 -14.638  1.00  0.00     0.094 C 
HETATM   40  C15 UNL     1     -11.317 -22.360 -14.233  1.00  0.00     0.190 C 
HETATM   41  C17 UNL     1     -10.051 -22.394 -15.860  1.00  0.00     0.257 C 
HETATM   42  F1  UNL     1     -12.477 -22.038 -14.861  1.00  0.00    -0.248 F 
HETATM   43  C16 UNL     1     -10.507 -23.463 -14.875  1.00  0.00     0.105 C 
HETATM   44  F2  UNL     1     -10.961 -22.097 -16.849  1.00  0.00    -0.205 F 
HETATM   45  F3  UNL     1      -8.796 -22.679 -16.340  1.00  0.00    -0.205 F 
ENDBRANCH  34  37
ENDBRANCH  31  34
ENDBRANCH   3  26
TORSDOF 10
ENDMDL
MODEL 3
REMARK VINA RESULT: -9.898286171      0.816      1.168
REMARK  10 active torsions:
REMARK  status: ('A' for Active; 'I' for Inactive)
REMARK    1  A    between atoms: C2_2  and  C5_5 
REMARK    2  A    between atoms: C5_5  and  N1_6 
REMARK    3  A    between atoms: C5_5  and  C21_30 
REMARK       I    between atoms: N1_6  and  C6_8 
REMARK    4  A    between atoms: C6_8  and  C7_10 
REMARK    5  A    between atoms: N2_14  and  C11_15 
REMARK    6  A    between atoms: C11_15  and  O2_16 
REMARK    7  A    between atoms: C11_15  and  C12_18 
REMARK       I    between atoms: C21_30  and  N3_32 
REMARK    8  A    between atoms: N3_32  and  C22_34 
REMARK    9  A    between atoms: C22_34  and  C23_35 
REMARK       I    between atoms: C23_35  and  N4_37 
REMARK   10  A    between atoms: C24_38  and  C25_39 
ROOT
HETATM    1  N1  UNL     1      -8.159 -23.763  -9.363  1.00  0.00    -0.342 N 
ATOM      2  H1  UNL     1      -8.513 -22.831  -9.152  1.00  0.00     0.163 HD
HETATM    3  C6  UNL     1      -8.702 -24.453 -10.478  1.00  0.00     0.265 C 
HETATM    4  O1  UNL     1      -8.255 -25.596 -10.656  1.00  0.00    -0.266 OA
ENDROOT
BRANCH   1   5
HETATM    5  C5  UNL     1      -7.121 -24.318  -8.504  1.00  0.00     0.184 C 
BRANCH   5   6
HETATM    6  C2  UNL     1      -6.356 -23.290  -7.791  1.00  0.00    -0.022 C 
HETATM    7  C1  UNL     1      -6.642 -21.874  -8.242  1.00  0.00     0.017 C 
HETATM    8  C3  UNL     1      -4.869 -23.575  -8.061  1.00  0.00     0.017 C 
HETATM    9  C4  UNL     1      -6.500 -23.332  -6.302  1.00  0.00     0.017 C 
ENDBRANCH   5   6
BRANCH   5  10
HETATM   10  C21 UNL     1      -7.720 -25.402  -7.641  1.00  0.00     0.241 C 
HETATM   11  O3  UNL     1      -8.680 -25.094  -6.895  1.00  0.00    -0.271 OA
HETATM   12  N3  UNL     1      -7.277 -26.736  -7.623  1.00  0.00    -0.351 N 
ATOM     13  H3  UNL     1      -6.495 -27.018  -8.214  1.00  0.00     0.163 HD
BRANCH  12  14
HETATM   14  C22 UNL     1      -7.926 -27.717  -6.772  1.00  0.00     0.225 C 
BRANCH  14  15
HETATM   15  C23 UNL     1      -6.975 -28.788  -6.378  1.00  0.00     0.238 C 
HETATM   16  O4  UNL     1      -6.892 -29.832  -7.111  1.00  0.00    -0.272 OA
HETATM   17  N4  UNL     1      -6.145 -28.744  -5.234  1.00  0.00    -0.331 N 
HETATM   18  C24 UNL     1      -6.053 -27.657  -4.292  1.00  0.00     0.189 C 
HETATM   19  C29 UNL     1      -5.297 -29.827  -4.804  1.00  0.00     0.092 A 
HETATM   20  C26 UNL     1      -5.454 -28.220  -3.035  1.00  0.00     0.043 C 
HETATM   21  C27 UNL     1      -4.812 -29.505  -3.435  1.00  0.00     0.013 A 
HETATM   22  C28 UNL     1      -3.836 -29.552  -4.526  1.00  0.00     0.032 A 
BRANCH  18  23
HETATM   23  C25 UNL     1      -5.274 -26.497  -4.734  1.00  0.00     0.197 C 
HETATM   24  O5  UNL     1      -4.801 -26.430  -5.884  1.00  0.00    -0.646 OA
HETATM   25  O6  UNL     1      -5.060 -25.451  -3.857  1.00  0.00    -0.646 OA
ENDBRANCH  18  23
ENDBRANCH  14  15
ENDBRANCH  12  14
ENDBRANCH   5  10
ENDBRANCH   1   5
BRANCH   3  26
HETATM   26  C7  UNL     1      -9.722 -23.895 -11.383  1.00  0.00     0.087 C 
HETATM   27  C8  UNL     1     -10.824 -23.126 -10.796  1.00  0.00     0.056 A 
HETATM   28  C9  UNL     1     -12.046 -23.686 -11.599  1.00  0.00     0.023 A 
HETATM   29  C18 UNL     1     -12.052 -23.460 -10.133  1.00  0.00    -0.032 A 
HETATM   30  C10 UNL     1     -11.579 -25.020 -12.133  1.00  0.00     0.137 C 
HETATM   31  N2  UNL     1     -10.180 -24.690 -12.470  1.00  0.00    -0.329 N 
HETATM   32  C19 UNL     1     -12.344 -24.594  -9.209  1.00  0.00     0.016 C 
HETATM   33  C20 UNL     1     -12.950 -22.246  -9.764  1.00  0.00     0.016 C 
BRANCH  31  34
HETATM   34  C11 UNL     1      -9.600 -25.135 -13.652  1.00  0.00     0.123 C 
BRANCH  34  35
HETATM   35  O2  UNL     1      -9.186 -26.374 -13.637  1.00  0.00    -0.349 OA
ATOM     36  H2  UNL     1      -9.748 -26.994 -14.086  1.00  0.00     0.219 HD
ENDBRANCH  34  35
BRANCH  34  37
HETATM   37  C12 UNL     1      -9.373 -24.462 -14.926  1.00  0.00     0.074 C 
HETATM   38  C13 UNL     1      -8.595 -23.171 -14.879  1.00  0.00     0.027 C 
HETATM   39  C14 UNL     1      -9.541 -22.255 -15.625  1.00  0.00     0.094 C 
HETATM   40  C15 UNL     1     -10.847 -22.574 -14.882  1.00  0.00     0.190 C 
HETATM   41  C17 UNL     1     -10.097 -23.151 -16.714  1.00  0.00     0.257 C 
HETATM   42  F1  UNL     1     -11.923 -21.858 -15.297  1.00  0.00    -0.248 F 
HETATM   43  C16 UNL     1     -10.668 -23.927 -15.533  1.00  0.00     0.105 C 
HETATM   44  F2  UNL     1     -11.042 -22.567 -17.528  1.00  0.00    -0.205 F 
HETATM   45  F3  UNL     1      -9.182 -23.912 -17.399  1.00  0.00    -0.205 F 
ENDBRANCH  34  37
ENDBRANCH  31  34
ENDBRANCH   3  26
TORSDOF 10
ENDMDL
MODEL 4
REMARK VINA RESULT: -9.881174699      4.196      9.735
REMARK  10 active torsions:
REMARK  status: ('A' for Active; 'I' for Inactive)
REMARK    1  A    between atoms: C2_2  and  C5_5 
REMARK    2  A    between atoms: C5_5  and  N1_6 
REMARK    3  A    between atoms: C5_5  and  C21_30 
REMARK       I    between atoms: N1_6  and  C6_8 
REMARK    4  A    between atoms: C6_8  and  C7_10 
REMARK    5  A    between atoms: N2_14  and  C11_15 
REMARK    6  A    between atoms: C11_15  and  O2_16 
REMARK    7  A    between atoms: C11_15  and  C12_18 
REMARK       I    between atoms: C21_30  and  N3_32 
REMARK    8  A    between atoms: N3_32  and  C22_34 
REMARK    9  A    between atoms: C22_34  and  C23_35 
REMARK       I    between atoms: C23_35  and  N4_37 
REMARK   10  A    between atoms: C24_38  and  C25_39 
ROOT
HETATM    1  N1  UNL     1      -9.071 -24.234  -8.346  1.00  0.00    -0.342 N 
ATOM      2  H1  UNL     1      -8.344 -23.553  -8.567  1.00  0.00     0.163 HD
HETATM    3  C6  UNL     1      -8.799 -25.208  -7.351  1.00  0.00     0.265 C 
HETATM    4  O1  UNL     1      -9.709 -26.029  -7.159  1.00  0.00    -0.266 OA
ENDROOT
BRANCH   1   5
HETATM    5  C5  UNL     1     -10.333 -24.155  -9.070  1.00  0.00     0.184 C 
BRANCH   5   6
HETATM    6  C2  UNL     1     -10.959 -22.832  -8.989  1.00  0.00    -0.022 C 
HETATM    7  C1  UNL     1     -10.385 -21.810  -9.945  1.00  0.00     0.017 C 
HETATM    8  C3  UNL     1     -10.726 -22.317  -7.558  1.00  0.00     0.017 C 
HETATM    9  C4  UNL     1     -12.445 -22.837  -9.167  1.00  0.00     0.017 C 
ENDBRANCH   5   6
BRANCH   5  10
HETATM   10  C21 UNL     1     -10.140 -24.702 -10.464  1.00  0.00     0.241 C 
HETATM   11  O3  UNL     1      -8.997 -25.110 -10.780  1.00  0.00    -0.271 OA
HETATM   12  N3  UNL     1     -11.158 -24.791 -11.429  1.00  0.00    -0.351 N 
ATOM     13  H3  UNL     1     -12.097 -24.463 -11.205  1.00  0.00     0.163 HD
BRANCH  12  14
HETATM   14  C22 UNL     1     -10.884 -25.348 -12.740  1.00  0.00     0.225 C 
BRANCH  14  15
HETATM   15  C23 UNL     1     -10.622 -24.270 -13.729  1.00  0.00     0.238 C 
HETATM   16  O4  UNL     1     -10.787 -23.056 -13.367  1.00  0.00    -0.272 OA
HETATM   17  N4  UNL     1     -10.204 -24.487 -15.062  1.00  0.00    -0.331 N 
HETATM   18  C24 UNL     1      -9.928 -25.765 -15.669  1.00  0.00     0.189 C 
HETATM   19  C29 UNL     1     -10.047 -23.444 -16.044  1.00  0.00     0.092 A 
HETATM   20  C26 UNL     1      -9.997 -25.564 -17.156  1.00  0.00     0.043 C 
HETATM   21  C27 UNL     1      -9.872 -24.094 -17.370  1.00  0.00     0.013 A 
HETATM   22  C28 UNL     1      -8.746 -23.343 -16.809  1.00  0.00     0.032 A 
BRANCH  18  23
HETATM   23  C25 UNL     1      -8.645 -26.375 -15.310  1.00  0.00     0.197 C 
HETATM   24  O5  UNL     1      -8.389 -26.713 -14.139  1.00  0.00    -0.646 OA
HETATM   25  O6  UNL     1      -7.695 -26.581 -16.293  1.00  0.00    -0.646 OA
ENDBRANCH  18  23
ENDBRANCH  14  15
ENDBRANCH  12  14
ENDBRANCH   5  10
ENDBRANCH   1   5
BRANCH   3  26
HETATM   26  C7  UNL     1      -7.546 -25.281  -6.579  1.00  0.00     0.087 C 
HETATM   27  C8  UNL     1      -7.238 -24.186  -5.654  1.00  0.00     0.056 A 
HETATM   28  C9  UNL     1      -5.717 -23.958  -5.950  1.00  0.00     0.023 A 
HETATM   29  C18 UNL     1      -6.704 -22.861  -5.794  1.00  0.00    -0.032 A 
HETATM   30  C10 UNL     1      -5.497 -24.556  -7.320  1.00  0.00     0.137 C 
HETATM   31  N2  UNL     1      -6.369 -25.744  -7.230  1.00  0.00    -0.329 N 
HETATM   32  C19 UNL     1      -6.902 -21.879  -6.898  1.00  0.00     0.016 C 
HETATM   33  C20 UNL     1      -6.478 -22.100  -4.458  1.00  0.00     0.016 C 
BRANCH  31  34
HETATM   34  C11 UNL     1      -5.957 -26.978  -7.716  1.00  0.00     0.123 C 
BRANCH  34  35
HETATM   35  O2  UNL     1      -6.301 -27.233  -8.950  1.00  0.00    -0.349 OA
ATOM     36  H2  UNL     1      -6.357 -28.155  -9.173  1.00  0.00     0.219 HD
ENDBRANCH  34  35
BRANCH  34  37
HETATM   37  C12 UNL     1      -5.194 -28.053  -7.092  1.00  0.00     0.074 C 
HETATM   38  C13 UNL     1      -5.204 -29.387  -7.794  1.00  0.00     0.027 C 
HETATM   39  C14 UNL     1      -5.634 -30.290  -6.659  1.00  0.00     0.094 C 
HETATM   40  C15 UNL     1      -6.852 -29.503  -6.151  1.00  0.00     0.190 C 
HETATM   41  C17 UNL     1      -4.919 -29.697  -5.461  1.00  0.00     0.257 C 
HETATM   42  F1  UNL     1      -7.516 -30.090  -5.124  1.00  0.00    -0.248 F 
HETATM   43  C16 UNL     1      -5.799 -28.491  -5.761  1.00  0.00     0.105 C 
HETATM   44  F2  UNL     1      -5.180 -30.314  -4.258  1.00  0.00    -0.205 F 
HETATM   45  F3  UNL     1      -3.593 -29.388  -5.639  1.00  0.00    -0.205 F 
ENDBRANCH  34  37
ENDBRANCH  31  34
ENDBRANCH   3  26
TORSDOF 10
ENDMDL
MODEL 5
REMARK VINA RESULT: -9.830368227      3.992      9.574
REMARK  10 active torsions:
REMARK  status: ('A' for Active; 'I' for Inactive)
REMARK    1  A    between atoms: C2_2  and  C5_5 
REMARK    2  A    between atoms: C5_5  and  N1_6 
REMARK    3  A    between atoms: C5_5  and  C21_30 
REMARK       I    between atoms: N1_6  and  C6_8 
REMARK    4  A    between atoms: C6_8  and  C7_10 
REMARK    5  A    between atoms: N2_14  and  C11_15 
REMARK    6  A    between atoms: C11_15  and  O2_16 
REMARK    7  A    between atoms: C11_15  and  C12_18 
REMARK       I    between atoms: C21_30  and  N3_32 
REMARK    8  A    between atoms: N3_32  and  C22_34 
REMARK    9  A    between atoms: C22_34  and  C23_35 
REMARK       I    between atoms: C23_35  and  N4_37 
REMARK   10  A    between atoms: C24_38  and  C25_39 
ROOT
HETATM    1  N1  UNL     1      -8.973 -24.227  -8.557  1.00  0.00    -0.342 N 
ATOM      2  H1  UNL     1      -8.200 -23.635  -8.862  1.00  0.00     0.163 HD
HETATM    3  C6  UNL     1      -8.735 -25.162  -7.516  1.00  0.00     0.265 C 
HETATM    4  O1  UNL     1      -9.705 -25.876  -7.221  1.00  0.00    -0.266 OA
ENDROOT
BRANCH   1   5
HETATM    5  C5  UNL     1     -10.264 -24.068  -9.214  1.00  0.00     0.184 C 
BRANCH   5   6
HETATM    6  C2  UNL     1     -10.793 -22.704  -9.118  1.00  0.00    -0.022 C 
HETATM    7  C1  UNL     1     -10.326 -21.774 -10.215  1.00  0.00     0.017 C 
HETATM    8  C3  UNL     1     -10.301 -22.131  -7.777  1.00  0.00     0.017 C 
HETATM    9  C4  UNL     1     -12.286 -22.621  -9.055  1.00  0.00     0.017 C 
ENDBRANCH   5   6
BRANCH   5  10
HETATM   10  C21 UNL     1     -10.184 -24.640 -10.609  1.00  0.00     0.241 C 
HETATM   11  O3  UNL     1      -9.088 -25.122 -10.982  1.00  0.00    -0.271 OA
HETATM   12  N3  UNL     1     -11.258 -24.674 -11.515  1.00  0.00    -0.351 N 
ATOM     13  H3  UNL     1     -12.161 -24.284 -11.244  1.00  0.00     0.163 HD
BRANCH  12  14
HETATM   14  C22 UNL     1     -11.093 -25.260 -12.832  1.00  0.00     0.225 C 
BRANCH  14  15
HETATM   15  C23 UNL     1     -10.806 -24.212 -13.846  1.00  0.00     0.238 C 
HETATM   16  O4  UNL     1     -11.008 -22.989 -13.534  1.00  0.00    -0.272 OA
HETATM   17  N4  UNL     1     -10.325 -24.467 -15.151  1.00  0.00    -0.331 N 
HETATM   18  C24 UNL     1     -10.000 -25.760 -15.699  1.00  0.00     0.189 C 
HETATM   19  C29 UNL     1     -10.142 -23.456 -16.160  1.00  0.00     0.092 A 
HETATM   20  C26 UNL     1     -10.005 -25.612 -17.194  1.00  0.00     0.043 C 
HETATM   21  C27 UNL     1      -9.896 -24.148 -17.454  1.00  0.00     0.013 A 
HETATM   22  C28 UNL     1      -8.810 -23.357 -16.871  1.00  0.00     0.032 A 
BRANCH  18  23
HETATM   23  C25 UNL     1      -8.723 -26.333 -15.262  1.00  0.00     0.197 C 
HETATM   24  O5  UNL     1      -8.527 -26.659 -14.077  1.00  0.00    -0.646 OA
HETATM   25  O6  UNL     1      -7.712 -26.516 -16.187  1.00  0.00    -0.646 OA
ENDBRANCH  18  23
ENDBRANCH  14  15
ENDBRANCH  12  14
ENDBRANCH   5  10
ENDBRANCH   1   5
BRANCH   3  26
HETATM   26  C7  UNL     1      -7.450 -25.311  -6.812  1.00  0.00     0.087 C 
HETATM   27  C8  UNL     1      -6.976 -24.192  -5.992  1.00  0.00     0.056 A 
HETATM   28  C9  UNL     1      -5.461 -24.146  -6.388  1.00  0.00     0.023 A 
HETATM   29  C18 UNL     1      -6.321 -22.944  -6.262  1.00  0.00    -0.032 A 
HETATM   30  C10 UNL     1      -5.388 -24.860  -7.717  1.00  0.00     0.137 C 
HETATM   31  N2  UNL     1      -6.369 -25.940  -7.488  1.00  0.00    -0.329 N 
HETATM   32  C19 UNL     1      -6.487 -22.027  -7.426  1.00  0.00     0.016 C 
HETATM   33  C20 UNL     1      -5.936 -22.118  -5.003  1.00  0.00     0.016 C 
BRANCH  31  34
HETATM   34  C11 UNL     1      -6.114 -27.242  -7.900  1.00  0.00     0.123 C 
BRANCH  34  35
HETATM   35  O2  UNL     1      -6.004 -27.405  -9.192  1.00  0.00    -0.349 OA
ATOM     36  H2  UNL     1      -5.598 -28.219  -9.464  1.00  0.00     0.219 HD
ENDBRANCH  34  35
BRANCH  34  37
HETATM   37  C12 UNL     1      -5.938 -28.475  -7.141  1.00  0.00     0.074 C 
HETATM   38  C13 UNL     1      -4.782 -28.515  -6.174  1.00  0.00     0.027 C 
HETATM   39  C14 UNL     1      -4.097 -29.788  -6.619  1.00  0.00     0.094 C 
HETATM   40  C15 UNL     1      -4.027 -29.526  -8.131  1.00  0.00     0.190 C 
HETATM   41  C17 UNL     1      -5.259 -30.699  -6.965  1.00  0.00     0.257 C 
HETATM   42  F1  UNL     1      -3.404 -30.498  -8.845  1.00  0.00    -0.248 F 
HETATM   43  C16 UNL     1      -5.531 -29.646  -8.032  1.00  0.00     0.105 C 
HETATM   44  F2  UNL     1      -4.907 -31.936  -7.456  1.00  0.00    -0.205 F 
HETATM   45  F3  UNL     1      -6.285 -30.745  -6.054  1.00  0.00    -0.205 F 
ENDBRANCH  34  37
ENDBRANCH  31  34
ENDBRANCH   3  26
TORSDOF 10
ENDMDL
