MODEL 1
REMARK VINA RESULT: -7.565861448      0.000      0.000
REMARK  9 active torsions:
REMARK  status: ('A' for Active; 'I' for Inactive)
REMARK    1  A    between atoms: C3_3  and  N1_4 
REMARK    2  A    between atoms: C5_7  and  C6_8 
REMARK    3  A    between atoms: C6_8  and  C7_9 
REMARK    4  A    between atoms: C7_9  and  C8_10 
REMARK    5  A    between atoms: C11_16  and  C12_17 
REMARK    6  A    between atoms: C12_17  and  C13_18 
REMARK    7  A    between atoms: C14_19  and  C15_20 
REMARK    8  A    between atoms: C15_20  and  C16_21 
REMARK    9  A    between atoms: C16_21  and  C17_22 
ROOT
HETATM    1  C1  UNL     1     -11.685 -20.106 -14.527  1.00  0.00     0.098 C 
HETATM    2  C2  UNL     1     -10.997 -20.806 -13.800  1.00  0.00    -0.167 C 
HETATM    3  C3  UNL     1     -10.136 -21.650 -12.936  1.00  0.00     0.212 C 
ENDROOT
BRANCH   3   4
HETATM    4  N1  UNL     1     -10.365 -23.041 -13.140  1.00  0.00    -0.297 N 
HETATM    5  C4  UNL     1      -9.516 -23.587 -14.091  1.00  0.00     0.275 A 
HETATM    6  O1  UNL     1      -8.677 -22.837 -14.679  1.00  0.00    -0.265 OA
HETATM    7  C5  UNL     1      -9.553 -24.902 -14.411  1.00  0.00     0.100 A 
HETATM    8  N2  UNL     1     -10.434 -25.672 -13.787  1.00  0.00    -0.317 N 
HETATM    9  C10 UNL     1     -11.257 -25.156 -12.869  1.00  0.00     0.273 A 
ATOM     10  H2  UNL     1     -10.484 -26.666 -14.009  1.00  0.00     0.169 HD
HETATM   11  O2  UNL     1     -12.056 -25.989 -12.338  1.00  0.00    -0.266 OA
HETATM   12  C11 UNL     1     -11.252 -23.789 -12.500  1.00  0.00     0.107 A 
BRANCH   7  13
HETATM   13  C6  UNL     1      -8.711 -25.360 -15.333  1.00  0.00     0.008 C 
BRANCH  13  14
HETATM   14  C7  UNL     1      -9.188 -25.846 -16.646  1.00  0.00     0.029 C 
BRANCH  14  15
HETATM   15  C8  UNL     1      -9.232 -24.691 -17.610  1.00  0.00    -0.001 C 
HETATM   16  C9  UNL     1     -10.504 -24.724 -18.415  1.00  0.00     0.005 C 
ENDBRANCH  14  15
ENDBRANCH  13  14
ENDBRANCH   7  13
BRANCH  12  17
HETATM   17  C12 UNL     1     -12.051 -23.452 -11.579  1.00  0.00     0.049 C 
BRANCH  17  18
HETATM   18  C13 UNL     1     -12.018 -22.914 -10.242  1.00  0.00    -0.009 A 
HETATM   19  C14 UNL     1     -11.366 -23.585  -9.225  1.00  0.00    -0.045 A 
HETATM   20  C18 UNL     1     -11.395 -23.045  -7.945  1.00  0.00     0.028 A 
HETATM   21  C19 UNL     1     -12.043 -21.880  -7.655  1.00  0.00     0.030 A 
HETATM   22 BR1  UNL     1     -12.078 -21.141  -5.890  1.00  0.00    -0.050 Br
HETATM   23  C20 UNL     1     -12.698 -21.215  -8.686  1.00  0.00     0.046 A 
HETATM   24 BR2  UNL     1     -13.607 -19.583  -8.280  1.00  0.00    -0.048 Br
HETATM   25  C21 UNL     1     -12.673 -21.743  -9.946  1.00  0.00     0.040 A 
HETATM   26 BR3  UNL     1     -13.717 -20.825 -11.256  1.00  0.00    -0.049 Br
BRANCH  19  27
HETATM   27  C15 UNL     1     -10.658 -24.868  -9.356  1.00  0.00     0.050 C 
BRANCH  27  28
HETATM   28  C16 UNL     1      -9.361 -25.032  -8.672  1.00  0.00     0.117 C 
BRANCH  28  29
HETATM   29  C17 UNL     1      -8.354 -25.433  -9.729  1.00  0.00     0.172 C 
HETATM   30  O3  UNL     1      -8.652 -25.397 -10.942  1.00  0.00    -0.648 OA
HETATM   31  O4  UNL     1      -7.082 -25.850  -9.382  1.00  0.00    -0.648 OA
ENDBRANCH  28  29
ENDBRANCH  27  28
ENDBRANCH  19  27
ENDBRANCH  17  18
ENDBRANCH  12  17
ENDBRANCH   3   4
TORSDOF 9
ENDMDL
MODEL 2
REMARK VINA RESULT: -7.523058147      2.147      3.133
REMARK  9 active torsions:
REMARK  status: ('A' for Active; 'I' for Inactive)
REMARK    1  A    between atoms: C3_3  and  N1_4 
REMARK    2  A    between atoms: C5_7  and  C6_8 
REMARK    3  A    between atoms: C6_8  and  C7_9 
REMARK    4  A    between atoms: C7_9  and  C8_10 
REMARK    5  A    between atoms: C11_16  and  C12_17 
REMARK    6  A    between atoms: C12_17  and  C13_18 
REMARK    7  A    between atoms: C14_19  and  C15_20 
REMARK    8  A    between atoms: C15_20  and  C16_21 
REMARK    9  A    between atoms: C16_21  and  C17_22 
ROOT
HETATM    1  C1  UNL     1     -11.979 -25.230 -10.891  1.00  0.00     0.098 C 
HETATM    2  C2  UNL     1     -10.879 -25.135 -11.414  1.00  0.00    -0.167 C 
HETATM    3  C3  UNL     1      -9.535 -25.000 -12.026  1.00  0.00     0.212 C 
ENDROOT
BRANCH   3   4
HETATM    4  N1  UNL     1      -9.556 -24.192 -13.199  1.00  0.00    -0.297 N 
HETATM    5  C4  UNL     1      -9.479 -24.941 -14.364  1.00  0.00     0.275 A 
HETATM    6  O1  UNL     1      -9.375 -26.203 -14.285  1.00  0.00    -0.265 OA
HETATM    7  C5  UNL     1      -9.513 -24.363 -15.588  1.00  0.00     0.100 A 
HETATM    8  N2  UNL     1      -9.623 -23.044 -15.653  1.00  0.00    -0.317 N 
HETATM    9  C10 UNL     1      -9.699 -22.312 -14.537  1.00  0.00     0.273 A 
ATOM     10  H2  UNL     1      -9.651 -22.582 -16.562  1.00  0.00     0.169 HD
HETATM   11  O2  UNL     1      -9.802 -21.059 -14.724  1.00  0.00    -0.266 OA
HETATM   12  C11 UNL     1      -9.670 -22.872 -13.237  1.00  0.00     0.107 A 
BRANCH   7  13
HETATM   13  C6  UNL     1      -9.434 -25.140 -16.664  1.00  0.00     0.008 C 
BRANCH  13  14
HETATM   14  C7  UNL     1      -9.506 -24.581 -18.032  1.00  0.00     0.029 C 
BRANCH  14  15
HETATM   15  C8  UNL     1     -10.726 -25.129 -18.722  1.00  0.00    -0.001 C 
HETATM   16  C9  UNL     1     -11.296 -26.286 -17.945  1.00  0.00     0.005 C 
ENDBRANCH  14  15
ENDBRANCH  13  14
ENDBRANCH   7  13
BRANCH  12  17
HETATM   17  C12 UNL     1      -9.803 -22.063 -12.273  1.00  0.00     0.049 C 
BRANCH  17  18
HETATM   18  C13 UNL     1     -10.644 -21.860 -11.121  1.00  0.00    -0.009 A 
HETATM   19  C14 UNL     1     -10.140 -22.002  -9.843  1.00  0.00    -0.045 A 
HETATM   20  C18 UNL     1     -11.000 -21.834  -8.763  1.00  0.00     0.028 A 
HETATM   21  C19 UNL     1     -12.323 -21.536  -8.920  1.00  0.00     0.030 A 
HETATM   22 BR1  UNL     1     -13.502 -21.305  -7.430  1.00  0.00    -0.050 Br
HETATM   23  C20 UNL     1     -12.820 -21.399 -10.212  1.00  0.00     0.046 A 
HETATM   24 BR2  UNL     1     -14.672 -20.983 -10.431  1.00  0.00    -0.048 Br
HETATM   25  C21 UNL     1     -11.977 -21.564 -11.275  1.00  0.00     0.040 A 
HETATM   26 BR3  UNL     1     -12.790 -21.490 -13.002  1.00  0.00    -0.049 Br
BRANCH  19  27
HETATM   27  C15 UNL     1      -8.755 -22.361  -9.498  1.00  0.00     0.050 C 
BRANCH  27  28
HETATM   28  C16 UNL     1      -8.103 -21.663  -8.374  1.00  0.00     0.117 C 
BRANCH  28  29
HETATM   29  C17 UNL     1      -6.633 -22.021  -8.427  1.00  0.00     0.172 C 
HETATM   30  O3  UNL     1      -6.210 -23.066  -7.886  1.00  0.00    -0.648 OA
HETATM   31  O4  UNL     1      -5.721 -21.206  -9.071  1.00  0.00    -0.648 OA
ENDBRANCH  28  29
ENDBRANCH  27  28
ENDBRANCH  19  27
ENDBRANCH  17  18
ENDBRANCH  12  17
ENDBRANCH   3   4
TORSDOF 9
ENDMDL
MODEL 3
REMARK VINA RESULT: -7.360738554      2.617      3.894
REMARK  9 active torsions:
REMARK  status: ('A' for Active; 'I' for Inactive)
REMARK    1  A    between atoms: C3_3  and  N1_4 
REMARK    2  A    between atoms: C5_7  and  C6_8 
REMARK    3  A    between atoms: C6_8  and  C7_9 
REMARK    4  A    between atoms: C7_9  and  C8_10 
REMARK    5  A    between atoms: C11_16  and  C12_17 
REMARK    6  A    between atoms: C12_17  and  C13_18 
REMARK    7  A    between atoms: C14_19  and  C15_20 
REMARK    8  A    between atoms: C15_20  and  C16_21 
REMARK    9  A    between atoms: C16_21  and  C17_22 
ROOT
HETATM    1  C1  UNL     1     -11.936 -20.124 -14.341  1.00  0.00     0.098 C 
HETATM    2  C2  UNL     1     -11.077 -20.807 -13.807  1.00  0.00    -0.167 C 
HETATM    3  C3  UNL     1     -10.012 -21.631 -13.182  1.00  0.00     0.212 C 
ENDROOT
BRANCH   3   4
HETATM    4  N1  UNL     1     -10.253 -23.026 -13.331  1.00  0.00    -0.297 N 
HETATM    5  C4  UNL     1      -9.488 -23.595 -14.338  1.00  0.00     0.275 A 
HETATM    6  O1  UNL     1      -8.706 -22.859 -15.015  1.00  0.00    -0.265 OA
HETATM    7  C5  UNL     1      -9.549 -24.918 -14.621  1.00  0.00     0.100 A 
HETATM    8  N2  UNL     1     -10.369 -25.673 -13.903  1.00  0.00    -0.317 N 
HETATM    9  C10 UNL     1     -11.111 -25.136 -12.930  1.00  0.00     0.273 A 
ATOM     10  H2  UNL     1     -10.435 -26.673 -14.095  1.00  0.00     0.169 HD
HETATM   11  O2  UNL     1     -11.859 -25.956 -12.312  1.00  0.00    -0.266 OA
HETATM   12  C11 UNL     1     -11.079 -23.760 -12.598  1.00  0.00     0.107 A 
BRANCH   7  13
HETATM   13  C6  UNL     1      -8.788 -25.398 -15.600  1.00  0.00     0.008 C 
BRANCH  13  14
HETATM   14  C7  UNL     1      -9.373 -25.886 -16.868  1.00  0.00     0.029 C 
BRANCH  14  15
HETATM   15  C8  UNL     1      -9.623 -24.712 -17.776  1.00  0.00    -0.001 C 
HETATM   16  C9  UNL     1     -10.683 -25.048 -18.792  1.00  0.00     0.005 C 
ENDBRANCH  14  15
ENDBRANCH  13  14
ENDBRANCH   7  13
BRANCH  12  17
HETATM   17  C12 UNL     1     -11.797 -23.400 -11.619  1.00  0.00     0.049 C 
BRANCH  17  18
HETATM   18  C13 UNL     1     -11.667 -22.712 -10.360  1.00  0.00    -0.009 A 
HETATM   19  C14 UNL     1     -12.441 -21.604 -10.076  1.00  0.00    -0.045 A 
HETATM   20  C18 UNL     1     -12.253 -20.951  -8.863  1.00  0.00     0.028 A 
HETATM   21  C19 UNL     1     -11.331 -21.364  -7.945  1.00  0.00     0.030 A 
HETATM   22 BR1  UNL     1     -11.077 -20.462  -6.276  1.00  0.00    -0.050 Br
HETATM   23  C20 UNL     1     -10.556 -22.479  -8.243  1.00  0.00     0.046 A 
HETATM   24 BR2  UNL     1      -9.265 -23.057  -6.957  1.00  0.00    -0.048 Br
HETATM   25  C21 UNL     1     -10.738 -23.123  -9.435  1.00  0.00     0.040 A 
HETATM   26 BR3  UNL     1      -9.529 -24.556  -9.801  1.00  0.00    -0.049 Br
BRANCH  19  27
HETATM   27  C15 UNL     1     -13.445 -21.004 -10.968  1.00  0.00     0.050 C 
BRANCH  27  28
HETATM   28  C16 UNL     1     -14.860 -21.015 -10.548  1.00  0.00     0.117 C 
BRANCH  28  29
HETATM   29  C17 UNL     1     -15.236 -19.582 -10.234  1.00  0.00     0.172 C 
HETATM   30  O3  UNL     1     -16.434 -19.251 -10.100  1.00  0.00    -0.648 OA
HETATM   31  O4  UNL     1     -14.270 -18.604 -10.090  1.00  0.00    -0.648 OA
ENDBRANCH  28  29
ENDBRANCH  27  28
ENDBRANCH  19  27
ENDBRANCH  17  18
ENDBRANCH  12  17
ENDBRANCH   3   4
TORSDOF 9
ENDMDL
MODEL 4
REMARK VINA RESULT: -7.168541652      1.294      1.728
REMARK  9 active torsions:
REMARK  status: ('A' for Active; 'I' for Inactive)
REMARK    1  A    between atoms: C3_3  and  N1_4 
REMARK    2  A    between atoms: C5_7  and  C6_8 
REMARK    3  A    between atoms: C6_8  and  C7_9 
REMARK    4  A    between atoms: C7_9  and  C8_10 
REMARK    5  A    between atoms: C11_16  and  C12_17 
REMARK    6  A    between atoms: C12_17  and  C13_18 
REMARK    7  A    between atoms: C14_19  and  C15_20 
REMARK    8  A    between atoms: C15_20  and  C16_21 
REMARK    9  A    between atoms: C16_21  and  C17_22 
ROOT
HETATM    1  C1  UNL     1     -11.932 -20.264 -14.450  1.00  0.00     0.098 C 
HETATM    2  C2  UNL     1     -11.023 -20.917 -13.962  1.00  0.00    -0.167 C 
HETATM    3  C3  UNL     1      -9.902 -21.707 -13.397  1.00  0.00     0.212 C 
ENDROOT
BRANCH   3   4
HETATM    4  N1  UNL     1     -10.191 -23.101 -13.357  1.00  0.00    -0.297 N 
HETATM    5  C4  UNL     1      -9.440 -23.828 -14.268  1.00  0.00     0.275 A 
HETATM    6  O1  UNL     1      -8.628 -23.219 -15.030  1.00  0.00    -0.265 OA
HETATM    7  C5  UNL     1      -9.546 -25.175 -14.369  1.00  0.00     0.100 A 
HETATM    8  N2  UNL     1     -10.397 -25.796 -13.565  1.00  0.00    -0.317 N 
HETATM    9  C10 UNL     1     -11.126 -25.105 -12.682  1.00  0.00     0.273 A 
ATOM     10  H2  UNL     1     -10.497 -26.809 -13.619  1.00  0.00     0.169 HD
HETATM   11  O2  UNL     1     -11.907 -25.807 -11.966  1.00  0.00    -0.266 OA
HETATM   12  C11 UNL     1     -11.048 -23.699 -12.540  1.00  0.00     0.107 A 
BRANCH   7  13
HETATM   13  C6  UNL     1      -8.796 -25.810 -15.264  1.00  0.00     0.008 C 
BRANCH  13  14
HETATM   14  C7  UNL     1      -8.109 -27.079 -14.940  1.00  0.00     0.029 C 
BRANCH  14  15
HETATM   15  C8  UNL     1      -7.373 -27.563 -16.161  1.00  0.00    -0.001 C 
HETATM   16  C9  UNL     1      -6.674 -28.866 -15.872  1.00  0.00     0.005 C 
ENDBRANCH  14  15
ENDBRANCH  13  14
ENDBRANCH   7  13
BRANCH  12  17
HETATM   17  C12 UNL     1     -11.759 -23.185 -11.628  1.00  0.00     0.049 C 
BRANCH  17  18
HETATM   18  C13 UNL     1     -11.604 -22.399 -10.430  1.00  0.00    -0.009 A 
HETATM   19  C14 UNL     1     -10.617 -22.697  -9.511  1.00  0.00    -0.045 A 
HETATM   20  C18 UNL     1     -10.532 -21.934  -8.352  1.00  0.00     0.028 A 
HETATM   21  C19 UNL     1     -11.386 -20.903  -8.090  1.00  0.00     0.030 A 
HETATM   22 BR1  UNL     1     -11.264 -19.854  -6.493  1.00  0.00    -0.050 Br
HETATM   23  C20 UNL     1     -12.377 -20.613  -9.022  1.00  0.00     0.046 A 
HETATM   24 BR2  UNL     1     -13.575 -19.170  -8.654  1.00  0.00    -0.048 Br
HETATM   25  C21 UNL     1     -12.465 -21.363 -10.161  1.00  0.00     0.040 A 
HETATM   26 BR3  UNL     1     -13.943 -20.970 -11.305  1.00  0.00    -0.049 Br
BRANCH  19  27
HETATM   27  C15 UNL     1      -9.645 -23.796  -9.617  1.00  0.00     0.050 C 
BRANCH  27  28
HETATM   28  C16 UNL     1      -9.991 -25.106  -9.032  1.00  0.00     0.117 C 
BRANCH  28  29
HETATM   29  C17 UNL     1      -8.784 -25.568  -8.243  1.00  0.00     0.172 C 
HETATM   30  O3  UNL     1      -8.853 -26.568  -7.497  1.00  0.00    -0.648 OA
HETATM   31  O4  UNL     1      -7.578 -24.899  -8.325  1.00  0.00    -0.648 OA
ENDBRANCH  28  29
ENDBRANCH  27  28
ENDBRANCH  19  27
ENDBRANCH  17  18
ENDBRANCH  12  17
ENDBRANCH   3   4
TORSDOF 9
ENDMDL
MODEL 5
REMARK VINA RESULT: -7.160520116      4.267      6.501
REMARK  9 active torsions:
REMARK  status: ('A' for Active; 'I' for Inactive)
REMARK    1  A    between atoms: C3_3  and  N1_4 
REMARK    2  A    between atoms: C5_7  and  C6_8 
REMARK    3  A    between atoms: C6_8  and  C7_9 
REMARK    4  A    between atoms: C7_9  and  C8_10 
REMARK    5  A    between atoms: C11_16  and  C12_17 
REMARK    6  A    between atoms: C12_17  and  C13_18 
REMARK    7  A    between atoms: C14_19  and  C15_20 
REMARK    8  A    between atoms: C15_20  and  C16_21 
REMARK    9  A    between atoms: C16_21  and  C17_22 
ROOT
HETATM    1  C1  UNL     1     -11.745 -22.691  -6.620  1.00  0.00     0.098 C 
HETATM    2  C2  UNL     1     -11.640 -23.783  -7.158  1.00  0.00    -0.167 C 
HETATM    3  C3  UNL     1     -11.503 -25.121  -7.783  1.00  0.00     0.212 C 
ENDROOT
BRANCH   3   4
HETATM    4  N1  UNL     1     -10.341 -25.217  -8.601  1.00  0.00    -0.297 N 
HETATM    5  C4  UNL     1     -10.562 -24.777  -9.897  1.00  0.00     0.275 A 
HETATM    6  O1  UNL     1     -11.720 -24.376 -10.227  1.00  0.00    -0.265 OA
HETATM    7  C5  UNL     1      -9.575 -24.760 -10.825  1.00  0.00     0.100 A 
HETATM    8  N2  UNL     1      -8.372 -25.180 -10.463  1.00  0.00    -0.317 N 
HETATM    9  C10 UNL     1      -8.146 -25.606  -9.216  1.00  0.00     0.273 A 
ATOM     10  H2  UNL     1      -7.610 -25.179 -11.141  1.00  0.00     0.169 HD
HETATM   11  O2  UNL     1      -6.955 -25.985  -8.986  1.00  0.00    -0.266 OA
HETATM   12  C11 UNL     1      -9.145 -25.640  -8.214  1.00  0.00     0.107 A 
BRANCH   7  13
HETATM   13  C6  UNL     1      -9.857 -24.326 -12.049  1.00  0.00     0.008 C 
BRANCH  13  14
HETATM   14  C7  UNL     1     -10.159 -25.263 -13.154  1.00  0.00     0.029 C 
BRANCH  14  15
HETATM   15  C8  UNL     1     -11.506 -24.921 -13.732  1.00  0.00    -0.001 C 
HETATM   16  C9  UNL     1     -11.742 -23.435 -13.676  1.00  0.00     0.005 C 
ENDBRANCH  14  15
ENDBRANCH  13  14
ENDBRANCH   7  13
BRANCH  12  17
HETATM   17  C12 UNL     1      -8.776 -26.018  -7.064  1.00  0.00     0.049 C 
BRANCH  17  18
HETATM   18  C13 UNL     1      -7.727 -25.761  -6.110  1.00  0.00    -0.009 A 
HETATM   19  C14 UNL     1      -7.442 -24.473  -5.700  1.00  0.00    -0.045 A 
HETATM   20  C18 UNL     1      -6.396 -24.272  -4.808  1.00  0.00     0.028 A 
HETATM   21  C19 UNL     1      -5.639 -25.300  -4.323  1.00  0.00     0.030 A 
HETATM   22 BR1  UNL     1      -4.200 -25.018  -3.094  1.00  0.00    -0.050 Br
HETATM   23  C20 UNL     1      -5.933 -26.592  -4.745  1.00  0.00     0.046 A 
HETATM   24 BR2  UNL     1      -4.872 -28.031  -4.067  1.00  0.00    -0.048 Br
HETATM   25  C21 UNL     1      -6.960 -26.793  -5.623  1.00  0.00     0.040 A 
HETATM   26 BR3  UNL     1      -7.190 -28.585  -6.242  1.00  0.00    -0.049 Br
BRANCH  19  27
HETATM   27  C15 UNL     1      -8.129 -23.254  -6.155  1.00  0.00     0.050 C 
BRANCH  27  28
HETATM   28  C16 UNL     1      -7.314 -22.120  -6.633  1.00  0.00     0.117 C 
BRANCH  28  29
HETATM   29  C17 UNL     1      -6.959 -22.411  -8.076  1.00  0.00     0.172 C 
HETATM   30  O3  UNL     1      -5.818 -22.816  -8.384  1.00  0.00    -0.648 OA
HETATM   31  O4  UNL     1      -7.883 -22.235  -9.088  1.00  0.00    -0.648 OA
ENDBRANCH  28  29
ENDBRANCH  27  28
ENDBRANCH  19  27
ENDBRANCH  17  18
ENDBRANCH  12  17
ENDBRANCH   3   4
TORSDOF 9
ENDMDL
