MODEL 1
REMARK VINA RESULT: -7.697386080      0.000      0.000
REMARK  8 active torsions:
REMARK  status: ('A' for Active; 'I' for Inactive)
REMARK    1  A    between atoms: C3_5  and  C4_6 
REMARK    2  A    between atoms: C6_9  and  N2_10 
REMARK       I    between atoms: N2_10  and  C7_12 
REMARK    3  A    between atoms: C7_12  and  C8_14 
REMARK    4  A    between atoms: C8_14  and  C9_16 
REMARK    5  A    between atoms: C9_16  and  C10_17 
REMARK    6  A    between atoms: C10_17  and  C11_18 
REMARK    7  A    between atoms: C11_18  and  C12_19 
REMARK    8  A    between atoms: C12_19  and  N3_20 
ROOT
HETATM    1  C1  UNL     1     -12.705 -24.658  -9.152  1.00  0.00     0.153 C 
HETATM    2  N1  UNL     1     -12.122 -23.348  -9.187  1.00  0.00    -0.343 N 
HETATM    3  C2  UNL     1     -11.285 -22.773  -8.195  1.00  0.00     0.234 C 
HETATM    4  O1  UNL     1     -11.042 -23.248  -7.080  1.00  0.00    -0.272 OA
HETATM    5  C3  UNL     1     -10.693 -21.445  -8.669  1.00  0.00     0.083 C 
HETATM    6  C5  UNL     1     -10.092 -21.698 -10.030  1.00  0.00     0.053 C 
HETATM    7  C6  UNL     1     -11.025 -22.332 -10.991  1.00  0.00     0.115 C 
HETATM    8  C14 UNL     1     -12.392 -22.497 -10.337  1.00  0.00     0.167 C 
HETATM    9  C15 UNL     1     -12.805 -21.193  -9.761  1.00  0.00     0.088 A 
HETATM   10  O3  UNL     1     -13.834 -20.406  -9.870  1.00  0.00    -0.303 OA
HETATM   11  C16 UNL     1     -13.688 -19.353  -9.114  1.00  0.00     0.140 A 
HETATM   12 BR2  UNL     1     -14.888 -17.885  -8.891  1.00  0.00    -0.021 Br
HETATM   13  C17 UNL     1     -12.459 -19.440  -8.440  1.00  0.00     0.062 A 
HETATM   14 BR3  UNL     1     -11.782 -18.190  -7.179  1.00  0.00    -0.047 Br
HETATM   15  C18 UNL     1     -11.898 -20.611  -8.856  1.00  0.00     0.013 A 
ENDROOT
BRANCH   7  16
HETATM   16  N2  UNL     1     -11.079 -21.667 -12.246  1.00  0.00    -0.352 N 
HETATM   17  C7  UNL     1     -10.678 -22.207 -13.472  1.00  0.00     0.252 C 
HETATM   18  O2  UNL     1     -10.224 -23.396 -13.466  1.00  0.00    -0.270 OA
ATOM     19  H2  UNL     1     -11.443 -20.714 -12.252  1.00  0.00     0.163 HD
BRANCH  17  20
HETATM   20  C8  UNL     1     -10.738 -21.511 -14.765  1.00  0.00     0.261 C 
HETATM   21  F1  UNL     1     -11.965 -21.554 -15.353  1.00  0.00    -0.239 F 
BRANCH  20  22
HETATM   22  C9  UNL     1      -9.708 -22.012 -15.758  1.00  0.00     0.047 C 
BRANCH  22  23
HETATM   23  C10 UNL     1     -10.432 -22.754 -16.853  1.00  0.00     0.005 C 
BRANCH  23  24
HETATM   24  C11 UNL     1      -9.591 -23.853 -17.452  1.00  0.00     0.020 C 
BRANCH  24  25
HETATM   25  C12 UNL     1     -10.142 -25.223 -17.123  1.00  0.00     0.122 C 
BRANCH  25  26
HETATM   26  N3  UNL     1     -10.003 -25.534 -15.715  1.00  0.00    -0.367 N 
HETATM   27  C13 UNL     1      -8.979 -26.160 -15.269  1.00  0.00     0.196 C 
HETATM   28  N4  UNL     1      -7.907 -26.601 -16.090  1.00  0.00    -0.067 NA
HETATM   29  N5  UNL     1      -8.884 -26.443 -13.878  1.00  0.00    -0.067 NA
ATOM     30  H3  UNL     1     -10.736 -25.248 -15.065  1.00  0.00     0.161 HD
ENDBRANCH  25  26
ENDBRANCH  24  25
ENDBRANCH  23  24
ENDBRANCH  22  23
ENDBRANCH  20  22
ENDBRANCH  17  20
ENDBRANCH   7  16
BRANCH   5  31
HETATM   31  C4  UNL     1      -9.665 -20.955  -7.733  1.00  0.00     0.109 C 
HETATM   32 BR1  UNL     1      -7.963 -21.716  -8.126  1.00  0.00    -0.095 Br
ENDBRANCH   5  31
TORSDOF 8
ENDMDL
MODEL 2
REMARK VINA RESULT: -7.514686308      4.811      7.240
REMARK  8 active torsions:
REMARK  status: ('A' for Active; 'I' for Inactive)
REMARK    1  A    between atoms: C3_5  and  C4_6 
REMARK    2  A    between atoms: C6_9  and  N2_10 
REMARK       I    between atoms: N2_10  and  C7_12 
REMARK    3  A    between atoms: C7_12  and  C8_14 
REMARK    4  A    between atoms: C8_14  and  C9_16 
REMARK    5  A    between atoms: C9_16  and  C10_17 
REMARK    6  A    between atoms: C10_17  and  C11_18 
REMARK    7  A    between atoms: C11_18  and  C12_19 
REMARK    8  A    between atoms: C12_19  and  N3_20 
ROOT
HETATM    1  C1  UNL     1     -10.471 -25.743  -7.417  1.00  0.00     0.153 C 
HETATM    2  N1  UNL     1     -10.465 -24.927  -8.596  1.00  0.00    -0.343 N 
HETATM    3  C2  UNL     1     -11.605 -24.437  -9.287  1.00  0.00     0.234 C 
HETATM    4  O1  UNL     1     -12.781 -24.752  -9.070  1.00  0.00    -0.272 OA
HETATM    5  C3  UNL     1     -11.209 -23.438 -10.375  1.00  0.00     0.083 C 
HETATM    6  C5  UNL     1     -10.296 -22.427  -9.726  1.00  0.00     0.053 C 
HETATM    7  C6  UNL     1      -9.153 -23.027  -8.999  1.00  0.00     0.115 C 
HETATM    8  C14 UNL     1      -9.183 -24.542  -9.170  1.00  0.00     0.167 C 
HETATM    9  C15 UNL     1      -9.299 -24.856 -10.615  1.00  0.00     0.088 A 
HETATM   10  O3  UNL     1      -8.632 -25.569 -11.473  1.00  0.00    -0.303 OA
HETATM   11  C16 UNL     1      -9.187 -25.506 -12.652  1.00  0.00     0.140 A 
HETATM   12 BR2  UNL     1      -8.626 -26.354 -14.268  1.00  0.00    -0.021 Br
HETATM   13  C17 UNL     1     -10.322 -24.683 -12.580  1.00  0.00     0.062 A 
HETATM   14 BR3  UNL     1     -11.519 -24.296 -14.004  1.00  0.00    -0.047 Br
HETATM   15  C18 UNL     1     -10.389 -24.268 -11.282  1.00  0.00     0.013 A 
ENDROOT
BRANCH   7  16
HETATM   16  N2  UNL     1      -7.901 -22.448  -9.341  1.00  0.00    -0.352 N 
HETATM   17  C7  UNL     1      -7.042 -21.786  -8.458  1.00  0.00     0.252 C 
HETATM   18  O2  UNL     1      -7.410 -21.694  -7.243  1.00  0.00    -0.270 OA
ATOM     19  H2  UNL     1      -7.604 -22.522 -10.313  1.00  0.00     0.163 HD
BRANCH  17  20
HETATM   20  C8  UNL     1      -5.748 -21.190  -8.820  1.00  0.00     0.261 C 
HETATM   21  F1  UNL     1      -5.478 -21.239 -10.154  1.00  0.00    -0.239 F 
BRANCH  20  22
HETATM   22  C9  UNL     1      -4.582 -21.800  -8.069  1.00  0.00     0.047 C 
BRANCH  22  23
HETATM   23  C10 UNL     1      -4.520 -23.268  -8.406  1.00  0.00     0.005 C 
BRANCH  23  24
HETATM   24  C11 UNL     1      -4.717 -24.142  -7.193  1.00  0.00     0.020 C 
BRANCH  24  25
HETATM   25  C12 UNL     1      -5.744 -25.225  -7.444  1.00  0.00     0.122 C 
BRANCH  25  26
HETATM   26  N3  UNL     1      -5.215 -26.543  -7.158  1.00  0.00    -0.367 N 
HETATM   27  C13 UNL     1      -5.971 -27.488  -6.742  1.00  0.00     0.196 C 
HETATM   28  N4  UNL     1      -7.367 -27.342  -6.523  1.00  0.00    -0.067 NA
HETATM   29  N5  UNL     1      -5.408 -28.768  -6.474  1.00  0.00    -0.067 NA
ATOM     30  H3  UNL     1      -4.219 -26.722  -7.292  1.00  0.00     0.161 HD
ENDBRANCH  25  26
ENDBRANCH  24  25
ENDBRANCH  23  24
ENDBRANCH  22  23
ENDBRANCH  20  22
ENDBRANCH  17  20
ENDBRANCH   7  16
BRANCH   5  31
HETATM   31  C4  UNL     1     -12.394 -22.774 -10.946  1.00  0.00     0.109 C 
HETATM   32 BR1  UNL     1     -12.885 -21.246  -9.918  1.00  0.00    -0.095 Br
ENDBRANCH   5  31
TORSDOF 8
ENDMDL
MODEL 3
REMARK VINA RESULT: -7.464464354      3.213      4.289
REMARK  8 active torsions:
REMARK  status: ('A' for Active; 'I' for Inactive)
REMARK    1  A    between atoms: C3_5  and  C4_6 
REMARK    2  A    between atoms: C6_9  and  N2_10 
REMARK       I    between atoms: N2_10  and  C7_12 
REMARK    3  A    between atoms: C7_12  and  C8_14 
REMARK    4  A    between atoms: C8_14  and  C9_16 
REMARK    5  A    between atoms: C9_16  and  C10_17 
REMARK    6  A    between atoms: C10_17  and  C11_18 
REMARK    7  A    between atoms: C11_18  and  C12_19 
REMARK    8  A    between atoms: C12_19  and  N3_20 
ROOT
HETATM    1  C1  UNL     1     -11.556 -23.077  -7.633  1.00  0.00     0.153 C 
HETATM    2  N1  UNL     1     -10.253 -23.422  -8.123  1.00  0.00    -0.343 N 
HETATM    3  C2  UNL     1      -9.487 -24.558  -7.750  1.00  0.00     0.234 C 
HETATM    4  O1  UNL     1      -9.754 -25.351  -6.839  1.00  0.00    -0.272 OA
HETATM    5  C3  UNL     1      -8.243 -24.702  -8.627  1.00  0.00     0.083 C 
HETATM    6  C5  UNL     1      -8.708 -24.612 -10.060  1.00  0.00     0.053 C 
HETATM    7  C6  UNL     1      -9.529 -23.414 -10.352  1.00  0.00     0.115 C 
HETATM    8  C14 UNL     1      -9.623 -22.547  -9.102  1.00  0.00     0.167 C 
HETATM    9  C15 UNL     1      -8.254 -22.311  -8.581  1.00  0.00     0.088 A 
HETATM   10  O3  UNL     1      -7.533 -21.272  -8.283  1.00  0.00    -0.303 OA
HETATM   11  C16 UNL     1      -6.360 -21.637  -7.843  1.00  0.00     0.140 A 
HETATM   12 BR2  UNL     1      -4.917 -20.528  -7.269  1.00  0.00    -0.021 Br
HETATM   13  C17 UNL     1      -6.287 -23.040  -7.845  1.00  0.00     0.062 A 
HETATM   14 BR3  UNL     1      -4.816 -24.087  -7.253  1.00  0.00    -0.047 Br
HETATM   15  C18 UNL     1      -7.494 -23.466  -8.318  1.00  0.00     0.013 A 
ENDROOT
BRANCH   7  16
HETATM   16  N2  UNL     1      -9.093 -22.699 -11.500  1.00  0.00    -0.352 N 
HETATM   17  C7  UNL     1      -9.789 -22.598 -12.709  1.00  0.00     0.252 C 
HETATM   18  O2  UNL     1     -10.909 -23.197 -12.791  1.00  0.00    -0.270 OA
ATOM     19  H2  UNL     1      -8.197 -22.218 -11.437  1.00  0.00     0.163 HD
BRANCH  17  20
HETATM   20  C8  UNL     1      -9.330 -21.855 -13.892  1.00  0.00     0.261 C 
HETATM   21  F1  UNL     1     -10.227 -20.934 -14.341  1.00  0.00    -0.239 F 
BRANCH  20  22
HETATM   22  C9  UNL     1      -8.945 -22.757 -15.047  1.00  0.00     0.047 C 
BRANCH  22  23
HETATM   23  C10 UNL     1      -9.860 -22.455 -16.206  1.00  0.00     0.005 C 
BRANCH  23  24
HETATM   24  C11 UNL     1     -10.055 -23.649 -17.107  1.00  0.00     0.020 C 
BRANCH  24  25
HETATM   25  C12 UNL     1     -10.192 -24.932 -16.317  1.00  0.00     0.122 C 
BRANCH  25  26
HETATM   26  N3  UNL     1      -9.080 -25.829 -16.553  1.00  0.00    -0.367 N 
HETATM   27  C13 UNL     1      -8.510 -26.451 -15.590  1.00  0.00     0.196 C 
HETATM   28  N4  UNL     1      -8.900 -26.326 -14.230  1.00  0.00    -0.067 NA
HETATM   29  N5  UNL     1      -7.421 -27.324 -15.870  1.00  0.00    -0.067 NA
ATOM     30  H3  UNL     1      -8.745 -25.969 -17.507  1.00  0.00     0.161 HD
ENDBRANCH  25  26
ENDBRANCH  24  25
ENDBRANCH  23  24
ENDBRANCH  22  23
ENDBRANCH  20  22
ENDBRANCH  17  20
ENDBRANCH   7  16
BRANCH   5  31
HETATM   31  C4  UNL     1      -7.564 -25.987  -8.382  1.00  0.00     0.109 C 
HETATM   32 BR1  UNL     1      -6.352 -26.399  -9.794  1.00  0.00    -0.095 Br
ENDBRANCH   5  31
TORSDOF 8
ENDMDL
MODEL 4
REMARK VINA RESULT: -7.427075949     16.366     21.047
REMARK  8 active torsions:
REMARK  status: ('A' for Active; 'I' for Inactive)
REMARK    1  A    between atoms: C3_5  and  C4_6 
REMARK    2  A    between atoms: C6_9  and  N2_10 
REMARK       I    between atoms: N2_10  and  C7_12 
REMARK    3  A    between atoms: C7_12  and  C8_14 
REMARK    4  A    between atoms: C8_14  and  C9_16 
REMARK    5  A    between atoms: C9_16  and  C10_17 
REMARK    6  A    between atoms: C10_17  and  C11_18 
REMARK    7  A    between atoms: C11_18  and  C12_19 
REMARK    8  A    between atoms: C12_19  and  N3_20 
ROOT
HETATM    1  C1  UNL     1       6.098 -29.803 -21.306  1.00  0.00     0.153 C 
HETATM    2  N1  UNL     1       5.924 -31.226 -21.288  1.00  0.00    -0.343 N 
HETATM    3  C2  UNL     1       6.861 -32.182 -20.812  1.00  0.00     0.234 C 
HETATM    4  O1  UNL     1       8.028 -31.955 -20.473  1.00  0.00    -0.272 OA
HETATM    5  C3  UNL     1       6.249 -33.582 -20.763  1.00  0.00     0.083 C 
HETATM    6  C5  UNL     1       4.938 -33.459 -20.026  1.00  0.00     0.053 C 
HETATM    7  C6  UNL     1       4.038 -32.415 -20.567  1.00  0.00     0.115 C 
HETATM    8  C14 UNL     1       4.679 -31.782 -21.797  1.00  0.00     0.167 C 
HETATM    9  C15 UNL     1       5.092 -32.860 -22.728  1.00  0.00     0.088 A 
HETATM   10  O3  UNL     1       4.873 -33.155 -23.974  1.00  0.00    -0.303 OA
HETATM   11  C16 UNL     1       5.505 -34.247 -24.307  1.00  0.00     0.140 A 
HETATM   12 BR2  UNL     1       5.532 -35.126 -26.001  1.00  0.00    -0.021 Br
HETATM   13  C17 UNL     1       6.209 -34.726 -23.190  1.00  0.00     0.062 A 
HETATM   14 BR3  UNL     1       7.331 -36.258 -23.145  1.00  0.00    -0.047 Br
HETATM   15  C18 UNL     1       5.942 -33.842 -22.185  1.00  0.00     0.013 A 
ENDROOT
BRANCH   7  16
HETATM   16  N2  UNL     1       2.714 -32.877 -20.799  1.00  0.00    -0.352 N 
HETATM   17  C7  UNL     1       1.551 -32.111 -20.675  1.00  0.00     0.252 C 
HETATM   18  O2  UNL     1       1.687 -30.894 -20.325  1.00  0.00    -0.270 OA
ATOM     19  H2  UNL     1       2.603 -33.851 -21.080  1.00  0.00     0.163 HD
BRANCH  17  20
HETATM   20  C8  UNL     1       0.185 -32.597 -20.917  1.00  0.00     0.261 C 
HETATM   21  F1  UNL     1      -0.022 -33.035 -22.189  1.00  0.00    -0.239 F 
BRANCH  20  22
HETATM   22  C9  UNL     1      -0.879 -31.573 -20.579  1.00  0.00     0.047 C 
BRANCH  22  23
HETATM   23  C10 UNL     1      -1.441 -31.908 -19.220  1.00  0.00     0.005 C 
BRANCH  23  24
HETATM   24  C11 UNL     1      -1.872 -30.679 -18.460  1.00  0.00     0.020 C 
BRANCH  24  25
HETATM   25  C12 UNL     1      -3.379 -30.542 -18.426  1.00  0.00     0.122 C 
BRANCH  25  26
HETATM   26  N3  UNL     1      -4.023 -31.781 -18.043  1.00  0.00    -0.367 N 
HETATM   27  C13 UNL     1      -4.500 -31.947 -16.866  1.00  0.00     0.196 C 
HETATM   28  N4  UNL     1      -4.446 -30.958 -15.847  1.00  0.00    -0.067 NA
HETATM   29  N5  UNL     1      -5.125 -33.181 -16.533  1.00  0.00    -0.067 NA
ATOM     30  H3  UNL     1      -4.099 -32.537 -18.724  1.00  0.00     0.161 HD
ENDBRANCH  25  26
ENDBRANCH  24  25
ENDBRANCH  23  24
ENDBRANCH  22  23
ENDBRANCH  20  22
ENDBRANCH  17  20
ENDBRANCH   7  16
BRANCH   5  31
HETATM   31  C4  UNL     1       7.143 -34.531 -20.077  1.00  0.00     0.109 C 
HETATM   32 BR1  UNL     1       6.228 -36.150 -19.656  1.00  0.00    -0.095 Br
ENDBRANCH   5  31
TORSDOF 8
ENDMDL
MODEL 5
REMARK VINA RESULT: -7.398560498      4.418      6.634
REMARK  8 active torsions:
REMARK  status: ('A' for Active; 'I' for Inactive)
REMARK    1  A    between atoms: C3_5  and  C4_6 
REMARK    2  A    between atoms: C6_9  and  N2_10 
REMARK       I    between atoms: N2_10  and  C7_12 
REMARK    3  A    between atoms: C7_12  and  C8_14 
REMARK    4  A    between atoms: C8_14  and  C9_16 
REMARK    5  A    between atoms: C9_16  and  C10_17 
REMARK    6  A    between atoms: C10_17  and  C11_18 
REMARK    7  A    between atoms: C11_18  and  C12_19 
REMARK    8  A    between atoms: C12_19  and  N3_20 
ROOT
HETATM    1  C1  UNL     1      -4.664 -20.957  -8.309  1.00  0.00     0.153 C 
HETATM    2  N1  UNL     1      -5.550 -21.797  -7.558  1.00  0.00    -0.343 N 
HETATM    3  C2  UNL     1      -6.064 -21.531  -6.260  1.00  0.00     0.234 C 
HETATM    4  O1  UNL     1      -5.718 -20.609  -5.513  1.00  0.00    -0.272 OA
HETATM    5  C3  UNL     1      -7.134 -22.550  -5.866  1.00  0.00     0.083 C 
HETATM    6  C5  UNL     1      -8.117 -22.612  -7.009  1.00  0.00     0.053 C 
HETATM    7  C6  UNL     1      -7.492 -22.858  -8.329  1.00  0.00     0.115 C 
HETATM    8  C14 UNL     1      -5.991 -23.052  -8.150  1.00  0.00     0.167 C 
HETATM    9  C15 UNL     1      -5.764 -24.073  -7.099  1.00  0.00     0.088 A 
HETATM   10  O3  UNL     1      -5.116 -25.197  -7.010  1.00  0.00    -0.303 OA
HETATM   11  C16 UNL     1      -5.242 -25.707  -5.816  1.00  0.00     0.140 A 
HETATM   12 BR2  UNL     1      -4.504 -27.334  -5.144  1.00  0.00    -0.021 Br
HETATM   13  C17 UNL     1      -6.041 -24.855  -5.037  1.00  0.00     0.062 A 
HETATM   14 BR3  UNL     1      -6.496 -25.106  -3.209  1.00  0.00    -0.047 Br
HETATM   15  C18 UNL     1      -6.374 -23.817  -5.857  1.00  0.00     0.013 A 
ENDROOT
BRANCH   7  16
HETATM   16  N2  UNL     1      -8.111 -23.909  -9.058  1.00  0.00    -0.352 N 
HETATM   17  C7  UNL     1      -9.122 -23.754 -10.012  1.00  0.00     0.252 C 
HETATM   18  O2  UNL     1      -9.524 -22.570 -10.250  1.00  0.00    -0.270 OA
ATOM     19  H2  UNL     1      -7.790 -24.858  -8.870  1.00  0.00     0.163 HD
BRANCH  17  20
HETATM   20  C8  UNL     1      -9.756 -24.848 -10.762  1.00  0.00     0.261 C 
HETATM   21  F1  UNL     1      -9.004 -25.307 -11.801  1.00  0.00    -0.239 F 
BRANCH  20  22
HETATM   22  C9  UNL     1     -11.133 -24.491 -11.282  1.00  0.00     0.047 C 
BRANCH  22  23
HETATM   23  C10 UNL     1     -11.507 -25.489 -12.349  1.00  0.00     0.005 C 
BRANCH  23  24
HETATM   24  C11 UNL     1     -11.927 -24.822 -13.634  1.00  0.00     0.020 C 
BRANCH  24  25
HETATM   25  C12 UNL     1     -11.250 -23.481 -13.818  1.00  0.00     0.122 C 
BRANCH  25  26
HETATM   26  N3  UNL     1     -10.278 -23.513 -14.891  1.00  0.00    -0.367 N 
HETATM   27  C13 UNL     1      -9.115 -22.998 -14.751  1.00  0.00     0.196 C 
HETATM   28  N4  UNL     1      -8.673 -22.360 -13.562  1.00  0.00    -0.067 NA
HETATM   29  N5  UNL     1      -8.191 -23.054 -15.833  1.00  0.00    -0.067 NA
ATOM     30  H3  UNL     1     -10.525 -23.956 -15.777  1.00  0.00     0.161 HD
ENDBRANCH  25  26
ENDBRANCH  24  25
ENDBRANCH  23  24
ENDBRANCH  22  23
ENDBRANCH  20  22
ENDBRANCH  17  20
ENDBRANCH   7  16
BRANCH   5  31
HETATM   31  C4  UNL     1      -7.813 -22.155  -4.619  1.00  0.00     0.109 C 
HETATM   32 BR1  UNL     1      -9.505 -21.359  -4.985  1.00  0.00    -0.095 Br
ENDBRANCH   5  31
TORSDOF 8
ENDMDL
