MODEL 1
REMARK VINA RESULT: -8.698333399      0.000      0.000
REMARK  7 active torsions:
REMARK  status: ('A' for Active; 'I' for Inactive)
REMARK    1  A    between atoms: C2_2  and  C4_4 
REMARK    2  A    between atoms: C4_4  and  C5_5 
REMARK    3  A    between atoms: N2_10  and  C7_11 
REMARK    4  A    between atoms: C7_11  and  C8_12 
REMARK    5  A    between atoms: C14_21  and  N4_22 
REMARK       I    between atoms: N4_22  and  C15_24 
REMARK    6  A    between atoms: C15_24  and  C16_26 
REMARK    7  A    between atoms: C16_26  and  C17_27 
ROOT
HETATM    1  C5  UNL     1      -8.810 -22.682  -9.097  1.00  0.00     0.118 C 
HETATM    2  N1  UNL     1      -8.524 -22.079 -10.377  1.00  0.00    -0.336 N 
ATOM      3  H1  UNL     1      -7.827 -21.340 -10.459  1.00  0.00     0.164 HD
HETATM    4  C6  UNL     1      -9.231 -22.534 -11.516  1.00  0.00     0.325 C 
HETATM    5  O1  UNL     1      -9.219 -21.891 -12.596  1.00  0.00    -0.247 OA
HETATM    6  N2  UNL     1      -9.993 -23.756 -11.482  1.00  0.00    -0.268 N 
HETATM    7  C13 UNL     1      -9.968 -24.435 -10.235  1.00  0.00     0.252 C 
HETATM    8  O3  UNL     1     -10.861 -25.238  -9.914  1.00  0.00    -0.270 OA
HETATM    9  C14 UNL     1      -8.836 -24.178  -9.283  1.00  0.00     0.200 C 
ENDROOT
BRANCH   9  10
HETATM   10  N4  UNL     1      -9.000 -24.918  -8.076  1.00  0.00    -0.345 N 
HETATM   11  C15 UNL     1      -8.117 -25.982  -7.778  1.00  0.00     0.224 C 
HETATM   12  O4  UNL     1      -7.203 -26.264  -8.570  1.00  0.00    -0.273 OA
ATOM     13  H4  UNL     1      -9.751 -24.680  -7.429  1.00  0.00     0.163 HD
BRANCH  11  14
HETATM   14  C16 UNL     1      -8.235 -26.792  -6.540  1.00  0.00     0.161 C 
BRANCH  14  15
HETATM   15  C17 UNL     1      -7.141 -27.753  -6.384  1.00  0.00     0.038 A 
HETATM   16  N5  UNL     1      -6.996 -28.916  -7.078  1.00  0.00    -0.347 N 
HETATM   17  C18 UNL     1      -5.898 -29.554  -6.694  1.00  0.00     0.122 A 
ATOM     18  H5  UNL     1      -7.642 -29.251  -7.794  1.00  0.00     0.167 HD
HETATM   19 CL1  UNL     1      -5.308 -31.083  -7.307  1.00  0.00    -0.063 Cl
HETATM   20  C19 UNL     1      -5.287 -28.794  -5.713  1.00  0.00     0.068 A 
HETATM   21 BR1  UNL     1      -3.686 -29.166  -4.768  1.00  0.00    -0.046 Br
HETATM   22  C20 UNL     1      -6.071 -27.673  -5.527  1.00  0.00     0.054 A 
HETATM   23 BR2  UNL     1      -5.689 -26.269  -4.274  1.00  0.00    -0.047 Br
ENDBRANCH  14  15
ENDBRANCH  11  14
ENDBRANCH   9  10
BRANCH   1  24
HETATM   24  C4  UNL     1      -7.948 -22.206  -7.981  1.00  0.00     0.031 C 
BRANCH  24  25
HETATM   25  C2  UNL     1      -6.506 -22.546  -8.350  1.00  0.00    -0.021 C 
HETATM   26  C1  UNL     1      -5.814 -23.304  -7.240  1.00  0.00     0.009 C 
HETATM   27  C3  UNL     1      -5.809 -21.283  -8.734  1.00  0.00     0.009 C 
ENDBRANCH  24  25
ENDBRANCH   1  24
BRANCH   6  28
HETATM   28  C7  UNL     1     -10.726 -24.220 -12.636  1.00  0.00     0.143 C 
BRANCH  28  29
HETATM   29  C8  UNL     1      -9.903 -24.509 -13.836  1.00  0.00     0.031 C 
HETATM   30  C9  UNL     1      -9.261 -25.870 -13.703  1.00  0.00     0.110 C 
HETATM   31  C10 UNL     1      -8.942 -26.141 -15.147  1.00  0.00     0.219 C 
HETATM   32  O2  UNL     1      -7.917 -26.712 -15.537  1.00  0.00    -0.273 OA
HETATM   33  N3  UNL     1     -10.042 -25.614 -15.896  1.00  0.00    -0.356 N 
HETATM   34  C11 UNL     1     -10.356 -25.926 -17.268  1.00  0.00     0.152 C 
HETATM   35  C12 UNL     1     -10.810 -24.699 -15.055  1.00  0.00     0.132 C 
ENDBRANCH  28  29
ENDBRANCH   6  28
TORSDOF 7
ENDMDL
MODEL 2
REMARK VINA RESULT: -8.625486698      1.847      2.462
REMARK  7 active torsions:
REMARK  status: ('A' for Active; 'I' for Inactive)
REMARK    1  A    between atoms: C2_2  and  C4_4 
REMARK    2  A    between atoms: C4_4  and  C5_5 
REMARK    3  A    between atoms: N2_10  and  C7_11 
REMARK    4  A    between atoms: C7_11  and  C8_12 
REMARK    5  A    between atoms: C14_21  and  N4_22 
REMARK       I    between atoms: N4_22  and  C15_24 
REMARK    6  A    between atoms: C15_24  and  C16_26 
REMARK    7  A    between atoms: C16_26  and  C17_27 
ROOT
HETATM    1  C5  UNL     1     -10.502 -21.900  -9.961  1.00  0.00     0.118 C 
HETATM    2  N1  UNL     1     -10.081 -21.283 -11.196  1.00  0.00    -0.336 N 
ATOM      3  H1  UNL     1      -9.586 -20.392 -11.189  1.00  0.00     0.164 HD
HETATM    4  C6  UNL     1     -10.368 -21.940 -12.417  1.00  0.00     0.325 C 
HETATM    5  O1  UNL     1     -10.261 -21.349 -13.521  1.00  0.00    -0.247 OA
HETATM    6  N2  UNL     1     -10.795 -23.315 -12.441  1.00  0.00    -0.268 N 
HETATM    7  C13 UNL     1     -10.897 -23.927 -11.164  1.00  0.00     0.252 C 
HETATM    8  O3  UNL     1     -11.617 -24.923 -10.976  1.00  0.00    -0.270 OA
HETATM    9  C14 UNL     1     -10.117 -23.357 -10.014  1.00  0.00     0.200 C 
ENDROOT
BRANCH   9  10
HETATM   10  N4  UNL     1     -10.374 -24.077  -8.811  1.00  0.00    -0.345 N 
HETATM   11  C15 UNL     1      -9.462 -25.066  -8.376  1.00  0.00     0.224 C 
HETATM   12  O4  UNL     1      -8.441 -25.300  -9.044  1.00  0.00    -0.273 OA
ATOM     13  H4  UNL     1     -11.213 -23.879  -8.266  1.00  0.00     0.163 HD
BRANCH  11  14
HETATM   14  C16 UNL     1      -9.670 -25.851  -7.134  1.00  0.00     0.161 C 
BRANCH  14  15
HETATM   15  C17 UNL     1      -8.497 -26.642  -6.758  1.00  0.00     0.038 A 
HETATM   16  N5  UNL     1      -8.286 -27.953  -7.062  1.00  0.00    -0.347 N 
HETATM   17  C18 UNL     1      -7.124 -28.364  -6.570  1.00  0.00     0.122 A 
ATOM     18  H5  UNL     1      -8.932 -28.537  -7.593  1.00  0.00     0.167 HD
HETATM   19 CL1  UNL     1      -6.438 -29.967  -6.712  1.00  0.00    -0.063 Cl
HETATM   20  C19 UNL     1      -6.537 -27.295  -5.918  1.00  0.00     0.068 A 
HETATM   21 BR1  UNL     1      -4.873 -27.245  -5.011  1.00  0.00    -0.046 Br
HETATM   22  C20 UNL     1      -7.401 -26.226  -6.040  1.00  0.00     0.054 A 
HETATM   23 BR2  UNL     1      -7.083 -24.476  -5.317  1.00  0.00    -0.047 Br
ENDBRANCH  14  15
ENDBRANCH  11  14
ENDBRANCH   9  10
BRANCH   1  24
HETATM   24  C4  UNL     1     -10.069 -21.184  -8.730  1.00  0.00     0.031 C 
BRANCH  24  25
HETATM   25  C2  UNL     1     -11.320 -20.575  -8.101  1.00  0.00    -0.021 C 
HETATM   26  C1  UNL     1     -11.203 -19.072  -7.981  1.00  0.00     0.009 C 
HETATM   27  C3  UNL     1     -11.571 -21.259  -6.798  1.00  0.00     0.009 C 
ENDBRANCH  24  25
ENDBRANCH   1  24
BRANCH   6  28
HETATM   28  C7  UNL     1     -11.101 -23.988 -13.682  1.00  0.00     0.143 C 
BRANCH  28  29
HETATM   29  C8  UNL     1      -9.944 -24.218 -14.582  1.00  0.00     0.031 C 
HETATM   30  C9  UNL     1      -9.666 -25.699 -14.692  1.00  0.00     0.110 C 
HETATM   31  C10 UNL     1      -8.865 -25.711 -15.965  1.00  0.00     0.219 C 
HETATM   32  O2  UNL     1      -7.893 -26.446 -16.167  1.00  0.00    -0.273 OA
HETATM   33  N3  UNL     1      -9.469 -24.731 -16.816  1.00  0.00    -0.356 N 
HETATM   34  C11 UNL     1      -9.276 -24.616 -18.240  1.00  0.00     0.152 C 
HETATM   35  C12 UNL     1     -10.322 -23.853 -16.019  1.00  0.00     0.132 C 
ENDBRANCH  28  29
ENDBRANCH   6  28
TORSDOF 7
ENDMDL
MODEL 3
REMARK VINA RESULT: -8.582719444      1.089      1.535
REMARK  7 active torsions:
REMARK  status: ('A' for Active; 'I' for Inactive)
REMARK    1  A    between atoms: C2_2  and  C4_4 
REMARK    2  A    between atoms: C4_4  and  C5_5 
REMARK    3  A    between atoms: N2_10  and  C7_11 
REMARK    4  A    between atoms: C7_11  and  C8_12 
REMARK    5  A    between atoms: C14_21  and  N4_22 
REMARK       I    between atoms: N4_22  and  C15_24 
REMARK    6  A    between atoms: C15_24  and  C16_26 
REMARK    7  A    between atoms: C16_26  and  C17_27 
ROOT
HETATM    1  C5  UNL     1      -8.867 -22.777  -9.630  1.00  0.00     0.118 C 
HETATM    2  N1  UNL     1      -8.595 -22.280 -10.958  1.00  0.00    -0.336 N 
ATOM      3  H1  UNL     1      -7.755 -21.733 -11.146  1.00  0.00     0.164 HD
HETATM    4  C6  UNL     1      -9.519 -22.565 -11.993  1.00  0.00     0.325 C 
HETATM    5  O1  UNL     1      -9.478 -21.958 -13.093  1.00  0.00    -0.247 OA
HETATM    6  N2  UNL     1     -10.543 -23.563 -11.824  1.00  0.00    -0.268 N 
HETATM    7  C13 UNL     1     -10.537 -24.211 -10.561  1.00  0.00     0.252 C 
HETATM    8  O3  UNL     1     -11.553 -24.767 -10.110  1.00  0.00    -0.270 OA
HETATM    9  C14 UNL     1      -9.273 -24.224  -9.749  1.00  0.00     0.200 C 
ENDROOT
BRANCH   9  10
HETATM   10  N4  UNL     1      -9.468 -24.885  -8.502  1.00  0.00    -0.345 N 
HETATM   11  C15 UNL     1      -8.503 -25.807  -8.037  1.00  0.00     0.224 C 
HETATM   12  O4  UNL     1      -7.490 -26.034  -8.717  1.00  0.00    -0.273 OA
ATOM     13  H4  UNL     1     -10.302 -24.692  -7.947  1.00  0.00     0.163 HD
BRANCH  11  14
HETATM   14  C16 UNL     1      -8.648 -26.529  -6.748  1.00  0.00     0.161 C 
BRANCH  14  15
HETATM   15  C17 UNL     1      -7.533 -27.440  -6.479  1.00  0.00     0.038 A 
HETATM   16  N5  UNL     1      -7.325 -28.645  -7.078  1.00  0.00    -0.347 N 
HETATM   17  C18 UNL     1      -6.224 -29.217  -6.606  1.00  0.00     0.122 A 
ATOM     18  H5  UNL     1      -7.931 -29.053  -7.791  1.00  0.00     0.167 HD
HETATM   19 CL1  UNL     1      -5.565 -30.766  -7.080  1.00  0.00    -0.063 Cl
HETATM   20  C19 UNL     1      -5.678 -28.367  -5.661  1.00  0.00     0.068 A 
HETATM   21 BR1  UNL     1      -4.106 -28.616  -4.631  1.00  0.00    -0.046 Br
HETATM   22  C20 UNL     1      -6.501 -27.262  -5.589  1.00  0.00     0.054 A 
HETATM   23 BR2  UNL     1      -6.212 -25.758  -4.431  1.00  0.00    -0.047 Br
ENDBRANCH  14  15
ENDBRANCH  11  14
ENDBRANCH   9  10
BRANCH   1  24
HETATM   24  C4  UNL     1      -7.792 -22.510  -8.636  1.00  0.00     0.031 C 
BRANCH  24  25
HETATM   25  C2  UNL     1      -8.403 -21.648  -7.533  1.00  0.00    -0.021 C 
HETATM   26  C1  UNL     1      -8.362 -22.349  -6.195  1.00  0.00     0.009 C 
HETATM   27  C3  UNL     1      -9.778 -21.250  -7.956  1.00  0.00     0.009 C 
ENDBRANCH  24  25
ENDBRANCH   1  24
BRANCH   6  28
HETATM   28  C7  UNL     1     -11.496 -23.850 -12.871  1.00  0.00     0.143 C 
BRANCH  28  29
HETATM   29  C8  UNL     1     -11.123 -24.962 -13.780  1.00  0.00     0.031 C 
HETATM   30  C9  UNL     1     -10.715 -24.410 -15.126  1.00  0.00     0.110 C 
HETATM   31  C10 UNL     1      -9.935 -25.582 -15.654  1.00  0.00     0.219 C 
HETATM   32  O2  UNL     1      -9.945 -25.948 -16.834  1.00  0.00    -0.273 OA
HETATM   33  N3  UNL     1      -9.233 -26.123 -14.530  1.00  0.00    -0.356 N 
HETATM   34  C11 UNL     1      -8.112 -27.026 -14.590  1.00  0.00     0.152 C 
HETATM   35  C12 UNL     1      -9.828 -25.618 -13.295  1.00  0.00     0.132 C 
ENDBRANCH  28  29
ENDBRANCH   6  28
TORSDOF 7
ENDMDL
MODEL 4
REMARK VINA RESULT: -8.414726914      1.716      2.213
REMARK  7 active torsions:
REMARK  status: ('A' for Active; 'I' for Inactive)
REMARK    1  A    between atoms: C2_2  and  C4_4 
REMARK    2  A    between atoms: C4_4  and  C5_5 
REMARK    3  A    between atoms: N2_10  and  C7_11 
REMARK    4  A    between atoms: C7_11  and  C8_12 
REMARK    5  A    between atoms: C14_21  and  N4_22 
REMARK       I    between atoms: N4_22  and  C15_24 
REMARK    6  A    between atoms: C15_24  and  C16_26 
REMARK    7  A    between atoms: C16_26  and  C17_27 
ROOT
HETATM    1  C5  UNL     1     -10.138 -21.848  -9.488  1.00  0.00     0.118 C 
HETATM    2  N1  UNL     1      -9.989 -21.219 -10.778  1.00  0.00    -0.336 N 
ATOM      3  H1  UNL     1      -9.661 -20.257 -10.853  1.00  0.00     0.164 HD
HETATM    4  C6  UNL     1     -10.309 -21.965 -11.939  1.00  0.00     0.325 C 
HETATM    5  O1  UNL     1     -10.447 -21.410 -13.058  1.00  0.00    -0.247 OA
HETATM    6  N2  UNL     1     -10.489 -23.393 -11.881  1.00  0.00    -0.268 N 
HETATM    7  C13 UNL     1     -10.321 -23.960 -10.591  1.00  0.00     0.252 C 
HETATM    8  O3  UNL     1     -10.826 -25.056 -10.291  1.00  0.00    -0.270 OA
HETATM    9  C14 UNL     1      -9.514 -23.219  -9.564  1.00  0.00     0.200 C 
ENDROOT
BRANCH   9  10
HETATM   10  N4  UNL     1      -9.487 -23.922  -8.324  1.00  0.00    -0.345 N 
HETATM   11  C15 UNL     1      -8.271 -24.469  -7.853  1.00  0.00     0.224 C 
HETATM   12  O4  UNL     1      -7.234 -24.332  -8.522  1.00  0.00    -0.273 OA
ATOM     13  H4  UNL     1     -10.342 -24.029  -7.779  1.00  0.00     0.163 HD
BRANCH  11  14
HETATM   14  C16 UNL     1      -8.176 -25.213  -6.572  1.00  0.00     0.161 C 
BRANCH  14  15
HETATM   15  C17 UNL     1      -7.108 -26.215  -6.576  1.00  0.00     0.038 A 
HETATM   16  N5  UNL     1      -6.806 -27.057  -7.603  1.00  0.00    -0.347 N 
HETATM   17  C18 UNL     1      -5.783 -27.839  -7.279  1.00  0.00     0.122 A 
ATOM     18  H5  UNL     1      -7.296 -27.083  -8.497  1.00  0.00     0.167 HD
HETATM   19 CL1  UNL     1      -5.052 -29.071  -8.282  1.00  0.00    -0.063 Cl
HETATM   20  C19 UNL     1      -5.388 -27.510  -5.995  1.00  0.00     0.068 A 
HETATM   21 BR1  UNL     1      -3.985 -28.269  -4.970  1.00  0.00    -0.046 Br
HETATM   22  C20 UNL     1      -6.220 -26.497  -5.565  1.00  0.00     0.054 A 
HETATM   23 BR2  UNL     1      -6.116 -25.655  -3.843  1.00  0.00    -0.047 Br
ENDBRANCH  14  15
ENDBRANCH  11  14
ENDBRANCH   9  10
BRANCH   1  24
HETATM   24  C4  UNL     1      -9.684 -21.019  -8.338  1.00  0.00     0.031 C 
BRANCH  24  25
HETATM   25  C2  UNL     1     -10.936 -20.450  -7.673  1.00  0.00    -0.021 C 
HETATM   26  C1  UNL     1     -11.162 -19.007  -8.062  1.00  0.00     0.009 C 
HETATM   27  C3  UNL     1     -10.822 -20.659  -6.200  1.00  0.00     0.009 C 
ENDBRANCH  24  25
ENDBRANCH   1  24
BRANCH   6  28
HETATM   28  C7  UNL     1     -10.826 -24.159 -13.059  1.00  0.00     0.143 C 
BRANCH  28  29
HETATM   29  C8  UNL     1      -9.707 -24.397 -14.003  1.00  0.00     0.031 C 
HETATM   30  C9  UNL     1      -9.522 -25.881 -14.215  1.00  0.00     0.110 C 
HETATM   31  C10 UNL     1      -8.754 -25.857 -15.509  1.00  0.00     0.219 C 
HETATM   32  O2  UNL     1      -7.833 -26.634 -15.784  1.00  0.00    -0.273 OA
HETATM   33  N3  UNL     1      -9.318 -24.791 -16.278  1.00  0.00    -0.356 N 
HETATM   34  C11 UNL     1      -9.153 -24.594 -17.696  1.00  0.00     0.152 C 
HETATM   35  C12 UNL     1     -10.097 -23.918 -15.403  1.00  0.00     0.132 C 
ENDBRANCH  28  29
ENDBRANCH   6  28
TORSDOF 7
ENDMDL
MODEL 5
REMARK VINA RESULT: -8.399856287      2.642      3.175
REMARK  7 active torsions:
REMARK  status: ('A' for Active; 'I' for Inactive)
REMARK    1  A    between atoms: C2_2  and  C4_4 
REMARK    2  A    between atoms: C4_4  and  C5_5 
REMARK    3  A    between atoms: N2_10  and  C7_11 
REMARK    4  A    between atoms: C7_11  and  C8_12 
REMARK    5  A    between atoms: C14_21  and  N4_22 
REMARK       I    between atoms: N4_22  and  C15_24 
REMARK    6  A    between atoms: C15_24  and  C16_26 
REMARK    7  A    between atoms: C16_26  and  C17_27 
ROOT
HETATM    1  C5  UNL     1     -11.727 -22.465  -9.799  1.00  0.00     0.118 C 
HETATM    2  N1  UNL     1     -11.607 -21.487 -10.854  1.00  0.00    -0.336 N 
ATOM      3  H1  UNL     1     -11.472 -20.501 -10.634  1.00  0.00     0.164 HD
HETATM    4  C6  UNL     1     -11.680 -21.925 -12.198  1.00  0.00     0.325 C 
HETATM    5  O1  UNL     1     -11.838 -21.113 -13.145  1.00  0.00    -0.247 OA
HETATM    6  N2  UNL     1     -11.576 -23.322 -12.534  1.00  0.00    -0.268 N 
HETATM    7  C13 UNL     1     -11.399 -24.187 -11.423  1.00  0.00     0.252 C 
HETATM    8  O3  UNL     1     -11.698 -25.392 -11.483  1.00  0.00    -0.270 OA
HETATM    9  C14 UNL     1     -10.839 -23.634 -10.144  1.00  0.00     0.200 C 
ENDROOT
BRANCH   9  10
HETATM   10  N4  UNL     1     -10.769 -24.638  -9.135  1.00  0.00    -0.345 N 
HETATM   11  C15 UNL     1      -9.509 -25.080  -8.670  1.00  0.00     0.224 C 
HETATM   12  O4  UNL     1      -8.471 -24.589  -9.142  1.00  0.00    -0.273 OA
ATOM     13  H4  UNL     1     -11.626 -25.036  -8.751  1.00  0.00     0.163 HD
BRANCH  11  14
HETATM   14  C16 UNL     1      -9.368 -26.122  -7.623  1.00  0.00     0.161 C 
BRANCH  14  15
HETATM   15  C17 UNL     1      -8.371 -25.776  -6.607  1.00  0.00     0.038 A 
HETATM   16  N5  UNL     1      -8.162 -24.536  -6.085  1.00  0.00    -0.347 N 
HETATM   17  C18 UNL     1      -7.184 -24.567  -5.187  1.00  0.00     0.122 A 
ATOM     18  H5  UNL     1      -8.683 -23.699  -6.347  1.00  0.00     0.167 HD
HETATM   19 CL1  UNL     1      -6.571 -23.215  -4.262  1.00  0.00    -0.063 Cl
HETATM   20  C19 UNL     1      -6.726 -25.869  -5.106  1.00  0.00     0.068 A 
HETATM   21 BR1  UNL     1      -5.343 -26.558  -4.006  1.00  0.00    -0.046 Br
HETATM   22  C20 UNL     1      -7.472 -26.615  -5.995  1.00  0.00     0.054 A 
HETATM   23 BR2  UNL     1      -7.256 -28.500  -6.289  1.00  0.00    -0.047 Br
ENDBRANCH  14  15
ENDBRANCH  11  14
ENDBRANCH   9  10
BRANCH   1  24
HETATM   24  C4  UNL     1     -11.539 -21.923  -8.425  1.00  0.00     0.031 C 
BRANCH  24  25
HETATM   25  C2  UNL     1     -10.438 -20.867  -8.506  1.00  0.00    -0.021 C 
HETATM   26  C1  UNL     1      -9.166 -21.343  -7.842  1.00  0.00     0.009 C 
HETATM   27  C3  UNL     1     -10.968 -19.593  -7.937  1.00  0.00     0.009 C 
ENDBRANCH  24  25
ENDBRANCH   1  24
BRANCH   6  28
HETATM   28  C7  UNL     1     -11.662 -23.777 -13.903  1.00  0.00     0.143 C 
BRANCH  28  29
HETATM   29  C8  UNL     1     -10.360 -23.986 -14.584  1.00  0.00     0.031 C 
HETATM   30  C9  UNL     1     -10.055 -25.464 -14.663  1.00  0.00     0.110 C 
HETATM   31  C10 UNL     1      -9.040 -25.452 -15.773  1.00  0.00     0.219 C 
HETATM   32  O2  UNL     1      -8.041 -26.179 -15.808  1.00  0.00    -0.273 OA
HETATM   33  N3  UNL     1      -9.491 -24.464 -16.704  1.00  0.00    -0.356 N 
HETATM   34  C11 UNL     1      -9.047 -24.326 -18.069  1.00  0.00     0.152 C 
HETATM   35  C12 UNL     1     -10.479 -23.602 -16.061  1.00  0.00     0.132 C 
ENDBRANCH  28  29
ENDBRANCH   6  28
TORSDOF 7
ENDMDL
