MODEL 1
REMARK VINA RESULT: -7.899583123      0.000      0.000
REMARK  10 active torsions:
REMARK  status: ('A' for Active; 'I' for Inactive)
REMARK    1  A    between atoms: C7_8  and  O1_10 
REMARK    2  A    between atoms: C11_14  and  C12_16 
REMARK    3  A    between atoms: C12_16  and  C13_17 
REMARK    4  A    between atoms: C13_17  and  N1_18 
REMARK       I    between atoms: N1_18  and  C14_20 
REMARK       I    between atoms: N3_22  and  C15_24 
REMARK    5  A    between atoms: C15_24  and  C16_26 
REMARK    6  A    between atoms: C16_26  and  O3_27 
REMARK    7  A    between atoms: O3_27  and  C17_28 
REMARK    8  A    between atoms: C17_28  and  C18_30 
REMARK    9  A    between atoms: C18_30  and  N4_31 
REMARK   10  A    between atoms: N4_31  and  C21_34 
ROOT
HETATM    1  N1  UNL     1     -12.357 -22.515 -12.716  1.00  0.00    -0.364 N 
ATOM      2  H1  UNL     1     -13.324 -22.772 -12.911  1.00  0.00     0.162 HD
HETATM    3  C14 UNL     1     -11.869 -22.496 -11.393  1.00  0.00     0.190 C 
HETATM    4  N2  UNL     1     -12.357 -23.467 -10.484  1.00  0.00    -0.063 NA
HETATM    5  N3  UNL     1     -11.006 -21.645 -10.968  1.00  0.00    -0.299 N 
ATOM      6  H3  UNL     1     -10.664 -20.951 -11.633  1.00  0.00     0.171 HD
HETATM    7  C15 UNL     1     -10.499 -21.593  -9.668  1.00  0.00     0.248 C 
HETATM    8  O2  UNL     1     -10.779 -20.626  -8.928  1.00  0.00    -0.271 OA
ENDROOT
BRANCH   1   9
HETATM    9  C13 UNL     1     -11.452 -22.161 -13.790  1.00  0.00     0.124 C 
BRANCH   9  10
HETATM   10  C12 UNL     1     -11.140 -23.327 -14.659  1.00  0.00     0.042 C 
BRANCH  10  11
HETATM   11  C11 UNL     1      -9.788 -23.931 -14.520  1.00  0.00     0.037 C 
HETATM   12  C2  UNL     1      -9.632 -25.038 -13.553  1.00  0.00    -0.028 C 
HETATM   13  C1  UNL     1     -10.838 -25.867 -13.247  1.00  0.00     0.016 C 
HETATM   14  C3  UNL     1      -9.145 -24.592 -12.156  1.00  0.00     0.016 C 
HETATM   15  C4  UNL     1      -8.468 -25.975 -13.933  1.00  0.00     0.026 C 
HETATM   16  C5  UNL     1      -8.769 -26.499 -15.293  1.00  0.00     0.066 C 
HETATM   17 BR1  UNL     1      -7.491 -27.910 -15.687  1.00  0.00    -0.091 Br
HETATM   18  C6  UNL     1      -8.547 -25.337 -16.232  1.00  0.00     0.047 A 
HETATM   19  C7  UNL     1      -9.784 -24.838 -17.002  1.00  0.00     0.069 A 
HETATM   20  C9  UNL     1      -9.225 -24.103 -15.890  1.00  0.00     0.013 A 
HETATM   21  C8  UNL     1     -10.847 -25.851 -17.100  1.00  0.00     0.047 C 
HETATM   22  C10 UNL     1      -8.506 -22.814 -16.362  1.00  0.00     0.020 C 
HETATM   23 BR2  UNL     1      -8.759 -22.465 -13.656  1.00  0.00    -0.084 Br
BRANCH  19  24
HETATM   24  O1  UNL     1      -9.398 -24.451 -18.321  1.00  0.00    -0.389 OA
ATOM     25  H1  UNL     1     -10.164 -24.435 -18.883  1.00  0.00     0.210 HD
ENDBRANCH  19  24
ENDBRANCH  10  11
ENDBRANCH   9  10
ENDBRANCH   1   9
BRANCH   7  26
HETATM   26  C16 UNL     1      -9.634 -22.666  -9.158  1.00  0.00     0.281 C 
BRANCH  26  27
HETATM   27  O3  UNL     1      -8.258 -22.430  -9.345  1.00  0.00    -0.311 OA
BRANCH  27  28
HETATM   28  C17 UNL     1      -7.432 -21.844  -8.409  1.00  0.00     0.285 C 
HETATM   29  O4  UNL     1      -7.875 -21.519  -7.296  1.00  0.00    -0.263 OA
BRANCH  28  30
HETATM   30  C18 UNL     1      -5.995 -21.611  -8.762  1.00  0.00     0.348 C 
BRANCH  30  31
HETATM   31  N4  UNL     1      -5.140 -22.487  -7.999  1.00  0.00    -0.054 N 
HETATM   32  C19 UNL     1      -3.937 -22.751  -8.783  1.00  0.00     0.274 C 
HETATM   33  C20 UNL     1      -5.819 -23.729  -7.646  1.00  0.00     0.274 C 
BRANCH  31  34
HETATM   34  C21 UNL     1      -4.796 -21.820  -6.761  1.00  0.00     0.350 C 
HETATM   35 CL1  UNL     1      -4.463 -20.096  -7.044  1.00  0.00    -0.101 Cl
ENDBRANCH  31  34
ENDBRANCH  30  31
ENDBRANCH  28  30
ENDBRANCH  27  28
ENDBRANCH  26  27
ENDBRANCH   7  26
TORSDOF 10
ENDMDL
MODEL 2
REMARK VINA RESULT: -7.732875356      0.911      1.239
REMARK  10 active torsions:
REMARK  status: ('A' for Active; 'I' for Inactive)
REMARK    1  A    between atoms: C7_8  and  O1_10 
REMARK    2  A    between atoms: C11_14  and  C12_16 
REMARK    3  A    between atoms: C12_16  and  C13_17 
REMARK    4  A    between atoms: C13_17  and  N1_18 
REMARK       I    between atoms: N1_18  and  C14_20 
REMARK       I    between atoms: N3_22  and  C15_24 
REMARK    5  A    between atoms: C15_24  and  C16_26 
REMARK    6  A    between atoms: C16_26  and  O3_27 
REMARK    7  A    between atoms: O3_27  and  C17_28 
REMARK    8  A    between atoms: C17_28  and  C18_30 
REMARK    9  A    between atoms: C18_30  and  N4_31 
REMARK   10  A    between atoms: N4_31  and  C21_34 
ROOT
HETATM    1  N1  UNL     1     -12.344 -22.428 -12.761  1.00  0.00    -0.364 N 
ATOM      2  H1  UNL     1     -13.316 -22.649 -12.978  1.00  0.00     0.162 HD
HETATM    3  C14 UNL     1     -11.884 -22.429 -11.429  1.00  0.00     0.190 C 
HETATM    4  N2  UNL     1     -12.428 -23.382 -10.532  1.00  0.00    -0.063 NA
HETATM    5  N3  UNL     1     -11.000 -21.611 -10.983  1.00  0.00    -0.299 N 
ATOM      6  H3  UNL     1     -10.618 -20.930 -11.640  1.00  0.00     0.171 HD
HETATM    7  C15 UNL     1     -10.519 -21.579  -9.673  1.00  0.00     0.248 C 
HETATM    8  O2  UNL     1     -10.779 -20.603  -8.938  1.00  0.00    -0.271 OA
ENDROOT
BRANCH   1   9
HETATM    9  C13 UNL     1     -11.403 -22.108 -13.815  1.00  0.00     0.124 C 
BRANCH   9  10
HETATM   10  C12 UNL     1     -11.107 -23.287 -14.672  1.00  0.00     0.042 C 
BRANCH  10  11
HETATM   11  C11 UNL     1      -9.763 -23.908 -14.527  1.00  0.00     0.037 C 
HETATM   12  C2  UNL     1      -9.625 -25.012 -13.553  1.00  0.00    -0.028 C 
HETATM   13  C1  UNL     1     -10.842 -25.823 -13.245  1.00  0.00     0.016 C 
HETATM   14  C3  UNL     1      -9.135 -24.565 -12.157  1.00  0.00     0.016 C 
HETATM   15  C4  UNL     1      -8.471 -25.966 -13.925  1.00  0.00     0.026 C 
HETATM   16  C5  UNL     1      -8.777 -26.493 -15.283  1.00  0.00     0.066 C 
HETATM   17 BR1  UNL     1      -7.517 -27.923 -15.666  1.00  0.00    -0.091 Br
HETATM   18  C6  UNL     1      -8.538 -25.340 -16.228  1.00  0.00     0.047 A 
HETATM   19  C7  UNL     1      -9.766 -24.828 -17.004  1.00  0.00     0.069 A 
HETATM   20  C9  UNL     1      -9.200 -24.095 -15.894  1.00  0.00     0.013 A 
HETATM   21  C8  UNL     1     -10.842 -25.828 -17.098  1.00  0.00     0.047 C 
HETATM   22  C10 UNL     1      -8.463 -22.818 -16.371  1.00  0.00     0.020 C 
HETATM   23 BR2  UNL     1      -8.717 -22.451 -13.669  1.00  0.00    -0.084 Br
BRANCH  19  24
HETATM   24  O1  UNL     1      -9.372 -24.454 -18.324  1.00  0.00    -0.389 OA
ATOM     25  H1  UNL     1      -9.517 -23.523 -18.445  1.00  0.00     0.210 HD
ENDBRANCH  19  24
ENDBRANCH  10  11
ENDBRANCH   9  10
ENDBRANCH   1   9
BRANCH   7  26
HETATM   26  C16 UNL     1      -9.706 -22.685  -9.146  1.00  0.00     0.281 C 
BRANCH  26  27
HETATM   27  O3  UNL     1      -8.337 -22.380  -9.024  1.00  0.00    -0.311 OA
BRANCH  27  28
HETATM   28  C17 UNL     1      -7.441 -23.101  -8.264  1.00  0.00     0.285 C 
HETATM   29  O4  UNL     1      -7.151 -24.268  -8.572  1.00  0.00    -0.263 OA
BRANCH  28  30
HETATM   30  C18 UNL     1      -6.825 -22.448  -7.063  1.00  0.00     0.348 C 
BRANCH  30  31
HETATM   31  N4  UNL     1      -5.539 -21.889  -7.398  1.00  0.00    -0.054 N 
HETATM   32  C19 UNL     1      -5.213 -20.864  -6.411  1.00  0.00     0.274 C 
HETATM   33  C20 UNL     1      -5.524 -21.340  -8.749  1.00  0.00     0.274 C 
BRANCH  31  34
HETATM   34  C21 UNL     1      -4.557 -22.954  -7.358  1.00  0.00     0.350 C 
HETATM   35 CL1  UNL     1      -3.694 -23.075  -8.908  1.00  0.00    -0.101 Cl
ENDBRANCH  31  34
ENDBRANCH  30  31
ENDBRANCH  28  30
ENDBRANCH  27  28
ENDBRANCH  26  27
ENDBRANCH   7  26
TORSDOF 10
ENDMDL
MODEL 3
REMARK VINA RESULT: -7.651860410      1.518      1.817
REMARK  10 active torsions:
REMARK  status: ('A' for Active; 'I' for Inactive)
REMARK    1  A    between atoms: C7_8  and  O1_10 
REMARK    2  A    between atoms: C11_14  and  C12_16 
REMARK    3  A    between atoms: C12_16  and  C13_17 
REMARK    4  A    between atoms: C13_17  and  N1_18 
REMARK       I    between atoms: N1_18  and  C14_20 
REMARK       I    between atoms: N3_22  and  C15_24 
REMARK    5  A    between atoms: C15_24  and  C16_26 
REMARK    6  A    between atoms: C16_26  and  O3_27 
REMARK    7  A    between atoms: O3_27  and  C17_28 
REMARK    8  A    between atoms: C17_28  and  C18_30 
REMARK    9  A    between atoms: C18_30  and  N4_31 
REMARK   10  A    between atoms: N4_31  and  C21_34 
ROOT
HETATM    1  N1  UNL     1     -12.313 -22.438 -12.690  1.00  0.00    -0.364 N 
ATOM      2  H1  UNL     1     -13.287 -22.666 -12.886  1.00  0.00     0.162 HD
HETATM    3  C14 UNL     1     -11.825 -22.435 -11.367  1.00  0.00     0.190 C 
HETATM    4  N2  UNL     1     -12.342 -23.394 -10.460  1.00  0.00    -0.063 NA
HETATM    5  N3  UNL     1     -10.938 -21.611 -10.940  1.00  0.00    -0.299 N 
ATOM      6  H3  UNL     1     -10.576 -20.926 -11.604  1.00  0.00     0.171 HD
HETATM    7  C15 UNL     1     -10.430 -21.576  -9.640  1.00  0.00     0.248 C 
HETATM    8  O2  UNL     1     -10.682 -20.603  -8.898  1.00  0.00    -0.271 OA
ENDROOT
BRANCH   1   9
HETATM    9  C13 UNL     1     -11.397 -22.109 -13.763  1.00  0.00     0.124 C 
BRANCH   9  10
HETATM   10  C12 UNL     1     -11.104 -23.286 -14.623  1.00  0.00     0.042 C 
BRANCH  10  11
HETATM   11  C11 UNL     1      -9.759 -23.906 -14.486  1.00  0.00     0.037 C 
HETATM   12  C2  UNL     1      -9.618 -25.019 -13.523  1.00  0.00    -0.028 C 
HETATM   13  C1  UNL     1     -10.833 -25.836 -13.223  1.00  0.00     0.016 C 
HETATM   14  C3  UNL     1      -9.127 -24.585 -12.123  1.00  0.00     0.016 C 
HETATM   15  C4  UNL     1      -8.463 -25.967 -13.906  1.00  0.00     0.026 C 
HETATM   16  C5  UNL     1      -8.769 -26.482 -15.269  1.00  0.00     0.066 C 
HETATM   17 BR1  UNL     1      -7.506 -27.905 -15.668  1.00  0.00    -0.091 Br
HETATM   18  C6  UNL     1      -8.533 -25.318 -16.202  1.00  0.00     0.047 A 
HETATM   19  C7  UNL     1      -9.762 -24.801 -16.971  1.00  0.00     0.069 A 
HETATM   20  C9  UNL     1      -9.197 -24.078 -15.855  1.00  0.00     0.013 A 
HETATM   21  C8  UNL     1     -10.836 -25.801 -17.075  1.00  0.00     0.047 C 
HETATM   22  C10 UNL     1      -8.462 -22.795 -16.320  1.00  0.00     0.020 C 
HETATM   23 BR2  UNL     1      -8.715 -22.456 -13.613  1.00  0.00    -0.084 Br
BRANCH  19  24
HETATM   24  O1  UNL     1      -9.371 -24.413 -18.288  1.00  0.00    -0.389 OA
ATOM     25  H1  UNL     1      -9.531 -25.130 -18.890  1.00  0.00     0.210 HD
ENDBRANCH  19  24
ENDBRANCH  10  11
ENDBRANCH   9  10
ENDBRANCH   1   9
BRANCH   7  26
HETATM   26  C16 UNL     1      -9.597 -22.675  -9.131  1.00  0.00     0.281 C 
BRANCH  26  27
HETATM   27  O3  UNL     1      -8.213 -22.422  -9.199  1.00  0.00    -0.311 OA
BRANCH  27  28
HETATM   28  C17 UNL     1      -7.370 -22.395  -8.109  1.00  0.00     0.285 C 
HETATM   29  O4  UNL     1      -6.680 -21.390  -7.873  1.00  0.00    -0.263 OA
BRANCH  28  30
HETATM   30  C18 UNL     1      -7.304 -23.599  -7.219  1.00  0.00     0.348 C 
BRANCH  30  31
HETATM   31  N4  UNL     1      -6.320 -24.532  -7.706  1.00  0.00    -0.054 N 
HETATM   32  C19 UNL     1      -5.907 -25.385  -6.595  1.00  0.00     0.274 C 
HETATM   33  C20 UNL     1      -5.174 -23.849  -8.296  1.00  0.00     0.274 C 
BRANCH  31  34
HETATM   34  C21 UNL     1      -6.928 -25.329  -8.751  1.00  0.00     0.350 C 
HETATM   35 CL1  UNL     1      -8.481 -26.005  -8.207  1.00  0.00    -0.101 Cl
ENDBRANCH  31  34
ENDBRANCH  30  31
ENDBRANCH  28  30
ENDBRANCH  27  28
ENDBRANCH  26  27
ENDBRANCH   7  26
TORSDOF 10
ENDMDL
MODEL 4
REMARK VINA RESULT: -7.618575524      4.068      8.306
REMARK  10 active torsions:
REMARK  status: ('A' for Active; 'I' for Inactive)
REMARK    1  A    between atoms: C7_8  and  O1_10 
REMARK    2  A    between atoms: C11_14  and  C12_16 
REMARK    3  A    between atoms: C12_16  and  C13_17 
REMARK    4  A    between atoms: C13_17  and  N1_18 
REMARK       I    between atoms: N1_18  and  C14_20 
REMARK       I    between atoms: N3_22  and  C15_24 
REMARK    5  A    between atoms: C15_24  and  C16_26 
REMARK    6  A    between atoms: C16_26  and  O3_27 
REMARK    7  A    between atoms: O3_27  and  C17_28 
REMARK    8  A    between atoms: C17_28  and  C18_30 
REMARK    9  A    between atoms: C18_30  and  N4_31 
REMARK   10  A    between atoms: N4_31  and  C21_34 
ROOT
HETATM    1  N1  UNL     1     -10.066 -21.444 -10.858  1.00  0.00    -0.364 N 
ATOM      2  H1  UNL     1     -10.050 -20.464 -11.142  1.00  0.00     0.162 HD
HETATM    3  C14 UNL     1      -9.992 -22.474 -11.817  1.00  0.00     0.190 C 
HETATM    4  N2  UNL     1      -9.189 -22.266 -12.965  1.00  0.00    -0.063 NA
HETATM    5  N3  UNL     1     -10.614 -23.592 -11.706  1.00  0.00    -0.299 N 
ATOM      6  H3  UNL     1     -11.189 -23.728 -10.874  1.00  0.00     0.171 HD
HETATM    7  C15 UNL     1     -10.567 -24.637 -12.631  1.00  0.00     0.248 C 
HETATM    8  O2  UNL     1     -11.588 -24.935 -13.286  1.00  0.00    -0.271 OA
ENDROOT
BRANCH   1   9
HETATM    9  C13 UNL     1     -10.165 -21.808  -9.460  1.00  0.00     0.124 C 
BRANCH   9  10
HETATM   10  C12 UNL     1      -8.919 -22.449  -8.963  1.00  0.00     0.042 C 
BRANCH  10  11
HETATM   11  C11 UNL     1      -9.045 -23.359  -7.794  1.00  0.00     0.037 C 
HETATM   12  C2  UNL     1      -9.141 -24.808  -8.066  1.00  0.00    -0.028 C 
HETATM   13  C1  UNL     1      -8.523 -25.321  -9.326  1.00  0.00     0.016 C 
HETATM   14  C3  UNL     1     -10.590 -25.342  -8.140  1.00  0.00     0.016 C 
HETATM   15  C4  UNL     1      -8.628 -25.652  -6.881  1.00  0.00     0.026 C 
HETATM   16  C5  UNL     1      -7.213 -25.249  -6.653  1.00  0.00     0.066 C 
HETATM   17 BR1  UNL     1      -6.436 -26.492  -5.377  1.00  0.00    -0.091 Br
HETATM   18  C6  UNL     1      -7.280 -23.869  -6.042  1.00  0.00     0.047 A 
HETATM   19  C7  UNL     1      -6.653 -22.728  -6.865  1.00  0.00     0.069 A 
HETATM   20  C9  UNL     1      -8.083 -22.896  -6.753  1.00  0.00     0.013 A 
HETATM   21  C8  UNL     1      -5.664 -23.205  -7.845  1.00  0.00     0.047 C 
HETATM   22  C10 UNL     1      -8.717 -21.800  -5.859  1.00  0.00     0.020 C 
HETATM   23 BR2  UNL     1     -10.868 -22.931  -7.124  1.00  0.00    -0.084 Br
BRANCH  19  24
HETATM   24  O1  UNL     1      -6.015 -21.802  -5.986  1.00  0.00    -0.389 OA
ATOM     25  H1  UNL     1      -6.558 -21.028  -5.894  1.00  0.00     0.210 HD
ENDBRANCH  19  24
ENDBRANCH  10  11
ENDBRANCH   9  10
ENDBRANCH   1   9
BRANCH   7  26
HETATM   26  C16 UNL     1      -9.325 -25.393 -12.843  1.00  0.00     0.281 C 
BRANCH  26  27
HETATM   27  O3  UNL     1      -9.335 -26.194 -14.002  1.00  0.00    -0.311 OA
BRANCH  27  28
HETATM   28  C17 UNL     1      -8.582 -25.946 -15.130  1.00  0.00     0.285 C 
HETATM   29  O4  UNL     1      -7.886 -26.844 -15.630  1.00  0.00    -0.263 OA
BRANCH  28  30
HETATM   30  C18 UNL     1      -8.623 -24.577 -15.736  1.00  0.00     0.348 C 
BRANCH  30  31
HETATM   31  N4  UNL     1      -9.790 -24.431 -16.571  1.00  0.00    -0.054 N 
HETATM   32  C19 UNL     1     -10.494 -23.217 -16.167  1.00  0.00     0.274 C 
HETATM   33  C20 UNL     1     -10.664 -25.595 -16.486  1.00  0.00     0.274 C 
BRANCH  31  34
HETATM   34  C21 UNL     1      -9.353 -24.322 -17.947  1.00  0.00     0.350 C 
HETATM   35 CL1  UNL     1     -10.553 -25.040 -19.048  1.00  0.00    -0.101 Cl
ENDBRANCH  31  34
ENDBRANCH  30  31
ENDBRANCH  28  30
ENDBRANCH  27  28
ENDBRANCH  26  27
ENDBRANCH   7  26
TORSDOF 10
ENDMDL
MODEL 5
REMARK VINA RESULT: -7.587336927      6.925      9.968
REMARK  10 active torsions:
REMARK  status: ('A' for Active; 'I' for Inactive)
REMARK    1  A    between atoms: C7_8  and  O1_10 
REMARK    2  A    between atoms: C11_14  and  C12_16 
REMARK    3  A    between atoms: C12_16  and  C13_17 
REMARK    4  A    between atoms: C13_17  and  N1_18 
REMARK       I    between atoms: N1_18  and  C14_20 
REMARK       I    between atoms: N3_22  and  C15_24 
REMARK    5  A    between atoms: C15_24  and  C16_26 
REMARK    6  A    between atoms: C16_26  and  O3_27 
REMARK    7  A    between atoms: O3_27  and  C17_28 
REMARK    8  A    between atoms: C17_28  and  C18_30 
REMARK    9  A    between atoms: C18_30  and  N4_31 
REMARK   10  A    between atoms: N4_31  and  C21_34 
ROOT
HETATM    1  N1  UNL     1      -7.925 -27.785 -14.270  1.00  0.00    -0.364 N 
ATOM      2  H1  UNL     1      -8.136 -28.064 -13.312  1.00  0.00     0.162 HD
HETATM    3  C14 UNL     1      -7.055 -28.553 -15.070  1.00  0.00     0.190 C 
HETATM    4  N2  UNL     1      -7.070 -29.962 -14.917  1.00  0.00    -0.063 NA
HETATM    5  N3  UNL     1      -6.249 -28.045 -15.931  1.00  0.00    -0.299 N 
ATOM      6  H3  UNL     1      -6.248 -27.029 -16.030  1.00  0.00     0.171 HD
HETATM    7  C15 UNL     1      -5.373 -28.769 -16.741  1.00  0.00     0.248 C 
HETATM    8  O2  UNL     1      -4.139 -28.672 -16.569  1.00  0.00    -0.271 OA
ENDROOT
BRANCH   1   9
HETATM    9  C13 UNL     1      -8.513 -26.591 -14.841  1.00  0.00     0.124 C 
BRANCH   9  10
HETATM   10  C12 UNL     1      -9.045 -25.679 -13.794  1.00  0.00     0.042 C 
BRANCH  10  11
HETATM   11  C11 UNL     1     -10.015 -24.640 -14.230  1.00  0.00     0.037 C 
HETATM   12  C2  UNL     1     -11.438 -24.849 -13.887  1.00  0.00    -0.028 C 
HETATM   13  C1  UNL     1     -11.746 -25.675 -12.680  1.00  0.00     0.016 C 
HETATM   14  C3  UNL     1     -12.264 -25.529 -15.002  1.00  0.00     0.016 C 
HETATM   15  C4  UNL     1     -12.208 -23.517 -13.787  1.00  0.00     0.026 C 
HETATM   16  C5  UNL     1     -11.523 -22.707 -12.741  1.00  0.00     0.066 C 
HETATM   17 BR1  UNL     1     -12.631 -21.154 -12.368  1.00  0.00    -0.091 Br
HETATM   18  C6  UNL     1     -10.221 -22.263 -13.362  1.00  0.00     0.047 A 
HETATM   19  C7  UNL     1      -8.935 -22.783 -12.692  1.00  0.00     0.069 A 
HETATM   20  C9  UNL     1      -9.408 -23.307 -13.953  1.00  0.00     0.013 A 
HETATM   21  C8  UNL     1      -9.143 -23.196 -11.296  1.00  0.00     0.047 C 
HETATM   22  C10 UNL     1      -8.516 -22.847 -15.133  1.00  0.00     0.020 C 
HETATM   23 BR2  UNL     1     -10.018 -24.871 -16.205  1.00  0.00    -0.084 Br
BRANCH  19  24
HETATM   24  O1  UNL     1      -7.937 -21.763 -12.723  1.00  0.00    -0.389 OA
ATOM     25  H1  UNL     1      -7.513 -21.761 -13.573  1.00  0.00     0.210 HD
ENDBRANCH  19  24
ENDBRANCH  10  11
ENDBRANCH   9  10
ENDBRANCH   1   9
BRANCH   7  26
HETATM   26  C16 UNL     1      -5.887 -29.649 -17.800  1.00  0.00     0.281 C 
BRANCH  26  27
HETATM   27  O3  UNL     1      -4.922 -30.014 -18.759  1.00  0.00    -0.311 OA
BRANCH  27  28
HETATM   28  C17 UNL     1      -4.200 -31.188 -18.734  1.00  0.00     0.285 C 
HETATM   29  O4  UNL     1      -4.296 -31.964 -17.770  1.00  0.00    -0.263 OA
BRANCH  28  30
HETATM   30  C18 UNL     1      -3.301 -31.505 -19.890  1.00  0.00     0.348 C 
BRANCH  30  31
HETATM   31  N4  UNL     1      -1.920 -31.304 -19.525  1.00  0.00    -0.054 N 
HETATM   32  C19 UNL     1      -1.496 -32.428 -18.697  1.00  0.00     0.274 C 
HETATM   33  C20 UNL     1      -1.726 -30.037 -18.828  1.00  0.00     0.274 C 
BRANCH  31  34
HETATM   34  C21 UNL     1      -1.133 -31.249 -20.739  1.00  0.00     0.350 C 
HETATM   35 CL1  UNL     1      -0.795 -32.887 -21.346  1.00  0.00    -0.101 Cl
ENDBRANCH  31  34
ENDBRANCH  30  31
ENDBRANCH  28  30
ENDBRANCH  27  28
ENDBRANCH  26  27
ENDBRANCH   7  26
TORSDOF 10
ENDMDL
