MODEL 1
REMARK VINA RESULT: -8.844496404      0.000      0.000
REMARK  8 active torsions:
REMARK  status: ('A' for Active; 'I' for Inactive)
REMARK    1  A    between atoms: C4_5  and  C5_6 
REMARK    2  A    between atoms: C5_6  and  C6_7 
REMARK    3  A    between atoms: C6_7  and  C7_8 
REMARK    4  A    between atoms: C7_8  and  N2_9 
REMARK    5  A    between atoms: C12_15  and  S1_16 
REMARK    6  A    between atoms: S1_16  and  N3_17 
REMARK    7  A    between atoms: C13_22  and  C14_23 
REMARK    8  A    between atoms: N5_29  and  O3_30 
ROOT
HETATM    1  N2  UNL     1      -8.697 -26.358 -14.934  1.00  0.00    -0.341 N 
HETATM    2  C8  UNL     1      -9.028 -26.114 -16.211  1.00  0.00     0.111 A 
HETATM    3  C9  UNL     1      -9.784 -24.987 -16.521  1.00  0.00     0.027 A 
HETATM    4 BR1  UNL     1     -10.260 -24.633 -18.344  1.00  0.00    -0.050 Br
HETATM    5  C10 UNL     1     -10.196 -24.117 -15.529  1.00  0.00     0.037 A 
HETATM    6  C11 UNL     1      -9.855 -24.373 -14.229  1.00  0.00     0.035 A 
HETATM    7  C12 UNL     1     -10.058 -23.776 -12.989  1.00  0.00     0.117 A 
HETATM    8  C13 UNL     1      -9.442 -24.538 -12.017  1.00  0.00     0.060 A 
HETATM    9  N4  UNL     1      -8.868 -25.584 -12.640  1.00  0.00    -0.342 N 
ATOM     10  H4  UNL     1      -8.337 -26.323 -12.179  1.00  0.00     0.167 HD
HETATM   11  C15 UNL     1      -9.102 -25.505 -13.968  1.00  0.00     0.119 A 
ENDROOT
BRANCH   1  12
HETATM   12  C7  UNL     1      -7.901 -27.550 -14.617  1.00  0.00     0.130 C 
BRANCH  12  13
HETATM   13  C6  UNL     1      -7.208 -28.085 -15.828  1.00  0.00     0.026 C 
BRANCH  13  14
HETATM   14  C5  UNL     1      -6.773 -29.492 -15.621  1.00  0.00     0.061 C 
BRANCH  14  15
HETATM   15  C4  UNL     1      -5.765 -29.999 -16.550  1.00  0.00     0.040 A 
HETATM   16  C3  UNL     1      -5.361 -29.273 -17.650  1.00  0.00     0.029 A 
HETATM   17  C2  UNL     1      -4.410 -29.734 -18.542  1.00  0.00     0.030 A 
HETATM   18  C1  UNL     1      -3.871 -30.967 -18.288  1.00  0.00     0.064 A 
HETATM   19  N1  UNL     1      -2.889 -31.514 -19.152  1.00  0.00    -0.101 NA
HETATM   20  C16 UNL     1      -4.284 -31.671 -17.193  1.00  0.00     0.149 A 
HETATM   21  N5  UNL     1      -5.206 -31.220 -16.332  1.00  0.00    -0.238 N 
BRANCH  21  22
HETATM   22  O3  UNL     1      -5.591 -31.978 -15.233  1.00  0.00    -0.283 OA
ATOM     23  H3  UNL     1      -4.936 -32.421 -14.707  1.00  0.00     0.245 HD
ENDBRANCH  21  22
ENDBRANCH  14  15
ENDBRANCH  13  14
ENDBRANCH  12  13
ENDBRANCH   1  12
BRANCH   7  24
HETATM   24  S1  UNL     1     -10.957 -22.311 -12.779  1.00  0.00     0.259 S 
HETATM   25  O1  UNL     1     -12.394 -22.516 -12.423  1.00  0.00    -0.201 OA
HETATM   26  O2  UNL     1     -10.969 -21.549 -14.096  1.00  0.00    -0.201 OA
BRANCH  24  27
HETATM   27  N3  UNL     1     -10.214 -21.327 -11.603  1.00  0.00    -0.324 N 
ATOM     28  H32 UNL     1      -9.271 -20.950 -11.688  1.00  0.00     0.169 HD
ATOM     29  H31 UNL     1     -10.847 -21.177 -10.817  1.00  0.00     0.169 HD
ENDBRANCH  24  27
ENDBRANCH   7  24
BRANCH   8  30
HETATM   30  C14 UNL     1      -9.420 -24.246 -10.584  1.00  0.00     0.180 C 
HETATM   31 BR2  UNL     1      -8.128 -25.385  -9.657  1.00  0.00    -0.072 Br
HETATM   32 BR3  UNL     1     -11.168 -24.672  -9.839  1.00  0.00    -0.072 Br
ENDBRANCH   8  30
TORSDOF 8
ENDMDL
MODEL 2
REMARK VINA RESULT: -8.450796023      1.226      1.654
REMARK  8 active torsions:
REMARK  status: ('A' for Active; 'I' for Inactive)
REMARK    1  A    between atoms: C4_5  and  C5_6 
REMARK    2  A    between atoms: C5_6  and  C6_7 
REMARK    3  A    between atoms: C6_7  and  C7_8 
REMARK    4  A    between atoms: C7_8  and  N2_9 
REMARK    5  A    between atoms: C12_15  and  S1_16 
REMARK    6  A    between atoms: S1_16  and  N3_17 
REMARK    7  A    between atoms: C13_22  and  C14_23 
REMARK    8  A    between atoms: N5_29  and  O3_30 
ROOT
HETATM    1  N2  UNL     1      -8.721 -26.119 -14.929  1.00  0.00    -0.341 N 
HETATM    2  C8  UNL     1      -9.100 -25.816 -16.180  1.00  0.00     0.111 A 
HETATM    3  C9  UNL     1      -9.886 -24.691 -16.405  1.00  0.00     0.027 A 
HETATM    4 BR1  UNL     1     -10.430 -24.252 -18.191  1.00  0.00    -0.050 Br
HETATM    5  C10 UNL     1     -10.281 -23.882 -15.356  1.00  0.00     0.037 A 
HETATM    6  C11 UNL     1      -9.891 -24.197 -14.084  1.00  0.00     0.035 A 
HETATM    7  C12 UNL     1     -10.063 -23.670 -12.808  1.00  0.00     0.117 A 
HETATM    8  C13 UNL     1      -9.400 -24.469 -11.898  1.00  0.00     0.060 A 
HETATM    9  N4  UNL     1      -8.828 -25.468 -12.593  1.00  0.00    -0.342 N 
ATOM     10  H4  UNL     1      -8.268 -26.219 -12.190  1.00  0.00     0.167 HD
HETATM   11  C15 UNL     1      -9.109 -25.326 -13.907  1.00  0.00     0.119 A 
ENDROOT
BRANCH   1  12
HETATM   12  C7  UNL     1      -7.893 -27.309 -14.702  1.00  0.00     0.130 C 
BRANCH  12  13
HETATM   13  C6  UNL     1      -7.739 -28.118 -15.948  1.00  0.00     0.026 C 
BRANCH  13  14
HETATM   14  C5  UNL     1      -6.309 -28.431 -16.215  1.00  0.00     0.061 C 
BRANCH  14  15
HETATM   15  C4  UNL     1      -5.933 -29.841 -16.145  1.00  0.00     0.040 A 
HETATM   16  C3  UNL     1      -6.618 -30.737 -15.351  1.00  0.00     0.029 A 
HETATM   17  C2  UNL     1      -6.279 -32.075 -15.270  1.00  0.00     0.030 A 
HETATM   18  C1  UNL     1      -5.214 -32.489 -16.024  1.00  0.00     0.064 A 
HETATM   19  N1  UNL     1      -4.800 -33.845 -16.000  1.00  0.00    -0.101 NA
HETATM   20  C16 UNL     1      -4.548 -31.587 -16.804  1.00  0.00     0.149 A 
HETATM   21  N5  UNL     1      -4.880 -30.292 -16.880  1.00  0.00    -0.238 N 
BRANCH  21  22
HETATM   22  O3  UNL     1      -4.169 -29.415 -17.690  1.00  0.00    -0.283 OA
ATOM     23  H3  UNL     1      -4.476 -29.223 -18.569  1.00  0.00     0.245 HD
ENDBRANCH  21  22
ENDBRANCH  14  15
ENDBRANCH  13  14
ENDBRANCH  12  13
ENDBRANCH   1  12
BRANCH   7  24
HETATM   24  S1  UNL     1     -10.981 -22.236 -12.491  1.00  0.00     0.259 S 
HETATM   25  O1  UNL     1     -12.415 -22.486 -12.152  1.00  0.00    -0.201 OA
HETATM   26  O2  UNL     1     -11.004 -21.380 -13.750  1.00  0.00    -0.201 OA
BRANCH  24  27
HETATM   27  N3  UNL     1     -10.251 -21.331 -11.247  1.00  0.00    -0.324 N 
ATOM     28  H32 UNL     1      -9.296 -20.975 -11.284  1.00  0.00     0.169 HD
ATOM     29  H31 UNL     1     -10.904 -21.202 -10.474  1.00  0.00     0.169 HD
ENDBRANCH  24  27
ENDBRANCH   7  24
BRANCH   8  30
HETATM   30  C14 UNL     1      -9.335 -24.251 -10.453  1.00  0.00     0.180 C 
HETATM   31 BR2  UNL     1      -7.990 -25.408  -9.630  1.00  0.00    -0.072 Br
HETATM   32 BR3  UNL     1     -11.048 -24.751  -9.674  1.00  0.00    -0.072 Br
ENDBRANCH   8  30
TORSDOF 8
ENDMDL
MODEL 3
REMARK VINA RESULT: -8.034413222      4.829      7.204
REMARK  8 active torsions:
REMARK  status: ('A' for Active; 'I' for Inactive)
REMARK    1  A    between atoms: C4_5  and  C5_6 
REMARK    2  A    between atoms: C5_6  and  C6_7 
REMARK    3  A    between atoms: C6_7  and  C7_8 
REMARK    4  A    between atoms: C7_8  and  N2_9 
REMARK    5  A    between atoms: C12_15  and  S1_16 
REMARK    6  A    between atoms: S1_16  and  N3_17 
REMARK    7  A    between atoms: C13_22  and  C14_23 
REMARK    8  A    between atoms: N5_29  and  O3_30 
ROOT
HETATM    1  N2  UNL     1     -12.639 -21.365 -11.783  1.00  0.00    -0.341 N 
HETATM    2  C8  UNL     1     -13.794 -20.746 -11.493  1.00  0.00     0.111 A 
HETATM    3  C9  UNL     1     -14.433 -21.016 -10.287  1.00  0.00     0.027 A 
HETATM    4 BR1  UNL     1     -16.084 -20.134  -9.867  1.00  0.00    -0.050 Br
HETATM    5  C10 UNL     1     -13.893 -21.913  -9.385  1.00  0.00     0.037 A 
HETATM    6  C11 UNL     1     -12.715 -22.540  -9.687  1.00  0.00     0.035 A 
HETATM    7  C12 UNL     1     -11.873 -23.467  -9.082  1.00  0.00     0.117 A 
HETATM    8  C13 UNL     1     -10.800 -23.711  -9.916  1.00  0.00     0.060 A 
HETATM    9  N4  UNL     1     -10.972 -22.952 -11.013  1.00  0.00    -0.342 N 
ATOM     10  H4  UNL     1     -10.336 -22.920 -11.811  1.00  0.00     0.167 HD
HETATM   11  C15 UNL     1     -12.115 -22.240 -10.898  1.00  0.00     0.119 A 
ENDROOT
BRANCH   1  12
HETATM   12  C7  UNL     1     -11.973 -21.075 -13.058  1.00  0.00     0.130 C 
BRANCH  12  13
HETATM   13  C6  UNL     1     -12.317 -22.087 -14.101  1.00  0.00     0.026 C 
BRANCH  13  14
HETATM   14  C5  UNL     1     -11.364 -22.031 -15.242  1.00  0.00     0.061 C 
BRANCH  14  15
HETATM   15  C4  UNL     1     -10.504 -23.198 -15.422  1.00  0.00     0.040 A 
HETATM   16  C3  UNL     1     -10.706 -24.366 -14.717  1.00  0.00     0.029 A 
HETATM   17  C2  UNL     1      -9.903 -25.481 -14.872  1.00  0.00     0.030 A 
HETATM   18  C1  UNL     1      -8.876 -25.382 -15.772  1.00  0.00     0.064 A 
HETATM   19  N1  UNL     1      -8.005 -26.480 -15.993  1.00  0.00    -0.101 NA
HETATM   20  C16 UNL     1      -8.692 -24.218 -16.462  1.00  0.00     0.149 A 
HETATM   21  N5  UNL     1      -9.472 -23.140 -16.308  1.00  0.00    -0.238 N 
BRANCH  21  22
HETATM   22  O3  UNL     1      -9.241 -21.978 -17.035  1.00  0.00    -0.283 OA
ATOM     23  H3  UNL     1      -8.441 -21.882 -17.538  1.00  0.00     0.245 HD
ENDBRANCH  21  22
ENDBRANCH  14  15
ENDBRANCH  13  14
ENDBRANCH  12  13
ENDBRANCH   1  12
BRANCH   7  24
HETATM   24  S1  UNL     1     -12.190 -24.162  -7.528  1.00  0.00     0.259 S 
HETATM   25  O1  UNL     1     -11.759 -25.587  -7.392  1.00  0.00    -0.201 OA
HETATM   26  O2  UNL     1     -13.693 -24.168  -7.290  1.00  0.00    -0.201 OA
BRANCH  24  27
HETATM   27  N3  UNL     1     -11.463 -23.227  -6.304  1.00  0.00    -0.324 N 
ATOM     28  H32 UNL     1     -10.496 -22.903  -6.331  1.00  0.00     0.169 HD
ATOM     29  H31 UNL     1     -12.130 -23.045  -5.554  1.00  0.00     0.169 HD
ENDBRANCH  24  27
ENDBRANCH   7  24
BRANCH   8  30
HETATM   30  C14 UNL     1      -9.690 -24.622  -9.640  1.00  0.00     0.180 C 
HETATM   31 BR2  UNL     1      -8.274 -23.718  -8.638  1.00  0.00    -0.072 Br
HETATM   32 BR3  UNL     1      -8.904 -25.173 -11.334  1.00  0.00    -0.072 Br
ENDBRANCH   8  30
TORSDOF 8
ENDMDL
MODEL 4
REMARK VINA RESULT: -7.912959787      6.890      9.579
REMARK  8 active torsions:
REMARK  status: ('A' for Active; 'I' for Inactive)
REMARK    1  A    between atoms: C4_5  and  C5_6 
REMARK    2  A    between atoms: C5_6  and  C6_7 
REMARK    3  A    between atoms: C6_7  and  C7_8 
REMARK    4  A    between atoms: C7_8  and  N2_9 
REMARK    5  A    between atoms: C12_15  and  S1_16 
REMARK    6  A    between atoms: S1_16  and  N3_17 
REMARK    7  A    between atoms: C13_22  and  C14_23 
REMARK    8  A    between atoms: N5_29  and  O3_30 
ROOT
HETATM    1  N2  UNL     1      -7.008 -24.965  -8.354  1.00  0.00    -0.341 N 
HETATM    2  C8  UNL     1      -6.837 -23.646  -8.170  1.00  0.00     0.111 A 
HETATM    3  C9  UNL     1      -6.019 -23.197  -7.139  1.00  0.00     0.027 A 
HETATM    4 BR1  UNL     1      -5.771 -21.314  -6.872  1.00  0.00    -0.050 Br
HETATM    5  C10 UNL     1      -5.379 -24.093  -6.302  1.00  0.00     0.037 A 
HETATM    6  C11 UNL     1      -5.558 -25.435  -6.496  1.00  0.00     0.035 A 
HETATM    7  C12 UNL     1      -5.116 -26.614  -5.905  1.00  0.00     0.117 A 
HETATM    8  C13 UNL     1      -5.665 -27.687  -6.578  1.00  0.00     0.060 A 
HETATM    9  N4  UNL     1      -6.431 -27.186  -7.564  1.00  0.00    -0.342 N 
ATOM     10  H4  UNL     1      -6.967 -27.740  -8.232  1.00  0.00     0.167 HD
HETATM   11  C15 UNL     1      -6.381 -25.836  -7.534  1.00  0.00     0.119 A 
ENDROOT
BRANCH   1  12
HETATM   12  C7  UNL     1      -7.874 -25.428  -9.444  1.00  0.00     0.130 C 
BRANCH  12  13
HETATM   13  C6  UNL     1      -9.312 -25.432  -9.039  1.00  0.00     0.026 C 
BRANCH  13  14
HETATM   14  C5  UNL     1     -10.030 -24.249  -9.585  1.00  0.00     0.061 C 
BRANCH  14  15
HETATM   15  C4  UNL     1     -10.196 -24.207 -11.036  1.00  0.00     0.040 A 
HETATM   16  C3  UNL     1     -11.058 -25.059 -11.693  1.00  0.00     0.029 A 
HETATM   17  C2  UNL     1     -11.230 -25.036 -13.065  1.00  0.00     0.030 A 
HETATM   18  C1  UNL     1     -10.495 -24.116 -13.764  1.00  0.00     0.064 A 
HETATM   19  N1  UNL     1     -10.612 -24.025 -15.174  1.00  0.00    -0.101 NA
HETATM   20  C16 UNL     1      -9.647 -23.280 -13.095  1.00  0.00     0.149 A 
HETATM   21  N5  UNL     1      -9.484 -23.306 -11.766  1.00  0.00    -0.238 N 
BRANCH  21  22
HETATM   22  O3  UNL     1      -8.607 -22.433 -11.135  1.00  0.00    -0.283 OA
ATOM     23  H3  UNL     1      -8.720 -22.227 -10.214  1.00  0.00     0.245 HD
ENDBRANCH  21  22
ENDBRANCH  14  15
ENDBRANCH  13  14
ENDBRANCH  12  13
ENDBRANCH   1  12
BRANCH   7  24
HETATM   24  S1  UNL     1      -4.047 -26.649  -4.542  1.00  0.00     0.259 S 
HETATM   25  O1  UNL     1      -3.724 -28.023  -4.050  1.00  0.00    -0.201 OA
HETATM   26  O2  UNL     1      -4.721 -25.946  -3.373  1.00  0.00    -0.201 OA
BRANCH  24  27
HETATM   27  N3  UNL     1      -2.605 -25.819  -4.902  1.00  0.00    -0.324 N 
ATOM     28  H32 UNL     1      -1.738 -26.276  -5.184  1.00  0.00     0.169 HD
ATOM     29  H31 UNL     1      -2.739 -24.814  -4.794  1.00  0.00     0.169 HD
ENDBRANCH  24  27
ENDBRANCH   7  24
BRANCH   8  30
HETATM   30  C14 UNL     1      -5.442 -29.099  -6.268  1.00  0.00     0.180 C 
HETATM   31 BR2  UNL     1      -4.982 -30.106  -7.880  1.00  0.00    -0.072 Br
HETATM   32 BR3  UNL     1      -7.106 -29.857  -5.597  1.00  0.00    -0.072 Br
ENDBRANCH   8  30
TORSDOF 8
ENDMDL
MODEL 5
REMARK VINA RESULT: -7.855104369      5.220      7.413
REMARK  8 active torsions:
REMARK  status: ('A' for Active; 'I' for Inactive)
REMARK    1  A    between atoms: C4_5  and  C5_6 
REMARK    2  A    between atoms: C5_6  and  C6_7 
REMARK    3  A    between atoms: C6_7  and  C7_8 
REMARK    4  A    between atoms: C7_8  and  N2_9 
REMARK    5  A    between atoms: C12_15  and  S1_16 
REMARK    6  A    between atoms: S1_16  and  N3_17 
REMARK    7  A    between atoms: C13_22  and  C14_23 
REMARK    8  A    between atoms: N5_29  and  O3_30 
ROOT
HETATM    1  N2  UNL     1     -12.745 -21.937 -12.007  1.00  0.00    -0.341 N 
HETATM    2  C8  UNL     1     -13.806 -21.188 -11.665  1.00  0.00     0.111 A 
HETATM    3  C9  UNL     1     -14.217 -21.147 -10.336  1.00  0.00     0.027 A 
HETATM    4 BR1  UNL     1     -15.732 -20.079  -9.842  1.00  0.00    -0.050 Br
HETATM    5  C10 UNL     1     -13.545 -21.865  -9.365  1.00  0.00     0.037 A 
HETATM    6  C11 UNL     1     -12.465 -22.625  -9.721  1.00  0.00     0.035 A 
HETATM    7  C12 UNL     1     -11.554 -23.459  -9.080  1.00  0.00     0.117 A 
HETATM    8  C13 UNL     1     -10.664 -23.953 -10.013  1.00  0.00     0.060 A 
HETATM    9  N4  UNL     1     -11.014 -23.437 -11.205  1.00  0.00    -0.342 N 
ATOM     10  H4  UNL     1     -10.538 -23.622 -12.088  1.00  0.00     0.167 HD
HETATM   11  C15 UNL     1     -12.092 -22.637 -11.055  1.00  0.00     0.119 A 
ENDROOT
BRANCH   1  12
HETATM   12  C7  UNL     1     -12.321 -21.975 -13.411  1.00  0.00     0.130 C 
BRANCH  12  13
HETATM   13  C6  UNL     1     -11.929 -20.620 -13.903  1.00  0.00     0.026 C 
BRANCH  13  14
HETATM   14  C5  UNL     1     -10.504 -20.592 -14.328  1.00  0.00     0.061 C 
BRANCH  14  15
HETATM   15  C4  UNL     1      -9.974 -21.829 -14.897  1.00  0.00     0.040 A 
HETATM   16  C3  UNL     1     -10.388 -22.298 -16.126  1.00  0.00     0.029 A 
HETATM   17  C2  UNL     1      -9.901 -23.467 -16.682  1.00  0.00     0.030 A 
HETATM   18  C1  UNL     1      -8.971 -24.157 -15.952  1.00  0.00     0.064 A 
HETATM   19  N1  UNL     1      -8.419 -25.365 -16.450  1.00  0.00    -0.101 NA
HETATM   20  C16 UNL     1      -8.573 -23.676 -14.738  1.00  0.00     0.149 A 
HETATM   21  N5  UNL     1      -9.048 -22.544 -14.203  1.00  0.00    -0.238 N 
BRANCH  21  22
HETATM   22  O3  UNL     1      -8.609 -22.098 -12.962  1.00  0.00    -0.283 OA
ATOM     23  H3  UNL     1      -8.921 -22.516 -12.168  1.00  0.00     0.245 HD
ENDBRANCH  21  22
ENDBRANCH  14  15
ENDBRANCH  13  14
ENDBRANCH  12  13
ENDBRANCH   1  12
BRANCH   7  24
HETATM   24  S1  UNL     1     -11.596 -23.780  -7.379  1.00  0.00     0.259 S 
HETATM   25  O1  UNL     1     -12.909 -23.483  -6.730  1.00  0.00    -0.201 OA
HETATM   26  O2  UNL     1     -10.586 -22.878  -6.685  1.00  0.00    -0.201 OA
BRANCH  24  27
HETATM   27  N3  UNL     1     -11.162 -25.397  -7.073  1.00  0.00    -0.324 N 
ATOM     28  H32 UNL     1     -11.348 -26.170  -7.712  1.00  0.00     0.169 HD
ATOM     29  H31 UNL     1     -10.695 -25.473  -6.169  1.00  0.00     0.169 HD
ENDBRANCH  24  27
ENDBRANCH   7  24
BRANCH   8  30
HETATM   30  C14 UNL     1      -9.551 -24.860  -9.739  1.00  0.00     0.180 C 
HETATM   31 BR2  UNL     1      -8.114 -23.939  -8.783  1.00  0.00    -0.072 Br
HETATM   32 BR3  UNL     1      -8.798 -25.448 -11.436  1.00  0.00    -0.072 Br
ENDBRANCH   8  30
TORSDOF 8
ENDMDL
