MODEL 1
REMARK VINA RESULT: -5.010230431      0.000      0.000
REMARK  4 active torsions:
REMARK  status: ('A' for Active; 'I' for Inactive)
REMARK    1  A    between atoms: N1_2  and  N2_4 
REMARK    2  A    between atoms: N2_4  and  C3_6 
REMARK    3  A    between atoms: C3_6  and  C4_7 
REMARK    4  A    between atoms: C7_10  and  N3_11 
ROOT
HETATM    1  C4  UNL     1     -29.388  47.290 -23.176  1.00  0.00     0.031 C 
HETATM    2  C5  UNL     1     -29.369  48.501 -22.272  1.00  0.00     0.010 C 
HETATM    3  C6  UNL     1     -28.568  47.763 -21.221  1.00  0.00     0.034 C 
HETATM    4  C7  UNL     1     -28.448  46.619 -22.187  1.00  0.00     0.188 C 
ENDROOT
BRANCH   1   5
HETATM    5  C3  UNL     1     -28.740  47.601 -24.504  1.00  0.00     0.119 C 
BRANCH   5   6
HETATM    6  N2  UNL     1     -28.940  46.461 -25.422  1.00  0.00    -0.240 NA
HETATM    7  C2  UNL     1     -27.818  46.579 -26.362  1.00  0.00     0.135 C 
BRANCH   6   8
HETATM    8  N1  UNL     1     -30.149  46.752 -26.085  1.00  0.00    -0.359 N 
HETATM    9  C1  UNL     1     -31.030  45.645 -26.243  1.00  0.00     0.161 C 
ATOM     10  H1  UNL     1     -30.376  47.686 -26.426  1.00  0.00     0.173 HD
ENDBRANCH   6   8
ENDBRANCH   5   6
ENDBRANCH   1   5
BRANCH   4  11
HETATM   11  N3  UNL     1     -27.090  46.423 -22.646  1.00  0.00    -0.075 N 
ATOM     12  H33 UNL     1     -26.471  47.100 -22.200  1.00  0.00     0.274 HD
ATOM     13  H32 UNL     1     -26.716  45.554 -22.264  1.00  0.00     0.274 HD
ATOM     14  H31 UNL     1     -26.958  46.444 -23.657  1.00  0.00     0.274 HD
ENDBRANCH   4  11
TORSDOF 4
ENDMDL
MODEL 2
REMARK VINA RESULT: -4.744424636      0.727      1.550
REMARK  4 active torsions:
REMARK  status: ('A' for Active; 'I' for Inactive)
REMARK    1  A    between atoms: N1_2  and  N2_4 
REMARK    2  A    between atoms: N2_4  and  C3_6 
REMARK    3  A    between atoms: C3_6  and  C4_7 
REMARK    4  A    between atoms: C7_10  and  N3_11 
ROOT
HETATM    1  C4  UNL     1     -29.400  47.294 -23.055  1.00  0.00     0.031 C 
HETATM    2  C5  UNL     1     -29.406  48.530 -22.187  1.00  0.00     0.010 C 
HETATM    3  C6  UNL     1     -28.638  47.823 -21.091  1.00  0.00     0.034 C 
HETATM    4  C7  UNL     1     -28.491  46.651 -22.020  1.00  0.00     0.188 C 
ENDROOT
BRANCH   1   5
HETATM    5  C3  UNL     1     -28.712  47.566 -24.371  1.00  0.00     0.119 C 
BRANCH   5   6
HETATM    6  N2  UNL     1     -29.705  47.492 -25.463  1.00  0.00    -0.240 NA
HETATM    7  C2  UNL     1     -30.417  46.236 -25.193  1.00  0.00     0.135 C 
BRANCH   6   8
HETATM    8  N1  UNL     1     -28.930  47.358 -26.633  1.00  0.00    -0.359 N 
HETATM    9  C1  UNL     1     -27.733  46.603 -26.478  1.00  0.00     0.161 C 
ATOM     10  H1  UNL     1     -29.206  47.772 -27.524  1.00  0.00     0.173 HD
ENDBRANCH   6   8
ENDBRANCH   5   6
ENDBRANCH   1   5
BRANCH   4  11
HETATM   11  N3  UNL     1     -27.120  46.442 -22.432  1.00  0.00    -0.075 N 
ATOM     12  H33 UNL     1     -26.485  46.877 -21.763  1.00  0.00     0.274 HD
ATOM     13  H32 UNL     1     -26.867  45.461 -22.311  1.00  0.00     0.274 HD
ATOM     14  H31 UNL     1     -26.891  46.747 -23.378  1.00  0.00     0.274 HD
ENDBRANCH   4  11
TORSDOF 4
ENDMDL
MODEL 3
REMARK VINA RESULT: -4.714577241      1.562      4.039
REMARK  4 active torsions:
REMARK  status: ('A' for Active; 'I' for Inactive)
REMARK    1  A    between atoms: N1_2  and  N2_4 
REMARK    2  A    between atoms: N2_4  and  C3_6 
REMARK    3  A    between atoms: C3_6  and  C4_7 
REMARK    4  A    between atoms: C7_10  and  N3_11 
ROOT
HETATM    1  C4  UNL     1     -29.441  47.716 -25.018  1.00  0.00     0.031 C 
HETATM    2  C5  UNL     1     -30.139  46.388 -25.203  1.00  0.00     0.010 C 
HETATM    3  C6  UNL     1     -29.442  46.153 -26.527  1.00  0.00     0.034 C 
HETATM    4  C7  UNL     1     -28.631  47.389 -26.262  1.00  0.00     0.188 C 
ENDROOT
BRANCH   1   5
HETATM    5  C3  UNL     1     -28.621  47.719 -23.751  1.00  0.00     0.119 C 
BRANCH   5   6
HETATM    6  N2  UNL     1     -29.433  47.169 -22.645  1.00  0.00    -0.240 NA
HETATM    7  C2  UNL     1     -29.687  48.340 -21.794  1.00  0.00     0.135 C 
BRANCH   6   8
HETATM    8  N1  UNL     1     -28.565  46.278 -21.982  1.00  0.00    -0.359 N 
HETATM    9  C1  UNL     1     -27.227  46.269 -22.469  1.00  0.00     0.161 C 
ATOM     10  H1  UNL     1     -28.872  45.685 -21.211  1.00  0.00     0.173 HD
ENDBRANCH   6   8
ENDBRANCH   5   6
ENDBRANCH   1   5
BRANCH   4  11
HETATM   11  N3  UNL     1     -27.232  47.095 -26.041  1.00  0.00    -0.075 N 
ATOM     12  H33 UNL     1     -26.807  47.828 -25.473  1.00  0.00     0.274 HD
ATOM     13  H32 UNL     1     -27.140  46.299 -25.409  1.00  0.00     0.274 HD
ATOM     14  H31 UNL     1     -26.675  46.939 -26.881  1.00  0.00     0.274 HD
ENDBRANCH   4  11
TORSDOF 4
ENDMDL
MODEL 4
REMARK VINA RESULT: -4.574830907      1.632      4.140
REMARK  4 active torsions:
REMARK  status: ('A' for Active; 'I' for Inactive)
REMARK    1  A    between atoms: N1_2  and  N2_4 
REMARK    2  A    between atoms: N2_4  and  C3_6 
REMARK    3  A    between atoms: C3_6  and  C4_7 
REMARK    4  A    between atoms: C7_10  and  N3_11 
ROOT
HETATM    1  C4  UNL     1     -28.087  46.985 -24.560  1.00  0.00     0.031 C 
HETATM    2  C5  UNL     1     -27.442  47.985 -25.492  1.00  0.00     0.010 C 
HETATM    3  C6  UNL     1     -28.064  47.328 -26.706  1.00  0.00     0.034 C 
HETATM    4  C7  UNL     1     -28.831  46.440 -25.768  1.00  0.00     0.188 C 
ENDROOT
BRANCH   1   5
HETATM    5  C3  UNL     1     -28.984  47.680 -23.566  1.00  0.00     0.119 C 
BRANCH   5   6
HETATM    6  N2  UNL     1     -28.154  48.463 -22.626  1.00  0.00    -0.240 NA
HETATM    7  C2  UNL     1     -27.275  47.452 -22.024  1.00  0.00     0.135 C 
BRANCH   6   8
HETATM    8  N1  UNL     1     -29.067  48.935 -21.662  1.00  0.00    -0.359 N 
HETATM    9  C1  UNL     1     -30.079  48.007 -21.286  1.00  0.00     0.161 C 
ATOM     10  H1  UNL     1     -29.007  49.872 -21.263  1.00  0.00     0.173 HD
ENDBRANCH   6   8
ENDBRANCH   5   6
ENDBRANCH   1   5
BRANCH   4  11
HETATM   11  N3  UNL     1     -30.254  46.702 -25.800  1.00  0.00    -0.075 N 
ATOM     12  H33 UNL     1     -30.569  47.025 -24.885  1.00  0.00     0.274 HD
ATOM     13  H32 UNL     1     -30.442  47.533 -26.361  1.00  0.00     0.274 HD
ATOM     14  H31 UNL     1     -30.839  45.928 -26.116  1.00  0.00     0.274 HD
ENDBRANCH   4  11
TORSDOF 4
ENDMDL
MODEL 5
REMARK VINA RESULT: -4.567250655      1.445      2.153
REMARK  4 active torsions:
REMARK  status: ('A' for Active; 'I' for Inactive)
REMARK    1  A    between atoms: N1_2  and  N2_4 
REMARK    2  A    between atoms: N2_4  and  C3_6 
REMARK    3  A    between atoms: C3_6  and  C4_7 
REMARK    4  A    between atoms: C7_10  and  N3_11 
ROOT
HETATM    1  C4  UNL     1     -28.756  47.977 -23.300  1.00  0.00     0.031 C 
HETATM    2  C5  UNL     1     -27.533  47.532 -22.532  1.00  0.00     0.010 C 
HETATM    3  C6  UNL     1     -28.146  47.957 -21.215  1.00  0.00     0.034 C 
HETATM    4  C7  UNL     1     -29.419  48.246 -21.958  1.00  0.00     0.188 C 
ENDROOT
BRANCH   1   5
HETATM    5  C3  UNL     1     -29.368  46.820 -24.051  1.00  0.00     0.119 C 
BRANCH   5   6
HETATM    6  N2  UNL     1     -29.802  47.282 -25.386  1.00  0.00    -0.240 NA
HETATM    7  C2  UNL     1     -30.416  46.086 -25.979  1.00  0.00     0.135 C 
BRANCH   6   8
HETATM    8  N1  UNL     1     -28.601  47.584 -26.060  1.00  0.00    -0.359 N 
HETATM    9  C1  UNL     1     -27.839  46.452 -26.466  1.00  0.00     0.161 C 
ATOM     10  H1  UNL     1     -28.301  48.542 -26.241  1.00  0.00     0.173 HD
ENDBRANCH   6   8
ENDBRANCH   5   6
ENDBRANCH   1   5
BRANCH   4  11
HETATM   11  N3  UNL     1     -30.488  47.342 -21.594  1.00  0.00    -0.075 N 
ATOM     12  H33 UNL     1     -31.291  47.487 -22.206  1.00  0.00     0.274 HD
ATOM     13  H32 UNL     1     -30.237  46.386 -21.848  1.00  0.00     0.274 HD
ATOM     14  H31 UNL     1     -30.784  47.377 -20.619  1.00  0.00     0.274 HD
ENDBRANCH   4  11
TORSDOF 4
ENDMDL
