MODEL 1
REMARK VINA RESULT: -5.055555947      0.000      0.000
REMARK  4 active torsions:
REMARK  status: ('A' for Active; 'I' for Inactive)
REMARK    1  A    between atoms: N1_1  and  C1_5 
REMARK    2  A    between atoms: C1_5  and  C2_6 
REMARK    3  A    between atoms: C2_6  and  C3_7 
REMARK    4  A    between atoms: C3_7  and  C4_8 
ROOT
HETATM    1  C4  UNL     1     -28.037  46.812 -23.918  1.00  0.00     0.147 C 
HETATM    2  C5  UNL     1     -29.384  46.727 -24.553  1.00  0.00     0.264 C 
HETATM    3  N2  UNL     1     -29.562  47.816 -25.502  1.00  0.00    -0.071 N 
ATOM      4  H21 UNL     1     -29.527  48.739 -25.069  1.00  0.00     0.277 HD
ATOM      5  H22 UNL     1     -30.512  47.883 -25.867  1.00  0.00     0.277 HD
HETATM    6  C6  UNL     1     -28.561  47.629 -26.537  1.00  0.00     0.258 C 
HETATM    7  C7  UNL     1     -27.526  46.616 -26.168  1.00  0.00     0.195 C 
HETATM    8  O1  UNL     1     -27.069  46.699 -24.880  1.00  0.00    -0.383 OA
ENDROOT
BRANCH   1   9
HETATM    9  C3  UNL     1     -27.796  48.028 -23.102  1.00  0.00     0.035 C 
BRANCH   9  10
HETATM   10  C2  UNL     1     -27.863  47.814 -21.615  1.00  0.00     0.030 C 
BRANCH  10  11
HETATM   11  C1  UNL     1     -29.274  47.673 -21.105  1.00  0.00     0.230 C 
BRANCH  11  12
HETATM   12  N1  UNL     1     -29.886  49.005 -21.215  1.00  0.00    -0.079 N 
ATOM     13  H13 UNL     1     -30.079  49.438 -20.312  1.00  0.00     0.274 HD
ATOM     14  H12 UNL     1     -29.245  49.718 -21.562  1.00  0.00     0.274 HD
ATOM     15  H11 UNL     1     -30.716  48.890 -21.796  1.00  0.00     0.274 HD
ENDBRANCH  11  12
ENDBRANCH  10  11
ENDBRANCH   9  10
ENDBRANCH   1   9
TORSDOF 4
ENDMDL
MODEL 2
REMARK VINA RESULT: -4.880725044      1.440      1.681
REMARK  4 active torsions:
REMARK  status: ('A' for Active; 'I' for Inactive)
REMARK    1  A    between atoms: N1_1  and  C1_5 
REMARK    2  A    between atoms: C1_5  and  C2_6 
REMARK    3  A    between atoms: C2_6  and  C3_7 
REMARK    4  A    between atoms: C3_7  and  C4_8 
ROOT
HETATM    1  C4  UNL     1     -28.477  47.549 -24.363  1.00  0.00     0.147 C 
HETATM    2  C5  UNL     1     -27.686  47.995 -25.546  1.00  0.00     0.264 C 
HETATM    3  N2  UNL     1     -27.086  46.848 -26.212  1.00  0.00    -0.071 N 
ATOM      4  H21 UNL     1     -26.426  46.340 -25.624  1.00  0.00     0.277 HD
ATOM      5  H22 UNL     1     -26.428  47.107 -26.948  1.00  0.00     0.277 HD
HETATM    6  C6  UNL     1     -28.184  46.026 -26.687  1.00  0.00     0.258 C 
HETATM    7  C7  UNL     1     -29.504  46.431 -26.112  1.00  0.00     0.195 C 
HETATM    8  O1  UNL     1     -29.487  46.720 -24.774  1.00  0.00    -0.383 OA
ENDROOT
BRANCH   1   9
HETATM    9  C3  UNL     1     -27.693  46.892 -23.287  1.00  0.00     0.035 C 
BRANCH   9  10
HETATM   10  C2  UNL     1     -27.742  47.588 -21.955  1.00  0.00     0.030 C 
BRANCH  10  11
HETATM   11  C1  UNL     1     -29.103  47.527 -21.310  1.00  0.00     0.230 C 
BRANCH  11  12
HETATM   12  N1  UNL     1     -29.547  48.920 -21.157  1.00  0.00    -0.079 N 
ATOM     13  H13 UNL     1     -28.791  49.564 -20.927  1.00  0.00     0.274 HD
ATOM     14  H12 UNL     1     -29.821  49.358 -22.037  1.00  0.00     0.274 HD
ATOM     15  H11 UNL     1     -30.294  48.906 -20.463  1.00  0.00     0.274 HD
ENDBRANCH  11  12
ENDBRANCH  10  11
ENDBRANCH   9  10
ENDBRANCH   1   9
TORSDOF 4
ENDMDL
MODEL 3
REMARK VINA RESULT: -4.854733106      1.876      4.291
REMARK  4 active torsions:
REMARK  status: ('A' for Active; 'I' for Inactive)
REMARK    1  A    between atoms: N1_1  and  C1_5 
REMARK    2  A    between atoms: C1_5  and  C2_6 
REMARK    3  A    between atoms: C2_6  and  C3_7 
REMARK    4  A    between atoms: C3_7  and  C4_8 
ROOT
HETATM    1  C4  UNL     1     -29.087  46.608 -23.409  1.00  0.00     0.147 C 
HETATM    2  C5  UNL     1     -27.699  46.628 -22.861  1.00  0.00     0.264 C 
HETATM    3  N2  UNL     1     -27.370  47.962 -22.377  1.00  0.00    -0.071 N 
ATOM      4  H21 UNL     1     -27.379  48.670 -23.111  1.00  0.00     0.277 HD
ATOM      5  H22 UNL     1     -26.389  48.065 -22.114  1.00  0.00     0.277 HD
HETATM    6  C6  UNL     1     -28.290  48.246 -21.291  1.00  0.00     0.258 C 
HETATM    7  C7  UNL     1     -29.418  47.268 -21.214  1.00  0.00     0.195 C 
HETATM    8  O1  UNL     1     -29.976  46.933 -22.419  1.00  0.00    -0.383 OA
ENDROOT
BRANCH   1   9
HETATM    9  C3  UNL     1     -29.313  47.473 -24.593  1.00  0.00     0.035 C 
BRANCH   9  10
HETATM   10  C2  UNL     1     -29.234  46.765 -25.917  1.00  0.00     0.030 C 
BRANCH  10  11
HETATM   11  C1  UNL     1     -27.842  46.753 -26.495  1.00  0.00     0.230 C 
BRANCH  11  12
HETATM   12  N1  UNL     1     -27.289  48.094 -26.262  1.00  0.00    -0.079 N 
ATOM     13  H13 UNL     1     -27.199  48.650 -27.113  1.00  0.00     0.274 HD
ATOM     14  H12 UNL     1     -27.930  48.719 -25.772  1.00  0.00     0.274 HD
ATOM     15  H11 UNL     1     -26.405  47.957 -25.772  1.00  0.00     0.274 HD
ENDBRANCH  11  12
ENDBRANCH  10  11
ENDBRANCH   9  10
ENDBRANCH   1   9
TORSDOF 4
ENDMDL
MODEL 4
REMARK VINA RESULT: -4.733483354      1.689      4.150
REMARK  4 active torsions:
REMARK  status: ('A' for Active; 'I' for Inactive)
REMARK    1  A    between atoms: N1_1  and  C1_5 
REMARK    2  A    between atoms: C1_5  and  C2_6 
REMARK    3  A    between atoms: C2_6  and  C3_7 
REMARK    4  A    between atoms: C3_7  and  C4_8 
ROOT
HETATM    1  C4  UNL     1     -28.234  46.835 -23.733  1.00  0.00     0.147 C 
HETATM    2  C5  UNL     1     -27.354  46.483 -22.581  1.00  0.00     0.264 C 
HETATM    3  N2  UNL     1     -27.115  47.657 -21.753  1.00  0.00    -0.071 N 
ATOM      4  H21 UNL     1     -26.627  48.405 -22.246  1.00  0.00     0.277 HD
ATOM      5  H22 UNL     1     -26.415  47.504 -21.028  1.00  0.00     0.277 HD
HETATM    6  C6  UNL     1     -28.407  48.061 -21.229  1.00  0.00     0.258 C 
HETATM    7  C7  UNL     1     -29.550  47.375 -21.905  1.00  0.00     0.195 C 
HETATM    8  O1  UNL     1     -29.443  47.280 -23.267  1.00  0.00    -0.383 OA
ENDROOT
BRANCH   1   9
HETATM    9  C3  UNL     1     -27.668  47.823 -24.685  1.00  0.00     0.035 C 
BRANCH   9  10
HETATM   10  C2  UNL     1     -28.168  47.698 -26.097  1.00  0.00     0.030 C 
BRANCH  10  11
HETATM   11  C1  UNL     1     -28.816  46.366 -26.375  1.00  0.00     0.230 C 
BRANCH  11  12
HETATM   12  N1  UNL     1     -30.267  46.588 -26.288  1.00  0.00    -0.079 N 
ATOM     13  H13 UNL     1     -30.702  46.121 -25.492  1.00  0.00     0.274 HD
ATOM     14  H12 UNL     1     -30.516  47.541 -26.024  1.00  0.00     0.274 HD
ATOM     15  H11 UNL     1     -30.653  46.302 -27.187  1.00  0.00     0.274 HD
ENDBRANCH  11  12
ENDBRANCH  10  11
ENDBRANCH   9  10
ENDBRANCH   1   9
TORSDOF 4
ENDMDL
MODEL 5
REMARK VINA RESULT: -4.727363453      1.630      4.214
REMARK  4 active torsions:
REMARK  status: ('A' for Active; 'I' for Inactive)
REMARK    1  A    between atoms: N1_1  and  C1_5 
REMARK    2  A    between atoms: C1_5  and  C2_6 
REMARK    3  A    between atoms: C2_6  and  C3_7 
REMARK    4  A    between atoms: C3_7  and  C4_8 
ROOT
HETATM    1  C4  UNL     1     -27.907  46.740 -22.586  1.00  0.00     0.147 C 
HETATM    2  C5  UNL     1     -27.497  47.919 -21.769  1.00  0.00     0.264 C 
HETATM    3  N2  UNL     1     -28.365  49.053 -22.052  1.00  0.00    -0.071 N 
ATOM      4  H21 UNL     1     -28.315  49.367 -23.021  1.00  0.00     0.277 HD
ATOM      5  H22 UNL     1     -28.049  49.922 -21.620  1.00  0.00     0.277 HD
HETATM    6  C6  UNL     1     -29.702  48.662 -21.643  1.00  0.00     0.258 C 
HETATM    7  C7  UNL     1     -29.819  47.198 -21.362  1.00  0.00     0.195 C 
HETATM    8  O1  UNL     1     -29.190  46.384 -22.265  1.00  0.00    -0.383 OA
ENDROOT
BRANCH   1   9
HETATM    9  C3  UNL     1     -27.785  46.913 -24.055  1.00  0.00     0.035 C 
BRANCH   9  10
HETATM   10  C2  UNL     1     -29.078  46.801 -24.814  1.00  0.00     0.030 C 
BRANCH  10  11
HETATM   11  C1  UNL     1     -28.883  46.786 -26.308  1.00  0.00     0.230 C 
BRANCH  11  12
HETATM   12  N1  UNL     1     -27.434  46.876 -26.534  1.00  0.00    -0.079 N 
ATOM     13  H13 UNL     1     -26.882  46.763 -25.683  1.00  0.00     0.274 HD
ATOM     14  H12 UNL     1     -27.051  46.077 -27.039  1.00  0.00     0.274 HD
ATOM     15  H11 UNL     1     -27.274  47.766 -27.005  1.00  0.00     0.274 HD
ENDBRANCH  11  12
ENDBRANCH  10  11
ENDBRANCH   9  10
ENDBRANCH   1   9
TORSDOF 4
ENDMDL
