MODEL 1
REMARK VINA RESULT: -5.500871202      0.000      0.000
REMARK  4 active torsions:
REMARK  status: ('A' for Active; 'I' for Inactive)
REMARK    1  A    between atoms: C1_4  and  C2_5 
REMARK    2  A    between atoms: N2_6  and  C3_8 
REMARK    3  A    between atoms: C3_8  and  C4_9 
REMARK    4  A    between atoms: N3_11  and  O1_12 
ROOT
HETATM    1  C4  UNL     1     -28.411  47.192 -22.723  1.00  0.00     0.084 A 
HETATM    2  C5  UNL     1     -28.823  48.460 -22.389  1.00  0.00     0.177 A 
HETATM    3  N3  UNL     1     -29.698  48.373 -21.371  1.00  0.00    -0.158 N 
HETATM    4  N4  UNL     1     -29.816  47.090 -21.094  1.00  0.00    -0.216 N 
ATOM      5  H4  UNL     1     -30.413  46.704 -20.363  1.00  0.00     0.211 HD
HETATM    6  N5  UNL     1     -29.049  46.375 -21.897  1.00  0.00    -0.282 N 
ATOM      7  H5  UNL     1     -28.962  45.359 -21.884  1.00  0.00     0.188 HD
ENDROOT
BRANCH   1   8
HETATM    8  C3  UNL     1     -27.432  46.813 -23.808  1.00  0.00     0.120 C 
BRANCH   8   9
HETATM    9  N2  UNL     1     -27.619  47.596 -24.938  1.00  0.00    -0.372 N 
HETATM   10  C2  UNL     1     -28.333  47.547 -25.965  1.00  0.00     0.104 C 
ATOM     11  H2  UNL     1     -27.022  48.423 -24.931  1.00  0.00     0.164 HD
BRANCH  10  12
HETATM   12  C1  UNL     1     -29.285  46.536 -26.310  1.00  0.00     0.097 C 
HETATM   13  N1  UNL     1     -30.495  46.426 -25.920  1.00  0.00    -0.407 N 
ATOM     14  H12 UNL     1     -30.806  47.159 -25.282  1.00  0.00     0.155 HD
ATOM     15  H11 UNL     1     -31.174  45.705 -26.166  1.00  0.00     0.155 HD
ENDBRANCH  10  12
ENDBRANCH   8   9
ENDBRANCH   1   8
BRANCH   3  16
HETATM   16  O1  UNL     1     -30.352  49.430 -20.736  1.00  0.00    -0.267 OA
ATOM     17  H1  UNL     1     -30.971  49.369 -20.018  1.00  0.00     0.247 HD
ENDBRANCH   3  16
TORSDOF 4
ENDMDL
MODEL 2
REMARK VINA RESULT: -5.074537059      1.727      1.917
REMARK  4 active torsions:
REMARK  status: ('A' for Active; 'I' for Inactive)
REMARK    1  A    between atoms: C1_4  and  C2_5 
REMARK    2  A    between atoms: N2_6  and  C3_8 
REMARK    3  A    between atoms: C3_8  and  C4_9 
REMARK    4  A    between atoms: N3_11  and  O1_12 
ROOT
HETATM    1  C4  UNL     1     -29.156  47.170 -23.111  1.00  0.00     0.084 A 
HETATM    2  C5  UNL     1     -29.764  47.588 -21.951  1.00  0.00     0.177 A 
HETATM    3  N3  UNL     1     -28.811  47.889 -21.051  1.00  0.00    -0.158 N 
HETATM    4  N4  UNL     1     -27.657  47.662 -21.645  1.00  0.00    -0.216 N 
ATOM      5  H4  UNL     1     -26.743  47.798 -21.214  1.00  0.00     0.211 HD
HETATM    6  N5  UNL     1     -27.853  47.232 -22.878  1.00  0.00    -0.282 N 
ATOM      7  H5  UNL     1     -27.120  46.986 -23.543  1.00  0.00     0.188 HD
ENDROOT
BRANCH   1   8
HETATM    8  C3  UNL     1     -29.837  46.733 -24.385  1.00  0.00     0.120 C 
BRANCH   8   9
HETATM    9  N2  UNL     1     -29.449  47.530 -25.453  1.00  0.00    -0.372 N 
HETATM   10  C2  UNL     1     -28.545  47.504 -26.318  1.00  0.00     0.104 C 
ATOM     11  H2  UNL     1     -30.054  48.343 -25.560  1.00  0.00     0.164 HD
BRANCH  10  12
HETATM   12  C1  UNL     1     -27.521  46.516 -26.472  1.00  0.00     0.097 C 
HETATM   13  N1  UNL     1     -27.534  45.476 -27.211  1.00  0.00    -0.407 N 
ATOM     14  H12 UNL     1     -28.388  45.348 -27.753  1.00  0.00     0.155 HD
ATOM     15  H11 UNL     1     -26.804  44.772 -27.321  1.00  0.00     0.155 HD
ENDBRANCH  10  12
ENDBRANCH   8   9
ENDBRANCH   1   8
BRANCH   3  16
HETATM   16  O1  UNL     1     -29.006  48.350 -19.748  1.00  0.00    -0.267 OA
ATOM     17  H1  UNL     1     -28.349  48.421 -19.065  1.00  0.00     0.247 HD
ENDBRANCH   3  16
TORSDOF 4
ENDMDL
MODEL 3
REMARK VINA RESULT: -5.051305894      1.580      1.724
REMARK  4 active torsions:
REMARK  status: ('A' for Active; 'I' for Inactive)
REMARK    1  A    between atoms: C1_4  and  C2_5 
REMARK    2  A    between atoms: N2_6  and  C3_8 
REMARK    3  A    between atoms: C3_8  and  C4_9 
REMARK    4  A    between atoms: N3_11  and  O1_12 
ROOT
HETATM    1  C4  UNL     1     -29.297  47.482 -23.432  1.00  0.00     0.084 A 
HETATM    2  C5  UNL     1     -29.273  48.427 -22.435  1.00  0.00     0.177 A 
HETATM    3  N3  UNL     1     -29.169  47.800 -21.250  1.00  0.00    -0.158 N 
HETATM    4  N4  UNL     1     -29.131  46.510 -21.518  1.00  0.00    -0.216 N 
ATOM      5  H4  UNL     1     -29.054  45.771 -20.819  1.00  0.00     0.211 HD
HETATM    6  N5  UNL     1     -29.207  46.309 -22.821  1.00  0.00    -0.282 N 
ATOM      7  H5  UNL     1     -29.198  45.399 -23.282  1.00  0.00     0.188 HD
ENDROOT
BRANCH   1   8
HETATM    8  C3  UNL     1     -29.405  47.732 -24.917  1.00  0.00     0.120 C 
BRANCH   8   9
HETATM    9  N2  UNL     1     -28.152  47.717 -25.513  1.00  0.00    -0.372 N 
HETATM   10  C2  UNL     1     -27.517  46.943 -26.263  1.00  0.00     0.104 C 
ATOM     11  H2  UNL     1     -27.611  48.550 -25.282  1.00  0.00     0.164 HD
BRANCH  10  12
HETATM   12  C1  UNL     1     -27.960  45.687 -26.788  1.00  0.00     0.097 C 
HETATM   13  N1  UNL     1     -27.334  44.893 -27.566  1.00  0.00    -0.407 N 
ATOM     14  H12 UNL     1     -26.403  45.207 -27.839  1.00  0.00     0.155 HD
ATOM     15  H11 UNL     1     -27.651  43.998 -27.940  1.00  0.00     0.155 HD
ENDBRANCH  10  12
ENDBRANCH   8   9
ENDBRANCH   1   8
BRANCH   3  16
HETATM   16  O1  UNL     1     -29.113  48.394 -19.989  1.00  0.00    -0.267 OA
ATOM     17  H1  UNL     1     -29.355  49.286 -19.768  1.00  0.00     0.247 HD
ENDBRANCH   3  16
TORSDOF 4
ENDMDL
MODEL 4
REMARK VINA RESULT: -4.988005650      1.367      1.908
REMARK  4 active torsions:
REMARK  status: ('A' for Active; 'I' for Inactive)
REMARK    1  A    between atoms: C1_4  and  C2_5 
REMARK    2  A    between atoms: N2_6  and  C3_8 
REMARK    3  A    between atoms: C3_8  and  C4_9 
REMARK    4  A    between atoms: N3_11  and  O1_12 
ROOT
HETATM    1  C4  UNL     1     -29.333  47.737 -23.270  1.00  0.00     0.084 A 
HETATM    2  C5  UNL     1     -29.053  48.510 -22.169  1.00  0.00     0.177 A 
HETATM    3  N3  UNL     1     -28.947  47.707 -21.095  1.00  0.00    -0.158 N 
HETATM    4  N4  UNL     1     -29.157  46.481 -21.530  1.00  0.00    -0.216 N 
ATOM      5  H4  UNL     1     -29.143  45.645 -20.946  1.00  0.00     0.211 HD
HETATM    6  N5  UNL     1     -29.388  46.489 -22.830  1.00  0.00    -0.282 N 
ATOM      7  H5  UNL     1     -29.579  45.666 -23.403  1.00  0.00     0.188 HD
ENDROOT
BRANCH   1   8
HETATM    8  C3  UNL     1     -29.535  48.217 -24.687  1.00  0.00     0.120 C 
BRANCH   8   9
HETATM    9  N2  UNL     1     -29.960  47.180 -25.505  1.00  0.00    -0.372 N 
HETATM   10  C2  UNL     1     -29.415  46.324 -26.238  1.00  0.00     0.104 C 
ATOM     11  H2  UNL     1     -30.976  47.092 -25.511  1.00  0.00     0.164 HD
BRANCH  10  12
HETATM   12  C1  UNL     1     -28.014  46.150 -26.470  1.00  0.00     0.097 C 
HETATM   13  N1  UNL     1     -27.105  47.044 -26.524  1.00  0.00    -0.407 N 
ATOM     14  H12 UNL     1     -27.437  47.998 -26.381  1.00  0.00     0.155 HD
ATOM     15  H11 UNL     1     -26.106  46.919 -26.690  1.00  0.00     0.155 HD
ENDBRANCH  10  12
ENDBRANCH   8   9
ENDBRANCH   1   8
BRANCH   3  16
HETATM   16  O1  UNL     1     -28.671  48.094 -19.784  1.00  0.00    -0.267 OA
ATOM     17  H1  UNL     1     -28.969  47.668 -18.989  1.00  0.00     0.247 HD
ENDBRANCH   3  16
TORSDOF 4
ENDMDL
MODEL 5
REMARK VINA RESULT: -4.972436499      1.071      1.477
REMARK  4 active torsions:
REMARK  status: ('A' for Active; 'I' for Inactive)
REMARK    1  A    between atoms: C1_4  and  C2_5 
REMARK    2  A    between atoms: N2_6  and  C3_8 
REMARK    3  A    between atoms: C3_8  and  C4_9 
REMARK    4  A    between atoms: N3_11  and  O1_12 
ROOT
HETATM    1  C4  UNL     1     -28.416  47.217 -22.515  1.00  0.00     0.084 A 
HETATM    2  C5  UNL     1     -28.836  48.498 -22.248  1.00  0.00     0.177 A 
HETATM    3  N3  UNL     1     -29.806  48.448 -21.318  1.00  0.00    -0.158 N 
HETATM    4  N4  UNL     1     -29.971  47.174 -21.026  1.00  0.00    -0.216 N 
ATOM      5  H4  UNL     1     -30.643  46.813 -20.348  1.00  0.00     0.211 HD
HETATM    6  N5  UNL     1     -29.144  46.429 -21.737  1.00  0.00    -0.282 N 
ATOM      7  H5  UNL     1     -29.076  45.412 -21.694  1.00  0.00     0.188 HD
ENDROOT
BRANCH   1   8
HETATM    8  C3  UNL     1     -27.345  46.799 -23.493  1.00  0.00     0.120 C 
BRANCH   8   9
HETATM    9  N2  UNL     1     -27.905  46.221 -24.623  1.00  0.00    -0.372 N 
HETATM   10  C2  UNL     1     -28.205  46.599 -25.778  1.00  0.00     0.104 C 
ATOM     11  H2  UNL     1     -28.129  45.237 -24.475  1.00  0.00     0.164 HD
BRANCH  10  12
HETATM   12  C1  UNL     1     -28.032  47.906 -26.334  1.00  0.00     0.097 C 
HETATM   13  N1  UNL     1     -27.027  48.684 -26.223  1.00  0.00    -0.407 N 
ATOM     14  H12 UNL     1     -26.258  48.311 -25.665  1.00  0.00     0.155 HD
ATOM     15  H11 UNL     1     -26.904  49.616 -26.620  1.00  0.00     0.155 HD
ENDBRANCH  10  12
ENDBRANCH   8   9
ENDBRANCH   1   8
BRANCH   3  16
HETATM   16  O1  UNL     1     -30.499  49.529 -20.771  1.00  0.00    -0.267 OA
ATOM     17  H1  UNL     1     -31.365  49.512 -20.381  1.00  0.00     0.247 HD
ENDBRANCH   3  16
TORSDOF 4
ENDMDL
