MODEL 1
REMARK VINA RESULT: -4.851885153      0.000      0.000
REMARK  4 active torsions:
REMARK  status: ('A' for Active; 'I' for Inactive)
REMARK    1  A    between atoms: N1_2  and  C2_5 
REMARK    2  A    between atoms: C2_5  and  C3_6 
REMARK    3  A    between atoms: C3_6  and  N2_7 
REMARK    4  A    between atoms: C3_6  and  C4_11 
ROOT
HETATM    1  C3  UNL     1     -28.735  47.379 -24.750  1.00  0.00     0.218 C 
ENDROOT
BRANCH   1   2
HETATM    2  C2  UNL     1     -27.844  47.909 -25.871  1.00  0.00     0.264 C 
BRANCH   2   3
HETATM    3  N1  UNL     1     -27.058  46.792 -26.410  1.00  0.00    -0.077 N 
HETATM    4  C1  UNL     1     -27.937  45.719 -26.826  1.00  0.00     0.267 C 
ATOM      5  H12 UNL     1     -26.349  46.470 -25.751  1.00  0.00     0.276 HD
ATOM      6  H11 UNL     1     -26.437  47.091 -27.163  1.00  0.00     0.276 HD
ENDBRANCH   2   3
ENDBRANCH   1   2
BRANCH   1   7
HETATM    7  N2  UNL     1     -30.070  47.830 -25.073  1.00  0.00    -0.073 N 
ATOM      8  H23 UNL     1     -30.091  48.674 -25.645  1.00  0.00     0.274 HD
ATOM      9  H22 UNL     1     -30.559  47.225 -25.733  1.00  0.00     0.274 HD
ATOM     10  H21 UNL     1     -30.548  47.930 -24.177  1.00  0.00     0.274 HD
ENDBRANCH   1   7
BRANCH   1  11
HETATM   11  C4  UNL     1     -28.278  47.831 -23.412  1.00  0.00     0.076 C 
HETATM   12  C5  UNL     1     -28.211  46.758 -22.404  1.00  0.00     0.133 C 
HETATM   13  C6  UNL     1     -28.352  47.823 -21.356  1.00  0.00     0.065 C 
HETATM   14  O1  UNL     1     -29.589  46.730 -22.409  1.00  0.00    -0.379 OA
HETATM   15  C7  UNL     1     -29.363  48.087 -22.439  1.00  0.00     0.133 C 
ENDBRANCH   1  11
TORSDOF 4
ENDMDL
MODEL 2
REMARK VINA RESULT: -4.793988650      1.682      2.401
REMARK  4 active torsions:
REMARK  status: ('A' for Active; 'I' for Inactive)
REMARK    1  A    between atoms: N1_2  and  C2_5 
REMARK    2  A    between atoms: C2_5  and  C3_6 
REMARK    3  A    between atoms: C3_6  and  N2_7 
REMARK    4  A    between atoms: C3_6  and  C4_11 
ROOT
HETATM    1  C3  UNL     1     -28.457  47.326 -25.450  1.00  0.00     0.218 C 
ENDROOT
BRANCH   1   2
HETATM    2  C2  UNL     1     -29.365  46.653 -26.475  1.00  0.00     0.264 C 
BRANCH   2   3
HETATM    3  N1  UNL     1     -30.651  46.351 -25.833  1.00  0.00    -0.077 N 
HETATM    4  C1  UNL     1     -31.336  45.302 -26.560  1.00  0.00     0.267 C 
ATOM      5  H12 UNL     1     -31.231  47.183 -25.728  1.00  0.00     0.276 HD
ATOM      6  H11 UNL     1     -30.540  46.121 -24.846  1.00  0.00     0.276 HD
ENDBRANCH   2   3
ENDBRANCH   1   2
BRANCH   1   7
HETATM    7  N2  UNL     1     -27.109  47.098 -25.920  1.00  0.00    -0.073 N 
ATOM      8  H23 UNL     1     -26.839  46.115 -25.930  1.00  0.00     0.274 HD
ATOM      9  H22 UNL     1     -26.989  47.265 -26.919  1.00  0.00     0.274 HD
ATOM     10  H21 UNL     1     -26.513  47.681 -25.332  1.00  0.00     0.274 HD
ENDBRANCH   1   7
BRANCH   1  11
HETATM   11  C4  UNL     1     -28.686  46.811 -24.076  1.00  0.00     0.076 C 
HETATM   12  C5  UNL     1     -28.926  47.861 -23.070  1.00  0.00     0.133 C 
HETATM   13  C6  UNL     1     -28.454  46.886 -22.033  1.00  0.00     0.065 C 
HETATM   14  O1  UNL     1     -27.599  48.214 -23.189  1.00  0.00    -0.379 OA
HETATM   15  C7  UNL     1     -27.498  46.841 -23.195  1.00  0.00     0.133 C 
ENDBRANCH   1  11
TORSDOF 4
ENDMDL
MODEL 3
REMARK VINA RESULT: -4.606864188      1.564      2.173
REMARK  4 active torsions:
REMARK  status: ('A' for Active; 'I' for Inactive)
REMARK    1  A    between atoms: N1_2  and  C2_5 
REMARK    2  A    between atoms: C2_5  and  C3_6 
REMARK    3  A    between atoms: C3_6  and  N2_7 
REMARK    4  A    between atoms: C3_6  and  C4_11 
ROOT
HETATM    1  C3  UNL     1     -28.417  47.548 -24.466  1.00  0.00     0.218 C 
ENDROOT
BRANCH   1   2
HETATM    2  C2  UNL     1     -29.288  47.275 -25.689  1.00  0.00     0.264 C 
BRANCH   2   3
HETATM    3  N1  UNL     1     -30.424  46.441 -25.277  1.00  0.00    -0.077 N 
HETATM    4  C1  UNL     1     -30.913  45.675 -26.405  1.00  0.00     0.267 C 
ATOM      5  H12 UNL     1     -31.163  46.990 -24.840  1.00  0.00     0.276 HD
ATOM      6  H11 UNL     1     -30.191  45.845 -24.483  1.00  0.00     0.276 HD
ENDBRANCH   2   3
ENDBRANCH   1   2
BRANCH   1   7
HETATM    7  N2  UNL     1     -27.372  46.549 -24.506  1.00  0.00    -0.073 N 
ATOM      8  H23 UNL     1     -27.422  45.873 -23.745  1.00  0.00     0.274 HD
ATOM      9  H22 UNL     1     -27.474  45.879 -25.269  1.00  0.00     0.274 HD
ATOM     10  H21 UNL     1     -26.496  47.072 -24.534  1.00  0.00     0.274 HD
ENDBRANCH   1   7
BRANCH   1  11
HETATM   11  C4  UNL     1     -29.198  47.518 -23.205  1.00  0.00     0.076 C 
HETATM   12  C5  UNL     1     -28.830  48.572 -22.242  1.00  0.00     0.133 C 
HETATM   13  C6  UNL     1     -29.380  47.688 -21.162  1.00  0.00     0.065 C 
HETATM   14  O1  UNL     1     -27.641  47.904 -22.036  1.00  0.00    -0.379 OA
HETATM   15  C7  UNL     1     -28.524  46.848 -22.071  1.00  0.00     0.133 C 
ENDBRANCH   1  11
TORSDOF 4
ENDMDL
MODEL 4
REMARK VINA RESULT: -4.515834186      2.233      4.130
REMARK  4 active torsions:
REMARK  status: ('A' for Active; 'I' for Inactive)
REMARK    1  A    between atoms: N1_2  and  C2_5 
REMARK    2  A    between atoms: C2_5  and  C3_6 
REMARK    3  A    between atoms: C3_6  and  N2_7 
REMARK    4  A    between atoms: C3_6  and  C4_11 
ROOT
HETATM    1  C3  UNL     1     -28.069  47.237 -22.993  1.00  0.00     0.218 C 
ENDROOT
BRANCH   1   2
HETATM    2  C2  UNL     1     -27.746  48.302 -21.949  1.00  0.00     0.264 C 
BRANCH   2   3
HETATM    3  N1  UNL     1     -28.751  48.230 -20.881  1.00  0.00    -0.077 N 
HETATM    4  C1  UNL     1     -30.082  48.324 -21.444  1.00  0.00     0.267 C 
ATOM      5  H12 UNL     1     -28.592  48.933 -20.159  1.00  0.00     0.276 HD
ATOM      6  H11 UNL     1     -28.637  47.396 -20.306  1.00  0.00     0.276 HD
ENDBRANCH   2   3
ENDBRANCH   1   2
BRANCH   1   7
HETATM    7  N2  UNL     1     -27.276  46.084 -22.627  1.00  0.00    -0.073 N 
ATOM      8  H23 UNL     1     -27.146  45.418 -23.387  1.00  0.00     0.274 HD
ATOM      9  H22 UNL     1     -26.289  46.295 -22.481  1.00  0.00     0.274 HD
ATOM     10  H21 UNL     1     -27.736  45.687 -21.807  1.00  0.00     0.274 HD
ENDBRANCH   1   7
BRANCH   1  11
HETATM   11  C4  UNL     1     -27.802  47.708 -24.375  1.00  0.00     0.076 C 
HETATM   12  C5  UNL     1     -28.992  47.735 -25.244  1.00  0.00     0.133 C 
HETATM   13  C6  UNL     1     -28.059  47.632 -26.415  1.00  0.00     0.065 C 
HETATM   14  O1  UNL     1     -28.969  46.356 -25.240  1.00  0.00    -0.379 OA
HETATM   15  C7  UNL     1     -27.627  46.633 -25.376  1.00  0.00     0.133 C 
ENDBRANCH   1  11
TORSDOF 4
ENDMDL
MODEL 5
REMARK VINA RESULT: -4.500363699      2.374      4.225
REMARK  4 active torsions:
REMARK  status: ('A' for Active; 'I' for Inactive)
REMARK    1  A    between atoms: N1_2  and  C2_5 
REMARK    2  A    between atoms: C2_5  and  C3_6 
REMARK    3  A    between atoms: C3_6  and  N2_7 
REMARK    4  A    between atoms: C3_6  and  C4_11 
ROOT
HETATM    1  C3  UNL     1     -27.699  47.248 -23.112  1.00  0.00     0.218 C 
ENDROOT
BRANCH   1   2
HETATM    2  C2  UNL     1     -28.641  46.925 -21.956  1.00  0.00     0.264 C 
BRANCH   2   3
HETATM    3  N1  UNL     1     -28.837  48.142 -21.159  1.00  0.00    -0.077 N 
HETATM    4  C1  UNL     1     -30.192  48.628 -21.316  1.00  0.00     0.267 C 
ATOM      5  H12 UNL     1     -28.147  48.859 -21.380  1.00  0.00     0.276 HD
ATOM      6  H11 UNL     1     -28.594  47.999 -20.178  1.00  0.00     0.276 HD
ENDBRANCH   2   3
ENDBRANCH   1   2
BRANCH   1   7
HETATM    7  N2  UNL     1     -27.032  48.475 -22.735  1.00  0.00    -0.073 N 
ATOM      8  H23 UNL     1     -26.400  48.834 -23.450  1.00  0.00     0.274 HD
ATOM      9  H22 UNL     1     -27.651  49.285 -22.704  1.00  0.00     0.274 HD
ATOM     10  H21 UNL     1     -26.574  48.274 -21.846  1.00  0.00     0.274 HD
ENDBRANCH   1   7
BRANCH   1  11
HETATM   11  C4  UNL     1     -28.418  47.354 -24.407  1.00  0.00     0.076 C 
HETATM   12  C5  UNL     1     -28.072  46.299 -25.377  1.00  0.00     0.133 C 
HETATM   13  C6  UNL     1     -28.514  47.238 -26.459  1.00  0.00     0.065 C 
HETATM   14  O1  UNL     1     -26.835  46.894 -25.513  1.00  0.00    -0.379 OA
HETATM   15  C7  UNL     1     -27.650  48.003 -25.493  1.00  0.00     0.133 C 
ENDBRANCH   1  11
TORSDOF 4
ENDMDL
