MODEL 1
REMARK VINA RESULT: -5.014762566      0.000      0.000
REMARK  5 active torsions:
REMARK  status: ('A' for Active; 'I' for Inactive)
REMARK    1  A    between atoms: C2_2  and  C3_3 
REMARK    2  A    between atoms: C3_3  and  N1_4 
REMARK    3  A    between atoms: C3_3  and  C4_8 
REMARK    4  A    between atoms: C4_8  and  C5_9 
REMARK    5  A    between atoms: C6_13  and  C7_14 
ROOT
HETATM    1  C5  UNL     1     -27.915  46.846 -23.830  1.00  0.00     0.225 A 
HETATM    2  N2  UNL     1     -27.077  46.682 -22.662  1.00  0.00    -0.057 N 
ATOM      3  H21 UNL     1     -26.107  46.406 -22.510  1.00  0.00     0.278 HD
ATOM      4  H22 UNL     1     -27.041  46.009 -21.895  1.00  0.00     0.278 HD
HETATM    5  C6  UNL     1     -27.757  47.951 -22.877  1.00  0.00     0.267 A 
ENDROOT
BRANCH   1   6
HETATM    6  C4  UNL     1     -27.362  47.007 -25.198  1.00  0.00     0.072 C 
BRANCH   6   7
HETATM    7  C3  UNL     1     -28.295  46.762 -26.340  1.00  0.00     0.207 C 
BRANCH   7   8
HETATM    8  C2  UNL     1     -29.695  46.528 -25.958  1.00  0.00    -0.005 C 
HETATM    9  C1  UNL     1     -30.460  45.674 -26.616  1.00  0.00     0.009 C 
ENDBRANCH   7   8
BRANCH   7  10
HETATM   10  N1  UNL     1     -27.794  45.579 -27.067  1.00  0.00    -0.072 N 
ATOM     11  H13 UNL     1     -28.378  45.339 -27.868  1.00  0.00     0.275 HD
ATOM     12  H12 UNL     1     -26.930  45.771 -27.575  1.00  0.00     0.275 HD
ATOM     13  H11 UNL     1     -27.696  44.805 -26.410  1.00  0.00     0.275 HD
ENDBRANCH   7  10
ENDBRANCH   6   7
ENDBRANCH   1   6
BRANCH   5  14
HETATM   14  C7  UNL     1     -28.928  48.286 -22.055  1.00  0.00     0.057 A 
HETATM   15  N3  UNL     1     -28.963  48.286 -20.554  1.00  0.00    -0.364 N 
HETATM   16  C8  UNL     1     -30.092  48.618 -21.237  1.00  0.00     0.115 A 
ATOM     17  H3  UNL     1     -28.486  48.141 -19.664  1.00  0.00     0.165 HD
ENDBRANCH   5  14
TORSDOF 5
ENDMDL
MODEL 2
REMARK VINA RESULT: -4.892076106      1.615      4.801
REMARK  5 active torsions:
REMARK  status: ('A' for Active; 'I' for Inactive)
REMARK    1  A    between atoms: C2_2  and  C3_3 
REMARK    2  A    between atoms: C3_3  and  N1_4 
REMARK    3  A    between atoms: C3_3  and  C4_8 
REMARK    4  A    between atoms: C4_8  and  C5_9 
REMARK    5  A    between atoms: C6_13  and  C7_14 
ROOT
HETATM    1  C5  UNL     1     -28.898  47.194 -24.769  1.00  0.00     0.225 A 
HETATM    2  N2  UNL     1     -28.807  47.791 -26.084  1.00  0.00    -0.057 N 
ATOM      3  H21 UNL     1     -28.080  48.294 -26.593  1.00  0.00     0.278 HD
ATOM      4  H22 UNL     1     -29.222  48.611 -26.529  1.00  0.00     0.278 HD
HETATM    5  C6  UNL     1     -29.187  46.391 -25.964  1.00  0.00     0.267 A 
ENDROOT
BRANCH   1   6
HETATM    6  C4  UNL     1     -27.703  46.851 -23.959  1.00  0.00     0.072 C 
BRANCH   6   7
HETATM    7  C3  UNL     1     -27.887  46.772 -22.478  1.00  0.00     0.207 C 
BRANCH   7   8
HETATM    8  C2  UNL     1     -29.239  47.102 -22.002  1.00  0.00    -0.005 C 
HETATM    9  C1  UNL     1     -29.466  48.151 -21.231  1.00  0.00     0.009 C 
ENDBRANCH   7   8
BRANCH   7  10
HETATM   10  N1  UNL     1     -26.924  47.709 -21.867  1.00  0.00    -0.072 N 
ATOM     11  H13 UNL     1     -27.384  48.462 -21.354  1.00  0.00     0.275 HD
ATOM     12  H12 UNL     1     -26.418  47.294 -21.085  1.00  0.00     0.275 HD
ATOM     13  H11 UNL     1     -26.298  48.059 -22.593  1.00  0.00     0.275 HD
ENDBRANCH   7  10
ENDBRANCH   6   7
ENDBRANCH   1   6
BRANCH   5  14
HETATM   14  C7  UNL     1     -30.590  46.008 -26.177  1.00  0.00     0.057 A 
HETATM   15  N3  UNL     1     -31.054  44.727 -26.809  1.00  0.00    -0.364 N 
HETATM   16  C8  UNL     1     -31.984  45.628 -26.390  1.00  0.00     0.115 A 
ATOM     17  H3  UNL     1     -30.831  43.830 -27.241  1.00  0.00     0.165 HD
ENDBRANCH   5  14
TORSDOF 5
ENDMDL
MODEL 3
REMARK VINA RESULT: -4.646936223      2.644      5.499
REMARK  5 active torsions:
REMARK  status: ('A' for Active; 'I' for Inactive)
REMARK    1  A    between atoms: C2_2  and  C3_3 
REMARK    2  A    between atoms: C3_3  and  N1_4 
REMARK    3  A    between atoms: C3_3  and  C4_8 
REMARK    4  A    between atoms: C4_8  and  C5_9 
REMARK    5  A    between atoms: C6_13  and  C7_14 
ROOT
HETATM    1  C5  UNL     1     -30.595  45.877 -25.699  1.00  0.00     0.225 A 
HETATM    2  N2  UNL     1     -31.955  46.097 -26.146  1.00  0.00    -0.057 N 
ATOM      3  H21 UNL     1     -32.521  46.924 -26.334  1.00  0.00     0.278 HD
ATOM      4  H22 UNL     1     -32.876  45.968 -25.726  1.00  0.00     0.278 HD
HETATM    5  C6  UNL     1     -31.070  45.261 -26.945  1.00  0.00     0.267 A 
ENDROOT
BRANCH   1   6
HETATM    6  C4  UNL     1     -29.545  46.922 -25.782  1.00  0.00     0.072 C 
BRANCH   6   7
HETATM    7  C3  UNL     1     -28.205  46.583 -25.215  1.00  0.00     0.207 C 
BRANCH   7   8
HETATM    8  C2  UNL     1     -27.880  47.253 -23.947  1.00  0.00    -0.005 C 
HETATM    9  C1  UNL     1     -27.507  46.572 -22.877  1.00  0.00     0.009 C 
ENDBRANCH   7   8
BRANCH   7  10
HETATM   10  N1  UNL     1     -27.195  46.956 -26.225  1.00  0.00    -0.072 N 
ATOM     11  H13 UNL     1     -27.556  46.898 -27.177  1.00  0.00     0.275 HD
ATOM     12  H12 UNL     1     -26.983  47.954 -26.214  1.00  0.00     0.275 HD
ATOM     13  H11 UNL     1     -26.364  46.380 -26.088  1.00  0.00     0.275 HD
ENDBRANCH   7  10
ENDBRANCH   6   7
ENDBRANCH   1   6
BRANCH   5  14
HETATM   14  C7  UNL     1     -31.255  43.803 -26.931  1.00  0.00     0.057 A 
HETATM   15  N3  UNL     1     -30.643  42.842 -27.909  1.00  0.00    -0.364 N 
HETATM   16  C8  UNL     1     -31.439  42.354 -26.918  1.00  0.00     0.115 A 
ATOM     17  H3  UNL     1     -30.056  42.675 -28.726  1.00  0.00     0.165 HD
ENDBRANCH   5  14
TORSDOF 5
ENDMDL
MODEL 4
REMARK VINA RESULT: -4.526037169      2.362      5.684
REMARK  5 active torsions:
REMARK  status: ('A' for Active; 'I' for Inactive)
REMARK    1  A    between atoms: C2_2  and  C3_3 
REMARK    2  A    between atoms: C3_3  and  N1_4 
REMARK    3  A    between atoms: C3_3  and  C4_8 
REMARK    4  A    between atoms: C4_8  and  C5_9 
REMARK    5  A    between atoms: C6_13  and  C7_14 
ROOT
HETATM    1  C5  UNL     1     -30.798  45.799 -25.595  1.00  0.00     0.225 A 
HETATM    2  N2  UNL     1     -31.984  46.089 -26.372  1.00  0.00    -0.057 N 
ATOM      3  H21 UNL     1     -32.423  46.942 -26.717  1.00  0.00     0.278 HD
ATOM      4  H22 UNL     1     -32.987  46.039 -26.193  1.00  0.00     0.278 HD
HETATM    5  C6  UNL     1     -30.994  45.163 -26.904  1.00  0.00     0.267 A 
ENDROOT
BRANCH   1   6
HETATM    6  C4  UNL     1     -29.684  46.767 -25.439  1.00  0.00     0.072 C 
BRANCH   6   7
HETATM    7  C3  UNL     1     -28.987  46.792 -24.118  1.00  0.00     0.207 C 
BRANCH   7   8
HETATM    8  C2  UNL     1     -29.304  47.951 -23.270  1.00  0.00    -0.005 C 
HETATM    9  C1  UNL     1     -28.554  48.276 -22.231  1.00  0.00     0.009 C 
ENDBRANCH   7   8
BRANCH   7  10
HETATM   10  N1  UNL     1     -27.536  46.781 -24.389  1.00  0.00    -0.072 N 
ATOM     11  H13 UNL     1     -27.080  45.941 -24.032  1.00  0.00     0.275 HD
ATOM     12  H12 UNL     1     -27.325  46.648 -25.378  1.00  0.00     0.275 HD
ATOM     13  H11 UNL     1     -27.124  47.636 -24.014  1.00  0.00     0.275 HD
ENDBRANCH   7  10
ENDBRANCH   6   7
ENDBRANCH   1   6
BRANCH   5  14
HETATM   14  C7  UNL     1     -31.284  43.722 -26.901  1.00  0.00     0.057 A 
HETATM   15  N3  UNL     1     -30.706  42.718 -27.855  1.00  0.00    -0.364 N 
HETATM   16  C8  UNL     1     -31.574  42.291 -26.898  1.00  0.00     0.115 A 
ATOM     17  H3  UNL     1     -30.100  42.508 -28.648  1.00  0.00     0.165 HD
ENDBRANCH   5  14
TORSDOF 5
ENDMDL
MODEL 5
REMARK VINA RESULT: -4.399413290      1.997      2.465
REMARK  5 active torsions:
REMARK  status: ('A' for Active; 'I' for Inactive)
REMARK    1  A    between atoms: C2_2  and  C3_3 
REMARK    2  A    between atoms: C3_3  and  N1_4 
REMARK    3  A    between atoms: C3_3  and  C4_8 
REMARK    4  A    between atoms: C4_8  and  C5_9 
REMARK    5  A    between atoms: C6_13  and  C7_14 
ROOT
HETATM    1  C5  UNL     1     -29.120  46.565 -24.815  1.00  0.00     0.225 A 
HETATM    2  N2  UNL     1     -27.900  47.337 -24.721  1.00  0.00    -0.057 N 
ATOM      3  H21 UNL     1     -27.241  47.721 -25.398  1.00  0.00     0.278 HD
ATOM      4  H22 UNL     1     -26.950  47.140 -24.405  1.00  0.00     0.278 HD
HETATM    5  C6  UNL     1     -29.108  47.834 -24.077  1.00  0.00     0.267 A 
ENDROOT
BRANCH   1   6
HETATM    6  C4  UNL     1     -29.921  46.479 -26.062  1.00  0.00     0.072 C 
BRANCH   6   7
HETATM    7  C3  UNL     1     -31.038  45.487 -26.083  1.00  0.00     0.207 C 
BRANCH   7   8
HETATM    8  C2  UNL     1     -30.864  44.377 -27.033  1.00  0.00    -0.005 C 
HETATM    9  C1  UNL     1     -31.486  43.222 -26.871  1.00  0.00     0.009 C 
ENDBRANCH   7   8
BRANCH   7  10
HETATM   10  N1  UNL     1     -32.270  46.222 -26.429  1.00  0.00    -0.072 N 
ATOM     11  H13 UNL     1     -32.168  47.231 -26.311  1.00  0.00     0.275 HD
ATOM     12  H12 UNL     1     -32.460  46.215 -27.431  1.00  0.00     0.275 HD
ATOM     13  H11 UNL     1     -33.044  45.844 -25.883  1.00  0.00     0.275 HD
ENDBRANCH   7  10
ENDBRANCH   6   7
ENDBRANCH   1   6
BRANCH   5  14
HETATM   14  C7  UNL     1     -29.229  47.748 -22.615  1.00  0.00     0.057 A 
HETATM   15  N3  UNL     1     -29.100  48.902 -21.664  1.00  0.00    -0.364 N 
HETATM   16  C8  UNL     1     -29.348  47.662 -21.162  1.00  0.00     0.115 A 
ATOM     17  H3  UNL     1     -28.941  49.898 -21.508  1.00  0.00     0.165 HD
ENDBRANCH   5  14
TORSDOF 5
ENDMDL
