MODEL 1
REMARK VINA RESULT: -7.966347347      0.000      0.000
REMARK  14 active torsions:
REMARK  status: ('A' for Active; 'I' for Inactive)
REMARK    1  A    between atoms: N1_1  and  C1_4 
REMARK    2  A    between atoms: C2_7  and  N3_8 
REMARK    3  A    between atoms: N3_8  and  N4_10 
REMARK    4  A    between atoms: N8_22  and  C5_23 
REMARK    5  A    between atoms: C9_32  and  N12_33 
REMARK    6  A    between atoms: N12_33  and  C10_34 
REMARK    7  A    between atoms: N12_33  and  C12_38 
REMARK    8  A    between atoms: C10_34  and  C11_35 
REMARK    9  A    between atoms: C11_35  and  O2_36 
REMARK   10  A    between atoms: C12_38  and  C13_39 
REMARK   11  A    between atoms: C12_38  and  C14_42 
REMARK   12  A    between atoms: C13_39  and  O3_40 
REMARK   13  A    between atoms: C14_42  and  N13_43 
REMARK   14  A    between atoms: C14_42  and  O4_47 
ROOT
HETATM    1  C5  UNL     1      32.704-184.675  21.349  1.00  0.00     0.103 A 
HETATM    2  C6  UNL     1      32.669-185.879  20.642  1.00  0.00     0.122 A 
HETATM    3  N9  UNL     1      31.713-186.681  21.086  1.00  0.00    -0.359 N 
ATOM      4  H9  UNL     1      31.514-187.608  20.711  1.00  0.00     0.165 HD
HETATM    5  C7  UNL     1      31.044-186.105  22.095  1.00  0.00     0.104 A 
HETATM    6  C8  UNL     1      29.995-186.453  22.915  1.00  0.00     0.161 A 
HETATM    7  N10 UNL     1      29.385-187.720  22.712  1.00  0.00    -0.080 NA
HETATM    8  N11 UNL     1      29.614-185.566  23.842  1.00  0.00    -0.176 N 
ATOM      9  H11 UNL     1      28.836-185.824  24.449  1.00  0.00     0.185 HD
HETATM   10  C9  UNL     1      30.170-184.376  24.032  1.00  0.00     0.682 A 
HETATM   11  N14 UNL     1      31.195-184.007  23.248  1.00  0.00    -0.187 N 
ATOM     12  H14 UNL     1      31.619-183.091  23.398  1.00  0.00     0.184 HD
HETATM   13  C15 UNL     1      31.688-184.788  22.275  1.00  0.00     0.109 A 
ENDROOT
BRANCH   1  14
HETATM   14  N8  UNL     1      33.565-183.574  21.152  1.00  0.00    -0.232 N 
HETATM   15  N7  UNL     1      34.631-183.232  21.907  1.00  0.00    -0.234 N 
HETATM   16  N6  UNL     1      35.189-182.149  21.412  1.00  0.00    -0.279 N 
ATOM     17  H7  UNL     1      34.953-183.736  22.733  1.00  0.00     0.209 HD
HETATM   18  C4  UNL     1      34.526-181.750  20.339  1.00  0.00     0.150 A 
ATOM     19  H6  UNL     1      36.012-181.686  21.799  1.00  0.00     0.189 HD
HETATM   20  C3  UNL     1      34.795-180.660  19.538  1.00  0.00     0.290 C 
HETATM   21  C16 UNL     1      33.482-182.669  20.176  1.00  0.00     0.136 A 
HETATM   22  N5  UNL     1      34.330-180.444  18.292  1.00  0.00    -0.153 N 
HETATM   23  O1  UNL     1      35.555-179.812  20.078  1.00  0.00    -0.265 OA
HETATM   24  C2  UNL     1      33.548-181.239  17.511  1.00  0.00     0.701 C 
ATOM     25  H5  UNL     1      34.604-179.555  17.873  1.00  0.00     0.187 HD
HETATM   26  N2  UNL     1      32.640-182.166  17.918  1.00  0.00    -0.173 N 
HETATM   27  C1  UNL     1      32.518-182.653  19.174  1.00  0.00     0.146 C 
ATOM     28  H2  UNL     1      31.994-182.526  17.214  1.00  0.00     0.186 HD
BRANCH  24  29
HETATM   29  N3  UNL     1      33.701-181.084  16.240  1.00  0.00    -0.138 N 
ATOM     30  H3  UNL     1      34.632-180.937  15.849  1.00  0.00     0.205 HD
BRANCH  29  31
HETATM   31  N4  UNL     1      32.591-181.116  15.407  1.00  0.00    -0.331 N 
ATOM     32  H42 UNL     1      31.658-181.085  15.819  1.00  0.00     0.177 HD
ATOM     33  H41 UNL     1      32.720-181.170  14.397  1.00  0.00     0.177 HD
ENDBRANCH  29  31
ENDBRANCH  24  29
BRANCH  27  34
HETATM   34  N1  UNL     1      31.403-183.165  19.521  1.00  0.00    -0.383 N 
ATOM     35  H12 UNL     1      30.945-183.698  18.781  1.00  0.00     0.157 HD
ATOM     36  H11 UNL     1      31.072-183.008  20.473  1.00  0.00     0.157 HD
ENDBRANCH  27  34
ENDBRANCH   1  14
BRANCH  10  37
HETATM   37  N12 UNL     1      29.718-183.461  25.094  1.00  0.00    -0.204 N 
BRANCH  37  38
HETATM   38  C10 UNL     1      28.426-182.924  24.882  1.00  0.00     0.168 C 
BRANCH  38  39
HETATM   39  C11 UNL     1      27.248-183.580  25.505  1.00  0.00     0.184 C 
BRANCH  39  40
HETATM   40  O2  UNL     1      26.890-184.772  24.881  1.00  0.00    -0.399 OA
ATOM     41  H2  UNL     1      27.542-185.456  24.978  1.00  0.00     0.209 HD
ENDBRANCH  39  40
ENDBRANCH  38  39
ENDBRANCH  37  38
BRANCH  37  42
HETATM   42  C12 UNL     1      30.667-183.248  26.120  1.00  0.00     0.181 C 
BRANCH  42  43
HETATM   43  C13 UNL     1      31.073-181.755  26.199  1.00  0.00     0.194 C 
BRANCH  43  44
HETATM   44  O3  UNL     1      31.861-181.509  25.081  1.00  0.00    -0.399 OA
ATOM     45  H3  UNL     1      31.278-181.155  24.419  1.00  0.00     0.209 HD
ENDBRANCH  43  44
ENDBRANCH  42  43
BRANCH  42  46
HETATM   46  C14 UNL     1      30.457-183.732  27.486  1.00  0.00     0.341 C 
BRANCH  46  47
HETATM   47  N13 UNL     1      31.662-183.732  28.319  1.00  0.00    -0.051 N 
ATOM     48 3H13 UNL     1      32.498-183.717  27.735  1.00  0.00     0.277 HD
ATOM     49 2H13 UNL     1      31.765-182.835  28.794  1.00  0.00     0.277 HD
ATOM     50 1H13 UNL     1      31.710-184.498  28.990  1.00  0.00     0.277 HD
ENDBRANCH  46  47
BRANCH  46  51
HETATM   51  O4  UNL     1      29.771-184.916  27.603  1.00  0.00    -0.368 OA
ATOM     52  H4  UNL     1      28.901-184.931  27.222  1.00  0.00     0.212 HD
ENDBRANCH  46  51
ENDBRANCH  42  46
ENDBRANCH  37  42
ENDBRANCH  10  37
TORSDOF 14
ENDMDL
MODEL 2
REMARK VINA RESULT: -7.148018410      1.064      1.111
REMARK  14 active torsions:
REMARK  status: ('A' for Active; 'I' for Inactive)
REMARK    1  A    between atoms: N1_1  and  C1_4 
REMARK    2  A    between atoms: C2_7  and  N3_8 
REMARK    3  A    between atoms: N3_8  and  N4_10 
REMARK    4  A    between atoms: N8_22  and  C5_23 
REMARK    5  A    between atoms: C9_32  and  N12_33 
REMARK    6  A    between atoms: N12_33  and  C10_34 
REMARK    7  A    between atoms: N12_33  and  C12_38 
REMARK    8  A    between atoms: C10_34  and  C11_35 
REMARK    9  A    between atoms: C11_35  and  O2_36 
REMARK   10  A    between atoms: C12_38  and  C13_39 
REMARK   11  A    between atoms: C12_38  and  C14_42 
REMARK   12  A    between atoms: C13_39  and  O3_40 
REMARK   13  A    between atoms: C14_42  and  N13_43 
REMARK   14  A    between atoms: C14_42  and  O4_47 
ROOT
HETATM    1  C5  UNL     1      33.060-184.276  21.955  1.00  0.00     0.103 A 
HETATM    2  C6  UNL     1      33.120-185.449  21.200  1.00  0.00     0.122 A 
HETATM    3  N9  UNL     1      32.114-186.263  21.480  1.00  0.00    -0.359 N 
ATOM      4  H9  UNL     1      31.965-187.173  21.044  1.00  0.00     0.165 HD
HETATM    5  C7  UNL     1      31.316-185.726  22.414  1.00  0.00     0.104 A 
HETATM    6  C8  UNL     1      30.167-186.101  23.073  1.00  0.00     0.161 A 
HETATM    7  N10 UNL     1      29.590-187.355  22.738  1.00  0.00    -0.080 NA
HETATM    8  N11 UNL     1      29.666-185.251  23.977  1.00  0.00    -0.176 N 
ATOM      9  H11 UNL     1      28.815-185.529  24.464  1.00  0.00     0.185 HD
HETATM   10  C9  UNL     1      30.192-184.073  24.288  1.00  0.00     0.682 A 
HETATM   11  N14 UNL     1      31.312-183.678  23.663  1.00  0.00    -0.187 N 
ATOM     12  H14 UNL     1      31.712-182.770  23.906  1.00  0.00     0.184 HD
HETATM   13  C15 UNL     1      31.931-184.421  22.733  1.00  0.00     0.109 A 
ENDROOT
BRANCH   1  14
HETATM   14  N8  UNL     1      33.940-183.172  21.920  1.00  0.00    -0.232 N 
HETATM   15  N7  UNL     1      34.849-182.829  22.857  1.00  0.00    -0.234 N 
HETATM   16  N6  UNL     1      35.485-181.744  22.474  1.00  0.00    -0.279 N 
ATOM     17  H7  UNL     1      35.016-183.333  23.728  1.00  0.00     0.209 HD
HETATM   18  C4  UNL     1      35.028-181.344  21.298  1.00  0.00     0.150 A 
ATOM     19  H6  UNL     1      36.222-181.279  23.005  1.00  0.00     0.189 HD
HETATM   20  C3  UNL     1      35.436-180.253  20.561  1.00  0.00     0.290 C 
HETATM   21  C16 UNL     1      34.035-182.266  20.946  1.00  0.00     0.136 A 
HETATM   22  N5  UNL     1      35.207-180.036  19.251  1.00  0.00    -0.153 N 
HETATM   23  O1  UNL     1      36.083-179.403  21.231  1.00  0.00    -0.265 OA
HETATM   24  C2  UNL     1      34.583-180.832  18.339  1.00  0.00     0.701 C 
ATOM     25  H5  UNL     1      35.550-179.145  18.890  1.00  0.00     0.187 HD
HETATM   26  N2  UNL     1      33.618-181.762  18.572  1.00  0.00    -0.173 N 
HETATM   27  C1  UNL     1      33.270-182.250  19.784  1.00  0.00     0.146 C 
ATOM     28  H2  UNL     1      33.113-182.122  17.762  1.00  0.00     0.186 HD
BRANCH  24  29
HETATM   29  N3  UNL     1      34.965-180.674  17.119  1.00  0.00    -0.138 N 
ATOM     30  H3  UNL     1      35.570-179.892  16.867  1.00  0.00     0.205 HD
BRANCH  29  31
HETATM   31  N4  UNL     1      34.548-181.575  16.147  1.00  0.00    -0.331 N 
ATOM     32  H42 UNL     1      33.861-182.288  16.392  1.00  0.00     0.177 HD
ATOM     33  H41 UNL     1      34.932-181.513  15.205  1.00  0.00     0.177 HD
ENDBRANCH  29  31
ENDBRANCH  24  29
BRANCH  27  34
HETATM   34  N1  UNL     1      32.112-182.766  19.922  1.00  0.00    -0.383 N 
ATOM     35  H12 UNL     1      31.468-182.544  19.162  1.00  0.00     0.157 HD
ATOM     36  H11 UNL     1      31.929-183.337  20.747  1.00  0.00     0.157 HD
ENDBRANCH  27  34
ENDBRANCH   1  14
BRANCH  10  37
HETATM   37  N12 UNL     1      29.603-183.199  25.317  1.00  0.00    -0.204 N 
BRANCH  37  38
HETATM   38  C10 UNL     1      28.317-182.708  24.990  1.00  0.00     0.168 C 
BRANCH  38  39
HETATM   39  C11 UNL     1      27.112-183.419  25.489  1.00  0.00     0.184 C 
BRANCH  39  40
HETATM   40  O2  UNL     1      26.968-184.697  24.955  1.00  0.00    -0.399 OA
ATOM     41  H2  UNL     1      26.906-185.375  25.617  1.00  0.00     0.209 HD
ENDBRANCH  39  40
ENDBRANCH  38  39
ENDBRANCH  37  38
BRANCH  37  42
HETATM   42  C12 UNL     1      30.439-182.973  26.434  1.00  0.00     0.181 C 
BRANCH  42  43
HETATM   43  C13 UNL     1      30.413-181.482  26.854  1.00  0.00     0.194 C 
BRANCH  43  44
HETATM   44  O3  UNL     1      29.739-181.433  28.067  1.00  0.00    -0.399 OA
ATOM     45  H3  UNL     1      28.828-181.622  27.872  1.00  0.00     0.209 HD
ENDBRANCH  43  44
ENDBRANCH  42  43
BRANCH  42  46
HETATM   46  C14 UNL     1      30.351-183.786  27.649  1.00  0.00     0.341 C 
BRANCH  46  47
HETATM   47  N13 UNL     1      31.601-183.878  28.407  1.00  0.00    -0.051 N 
ATOM     48 3H13 UNL     1      32.391-184.010  27.775  1.00  0.00     0.277 HD
ATOM     49 2H13 UNL     1      31.845-182.970  28.803  1.00  0.00     0.277 HD
ATOM     50 1H13 UNL     1      31.602-184.595  29.132  1.00  0.00     0.277 HD
ENDBRANCH  46  47
BRANCH  46  51
HETATM   51  O4  UNL     1      29.764-185.019  27.504  1.00  0.00    -0.368 OA
ATOM     52  H4  UNL     1      29.289-185.344  28.259  1.00  0.00     0.212 HD
ENDBRANCH  46  51
ENDBRANCH  42  46
ENDBRANCH  37  42
ENDBRANCH  10  37
TORSDOF 14
ENDMDL
MODEL 3
REMARK VINA RESULT: -7.052045962      0.975      2.190
REMARK  14 active torsions:
REMARK  status: ('A' for Active; 'I' for Inactive)
REMARK    1  A    between atoms: N1_1  and  C1_4 
REMARK    2  A    between atoms: C2_7  and  N3_8 
REMARK    3  A    between atoms: N3_8  and  N4_10 
REMARK    4  A    between atoms: N8_22  and  C5_23 
REMARK    5  A    between atoms: C9_32  and  N12_33 
REMARK    6  A    between atoms: N12_33  and  C10_34 
REMARK    7  A    between atoms: N12_33  and  C12_38 
REMARK    8  A    between atoms: C10_34  and  C11_35 
REMARK    9  A    between atoms: C11_35  and  O2_36 
REMARK   10  A    between atoms: C12_38  and  C13_39 
REMARK   11  A    between atoms: C12_38  and  C14_42 
REMARK   12  A    between atoms: C13_39  and  O3_40 
REMARK   13  A    between atoms: C14_42  and  N13_43 
REMARK   14  A    between atoms: C14_42  and  O4_47 
ROOT
HETATM    1  C5  UNL     1      32.696-184.743  21.217  1.00  0.00     0.103 A 
HETATM    2  C6  UNL     1      32.596-185.886  20.421  1.00  0.00     0.122 A 
HETATM    3  N9  UNL     1      31.645-186.701  20.851  1.00  0.00    -0.359 N 
ATOM      4  H9  UNL     1      31.404-187.591  20.416  1.00  0.00     0.165 HD
HETATM    5  C7  UNL     1      31.044-186.194  21.937  1.00  0.00     0.104 A 
HETATM    6  C8  UNL     1      30.031-186.584  22.783  1.00  0.00     0.161 A 
HETATM    7  N10 UNL     1      29.381-187.819  22.514  1.00  0.00    -0.080 NA
HETATM    8  N11 UNL     1      29.720-185.767  23.796  1.00  0.00    -0.176 N 
ATOM      9  H11 UNL     1      28.969-186.057  24.421  1.00  0.00     0.185 HD
HETATM   10  C9  UNL     1      30.314-184.607  24.047  1.00  0.00     0.682 A 
HETATM   11  N14 UNL     1      31.305-184.198  23.241  1.00  0.00    -0.187 N 
ATOM     12  H14 UNL     1      31.758-183.305  23.440  1.00  0.00     0.184 HD
HETATM   13  C15 UNL     1      31.728-184.908  22.185  1.00  0.00     0.109 A 
ENDROOT
BRANCH   1  14
HETATM   14  N8  UNL     1      33.573-183.647  21.060  1.00  0.00    -0.232 N 
HETATM   15  N7  UNL     1      34.650-183.355  21.820  1.00  0.00    -0.234 N 
HETATM   16  N6  UNL     1      35.221-182.260  21.368  1.00  0.00    -0.279 N 
ATOM     17  H7  UNL     1      34.972-183.900  22.619  1.00  0.00     0.209 HD
HETATM   18  C4  UNL     1      34.554-181.802  20.321  1.00  0.00     0.150 A 
ATOM     19  H6  UNL     1      36.054-181.827  21.767  1.00  0.00     0.189 HD
HETATM   20  C3  UNL     1      34.832-180.682  19.567  1.00  0.00     0.290 C 
HETATM   21  C16 UNL     1      33.494-182.698  20.127  1.00  0.00     0.136 A 
HETATM   22  N5  UNL     1      34.359-180.403  18.336  1.00  0.00    -0.153 N 
HETATM   23  O1  UNL     1      35.610-179.870  20.136  1.00  0.00    -0.265 OA
HETATM   24  C2  UNL     1      33.557-181.151  17.528  1.00  0.00     0.701 C 
ATOM     25  H5  UNL     1      34.642-179.500  17.955  1.00  0.00     0.187 HD
HETATM   26  N2  UNL     1      32.639-182.082  17.902  1.00  0.00    -0.173 N 
HETATM   27  C1  UNL     1      32.521-182.622  19.136  1.00  0.00     0.146 C 
ATOM     28  H2  UNL     1      31.981-182.400  17.190  1.00  0.00     0.186 HD
BRANCH  24  29
HETATM   29  N3  UNL     1      33.701-180.941  16.264  1.00  0.00    -0.138 N 
ATOM     30  H3  UNL     1      34.602-180.641  15.893  1.00  0.00     0.205 HD
BRANCH  29  31
HETATM   31  N4  UNL     1      32.620-181.125  15.412  1.00  0.00    -0.331 N 
ATOM     32  H42 UNL     1      31.698-180.797  15.699  1.00  0.00     0.177 HD
ATOM     33  H41 UNL     1      32.761-181.584  14.512  1.00  0.00     0.177 HD
ENDBRANCH  29  31
ENDBRANCH  24  29
BRANCH  27  34
HETATM   34  N1  UNL     1      31.402-183.133  19.472  1.00  0.00    -0.383 N 
ATOM     35  H12 UNL     1      30.651-182.957  18.804  1.00  0.00     0.157 HD
ATOM     36  H11 UNL     1      31.349-183.657  20.346  1.00  0.00     0.157 HD
ENDBRANCH  27  34
ENDBRANCH   1  14
BRANCH  10  37
HETATM   37  N12 UNL     1      29.940-183.770  25.201  1.00  0.00    -0.204 N 
BRANCH  37  38
HETATM   38  C10 UNL     1      30.863-182.737  25.487  1.00  0.00     0.168 C 
BRANCH  38  39
HETATM   39  C11 UNL     1      30.598-181.809  26.617  1.00  0.00     0.184 C 
BRANCH  39  40
HETATM   40  O2  UNL     1      29.744-180.763  26.279  1.00  0.00    -0.399 OA
ATOM     41  H2  UNL     1      29.950-180.369  25.440  1.00  0.00     0.209 HD
ENDBRANCH  39  40
ENDBRANCH  38  39
ENDBRANCH  37  38
BRANCH  37  42
HETATM   42  C12 UNL     1      28.746-184.168  25.844  1.00  0.00     0.181 C 
BRANCH  42  43
HETATM   43  C13 UNL     1      28.929-184.203  27.382  1.00  0.00     0.194 C 
BRANCH  43  44
HETATM   44  O3  UNL     1      29.590-185.392  27.666  1.00  0.00    -0.399 OA
ATOM     45  H3  UNL     1      29.753-185.387  28.602  1.00  0.00     0.209 HD
ENDBRANCH  43  44
ENDBRANCH  42  43
BRANCH  42  46
HETATM   46  C14 UNL     1      27.459-183.532  25.556  1.00  0.00     0.341 C 
BRANCH  46  47
HETATM   47  N13 UNL     1      26.524-184.373  24.804  1.00  0.00    -0.051 N 
ATOM     48 3H13 UNL     1      25.654-184.490  25.324  1.00  0.00     0.277 HD
ATOM     49 2H13 UNL     1      26.173-183.873  23.988  1.00  0.00     0.277 HD
ATOM     50 1H13 UNL     1      26.901-185.280  24.531  1.00  0.00     0.277 HD
ENDBRANCH  46  47
BRANCH  46  51
HETATM   51  O4  UNL     1      27.520-182.264  25.032  1.00  0.00    -0.368 OA
ATOM     52  H4  UNL     1      27.660-181.563  25.657  1.00  0.00     0.212 HD
ENDBRANCH  46  51
ENDBRANCH  42  46
ENDBRANCH  37  42
ENDBRANCH  10  37
TORSDOF 14
ENDMDL
MODEL 4
REMARK VINA RESULT: -6.762251397      3.083      4.850
REMARK  14 active torsions:
REMARK  status: ('A' for Active; 'I' for Inactive)
REMARK    1  A    between atoms: N1_1  and  C1_4 
REMARK    2  A    between atoms: C2_7  and  N3_8 
REMARK    3  A    between atoms: N3_8  and  N4_10 
REMARK    4  A    between atoms: N8_22  and  C5_23 
REMARK    5  A    between atoms: C9_32  and  N12_33 
REMARK    6  A    between atoms: N12_33  and  C10_34 
REMARK    7  A    between atoms: N12_33  and  C12_38 
REMARK    8  A    between atoms: C10_34  and  C11_35 
REMARK    9  A    between atoms: C11_35  and  O2_36 
REMARK   10  A    between atoms: C12_38  and  C13_39 
REMARK   11  A    between atoms: C12_38  and  C14_42 
REMARK   12  A    between atoms: C13_39  and  O3_40 
REMARK   13  A    between atoms: C14_42  and  N13_43 
REMARK   14  A    between atoms: C14_42  and  O4_47 
ROOT
HETATM    1  C5  UNL     1      35.926-182.109  23.071  1.00  0.00     0.103 A 
HETATM    2  C6  UNL     1      37.123-182.506  23.671  1.00  0.00     0.122 A 
HETATM    3  N9  UNL     1      36.910-183.162  24.801  1.00  0.00    -0.359 N 
ATOM      4  H9  UNL     1      37.645-183.541  25.399  1.00  0.00     0.165 HD
HETATM    5  C7  UNL     1      35.597-183.262  25.051  1.00  0.00     0.104 A 
HETATM    6  C8  UNL     1      34.814-183.812  26.040  1.00  0.00     0.161 A 
HETATM    7  N10 UNL     1      35.469-184.481  27.109  1.00  0.00    -0.080 NA
HETATM    8  N11 UNL     1      33.487-183.688  25.920  1.00  0.00    -0.176 N 
ATOM      9  H11 UNL     1      32.908-184.096  26.654  1.00  0.00     0.185 HD
HETATM   10  C9  UNL     1      32.867-183.075  24.920  1.00  0.00     0.682 A 
HETATM   11  N14 UNL     1      33.602-182.529  23.939  1.00  0.00    -0.187 N 
ATOM     12  H14 UNL     1      33.119-182.059  23.172  1.00  0.00     0.184 HD
HETATM   13  C15 UNL     1      34.943-182.573  23.920  1.00  0.00     0.109 A 
ENDROOT
BRANCH   1  14
HETATM   14  N8  UNL     1      35.750-181.411  21.857  1.00  0.00    -0.232 N 
HETATM   15  N7  UNL     1      35.718-181.940  20.615  1.00  0.00    -0.234 N 
HETATM   16  N6  UNL     1      35.534-180.981  19.734  1.00  0.00    -0.279 N 
ATOM     17  H7  UNL     1      35.820-182.931  20.394  1.00  0.00     0.209 HD
HETATM   18  C4  UNL     1      35.442-179.814  20.352  1.00  0.00     0.150 A 
ATOM     19  H6  UNL     1      35.472-181.116  18.725  1.00  0.00     0.189 HD
HETATM   20  C3  UNL     1      35.247-178.572  19.784  1.00  0.00     0.290 C 
HETATM   21  C16 UNL     1      35.582-180.096  21.716  1.00  0.00     0.136 A 
HETATM   22  N5  UNL     1      34.838-177.455  20.416  1.00  0.00    -0.153 N 
HETATM   23  O1  UNL     1      35.493-178.537  18.549  1.00  0.00    -0.265 OA
HETATM   24  C2  UNL     1      34.474-177.281  21.717  1.00  0.00     0.701 C 
ATOM     25  H5  UNL     1      34.795-176.617  19.835  1.00  0.00     0.187 HD
HETATM   26  N2  UNL     1      34.891-177.995  22.797  1.00  0.00    -0.173 N 
HETATM   27  C1  UNL     1      35.553-179.173  22.756  1.00  0.00     0.146 C 
ATOM     28  H2  UNL     1      34.685-177.607  23.719  1.00  0.00     0.186 HD
BRANCH  24  29
HETATM   29  N3  UNL     1      33.636-176.326  21.931  1.00  0.00    -0.138 N 
ATOM     30  H3  UNL     1      33.287-176.149  22.873  1.00  0.00     0.205 HD
BRANCH  29  31
HETATM   31  N4  UNL     1      33.210-175.537  20.870  1.00  0.00    -0.331 N 
ATOM     32  H42 UNL     1      32.453-174.869  21.018  1.00  0.00     0.177 HD
ATOM     33  H41 UNL     1      33.655-175.636  19.958  1.00  0.00     0.177 HD
ENDBRANCH  29  31
ENDBRANCH  24  29
BRANCH  27  34
HETATM   34  N1  UNL     1      36.245-179.516  23.771  1.00  0.00    -0.383 N 
ATOM     35  H12 UNL     1      35.705-179.594  24.633  1.00  0.00     0.157 HD
ATOM     36  H11 UNL     1      37.244-179.680  23.644  1.00  0.00     0.157 HD
ENDBRANCH  27  34
ENDBRANCH   1  14
BRANCH  10  37
HETATM   37  N12 UNL     1      31.400-182.949  24.868  1.00  0.00    -0.204 N 
BRANCH  37  38
HETATM   38  C10 UNL     1      30.845-182.222  25.947  1.00  0.00     0.168 C 
BRANCH  38  39
HETATM   39  C11 UNL     1      30.106-182.944  27.015  1.00  0.00     0.184 C 
BRANCH  39  40
HETATM   40  O2  UNL     1      30.650-184.191  27.312  1.00  0.00    -0.399 OA
ATOM     41  H2  UNL     1      30.557-184.431  28.226  1.00  0.00     0.209 HD
ENDBRANCH  39  40
ENDBRANCH  38  39
ENDBRANCH  37  38
BRANCH  37  42
HETATM   42  C12 UNL     1      30.799-183.608  23.771  1.00  0.00     0.181 C 
BRANCH  42  43
HETATM   43  C13 UNL     1      31.648-183.435  22.487  1.00  0.00     0.194 C 
BRANCH  43  44
HETATM   44  O3  UNL     1      31.279-182.211  21.942  1.00  0.00    -0.399 OA
ATOM     45  H3  UNL     1      31.564-182.228  21.035  1.00  0.00     0.209 HD
ENDBRANCH  43  44
ENDBRANCH  42  43
BRANCH  42  46
HETATM   46  C14 UNL     1      30.371-185.006  23.845  1.00  0.00     0.341 C 
BRANCH  46  47
HETATM   47  N13 UNL     1      30.119-185.630  22.543  1.00  0.00    -0.051 N 
ATOM     48 3H13 UNL     1      29.741-184.946  21.889  1.00  0.00     0.277 HD
ATOM     49 2H13 UNL     1      30.999-185.849  22.078  1.00  0.00     0.277 HD
ATOM     50 1H13 UNL     1      29.521-186.456  22.581  1.00  0.00     0.277 HD
ENDBRANCH  46  47
BRANCH  46  51
HETATM   51  O4  UNL     1      29.357-185.277  24.731  1.00  0.00    -0.368 OA
ATOM     52  H4  UNL     1      28.751-184.565  24.899  1.00  0.00     0.212 HD
ENDBRANCH  46  51
ENDBRANCH  42  46
ENDBRANCH  37  42
ENDBRANCH  10  37
TORSDOF 14
ENDMDL
MODEL 5
REMARK VINA RESULT: -6.706951037      2.625      8.247
REMARK  14 active torsions:
REMARK  status: ('A' for Active; 'I' for Inactive)
REMARK    1  A    between atoms: N1_1  and  C1_4 
REMARK    2  A    between atoms: C2_7  and  N3_8 
REMARK    3  A    between atoms: N3_8  and  N4_10 
REMARK    4  A    between atoms: N8_22  and  C5_23 
REMARK    5  A    between atoms: C9_32  and  N12_33 
REMARK    6  A    between atoms: N12_33  and  C10_34 
REMARK    7  A    between atoms: N12_33  and  C12_38 
REMARK    8  A    between atoms: C10_34  and  C11_35 
REMARK    9  A    between atoms: C11_35  and  O2_36 
REMARK   10  A    between atoms: C12_38  and  C13_39 
REMARK   11  A    between atoms: C12_38  and  C14_42 
REMARK   12  A    between atoms: C13_39  and  O3_40 
REMARK   13  A    between atoms: C14_42  and  N13_43 
REMARK   14  A    between atoms: C14_42  and  O4_47 
ROOT
HETATM    1  C5  UNL     1      32.645-183.652  24.013  1.00  0.00     0.103 A 
HETATM    2  C6  UNL     1      33.579-183.387  25.017  1.00  0.00     0.122 A 
HETATM    3  N9  UNL     1      34.728-182.959  24.518  1.00  0.00    -0.359 N 
ATOM      4  H9  UNL     1      35.545-182.708  25.074  1.00  0.00     0.165 HD
HETATM    5  C7  UNL     1      34.669-182.900  23.179  1.00  0.00     0.104 A 
HETATM    6  C8  UNL     1      35.527-182.547  22.164  1.00  0.00     0.161 A 
HETATM    7  N10 UNL     1      36.829-182.101  22.519  1.00  0.00    -0.080 NA
HETATM    8  N11 UNL     1      35.071-182.637  20.908  1.00  0.00    -0.176 N 
ATOM      9  H11 UNL     1      35.708-182.374  20.156  1.00  0.00     0.185 HD
HETATM   10  C9  UNL     1      33.854-183.041  20.568  1.00  0.00     0.682 A 
HETATM   11  N14 UNL     1      32.993-183.392  21.535  1.00  0.00    -0.187 N 
ATOM     12  H14 UNL     1      32.058-183.702  21.267  1.00  0.00     0.184 HD
HETATM   13  C15 UNL     1      33.305-183.354  22.839  1.00  0.00     0.109 A 
ENDROOT
BRANCH   1  14
HETATM   14  N8  UNL     1      31.315-184.101  24.158  1.00  0.00    -0.232 N 
HETATM   15  N7  UNL     1      30.727-185.124  23.501  1.00  0.00    -0.234 N 
HETATM   16  N6  UNL     1      29.481-185.245  23.903  1.00  0.00    -0.279 N 
ATOM     17  H7  UNL     1      31.181-185.712  22.802  1.00  0.00     0.209 HD
HETATM   18  C4  UNL     1      29.210-184.327  24.816  1.00  0.00     0.150 A 
ATOM     19  H6  UNL     1      28.821-185.944  23.560  1.00  0.00     0.189 HD
HETATM   20  C3  UNL     1      28.020-184.124  25.481  1.00  0.00     0.290 C 
HETATM   21  C16 UNL     1      30.392-183.594  24.977  1.00  0.00     0.136 A 
HETATM   22  N5  UNL     1      27.842-183.419  26.615  1.00  0.00    -0.153 N 
HETATM   23  O1  UNL     1      27.031-184.673  24.926  1.00  0.00    -0.265 OA
HETATM   24  C2  UNL     1      28.765-182.794  27.398  1.00  0.00     0.701 C 
ATOM     25  H5  UNL     1      26.876-183.343  26.934  1.00  0.00     0.187 HD
HETATM   26  N2  UNL     1      29.967-182.283  27.017  1.00  0.00    -0.173 N 
HETATM   27  C1  UNL     1      30.585-182.518  25.837  1.00  0.00     0.146 C 
ATOM     28  H2  UNL     1      30.442-181.668  27.678  1.00  0.00     0.186 HD
BRANCH  24  29
HETATM   29  N3  UNL     1      28.447-182.683  28.642  1.00  0.00    -0.138 N 
ATOM     30  H3  UNL     1      27.554-182.268  28.909  1.00  0.00     0.205 HD
BRANCH  29  31
HETATM   31  N4  UNL     1      29.327-183.134  29.617  1.00  0.00    -0.331 N 
ATOM     32  H42 UNL     1      30.248-183.472  29.339  1.00  0.00     0.177 HD
ATOM     33  H41 UNL     1      29.042-183.123  30.597  1.00  0.00     0.177 HD
ENDBRANCH  29  31
ENDBRANCH  24  29
BRANCH  27  34
HETATM   34  N1  UNL     1      31.455-181.680  25.430  1.00  0.00    -0.383 N 
ATOM     35  H12 UNL     1      31.580-180.879  26.049  1.00  0.00     0.157 HD
ATOM     36  H11 UNL     1      31.938-181.870  24.552  1.00  0.00     0.157 HD
ENDBRANCH  27  34
ENDBRANCH   1  14
BRANCH  10  37
HETATM   37  N12 UNL     1      33.429-183.145  19.161  1.00  0.00    -0.204 N 
BRANCH  37  38
HETATM   38  C10 UNL     1      33.443-181.914  18.462  1.00  0.00     0.168 C 
BRANCH  38  39
HETATM   39  C11 UNL     1      33.726-181.903  17.003  1.00  0.00     0.184 C 
BRANCH  39  40
HETATM   40  O2  UNL     1      32.601-182.165  16.225  1.00  0.00    -0.399 OA
ATOM     41  H2  UNL     1      32.358-181.439  15.663  1.00  0.00     0.209 HD
ENDBRANCH  39  40
ENDBRANCH  38  39
ENDBRANCH  37  38
BRANCH  37  42
HETATM   42  C12 UNL     1      33.044-184.445  18.765  1.00  0.00     0.181 C 
BRANCH  42  43
HETATM   43  C13 UNL     1      33.723-185.519  19.652  1.00  0.00     0.194 C 
BRANCH  43  44
HETATM   44  O3  UNL     1      32.693-186.238  20.245  1.00  0.00    -0.399 OA
ATOM     45  H3  UNL     1      32.191-185.611  20.754  1.00  0.00     0.209 HD
ENDBRANCH  43  44
ENDBRANCH  42  43
BRANCH  42  46
HETATM   46  C14 UNL     1      31.639-184.822  18.595  1.00  0.00     0.341 C 
BRANCH  46  47
HETATM   47  N13 UNL     1      31.180-184.832  17.203  1.00  0.00    -0.051 N 
ATOM     48 3H13 UNL     1      31.856-185.312  16.610  1.00  0.00     0.277 HD
ATOM     49 2H13 UNL     1      30.380-185.455  17.097  1.00  0.00     0.277 HD
ATOM     50 1H13 UNL     1      30.966-183.909  16.825  1.00  0.00     0.277 HD
ENDBRANCH  46  47
BRANCH  46  51
HETATM   51  O4  UNL     1      30.742-184.177  19.410  1.00  0.00    -0.368 OA
ATOM     52  H4  UNL     1      31.117-183.652  20.107  1.00  0.00     0.212 HD
ENDBRANCH  46  51
ENDBRANCH  42  46
ENDBRANCH  37  42
ENDBRANCH  10  37
TORSDOF 14
ENDMDL
