MODEL 1
REMARK VINA RESULT: -8.463190508      0.000      0.000
REMARK  13 active torsions:
REMARK  status: ('A' for Active; 'I' for Inactive)
REMARK    1  A    between atoms: C2_2  and  C3_3 
REMARK    2  A    between atoms: N2_8  and  C6_9 
REMARK    3  A    between atoms: C6_9  and  C7_10 
REMARK    4  A    between atoms: C8_14  and  N4_15 
REMARK    5  A    between atoms: C8_14  and  C15_36 
REMARK    6  A    between atoms: N4_15  and  N5_17 
REMARK    7  A    between atoms: N5_17  and  C9_19 
REMARK    8  A    between atoms: C12_22  and  C13_23 
REMARK    9  A    between atoms: C13_23  and  N6_24 
REMARK   10  A    between atoms: C13_23  and  N7_28 
REMARK   11  A    between atoms: N7_28  and  N8_29 
REMARK   12  A    between atoms: C16_45  and  O1_46 
REMARK   13  A    between atoms: C17_48  and  N15_49 
ROOT
HETATM    1  C7  UNL     1      29.058-183.369  27.656  1.00  0.00     0.242 C 
HETATM    2  N3  UNL     1      29.940-184.209  26.918  1.00  0.00    -0.029 N 
ATOM      3  H31 UNL     1      29.531-185.112  26.675  1.00  0.00     0.281 HD
ATOM      4  H32 UNL     1      30.717-184.567  27.473  1.00  0.00     0.281 HD
HETATM    5  C8  UNL     1      30.356-183.452  25.782  1.00  0.00     0.299 C 
HETATM    6  C16 UNL     1      29.419-182.277  25.643  1.00  0.00     0.216 C 
HETATM    7  C17 UNL     1      28.282-182.654  26.609  1.00  0.00     0.249 C 
ENDROOT
BRANCH   5   8
HETATM    8  N4  UNL     1      31.731-183.066  25.738  1.00  0.00    -0.291 N 
ATOM      9  H4  UNL     1      31.990-182.085  25.637  1.00  0.00     0.183 HD
BRANCH   8  10
HETATM   10  N5  UNL     1      32.684-184.022  25.833  1.00  0.00    -0.299 N 
ATOM     11  H5  UNL     1      32.425-184.988  26.035  1.00  0.00     0.186 HD
BRANCH  10  12
HETATM   12  C9  UNL     1      34.059-183.666  25.647  1.00  0.00     0.088 A 
HETATM   13  C10 UNL     1      35.021-183.997  26.592  1.00  0.00     0.036 A 
HETATM   14  C11 UNL     1      36.335-183.671  26.423  1.00  0.00     0.031 A 
HETATM   15  C12 UNL     1      36.697-182.993  25.269  1.00  0.00     0.058 A 
HETATM   16  N9  UNL     1      35.766-182.675  24.355  1.00  0.00    -0.343 N 
HETATM   17  C14 UNL     1      34.473-182.993  24.522  1.00  0.00     0.144 A 
ATOM     18  H9  UNL     1      36.049-182.177  23.511  1.00  0.00     0.167 HD
HETATM   19  N10 UNL     1      33.535-182.637  23.527  1.00  0.00    -0.080 NA
BRANCH  15  20
HETATM   20  C13 UNL     1      38.096-182.601  25.004  1.00  0.00     0.344 C 
BRANCH  20  21
HETATM   21  N6  UNL     1      38.931-183.770  24.836  1.00  0.00    -0.054 N 
ATOM     22  H63 UNL     1      38.969-184.072  23.862  1.00  0.00     0.276 HD
ATOM     23  H62 UNL     1      39.919-183.552  24.966  1.00  0.00     0.276 HD
ATOM     24  H61 UNL     1      38.626-184.522  25.454  1.00  0.00     0.276 HD
ENDBRANCH  20  21
BRANCH  20  25
HETATM   25  N7  UNL     1      38.670-181.789  26.049  1.00  0.00    -0.108 NA
BRANCH  25  26
HETATM   26  N8  UNL     1      38.107-180.541  26.120  1.00  0.00    -0.346 N 
ATOM     27  H82 UNL     1      37.099-180.391  26.168  1.00  0.00     0.172 HD
ATOM     28  H81 UNL     1      38.802-179.795  26.118  1.00  0.00     0.172 HD
ENDBRANCH  25  26
ENDBRANCH  20  25
ENDBRANCH  15  20
ENDBRANCH  10  12
ENDBRANCH   8  10
ENDBRANCH   5   8
BRANCH   5  29
HETATM   29  C15 UNL     1      30.147-184.299  24.557  1.00  0.00     0.175 A 
HETATM   30  N11 UNL     1      29.366-185.339  24.321  1.00  0.00    -0.268 N 
HETATM   31  N12 UNL     1      29.572-185.712  23.073  1.00  0.00    -0.227 N 
ATOM     32  H11 UNL     1      28.723-185.772  24.984  1.00  0.00     0.190 HD
HETATM   33  N13 UNL     1      30.464-184.941  22.497  1.00  0.00    -0.227 N 
ATOM     34  H12 UNL     1      29.101-186.494  22.618  1.00  0.00     0.210 HD
HETATM   35  N14 UNL     1      30.831-184.055  23.410  1.00  0.00    -0.268 N 
ATOM     36  H13 UNL     1      30.805-185.010  21.539  1.00  0.00     0.210 HD
ATOM     37  H14 UNL     1      31.516-183.311  23.273  1.00  0.00     0.190 HD
ENDBRANCH   5  29
BRANCH   6  38
HETATM   38  O1  UNL     1      29.937-181.081  26.036  1.00  0.00    -0.389 OA
ATOM     39  H1  UNL     1      29.856-180.896  26.964  1.00  0.00     0.210 HD
ENDBRANCH   6  38
BRANCH   1  40
HETATM   40  C6  UNL     1      28.308-183.980  28.772  1.00  0.00     0.186 C 
BRANCH  40  41
HETATM   41  N2  UNL     1      28.305-183.356  30.039  1.00  0.00    -0.277 N 
HETATM   42  C4  UNL     1      27.267-182.791  30.671  1.00  0.00     0.095 A 
HETATM   43  N1  UNL     1      27.726-182.334  31.876  1.00  0.00    -0.334 N 
HETATM   44  C5  UNL     1      25.849-182.637  30.248  1.00  0.00     0.091 C 
HETATM   45  C3  UNL     1      29.029-182.623  31.965  1.00  0.00     0.097 A 
ATOM     46  H1  UNL     1      27.171-181.855  32.584  1.00  0.00     0.168 HD
HETATM   47  N16 UNL     1      29.346-183.238  30.841  1.00  0.00    -0.285 N 
ATOM     48  H16 UNL     1      30.281-183.581  30.619  1.00  0.00     0.188 HD
BRANCH  45  49
HETATM   49  C2  UNL     1      29.990-182.347  33.082  1.00  0.00     0.073 C 
HETATM   50  C1  UNL     1      29.177-182.271  34.351  1.00  0.00     0.013 C 
ENDBRANCH  45  49
ENDBRANCH  40  41
ENDBRANCH   1  40
BRANCH   7  51
HETATM   51  N15 UNL     1      27.364-183.419  25.836  1.00  0.00    -0.070 N 
ATOM     52 3H15 UNL     1      26.412-183.199  26.127  1.00  0.00     0.274 HD
ATOM     53 2H15 UNL     1      27.356-183.071  24.878  1.00  0.00     0.274 HD
ATOM     54 1H15 UNL     1      27.488-184.431  25.826  1.00  0.00     0.274 HD
ENDBRANCH   7  51
TORSDOF 13
ENDMDL
MODEL 2
REMARK VINA RESULT: -8.383556501      0.980      1.672
REMARK  13 active torsions:
REMARK  status: ('A' for Active; 'I' for Inactive)
REMARK    1  A    between atoms: C2_2  and  C3_3 
REMARK    2  A    between atoms: N2_8  and  C6_9 
REMARK    3  A    between atoms: C6_9  and  C7_10 
REMARK    4  A    between atoms: C8_14  and  N4_15 
REMARK    5  A    between atoms: C8_14  and  C15_36 
REMARK    6  A    between atoms: N4_15  and  N5_17 
REMARK    7  A    between atoms: N5_17  and  C9_19 
REMARK    8  A    between atoms: C12_22  and  C13_23 
REMARK    9  A    between atoms: C13_23  and  N6_24 
REMARK   10  A    between atoms: C13_23  and  N7_28 
REMARK   11  A    between atoms: N7_28  and  N8_29 
REMARK   12  A    between atoms: C16_45  and  O1_46 
REMARK   13  A    between atoms: C17_48  and  N15_49 
ROOT
HETATM    1  C7  UNL     1      29.451-183.360  27.783  1.00  0.00     0.242 C 
HETATM    2  N3  UNL     1      30.335-184.083  26.932  1.00  0.00    -0.029 N 
ATOM      3  H31 UNL     1      30.009-185.026  26.716  1.00  0.00     0.281 HD
ATOM      4  H32 UNL     1      31.207-184.353  27.389  1.00  0.00     0.281 HD
HETATM    5  C8  UNL     1      30.529-183.272  25.775  1.00  0.00     0.299 C 
HETATM    6  C16 UNL     1      29.453-182.214  25.767  1.00  0.00     0.216 C 
HETATM    7  C17 UNL     1      28.483-182.732  26.844  1.00  0.00     0.249 C 
ENDROOT
BRANCH   5   8
HETATM    8  N4  UNL     1      31.836-182.726  25.587  1.00  0.00    -0.291 N 
ATOM      9  H4  UNL     1      32.106-181.858  26.049  1.00  0.00     0.183 HD
BRANCH   8  10
HETATM   10  N5  UNL     1      32.711-183.379  24.787  1.00  0.00    -0.299 N 
ATOM     11  H5  UNL     1      32.387-183.832  23.933  1.00  0.00     0.186 HD
BRANCH  10  12
HETATM   12  C9  UNL     1      34.096-183.427  25.151  1.00  0.00     0.088 A 
HETATM   13  C10 UNL     1      35.072-182.864  24.340  1.00  0.00     0.036 A 
HETATM   14  C11 UNL     1      36.393-182.896  24.679  1.00  0.00     0.031 A 
HETATM   15  C12 UNL     1      36.747-183.510  25.870  1.00  0.00     0.058 A 
HETATM   16  N9  UNL     1      35.802-184.054  26.655  1.00  0.00    -0.343 N 
HETATM   17  C14 UNL     1      34.504-184.024  26.321  1.00  0.00     0.144 A 
ATOM     18  H9  UNL     1      36.080-184.501  27.528  1.00  0.00     0.167 HD
HETATM   19  N10 UNL     1      33.550-184.608  27.185  1.00  0.00    -0.080 NA
BRANCH  15  20
HETATM   20  C13 UNL     1      38.154-183.591  26.315  1.00  0.00     0.344 C 
BRANCH  20  21
HETATM   21  N6  UNL     1      39.054-183.378  25.203  1.00  0.00    -0.054 N 
ATOM     22  H63 UNL     1      39.393-184.259  24.816  1.00  0.00     0.276 HD
ATOM     23  H62 UNL     1      38.563-183.028  24.381  1.00  0.00     0.276 HD
ATOM     24  H61 UNL     1      39.822-182.763  25.475  1.00  0.00     0.276 HD
ENDBRANCH  20  21
BRANCH  20  25
HETATM   25  N7  UNL     1      38.489-184.855  26.924  1.00  0.00    -0.108 NA
BRANCH  25  26
HETATM   26  N8  UNL     1      39.767-185.260  26.636  1.00  0.00    -0.346 N 
ATOM     27  H82 UNL     1      40.190-185.142  25.716  1.00  0.00     0.172 HD
ATOM     28  H81 UNL     1      40.235-185.686  27.436  1.00  0.00     0.172 HD
ENDBRANCH  25  26
ENDBRANCH  20  25
ENDBRANCH  15  20
ENDBRANCH  10  12
ENDBRANCH   8  10
ENDBRANCH   5   8
BRANCH   5  29
HETATM   29  C15 UNL     1      30.283-184.126  24.561  1.00  0.00     0.175 A 
HETATM   30  N11 UNL     1      30.682-184.017  23.306  1.00  0.00    -0.268 N 
HETATM   31  N12 UNL     1      30.178-185.039  22.642  1.00  0.00    -0.227 N 
ATOM     32  H11 UNL     1      31.272-183.279  22.923  1.00  0.00     0.190 HD
HETATM   33  N13 UNL     1      29.465-185.803  23.434  1.00  0.00    -0.227 N 
ATOM     34  H12 UNL     1      30.323-185.211  21.647  1.00  0.00     0.210 HD
HETATM   35  N14 UNL     1      29.521-185.248  24.635  1.00  0.00    -0.268 N 
ATOM     36  H13 UNL     1      28.967-186.656  23.178  1.00  0.00     0.210 HD
ATOM     37  H14 UNL     1      29.068-185.604  25.476  1.00  0.00     0.190 HD
ENDBRANCH   5  29
BRANCH   6  38
HETATM   38  O1  UNL     1      29.869-180.970  26.127  1.00  0.00    -0.389 OA
ATOM     39  H1  UNL     1      29.583-180.685  26.987  1.00  0.00     0.210 HD
ENDBRANCH   6  38
BRANCH   1  40
HETATM   40  C6  UNL     1      28.907-184.066  28.961  1.00  0.00     0.186 C 
BRANCH  40  41
HETATM   41  N2  UNL     1      28.738-183.370  30.178  1.00  0.00    -0.277 N 
HETATM   42  C4  UNL     1      27.647-182.718  30.603  1.00  0.00     0.095 A 
HETATM   43  N1  UNL     1      27.933-182.214  31.842  1.00  0.00    -0.334 N 
HETATM   44  C5  UNL     1      26.327-182.517  29.946  1.00  0.00     0.091 C 
HETATM   45  C3  UNL     1      29.184-182.563  32.157  1.00  0.00     0.097 A 
ATOM     46  H1  UNL     1      27.300-181.667  32.425  1.00  0.00     0.168 HD
HETATM   47  N16 UNL     1      29.641-183.258  31.133  1.00  0.00    -0.285 N 
ATOM     48  H16 UNL     1      30.578-183.660  31.085  1.00  0.00     0.188 HD
BRANCH  45  49
HETATM   49  C2  UNL     1      29.968-182.271  33.402  1.00  0.00     0.073 C 
HETATM   50  C1  UNL     1      28.980-182.229  34.542  1.00  0.00     0.013 C 
ENDBRANCH  45  49
ENDBRANCH  40  41
ENDBRANCH   1  40
BRANCH   7  51
HETATM   51  N15 UNL     1      27.579-183.593  26.161  1.00  0.00    -0.070 N 
ATOM     52 3H15 UNL     1      27.265-183.140  25.303  1.00  0.00     0.274 HD
ATOM     53 2H15 UNL     1      28.092-184.388  25.781  1.00  0.00     0.274 HD
ATOM     54 1H15 UNL     1      26.770-183.931  26.680  1.00  0.00     0.274 HD
ENDBRANCH   7  51
TORSDOF 13
ENDMDL
MODEL 3
REMARK VINA RESULT: -8.194302608      3.392      9.121
REMARK  13 active torsions:
REMARK  status: ('A' for Active; 'I' for Inactive)
REMARK    1  A    between atoms: C2_2  and  C3_3 
REMARK    2  A    between atoms: N2_8  and  C6_9 
REMARK    3  A    between atoms: C6_9  and  C7_10 
REMARK    4  A    between atoms: C8_14  and  N4_15 
REMARK    5  A    between atoms: C8_14  and  C15_36 
REMARK    6  A    between atoms: N4_15  and  N5_17 
REMARK    7  A    between atoms: N5_17  and  C9_19 
REMARK    8  A    between atoms: C12_22  and  C13_23 
REMARK    9  A    between atoms: C13_23  and  N6_24 
REMARK   10  A    between atoms: C13_23  and  N7_28 
REMARK   11  A    between atoms: N7_28  and  N8_29 
REMARK   12  A    between atoms: C16_45  and  O1_46 
REMARK   13  A    between atoms: C17_48  and  N15_49 
ROOT
HETATM    1  C7  UNL     1      31.930-183.267  22.628  1.00  0.00     0.242 C 
HETATM    2  N3  UNL     1      30.855-182.581  23.263  1.00  0.00    -0.029 N 
ATOM      3  H31 UNL     1      29.984-182.613  22.733  1.00  0.00     0.281 HD
ATOM      4  H32 UNL     1      30.966-181.567  23.264  1.00  0.00     0.281 HD
HETATM    5  C8  UNL     1      30.743-183.140  24.571  1.00  0.00     0.299 C 
HETATM    6  C16 UNL     1      31.519-184.434  24.588  1.00  0.00     0.216 C 
HETATM    7  C17 UNL     1      31.784-184.672  23.091  1.00  0.00     0.249 C 
ENDROOT
BRANCH   5   8
HETATM    8  N4  UNL     1      31.080-182.284  25.665  1.00  0.00    -0.291 N 
ATOM      9  H4  UNL     1      31.191-181.280  25.522  1.00  0.00     0.183 HD
BRANCH   8  10
HETATM   10  N5  UNL     1      31.249-182.825  26.893  1.00  0.00    -0.299 N 
ATOM     11  H5  UNL     1      32.145-183.236  27.156  1.00  0.00     0.186 HD
BRANCH  10  12
HETATM   12  C9  UNL     1      30.158-182.815  27.823  1.00  0.00     0.088 A 
HETATM   13  C10 UNL     1      29.595-181.623  28.256  1.00  0.00     0.036 A 
HETATM   14  C11 UNL     1      28.551-181.600  29.134  1.00  0.00     0.031 A 
HETATM   15  C12 UNL     1      28.054-182.811  29.590  1.00  0.00     0.058 A 
HETATM   16  N9  UNL     1      28.598-183.964  29.169  1.00  0.00    -0.343 N 
HETATM   17  C14 UNL     1      29.626-183.987  28.307  1.00  0.00     0.144 A 
ATOM     18  H9  UNL     1      28.220-184.846  29.513  1.00  0.00     0.167 HD
HETATM   19  N10 UNL     1      30.159-185.229  27.893  1.00  0.00    -0.080 NA
BRANCH  15  20
HETATM   20  C13 UNL     1      26.926-182.880  30.542  1.00  0.00     0.344 C 
BRANCH  20  21
HETATM   21  N6  UNL     1      25.715-182.367  29.937  1.00  0.00    -0.054 N 
ATOM     22  H63 UNL     1      24.893-182.895  30.231  1.00  0.00     0.276 HD
ATOM     23  H62 UNL     1      25.458-181.457  30.319  1.00  0.00     0.276 HD
ATOM     24  H61 UNL     1      25.804-182.340  28.921  1.00  0.00     0.276 HD
ENDBRANCH  20  21
BRANCH  20  25
HETATM   25  N7  UNL     1      27.161-182.146  31.761  1.00  0.00    -0.108 NA
BRANCH  25  26
HETATM   26  N8  UNL     1      28.279-182.573  32.429  1.00  0.00    -0.346 N 
ATOM     27  H82 UNL     1      29.061-183.031  31.961  1.00  0.00     0.172 HD
ATOM     28  H81 UNL     1      28.237-182.382  33.430  1.00  0.00     0.172 HD
ENDBRANCH  25  26
ENDBRANCH  20  25
ENDBRANCH  15  20
ENDBRANCH  10  12
ENDBRANCH   8  10
ENDBRANCH   5   8
BRANCH   5  29
HETATM   29  C15 UNL     1      29.304-183.514  24.795  1.00  0.00     0.175 A 
HETATM   30  N11 UNL     1      28.702-184.684  24.919  1.00  0.00    -0.268 N 
HETATM   31  N12 UNL     1      27.416-184.450  25.099  1.00  0.00    -0.227 N 
ATOM     32  H11 UNL     1      29.150-185.599  24.883  1.00  0.00     0.190 HD
HETATM   33  N13 UNL     1      27.173-183.160  25.094  1.00  0.00    -0.227 N 
ATOM     34  H12 UNL     1      26.708-185.172  25.224  1.00  0.00     0.210 HD
HETATM   35  N14 UNL     1      28.340-182.564  24.906  1.00  0.00    -0.268 N 
ATOM     36  H13 UNL     1      26.267-182.708  25.212  1.00  0.00     0.210 HD
ATOM     37  H14 UNL     1      28.491-181.557  24.854  1.00  0.00     0.190 HD
ENDBRANCH   5  29
BRANCH   6  38
HETATM   38  O1  UNL     1      32.717-184.376  25.231  1.00  0.00    -0.389 OA
ATOM     39  H1  UNL     1      33.420-184.859  24.813  1.00  0.00     0.210 HD
ENDBRANCH   6  38
BRANCH   1  40
HETATM   40  C6  UNL     1      32.126-183.036  21.182  1.00  0.00     0.186 C 
BRANCH  40  41
HETATM   41  N2  UNL     1      33.112-183.768  20.484  1.00  0.00    -0.277 N 
HETATM   42  C4  UNL     1      34.400-183.444  20.306  1.00  0.00     0.095 A 
HETATM   43  N1  UNL     1      34.977-184.455  19.589  1.00  0.00    -0.334 N 
HETATM   44  C5  UNL     1      35.164-182.250  20.759  1.00  0.00     0.091 C 
HETATM   45  C3  UNL     1      34.043-185.378  19.339  1.00  0.00     0.097 A 
ATOM     46  H1  UNL     1      35.953-184.498  19.295  1.00  0.00     0.168 HD
HETATM   47  N16 UNL     1      32.930-184.933  19.891  1.00  0.00    -0.285 N 
ATOM     48  H16 UNL     1      32.039-185.428  19.864  1.00  0.00     0.188 HD
BRANCH  45  49
HETATM   49  C2  UNL     1      34.162-186.678  18.600  1.00  0.00     0.073 C 
HETATM   50  C1  UNL     1      35.430-187.340  19.083  1.00  0.00     0.013 C 
ENDBRANCH  45  49
ENDBRANCH  40  41
ENDBRANCH   1  40
BRANCH   7  51
HETATM   51  N15 UNL     1      30.659-185.405  22.618  1.00  0.00    -0.070 N 
ATOM     52 3H15 UNL     1      29.806-185.001  23.004  1.00  0.00     0.274 HD
ATOM     53 2H15 UNL     1      30.526-185.215  21.624  1.00  0.00     0.274 HD
ATOM     54 1H15 UNL     1      30.656-186.413  22.772  1.00  0.00     0.274 HD
ENDBRANCH   7  51
TORSDOF 13
ENDMDL
MODEL 4
REMARK VINA RESULT: -8.160635098      3.484      9.193
REMARK  13 active torsions:
REMARK  status: ('A' for Active; 'I' for Inactive)
REMARK    1  A    between atoms: C2_2  and  C3_3 
REMARK    2  A    between atoms: N2_8  and  C6_9 
REMARK    3  A    between atoms: C6_9  and  C7_10 
REMARK    4  A    between atoms: C8_14  and  N4_15 
REMARK    5  A    between atoms: C8_14  and  C15_36 
REMARK    6  A    between atoms: N4_15  and  N5_17 
REMARK    7  A    between atoms: N5_17  and  C9_19 
REMARK    8  A    between atoms: C12_22  and  C13_23 
REMARK    9  A    between atoms: C13_23  and  N6_24 
REMARK   10  A    between atoms: C13_23  and  N7_28 
REMARK   11  A    between atoms: N7_28  and  N8_29 
REMARK   12  A    between atoms: C16_45  and  O1_46 
REMARK   13  A    between atoms: C17_48  and  N15_49 
ROOT
HETATM    1  C7  UNL     1      31.898-183.422  22.247  1.00  0.00     0.242 C 
HETATM    2  N3  UNL     1      30.901-182.692  22.956  1.00  0.00    -0.029 N 
ATOM      3  H31 UNL     1      29.990-182.699  22.495  1.00  0.00     0.281 HD
ATOM      4  H32 UNL     1      31.046-181.683  22.935  1.00  0.00     0.281 HD
HETATM    5  C8  UNL     1      30.871-183.233  24.275  1.00  0.00     0.299 C 
HETATM    6  C16 UNL     1      31.602-184.554  24.249  1.00  0.00     0.216 C 
HETATM    7  C17 UNL     1      31.740-184.817  22.738  1.00  0.00     0.249 C 
ENDROOT
BRANCH   5   8
HETATM    8  N4  UNL     1      31.322-182.379  25.328  1.00  0.00    -0.291 N 
ATOM      9  H4  UNL     1      31.494-181.389  25.154  1.00  0.00     0.183 HD
BRANCH   8  10
HETATM   10  N5  UNL     1      31.516-182.903  26.560  1.00  0.00    -0.299 N 
ATOM     11  H5  UNL     1      32.428-183.279  26.821  1.00  0.00     0.186 HD
BRANCH  10  12
HETATM   12  C9  UNL     1      30.431-182.924  27.496  1.00  0.00     0.088 A 
HETATM   13  C10 UNL     1      30.073-184.093  28.154  1.00  0.00     0.036 A 
HETATM   14  C11 UNL     1      29.047-184.125  29.052  1.00  0.00     0.031 A 
HETATM   15  C12 UNL     1      28.360-182.947  29.301  1.00  0.00     0.058 A 
HETATM   16  N9  UNL     1      28.708-181.817  28.666  1.00  0.00    -0.343 N 
HETATM   17  C14 UNL     1      29.715-181.785  27.780  1.00  0.00     0.144 A 
ATOM     18  H9  UNL     1      28.192-180.959  28.861  1.00  0.00     0.167 HD
HETATM   19  N10 UNL     1      30.043-180.568  27.142  1.00  0.00    -0.080 NA
BRANCH  15  20
HETATM   20  C13 UNL     1      27.236-182.891  30.259  1.00  0.00     0.344 C 
BRANCH  20  21
HETATM   21  N6  UNL     1      26.026-182.449  29.600  1.00  0.00    -0.054 N 
ATOM     22  H63 UNL     1      26.126-181.509  29.216  1.00  0.00     0.276 HD
ATOM     23  H62 UNL     1      25.863-182.953  28.729  1.00  0.00     0.276 HD
ATOM     24  H61 UNL     1      25.227-182.516  30.231  1.00  0.00     0.276 HD
ENDBRANCH  20  21
BRANCH  20  25
HETATM   25  N7  UNL     1      27.481-182.013  31.377  1.00  0.00    -0.108 NA
BRANCH  25  26
HETATM   26  N8  UNL     1      28.301-182.575  32.322  1.00  0.00    -0.346 N 
ATOM     27  H82 UNL     1      29.250-182.887  32.115  1.00  0.00     0.172 HD
ATOM     28  H81 UNL     1      27.857-182.644  33.237  1.00  0.00     0.172 HD
ENDBRANCH  25  26
ENDBRANCH  20  25
ENDBRANCH  15  20
ENDBRANCH  10  12
ENDBRANCH   8  10
ENDBRANCH   5   8
BRANCH   5  29
HETATM   29  C15 UNL     1      29.442-183.555  24.615  1.00  0.00     0.175 A 
HETATM   30  N11 UNL     1      28.813-184.701  24.804  1.00  0.00    -0.268 N 
HETATM   31  N12 UNL     1      27.553-184.420  25.078  1.00  0.00    -0.227 N 
ATOM     32  H11 UNL     1      29.225-185.632  24.749  1.00  0.00     0.190 HD
HETATM   33  N13 UNL     1      27.354-183.123  25.070  1.00  0.00    -0.227 N 
ATOM     34  H12 UNL     1      26.833-185.116  25.269  1.00  0.00     0.210 HD
HETATM   35  N14 UNL     1      28.522-182.570  24.784  1.00  0.00    -0.268 N 
ATOM     36  H13 UNL     1      26.475-182.638  25.249  1.00  0.00     0.210 HD
ATOM     37  H14 UNL     1      28.702-181.569  24.704  1.00  0.00     0.190 HD
ENDBRANCH   5  29
BRANCH   6  38
HETATM   38  O1  UNL     1      32.847-184.532  24.796  1.00  0.00    -0.389 OA
ATOM     39  H1  UNL     1      33.561-184.587  24.171  1.00  0.00     0.210 HD
ENDBRANCH   6  38
BRANCH   1  40
HETATM   40  C6  UNL     1      31.989-183.213  20.787  1.00  0.00     0.186 C 
BRANCH  40  41
HETATM   41  N2  UNL     1      32.707-184.133  19.992  1.00  0.00    -0.277 N 
HETATM   42  C4  UNL     1      34.033-184.194  19.808  1.00  0.00     0.095 A 
HETATM   43  N1  UNL     1      34.278-185.254  18.978  1.00  0.00    -0.334 N 
HETATM   44  C5  UNL     1      35.122-183.337  20.350  1.00  0.00     0.091 C 
HETATM   45  C3  UNL     1      33.108-185.823  18.669  1.00  0.00     0.097 A 
ATOM     46  H1  UNL     1      35.195-185.557  18.652  1.00  0.00     0.168 HD
HETATM   47  N16 UNL     1      32.182-185.122  19.296  1.00  0.00    -0.285 N 
ATOM     48  H16 UNL     1      31.183-185.322  19.249  1.00  0.00     0.188 HD
BRANCH  45  49
HETATM   49  C2  UNL     1      32.830-187.017  17.805  1.00  0.00     0.073 C 
HETATM   50  C1  UNL     1      34.133-187.389  17.140  1.00  0.00     0.013 C 
ENDBRANCH  45  49
ENDBRANCH  40  41
ENDBRANCH   1  40
BRANCH   7  51
HETATM   51  N15 UNL     1      30.558-185.514  22.363  1.00  0.00    -0.070 N 
ATOM     52 3H15 UNL     1      29.794-185.241  22.982  1.00  0.00     0.274 HD
ATOM     53 2H15 UNL     1      30.220-185.151  21.472  1.00  0.00     0.274 HD
ATOM     54 1H15 UNL     1      30.607-186.531  22.316  1.00  0.00     0.274 HD
ENDBRANCH   7  51
TORSDOF 13
ENDMDL
MODEL 5
REMARK VINA RESULT: -8.132647928      3.357      8.795
REMARK  13 active torsions:
REMARK  status: ('A' for Active; 'I' for Inactive)
REMARK    1  A    between atoms: C2_2  and  C3_3 
REMARK    2  A    between atoms: N2_8  and  C6_9 
REMARK    3  A    between atoms: C6_9  and  C7_10 
REMARK    4  A    between atoms: C8_14  and  N4_15 
REMARK    5  A    between atoms: C8_14  and  C15_36 
REMARK    6  A    between atoms: N4_15  and  N5_17 
REMARK    7  A    between atoms: N5_17  and  C9_19 
REMARK    8  A    between atoms: C12_22  and  C13_23 
REMARK    9  A    between atoms: C13_23  and  N6_24 
REMARK   10  A    between atoms: C13_23  and  N7_28 
REMARK   11  A    between atoms: N7_28  and  N8_29 
REMARK   12  A    between atoms: C16_45  and  O1_46 
REMARK   13  A    between atoms: C17_48  and  N15_49 
ROOT
HETATM    1  C7  UNL     1      31.919-183.437  22.263  1.00  0.00     0.242 C 
HETATM    2  N3  UNL     1      30.919-182.699  22.959  1.00  0.00    -0.029 N 
ATOM      3  H31 UNL     1      30.010-182.709  22.494  1.00  0.00     0.281 HD
ATOM      4  H32 UNL     1      31.065-181.690  22.927  1.00  0.00     0.281 HD
HETATM    5  C8  UNL     1      30.882-183.225  24.284  1.00  0.00     0.299 C 
HETATM    6  C16 UNL     1      31.611-184.546  24.276  1.00  0.00     0.216 C 
HETATM    7  C17 UNL     1      31.757-184.826  22.770  1.00  0.00     0.249 C 
ENDROOT
BRANCH   5   8
HETATM    8  N4  UNL     1      31.328-182.359  25.329  1.00  0.00    -0.291 N 
ATOM      9  H4  UNL     1      31.492-181.368  25.147  1.00  0.00     0.183 HD
BRANCH   8  10
HETATM   10  N5  UNL     1      31.530-182.872  26.565  1.00  0.00    -0.299 N 
ATOM     11  H5  UNL     1      32.446-183.236  26.828  1.00  0.00     0.186 HD
BRANCH  10  12
HETATM   12  C9  UNL     1      30.446-182.900  27.501  1.00  0.00     0.088 A 
HETATM   13  C10 UNL     1      30.095-184.070  28.159  1.00  0.00     0.036 A 
HETATM   14  C11 UNL     1      29.070-184.108  29.059  1.00  0.00     0.031 A 
HETATM   15  C12 UNL     1      28.376-182.934  29.309  1.00  0.00     0.058 A 
HETATM   16  N9  UNL     1      28.718-181.802  28.673  1.00  0.00    -0.343 N 
HETATM   17  C14 UNL     1      29.724-181.764  27.787  1.00  0.00     0.144 A 
ATOM     18  H9  UNL     1      28.198-180.947  28.870  1.00  0.00     0.167 HD
HETATM   19  N10 UNL     1      30.045-180.545  27.149  1.00  0.00    -0.080 NA
BRANCH  15  20
HETATM   20  C13 UNL     1      27.253-182.884  30.268  1.00  0.00     0.344 C 
BRANCH  20  21
HETATM   21  N6  UNL     1      26.034-182.473  29.605  1.00  0.00    -0.054 N 
ATOM     22  H63 UNL     1      25.627-181.646  30.041  1.00  0.00     0.276 HD
ATOM     23  H62 UNL     1      26.219-182.083  28.681  1.00  0.00     0.276 HD
ATOM     24  H61 UNL     1      25.369-183.245  29.564  1.00  0.00     0.276 HD
ENDBRANCH  20  21
BRANCH  20  25
HETATM   25  N7  UNL     1      27.485-181.986  31.372  1.00  0.00    -0.108 NA
BRANCH  25  26
HETATM   26  N8  UNL     1      28.225-182.559  32.374  1.00  0.00    -0.346 N 
ATOM     27  H82 UNL     1      27.858-183.290  32.983  1.00  0.00     0.172 HD
ATOM     28  H81 UNL     1      29.167-182.174  32.437  1.00  0.00     0.172 HD
ENDBRANCH  25  26
ENDBRANCH  20  25
ENDBRANCH  15  20
ENDBRANCH  10  12
ENDBRANCH   8  10
ENDBRANCH   5   8
BRANCH   5  29
HETATM   29  C15 UNL     1      29.451-183.541  24.621  1.00  0.00     0.175 A 
HETATM   30  N11 UNL     1      28.817-184.685  24.807  1.00  0.00    -0.268 N 
HETATM   31  N12 UNL     1      27.558-184.399  25.078  1.00  0.00    -0.227 N 
ATOM     32  H11 UNL     1      29.226-185.617  24.751  1.00  0.00     0.190 HD
HETATM   33  N13 UNL     1      27.364-183.102  25.072  1.00  0.00    -0.227 N 
ATOM     34  H12 UNL     1      26.835-185.093  25.267  1.00  0.00     0.210 HD
HETATM   35  N14 UNL     1      28.535-182.553  24.789  1.00  0.00    -0.268 N 
ATOM     36  H13 UNL     1      26.486-182.613  25.250  1.00  0.00     0.210 HD
ATOM     37  H14 UNL     1      28.719-181.553  24.711  1.00  0.00     0.190 HD
ENDBRANCH   5  29
BRANCH   6  38
HETATM   38  O1  UNL     1      32.855-184.519  24.829  1.00  0.00    -0.389 OA
ATOM     39  H1  UNL     1      32.962-183.902  25.543  1.00  0.00     0.210 HD
ENDBRANCH   6  38
BRANCH   1  40
HETATM   40  C6  UNL     1      32.017-183.245  20.802  1.00  0.00     0.186 C 
BRANCH  40  41
HETATM   41  N2  UNL     1      33.080-182.485  20.266  1.00  0.00    -0.277 N 
HETATM   42  C4  UNL     1      33.595-182.555  19.031  1.00  0.00     0.095 A 
HETATM   43  N1  UNL     1      34.591-181.621  18.953  1.00  0.00    -0.334 N 
HETATM   44  C5  UNL     1      33.232-183.432  17.884  1.00  0.00     0.091 C 
HETATM   45  C3  UNL     1      34.672-180.996  20.132  1.00  0.00     0.097 A 
ATOM     46  H1  UNL     1      35.172-181.434  18.136  1.00  0.00     0.168 HD
HETATM   47  N16 UNL     1      33.747-181.541  20.901  1.00  0.00    -0.285 N 
ATOM     48  H16 UNL     1      33.571-181.266  21.867  1.00  0.00     0.188 HD
BRANCH  45  49
HETATM   49  C2  UNL     1      35.588-179.890  20.562  1.00  0.00     0.073 C 
HETATM   50  C1  UNL     1      35.401-179.719  22.050  1.00  0.00     0.013 C 
ENDBRANCH  45  49
ENDBRANCH  40  41
ENDBRANCH   1  40
BRANCH   7  51
HETATM   51  N15 UNL     1      30.576-185.526  22.396  1.00  0.00    -0.070 N 
ATOM     52 3H15 UNL     1      29.808-185.242  23.005  1.00  0.00     0.274 HD
ATOM     53 2H15 UNL     1      30.245-185.177  21.497  1.00  0.00     0.274 HD
ATOM     54 1H15 UNL     1      30.623-186.544  22.366  1.00  0.00     0.274 HD
ENDBRANCH   7  51
TORSDOF 13
ENDMDL
