MODEL 1
REMARK VINA RESULT: -7.940295312      0.000      0.000
REMARK  13 active torsions:
REMARK  status: ('A' for Active; 'I' for Inactive)
REMARK    1  A    between atoms: S1_2  and  C2_3 
REMARK    2  A    between atoms: C2_3  and  N1_4 
REMARK    3  A    between atoms: C2_3  and  C10_29 
REMARK    4  A    between atoms: N1_4  and  C3_6 
REMARK    5  A    between atoms: C3_6  and  O1_7 
REMARK    6  A    between atoms: C3_6  and  C4_9 
REMARK    7  A    between atoms: C5_13  and  C6_14 
REMARK    8  A    between atoms: C6_14  and  N3_15 
REMARK    9  A    between atoms: C9_23  and  N6_24 
REMARK   10  A    between atoms: C10_29  and  N8_30 
REMARK   11  A    between atoms: C10_29  and  C11_34 
REMARK       I    between atoms: C11_34  and  N9_36 
REMARK   12  A    between atoms: N9_36  and  C12_38 
REMARK   13  A    between atoms: C14_45  and  N13_46 
ROOT
HETATM    1  C2  UNL     1      34.888-182.558  21.429  1.00  0.00     0.180 C 
ENDROOT
BRANCH   1   2
HETATM    2  S1  UNL     1      35.021-180.750  21.423  1.00  0.00    -0.146 SA
HETATM    3  C1  UNL     1      36.689-180.271  20.936  1.00  0.00     0.092 C 
ENDBRANCH   1   2
BRANCH   1   4
HETATM    4  N1  UNL     1      34.751-183.058  22.696  1.00  0.00    -0.376 N 
ATOM      5  H1  UNL     1      34.679-184.070  22.800  1.00  0.00     0.157 HD
BRANCH   4   6
HETATM    6  C3  UNL     1      34.703-182.276  23.865  1.00  0.00     0.285 C 
BRANCH   6   7
HETATM    7  O1  UNL     1      35.753-182.203  24.725  1.00  0.00    -0.370 OA
ATOM      8  H1  UNL     1      36.098-182.971  25.164  1.00  0.00     0.212 HD
ENDBRANCH   6   7
BRANCH   6   9
HETATM    9  C4  UNL     1      33.473-182.744  24.650  1.00  0.00     0.152 A 
HETATM   10  N2  UNL     1      33.482-183.657  25.610  1.00  0.00    -0.243 N 
HETATM   11  O2  UNL     1      32.259-183.822  26.038  1.00  0.00    -0.221 OA
ATOM     12  H2  UNL     1      34.305-184.148  25.958  1.00  0.00     0.196 HD
HETATM   13  C5  UNL     1      31.458-183.105  25.448  1.00  0.00     0.167 A 
HETATM   14  N7  UNL     1      32.193-182.344  24.486  1.00  0.00    -0.322 N 
ATOM     15  H7  UNL     1      31.832-181.654  23.827  1.00  0.00     0.169 HD
BRANCH  13  16
HETATM   16  C6  UNL     1      29.990-182.911  25.545  1.00  0.00     0.239 C 
BRANCH  16  17
HETATM   17  N3  UNL     1      29.678-182.782  26.947  1.00  0.00    -0.125 N 
HETATM   18  C7  UNL     1      29.370-183.904  27.681  1.00  0.00     0.342 A 
HETATM   19  O3  UNL     1      29.268-184.991  27.091  1.00  0.00    -0.246 OA
HETATM   20  N4  UNL     1      29.203-183.724  28.976  1.00  0.00    -0.304 N 
HETATM   21  C8  UNL     1      29.304-182.559  29.605  1.00  0.00     0.202 A 
ATOM     22  H4  UNL     1      28.978-184.543  29.539  1.00  0.00     0.171 HD
HETATM   23  N5  UNL     1      29.607-181.425  28.872  1.00  0.00    -0.188 N 
HETATM   24  C9  UNL     1      29.783-181.599  27.554  1.00  0.00     0.683 A 
ATOM     25  H5  UNL     1      29.693-180.508  29.310  1.00  0.00     0.185 HD
BRANCH  24  26
HETATM   26  N6  UNL     1      30.096-180.564  26.817  1.00  0.00    -0.234 N 
ATOM     27  H62 UNL     1      30.072-179.635  27.237  1.00  0.00     0.174 HD
ATOM     28  H61 UNL     1      30.370-180.739  25.850  1.00  0.00     0.174 HD
ENDBRANCH  24  26
ENDBRANCH  16  17
ENDBRANCH  13  16
ENDBRANCH   6   9
ENDBRANCH   4   6
ENDBRANCH   1   4
BRANCH   1  29
HETATM   29  C10 UNL     1      33.898-182.979  20.369  1.00  0.00     0.307 C 
BRANCH  29  30
HETATM   30  N8  UNL     1      33.573-182.066  19.346  1.00  0.00    -0.064 N 
ATOM     31  H83 UNL     1      33.376-182.585  18.490  1.00  0.00     0.275 HD
ATOM     32  H82 UNL     1      32.658-181.660  19.545  1.00  0.00     0.275 HD
ATOM     33  H81 UNL     1      34.229-181.314  19.134  1.00  0.00     0.275 HD
ENDBRANCH  29  30
BRANCH  29  34
HETATM   34  C11 UNL     1      32.575-183.313  21.137  1.00  0.00     0.269 C 
HETATM   35  O4  UNL     1      31.929-182.355  21.607  1.00  0.00    -0.270 OA
HETATM   36  N9  UNL     1      32.277-184.619  21.205  1.00  0.00    -0.157 N 
ATOM     37  H9  UNL     1      33.009-185.119  20.699  1.00  0.00     0.187 HD
BRANCH  36  38
HETATM   38  C12 UNL     1      31.489-185.465  21.622  1.00  0.00     0.702 A 
HETATM   39  N10 UNL     1      31.432-186.719  21.155  1.00  0.00    -0.162 N 
HETATM   40  C13 UNL     1      30.567-187.602  21.679  1.00  0.00     0.221 A 
ATOM     41  H10 UNL     1      32.052-187.006  20.396  1.00  0.00     0.187 HD
HETATM   42  N11 UNL     1      30.453-188.935  21.183  1.00  0.00    -0.062 NA
HETATM   43  N12 UNL     1      29.749-187.246  22.680  1.00  0.00    -0.163 N 
HETATM   44  C14 UNL     1      29.781-185.963  23.184  1.00  0.00     0.692 A 
ATOM     45  H12 UNL     1      29.099-187.928  23.070  1.00  0.00     0.187 HD
HETATM   46  N14 UNL     1      30.657-185.097  22.633  1.00  0.00    -0.022 N 
ATOM     47  H14 UNL     1      30.696-184.140  22.985  1.00  0.00     0.203 HD
BRANCH  44  48
HETATM   48  N13 UNL     1      29.053-185.669  24.100  1.00  0.00    -0.234 N 
ATOM     49 2H13 UNL     1      29.206-184.851  24.691  1.00  0.00     0.174 HD
ATOM     50 1H13 UNL     1      28.255-186.266  24.318  1.00  0.00     0.174 HD
ENDBRANCH  44  48
ENDBRANCH  36  38
ENDBRANCH  29  34
ENDBRANCH   1  29
TORSDOF 13
ENDMDL
MODEL 2
REMARK VINA RESULT: -7.610129935      3.442      4.666
REMARK  13 active torsions:
REMARK  status: ('A' for Active; 'I' for Inactive)
REMARK    1  A    between atoms: S1_2  and  C2_3 
REMARK    2  A    between atoms: C2_3  and  N1_4 
REMARK    3  A    between atoms: C2_3  and  C10_29 
REMARK    4  A    between atoms: N1_4  and  C3_6 
REMARK    5  A    between atoms: C3_6  and  O1_7 
REMARK    6  A    between atoms: C3_6  and  C4_9 
REMARK    7  A    between atoms: C5_13  and  C6_14 
REMARK    8  A    between atoms: C6_14  and  N3_15 
REMARK    9  A    between atoms: C9_23  and  N6_24 
REMARK   10  A    between atoms: C10_29  and  N8_30 
REMARK   11  A    between atoms: C10_29  and  C11_34 
REMARK       I    between atoms: C11_34  and  N9_36 
REMARK   12  A    between atoms: N9_36  and  C12_38 
REMARK   13  A    between atoms: C14_45  and  N13_46 
ROOT
HETATM    1  C2  UNL     1      32.719-184.190  21.294  1.00  0.00     0.180 C 
ENDROOT
BRANCH   1   2
HETATM    2  S1  UNL     1      33.923-183.072  22.059  1.00  0.00    -0.146 SA
HETATM    3  C1  UNL     1      33.935-183.328  23.843  1.00  0.00     0.092 C 
ENDBRANCH   1   2
BRANCH   1   4
HETATM    4  N1  UNL     1      31.505-184.145  21.925  1.00  0.00    -0.376 N 
ATOM      5  H1  UNL     1      31.045-183.238  22.000  1.00  0.00     0.157 HD
BRANCH   4   6
HETATM    6  C3  UNL     1      30.848-185.258  22.479  1.00  0.00     0.285 C 
BRANCH   6   7
HETATM    7  O1  UNL     1      29.965-186.003  21.762  1.00  0.00    -0.370 OA
ATOM      8  H1  UNL     1      29.540-186.770  22.127  1.00  0.00     0.212 HD
ENDBRANCH   6   7
BRANCH   6   9
HETATM    9  C4  UNL     1      30.137-184.759  23.742  1.00  0.00     0.152 A 
HETATM   10  N2  UNL     1      29.100-185.349  24.318  1.00  0.00    -0.243 N 
HETATM   11  O2  UNL     1      28.741-184.639  25.354  1.00  0.00    -0.221 OA
ATOM     12  H2  UNL     1      28.656-186.212  24.006  1.00  0.00     0.196 HD
HETATM   13  C5  UNL     1      29.444-183.646  25.506  1.00  0.00     0.167 A 
HETATM   14  N7  UNL     1      30.415-183.646  24.455  1.00  0.00    -0.322 N 
ATOM     15  H7  UNL     1      31.151-182.960  24.284  1.00  0.00     0.169 HD
BRANCH  13  16
HETATM   16  C6  UNL     1      29.461-182.542  26.496  1.00  0.00     0.239 C 
BRANCH  16  17
HETATM   17  N3  UNL     1      29.877-183.115  27.752  1.00  0.00    -0.125 N 
HETATM   18  C7  UNL     1      31.180-183.523  27.915  1.00  0.00     0.342 A 
HETATM   19  O3  UNL     1      31.943-183.481  26.938  1.00  0.00    -0.246 OA
HETATM   20  N4  UNL     1      31.513-183.936  29.122  1.00  0.00    -0.304 N 
HETATM   21  C8  UNL     1      30.693-183.989  30.166  1.00  0.00     0.202 A 
ATOM     22  H4  UNL     1      32.476-184.239  29.266  1.00  0.00     0.171 HD
HETATM   23  N5  UNL     1      29.379-183.586  30.007  1.00  0.00    -0.188 N 
HETATM   24  C9  UNL     1      29.031-183.160  28.784  1.00  0.00     0.683 A 
ATOM     25  H5  UNL     1      28.712-183.610  30.778  1.00  0.00     0.185 HD
BRANCH  24  26
HETATM   26  N6  UNL     1      27.807-182.744  28.584  1.00  0.00    -0.234 N 
ATOM     27  H62 UNL     1      27.485-182.604  27.626  1.00  0.00     0.174 HD
ATOM     28  H61 UNL     1      27.219-182.594  29.404  1.00  0.00     0.174 HD
ENDBRANCH  24  26
ENDBRANCH  16  17
ENDBRANCH  13  16
ENDBRANCH   6   9
ENDBRANCH   4   6
ENDBRANCH   1   4
BRANCH   1  29
HETATM   29  C10 UNL     1      32.767-184.011  19.796  1.00  0.00     0.307 C 
BRANCH  29  30
HETATM   30  N8  UNL     1      31.887-183.088  19.196  1.00  0.00    -0.064 N 
ATOM     31  H83 UNL     1      30.927-183.391  19.364  1.00  0.00     0.275 HD
ATOM     32  H82 UNL     1      31.914-182.215  19.722  1.00  0.00     0.275 HD
ATOM     33  H81 UNL     1      31.998-182.879  18.203  1.00  0.00     0.275 HD
ENDBRANCH  29  30
BRANCH  29  34
HETATM   34  C11 UNL     1      32.452-185.420  19.192  1.00  0.00     0.269 C 
HETATM   35  O4  UNL     1      32.503-186.398  19.965  1.00  0.00    -0.270 OA
HETATM   36  N9  UNL     1      32.154-185.419  17.884  1.00  0.00    -0.157 N 
ATOM     37  H9  UNL     1      32.187-184.449  17.571  1.00  0.00     0.187 HD
BRANCH  36  38
HETATM   38  C12 UNL     1      31.859-186.101  16.905  1.00  0.00     0.702 A 
HETATM   39  N10 UNL     1      31.307-185.600  15.792  1.00  0.00    -0.162 N 
HETATM   40  C13 UNL     1      31.038-186.398  14.746  1.00  0.00     0.221 A 
ATOM     41  H10 UNL     1      31.089-184.605  15.739  1.00  0.00     0.187 HD
HETATM   42  N11 UNL     1      30.417-185.907  13.560  1.00  0.00    -0.062 NA
HETATM   43  N12 UNL     1      31.322-187.708  14.796  1.00  0.00    -0.163 N 
HETATM   44  C14 UNL     1      31.891-188.257  15.925  1.00  0.00     0.692 A 
ATOM     45  H12 UNL     1      31.115-188.301  13.993  1.00  0.00     0.187 HD
HETATM   46  N14 UNL     1      32.143-187.431  16.962  1.00  0.00    -0.022 N 
ATOM     47  H14 UNL     1      32.559-187.813  17.812  1.00  0.00     0.203 HD
BRANCH  44  48
HETATM   48  N13 UNL     1      32.160-189.433  15.941  1.00  0.00    -0.234 N 
ATOM     49 2H13 UNL     1      31.770-190.101  15.276  1.00  0.00     0.174 HD
ATOM     50 1H13 UNL     1      32.790-189.792  16.658  1.00  0.00     0.174 HD
ENDBRANCH  44  48
ENDBRANCH  36  38
ENDBRANCH  29  34
ENDBRANCH   1  29
TORSDOF 13
ENDMDL
MODEL 3
REMARK VINA RESULT: -7.507360924      2.242      4.990
REMARK  13 active torsions:
REMARK  status: ('A' for Active; 'I' for Inactive)
REMARK    1  A    between atoms: S1_2  and  C2_3 
REMARK    2  A    between atoms: C2_3  and  N1_4 
REMARK    3  A    between atoms: C2_3  and  C10_29 
REMARK    4  A    between atoms: N1_4  and  C3_6 
REMARK    5  A    between atoms: C3_6  and  O1_7 
REMARK    6  A    between atoms: C3_6  and  C4_9 
REMARK    7  A    between atoms: C5_13  and  C6_14 
REMARK    8  A    between atoms: C6_14  and  N3_15 
REMARK    9  A    between atoms: C9_23  and  N6_24 
REMARK   10  A    between atoms: C10_29  and  N8_30 
REMARK   11  A    between atoms: C10_29  and  C11_34 
REMARK       I    between atoms: C11_34  and  N9_36 
REMARK   12  A    between atoms: N9_36  and  C12_38 
REMARK   13  A    between atoms: C14_45  and  N13_46 
ROOT
HETATM    1  C2  UNL     1      31.969-184.273  20.942  1.00  0.00     0.180 C 
ENDROOT
BRANCH   1   2
HETATM    2  S1  UNL     1      31.948-184.765  19.197  1.00  0.00    -0.146 SA
HETATM    3  C1  UNL     1      33.073-186.152  18.948  1.00  0.00     0.092 C 
ENDBRANCH   1   2
BRANCH   1   4
HETATM    4  N1  UNL     1      32.314-185.313  21.763  1.00  0.00    -0.376 N 
ATOM      5  H1  UNL     1      33.294-185.397  22.032  1.00  0.00     0.157 HD
BRANCH   4   6
HETATM    6  C3  UNL     1      31.416-186.273  22.262  1.00  0.00     0.285 C 
BRANCH   6   7
HETATM    7  O1  UNL     1      30.608-186.997  21.442  1.00  0.00    -0.370 OA
ATOM      8  H1  UNL     1      30.005-187.649  21.778  1.00  0.00     0.212 HD
ENDBRANCH   6   7
BRANCH   6   9
HETATM    9  C4  UNL     1      30.534-185.552  23.287  1.00  0.00     0.152 A 
HETATM   10  N2  UNL     1      29.340-185.961  23.689  1.00  0.00    -0.243 N 
HETATM   11  O2  UNL     1      28.871-185.095  24.546  1.00  0.00    -0.221 OA
ATOM     12  H2  UNL     1      28.867-186.811  23.382  1.00  0.00     0.196 HD
HETATM   13  C5  UNL     1      29.644-184.162  24.738  1.00  0.00     0.167 A 
HETATM   14  N7  UNL     1      30.796-184.388  23.922  1.00  0.00    -0.322 N 
ATOM     15  H7  UNL     1      31.628-183.804  23.839  1.00  0.00     0.169 HD
BRANCH  13  16
HETATM   16  C6  UNL     1      29.595-182.948  25.588  1.00  0.00     0.239 C 
BRANCH  16  17
HETATM   17  N3  UNL     1      29.919-183.365  26.930  1.00  0.00    -0.125 N 
HETATM   18  C7  UNL     1      31.236-183.527  27.292  1.00  0.00     0.342 A 
HETATM   19  O3  UNL     1      32.112-183.407  26.421  1.00  0.00    -0.246 OA
HETATM   20  N4  UNL     1      31.460-183.804  28.562  1.00  0.00    -0.304 N 
HETATM   21  C8  UNL     1      30.521-183.941  29.491  1.00  0.00     0.202 A 
ATOM     22  H4  UNL     1      32.430-183.924  28.853  1.00  0.00     0.171 HD
HETATM   23  N5  UNL     1      29.194-183.786  29.132  1.00  0.00    -0.188 N 
HETATM   24  C9  UNL     1      28.957-183.500  27.843  1.00  0.00     0.683 A 
ATOM     25  H5  UNL     1      28.438-183.884  29.810  1.00  0.00     0.185 HD
BRANCH  24  26
HETATM   26  N6  UNL     1      27.721-183.319  27.454  1.00  0.00    -0.234 N 
ATOM     27  H62 UNL     1      27.527-183.234  26.456  1.00  0.00     0.174 HD
ATOM     28  H61 UNL     1      26.999-183.288  28.173  1.00  0.00     0.174 HD
ENDBRANCH  24  26
ENDBRANCH  16  17
ENDBRANCH  13  16
ENDBRANCH   6   9
ENDBRANCH   4   6
ENDBRANCH   1   4
BRANCH   1  29
HETATM   29  C10 UNL     1      32.710-182.964  21.072  1.00  0.00     0.307 C 
BRANCH  29  30
HETATM   30  N8  UNL     1      32.980-182.221  19.905  1.00  0.00    -0.064 N 
ATOM     31  H83 UNL     1      32.740-182.786  19.090  1.00  0.00     0.275 HD
ATOM     32  H82 UNL     1      32.299-181.466  19.830  1.00  0.00     0.275 HD
ATOM     33  H81 UNL     1      33.916-181.836  19.776  1.00  0.00     0.275 HD
ENDBRANCH  29  30
BRANCH  29  34
HETATM   34  C11 UNL     1      34.085-183.322  21.728  1.00  0.00     0.269 C 
HETATM   35  O4  UNL     1      34.907-183.949  21.030  1.00  0.00    -0.270 OA
HETATM   36  N9  UNL     1      34.230-182.906  22.996  1.00  0.00    -0.157 N 
ATOM     37  H9  UNL     1      33.375-182.411  23.247  1.00  0.00     0.187 HD
BRANCH  36  38
HETATM   38  C12 UNL     1      34.965-182.872  23.979  1.00  0.00     0.702 A 
HETATM   39  N10 UNL     1      36.092-182.149  24.038  1.00  0.00    -0.162 N 
HETATM   40  C13 UNL     1      36.833-182.134  25.158  1.00  0.00     0.221 A 
ATOM     41  H10 UNL     1      36.389-181.607  23.227  1.00  0.00     0.187 HD
HETATM   42  N11 UNL     1      38.057-181.405  25.245  1.00  0.00    -0.062 NA
HETATM   43  N12 UNL     1      36.457-182.835  26.236  1.00  0.00    -0.163 N 
HETATM   44  C14 UNL     1      35.303-183.590  26.211  1.00  0.00     0.692 A 
ATOM     45  H12 UNL     1      37.027-182.811  27.081  1.00  0.00     0.187 HD
HETATM   46  N14 UNL     1      34.583-183.591  25.069  1.00  0.00    -0.022 N 
ATOM     47  H14 UNL     1      33.728-184.146  25.023  1.00  0.00     0.203 HD
BRANCH  44  48
HETATM   48  N13 UNL     1      34.969-184.196  27.199  1.00  0.00    -0.234 N 
ATOM     49 2H13 UNL     1      35.582-184.855  27.680  1.00  0.00     0.174 HD
ATOM     50 1H13 UNL     1      34.028-184.067  27.571  1.00  0.00     0.174 HD
ENDBRANCH  44  48
ENDBRANCH  36  38
ENDBRANCH  29  34
ENDBRANCH   1  29
TORSDOF 13
ENDMDL
MODEL 4
REMARK VINA RESULT: -7.488627994      3.382      4.522
REMARK  13 active torsions:
REMARK  status: ('A' for Active; 'I' for Inactive)
REMARK    1  A    between atoms: S1_2  and  C2_3 
REMARK    2  A    between atoms: C2_3  and  N1_4 
REMARK    3  A    between atoms: C2_3  and  C10_29 
REMARK    4  A    between atoms: N1_4  and  C3_6 
REMARK    5  A    between atoms: C3_6  and  O1_7 
REMARK    6  A    between atoms: C3_6  and  C4_9 
REMARK    7  A    between atoms: C5_13  and  C6_14 
REMARK    8  A    between atoms: C6_14  and  N3_15 
REMARK    9  A    between atoms: C9_23  and  N6_24 
REMARK   10  A    between atoms: C10_29  and  N8_30 
REMARK   11  A    between atoms: C10_29  and  C11_34 
REMARK       I    between atoms: C11_34  and  N9_36 
REMARK   12  A    between atoms: N9_36  and  C12_38 
REMARK   13  A    between atoms: C14_45  and  N13_46 
ROOT
HETATM    1  C2  UNL     1      32.724-184.122  21.491  1.00  0.00     0.180 C 
ENDROOT
BRANCH   1   2
HETATM    2  S1  UNL     1      33.897-183.002  22.299  1.00  0.00    -0.146 SA
HETATM    3  C1  UNL     1      33.865-183.278  24.080  1.00  0.00     0.092 C 
ENDBRANCH   1   2
BRANCH   1   4
HETATM    4  N1  UNL     1      31.489-184.082  22.080  1.00  0.00    -0.376 N 
ATOM      5  H1  UNL     1      31.013-183.182  22.119  1.00  0.00     0.157 HD
BRANCH   4   6
HETATM    6  C3  UNL     1      30.829-185.194  22.635  1.00  0.00     0.285 C 
BRANCH   6   7
HETATM    7  O1  UNL     1      29.963-185.953  21.911  1.00  0.00    -0.370 OA
ATOM      8  H1  UNL     1      29.954-186.900  21.970  1.00  0.00     0.212 HD
ENDBRANCH   6   7
BRANCH   6   9
HETATM    9  C4  UNL     1      30.094-184.686  23.879  1.00  0.00     0.152 A 
HETATM   10  N2  UNL     1      29.025-185.252  24.419  1.00  0.00    -0.243 N 
HETATM   11  O2  UNL     1      28.653-184.540  25.449  1.00  0.00    -0.221 OA
ATOM     12  H2  UNL     1      28.568-186.101  24.087  1.00  0.00     0.196 HD
HETATM   13  C5  UNL     1      29.376-183.567  25.630  1.00  0.00     0.167 A 
HETATM   14  N7  UNL     1      30.379-183.585  24.609  1.00  0.00    -0.322 N 
ATOM     15  H7  UNL     1      31.137-182.917  24.466  1.00  0.00     0.169 HD
BRANCH  13  16
HETATM   16  C6  UNL     1      29.391-182.470  26.628  1.00  0.00     0.239 C 
BRANCH  16  17
HETATM   17  N3  UNL     1      29.819-183.050  27.878  1.00  0.00    -0.125 N 
HETATM   18  C7  UNL     1      31.115-183.491  28.015  1.00  0.00     0.342 A 
HETATM   19  O3  UNL     1      31.858-183.471  27.021  1.00  0.00    -0.246 OA
HETATM   20  N4  UNL     1      31.463-183.909  29.216  1.00  0.00    -0.304 N 
HETATM   21  C8  UNL     1      30.664-183.938  30.276  1.00  0.00     0.202 A 
ATOM     22  H4  UNL     1      32.421-184.235  29.340  1.00  0.00     0.171 HD
HETATM   23  N5  UNL     1      29.358-183.503  30.144  1.00  0.00    -0.188 N 
HETATM   24  C9  UNL     1      28.995-183.072  28.927  1.00  0.00     0.683 A 
ATOM     25  H5  UNL     1      28.706-183.508  30.929  1.00  0.00     0.185 HD
BRANCH  24  26
HETATM   26  N6  UNL     1      27.778-182.626  28.752  1.00  0.00    -0.234 N 
ATOM     27  H62 UNL     1      27.004-183.290  28.761  1.00  0.00     0.174 HD
ATOM     28  H61 UNL     1      27.656-181.621  28.630  1.00  0.00     0.174 HD
ENDBRANCH  24  26
ENDBRANCH  16  17
ENDBRANCH  13  16
ENDBRANCH   6   9
ENDBRANCH   4   6
ENDBRANCH   1   4
BRANCH   1  29
HETATM   29  C10 UNL     1      32.824-183.940  19.995  1.00  0.00     0.307 C 
BRANCH  29  30
HETATM   30  N8  UNL     1      31.952-183.031  19.365  1.00  0.00    -0.064 N 
ATOM     31  H83 UNL     1      31.075-183.508  19.151  1.00  0.00     0.275 HD
ATOM     32  H82 UNL     1      31.640-182.343  20.050  1.00  0.00     0.275 HD
ATOM     33  H81 UNL     1      32.274-182.542  18.529  1.00  0.00     0.275 HD
ENDBRANCH  29  30
BRANCH  29  34
HETATM   34  C11 UNL     1      32.553-185.354  19.379  1.00  0.00     0.269 C 
HETATM   35  O4  UNL     1      32.612-186.334  20.148  1.00  0.00    -0.270 OA
HETATM   36  N9  UNL     1      32.280-185.353  18.065  1.00  0.00    -0.157 N 
ATOM     37  H9  UNL     1      32.296-184.381  17.758  1.00  0.00     0.187 HD
BRANCH  36  38
HETATM   38  C12 UNL     1      32.020-186.036  17.078  1.00  0.00     0.702 A 
HETATM   39  N10 UNL     1      32.396-187.315  16.942  1.00  0.00    -0.162 N 
HETATM   40  C13 UNL     1      32.050-188.014  15.849  1.00  0.00     0.221 A 
ATOM     41  H10 UNL     1      32.950-187.761  17.674  1.00  0.00     0.187 HD
HETATM   42  N11 UNL     1      32.464-189.364  15.652  1.00  0.00    -0.062 NA
HETATM   43  N12 UNL     1      31.318-187.447  14.879  1.00  0.00    -0.163 N 
HETATM   44  C14 UNL     1      30.913-186.133  14.987  1.00  0.00     0.692 A 
ATOM     45  H12 UNL     1      31.060-187.991  14.056  1.00  0.00     0.187 HD
HETATM   46  N14 UNL     1      31.282-185.455  16.094  1.00  0.00    -0.022 N 
ATOM     47  H14 UNL     1      31.000-184.480  16.195  1.00  0.00     0.203 HD
BRANCH  44  48
HETATM   48  N13 UNL     1      30.236-185.648  14.114  1.00  0.00    -0.234 N 
ATOM     49 2H13 UNL     1      30.112-186.084  13.200  1.00  0.00     0.174 HD
ATOM     50 1H13 UNL     1      29.775-184.753  14.277  1.00  0.00     0.174 HD
ENDBRANCH  44  48
ENDBRANCH  36  38
ENDBRANCH  29  34
ENDBRANCH   1  29
TORSDOF 13
ENDMDL
MODEL 5
REMARK VINA RESULT: -7.484200601      3.344      4.803
REMARK  13 active torsions:
REMARK  status: ('A' for Active; 'I' for Inactive)
REMARK    1  A    between atoms: S1_2  and  C2_3 
REMARK    2  A    between atoms: C2_3  and  N1_4 
REMARK    3  A    between atoms: C2_3  and  C10_29 
REMARK    4  A    between atoms: N1_4  and  C3_6 
REMARK    5  A    between atoms: C3_6  and  O1_7 
REMARK    6  A    between atoms: C3_6  and  C4_9 
REMARK    7  A    between atoms: C5_13  and  C6_14 
REMARK    8  A    between atoms: C6_14  and  N3_15 
REMARK    9  A    between atoms: C9_23  and  N6_24 
REMARK   10  A    between atoms: C10_29  and  N8_30 
REMARK   11  A    between atoms: C10_29  and  C11_34 
REMARK       I    between atoms: C11_34  and  N9_36 
REMARK   12  A    between atoms: N9_36  and  C12_38 
REMARK   13  A    between atoms: C14_45  and  N13_46 
ROOT
HETATM    1  C2  UNL     1      31.222-185.283  22.090  1.00  0.00     0.180 C 
ENDROOT
BRANCH   1   2
HETATM    2  S1  UNL     1      30.931-187.072  22.137  1.00  0.00    -0.146 SA
HETATM    3  C1  UNL     1      29.230-187.392  22.640  1.00  0.00     0.092 C 
ENDBRANCH   1   2
BRANCH   1   4
HETATM    4  N1  UNL     1      31.091-184.710  23.326  1.00  0.00    -0.376 N 
ATOM      5  H1  UNL     1      31.275-185.295  24.140  1.00  0.00     0.157 HD
BRANCH   4   6
HETATM    6  C3  UNL     1      30.722-183.372  23.554  1.00  0.00     0.285 C 
BRANCH   6   7
HETATM    7  O1  UNL     1      31.644-182.377  23.647  1.00  0.00    -0.370 OA
ATOM      8  H1  UNL     1      31.946-181.898  22.884  1.00  0.00     0.212 HD
ENDBRANCH   6   7
BRANCH   6   9
HETATM    9  C4  UNL     1      29.881-183.366  24.835  1.00  0.00     0.152 A 
HETATM   10  N2  UNL     1      29.100-182.371  25.231  1.00  0.00    -0.243 N 
HETATM   11  O2  UNL     1      28.557-182.699  26.373  1.00  0.00    -0.221 OA
ATOM     12  H2  UNL     1      28.948-181.497  24.729  1.00  0.00     0.196 HD
HETATM   13  C5  UNL     1      28.910-183.809  26.756  1.00  0.00     0.167 A 
HETATM   14  N7  UNL     1      29.811-184.333  25.777  1.00  0.00    -0.322 N 
ATOM     15  H7  UNL     1      30.292-185.232  25.787  1.00  0.00     0.169 HD
BRANCH  13  16
HETATM   16  C6  UNL     1      28.599-184.629  27.953  1.00  0.00     0.239 C 
BRANCH  16  17
HETATM   17  N3  UNL     1      29.251-183.996  29.072  1.00  0.00    -0.125 N 
HETATM   18  C7  UNL     1      30.612-184.123  29.227  1.00  0.00     0.342 A 
HETATM   19  O3  UNL     1      31.232-184.868  28.452  1.00  0.00    -0.246 OA
HETATM   20  N4  UNL     1      31.153-183.430  30.210  1.00  0.00    -0.304 N 
HETATM   21  C8  UNL     1      30.488-182.640  31.044  1.00  0.00     0.202 A 
ATOM     22  H4  UNL     1      32.161-183.507  30.339  1.00  0.00     0.171 HD
HETATM   23  N5  UNL     1      29.118-182.512  30.898  1.00  0.00    -0.188 N 
HETATM   24  C9  UNL     1      28.559-183.210  29.899  1.00  0.00     0.683 A 
ATOM     25  H5  UNL     1      28.564-181.919  31.516  1.00  0.00     0.185 HD
BRANCH  24  26
HETATM   26  N6  UNL     1      27.270-183.107  29.700  1.00  0.00    -0.234 N 
ATOM     27  H62 UNL     1      26.899-182.239  29.314  1.00  0.00     0.174 HD
ATOM     28  H61 UNL     1      26.691-183.915  29.927  1.00  0.00     0.174 HD
ENDBRANCH  24  26
ENDBRANCH  16  17
ENDBRANCH  13  16
ENDBRANCH   6   9
ENDBRANCH   4   6
ENDBRANCH   1   4
BRANCH   1  29
HETATM   29  C10 UNL     1      32.473-185.012  21.289  1.00  0.00     0.307 C 
BRANCH  29  30
HETATM   30  N8  UNL     1      33.381-184.043  21.761  1.00  0.00    -0.064 N 
ATOM     31  H83 UNL     1      33.152-183.142  21.340  1.00  0.00     0.275 HD
ATOM     32  H82 UNL     1      33.185-183.857  22.744  1.00  0.00     0.275 HD
ATOM     33  H81 UNL     1      34.381-184.214  21.651  1.00  0.00     0.275 HD
ENDBRANCH  29  30
BRANCH  29  34
HETATM   34  C11 UNL     1      31.979-184.543  19.880  1.00  0.00     0.269 C 
HETATM   35  O4  UNL     1      31.519-183.387  19.790  1.00  0.00    -0.270 OA
HETATM   36  N9  UNL     1      32.108-185.456  18.905  1.00  0.00    -0.157 N 
ATOM     37  H9  UNL     1      32.536-186.281  19.324  1.00  0.00     0.187 HD
BRANCH  36  38
HETATM   38  C12 UNL     1      31.924-185.712  17.717  1.00  0.00     0.702 A 
HETATM   39  N10 UNL     1      32.432-186.789  17.104  1.00  0.00    -0.162 N 
HETATM   40  C13 UNL     1      32.166-187.025  15.809  1.00  0.00     0.221 A 
ATOM     41  H10 UNL     1      33.026-187.436  17.625  1.00  0.00     0.187 HD
HETATM   42  N11 UNL     1      32.719-188.141  15.115  1.00  0.00    -0.062 NA
HETATM   43  N12 UNL     1      31.384-186.190  15.110  1.00  0.00    -0.163 N 
HETATM   44  C14 UNL     1      30.845-185.071  15.709  1.00  0.00     0.692 A 
ATOM     45  H12 UNL     1      31.188-186.383  14.128  1.00  0.00     0.187 HD
HETATM   46  N14 UNL     1      31.136-184.858  17.010  1.00  0.00    -0.022 N 
ATOM     47  H14 UNL     1      30.753-184.035  17.475  1.00  0.00     0.203 HD
BRANCH  44  48
HETATM   48  N13 UNL     1      30.125-184.345  15.069  1.00  0.00    -0.234 N 
ATOM     49 2H13 UNL     1      29.124-184.507  14.963  1.00  0.00     0.174 HD
ATOM     50 1H13 UNL     1      30.526-183.537  14.592  1.00  0.00     0.174 HD
ENDBRANCH  44  48
ENDBRANCH  36  38
ENDBRANCH  29  34
ENDBRANCH   1  29
TORSDOF 13
ENDMDL
