MODEL 1
REMARK VINA RESULT: -8.988513052      0.000      0.000
REMARK  14 active torsions:
REMARK  status: ('A' for Active; 'I' for Inactive)
REMARK    1  A    between atoms: C2_2  and  C4_4 
REMARK       I    between atoms: C4_4  and  N1_6 
REMARK    2  A    between atoms: N1_6  and  C5_8 
REMARK    3  A    between atoms: C5_8  and  C6_9 
REMARK    4  A    between atoms: C5_8  and  C16_48 
REMARK    5  A    between atoms: C7_12  and  C8_13 
REMARK    6  A    between atoms: C8_13  and  O2_14 
REMARK    7  A    between atoms: C8_13  and  O3_16 
REMARK    8  A    between atoms: C9_19  and  C10_20 
REMARK    9  A    between atoms: C10_20  and  N3_21 
REMARK   10  A    between atoms: C12_29  and  N7_30 
REMARK   11  A    between atoms: C13_35  and  N9_36 
REMARK   12  A    between atoms: N9_36  and  N10_38 
REMARK   13  A    between atoms: N11_43  and  N12_45 
REMARK   14  A    between atoms: C16_48  and  O5_50 
ROOT
HETATM    1  N3  UNL     1      32.846-185.783  19.597  1.00  0.00    -0.254 N 
HETATM    2  N4  UNL     1      33.653-186.839  19.498  1.00  0.00    -0.237 N 
ATOM      3  H4  UNL     1      34.163-187.127  20.333  1.00  0.00     0.208 HD
HETATM    4  N5  UNL     1      33.839-187.539  18.394  1.00  0.00    -0.269 N 
ATOM      5  H5  UNL     1      34.474-188.338  18.391  1.00  0.00     0.190 HD
HETATM    6  C11 UNL     1      33.172-187.181  17.259  1.00  0.00     0.154 A 
HETATM    7  N6  UNL     1      33.351-187.883  16.112  1.00  0.00    -0.174 N 
ATOM      8  H6  UNL     1      33.981-188.685  16.087  1.00  0.00     0.186 HD
HETATM    9  C12 UNL     1      32.684-187.504  15.012  1.00  0.00     0.679 A 
HETATM   10  N8  UNL     1      31.859-186.438  15.082  1.00  0.00    -0.174 N 
ATOM     11  H8  UNL     1      31.357-186.159  14.238  1.00  0.00     0.186 HD
HETATM   12  C13 UNL     1      31.662-185.722  16.207  1.00  0.00     0.153 A 
HETATM   13  C14 UNL     1      32.342-186.103  17.345  1.00  0.00     0.102 A 
HETATM   14  C15 UNL     1      32.161-185.370  18.544  1.00  0.00     0.156 A 
HETATM   15  N11 UNL     1      31.339-184.397  18.477  1.00  0.00    -0.290 N 
ATOM     16  H11 UNL     1      30.928-184.264  17.552  1.00  0.00     0.188 HD
ENDROOT
BRANCH   1  17
HETATM   17  C10 UNL     1      32.783-185.136  20.884  1.00  0.00     0.219 C 
BRANCH  17  18
HETATM   18  C9  UNL     1      31.670-185.762  21.667  1.00  0.00     0.100 A 
HETATM   19  C6  UNL     1      31.083-185.296  22.823  1.00  0.00     0.068 A 
HETATM   20  N2  UNL     1      30.132-186.230  23.124  1.00  0.00    -0.336 N 
HETATM   21  C7  UNL     1      30.147-187.191  22.212  1.00  0.00     0.180 A 
ATOM     22  H2  UNL     1      29.506-186.194  23.928  1.00  0.00     0.167 HD
HETATM   23  O4  UNL     1      31.070-186.894  21.351  1.00  0.00    -0.293 OA
BRANCH  19  24
HETATM   24  C5  UNL     1      31.417-184.060  23.522  1.00  0.00     0.165 C 
BRANCH  24  25
HETATM   25  N1  UNL     1      30.285-183.329  24.035  1.00  0.00    -0.348 N 
HETATM   26  C4  UNL     1      29.959-183.272  25.411  1.00  0.00     0.221 C 
HETATM   27  O1  UNL     1      30.704-183.892  26.211  1.00  0.00    -0.273 OA
ATOM     28  H1  UNL     1      29.691-182.829  23.374  1.00  0.00     0.163 HD
BRANCH  26  29
HETATM   29  C2  UNL     1      28.807-182.533  25.952  1.00  0.00     0.070 C 
HETATM   30  C1  UNL     1      27.507-182.954  25.320  1.00  0.00     0.019 C 
HETATM   31  C3  UNL     1      28.708-182.777  27.440  1.00  0.00     0.019 C 
ENDBRANCH  26  29
ENDBRANCH  24  25
BRANCH  24  32
HETATM   32  C16 UNL     1      32.246-183.118  22.667  1.00  0.00     0.142 C 
HETATM   33  C17 UNL     1      33.350-182.438  23.415  1.00  0.00     0.042 C 
BRANCH  32  34
HETATM   34  O5  UNL     1      31.367-182.171  22.152  1.00  0.00    -0.394 OA
ATOM     35  H5  UNL     1      31.709-181.321  22.400  1.00  0.00     0.210 HD
ENDBRANCH  32  34
ENDBRANCH  24  32
ENDBRANCH  19  24
BRANCH  21  36
HETATM   36  C8  UNL     1      29.308-188.426  22.095  1.00  0.00     0.331 C 
BRANCH  36  37
HETATM   37  O2  UNL     1      28.997-188.881  23.390  1.00  0.00    -0.364 OA
ATOM     38  H2  UNL     1      28.058-188.812  23.518  1.00  0.00     0.213 HD
ENDBRANCH  36  37
BRANCH  36  39
HETATM   39  O3  UNL     1      30.084-189.402  21.487  1.00  0.00    -0.364 OA
ATOM     40  H3  UNL     1      30.205-189.148  20.580  1.00  0.00     0.213 HD
ENDBRANCH  36  39
ENDBRANCH  21  36
ENDBRANCH  17  18
ENDBRANCH   1  17
BRANCH  15  41
HETATM   41  N12 UNL     1      30.910-183.511  19.401  1.00  0.00    -0.344 N 
ATOM     42 2H12 UNL     1      31.285-182.574  19.252  1.00  0.00     0.176 HD
ATOM     43 1H12 UNL     1      30.291-183.610  20.205  1.00  0.00     0.176 HD
ENDBRANCH  15  41
BRANCH  12  44
HETATM   44  N9  UNL     1      30.883-184.710  16.268  1.00  0.00    -0.291 N 
ATOM     45  H9  UNL     1      30.857-184.172  17.134  1.00  0.00     0.188 HD
BRANCH  44  46
HETATM   46  N10 UNL     1      30.075-184.308  15.221  1.00  0.00    -0.344 N 
ATOM     47 2H10 UNL     1      30.465-184.368  14.280  1.00  0.00     0.176 HD
ATOM     48 1H10 UNL     1      29.125-183.961  15.348  1.00  0.00     0.176 HD
ENDBRANCH  44  46
ENDBRANCH  12  44
BRANCH   9  49
HETATM   49  N7  UNL     1      32.841-188.165  13.889  1.00  0.00    -0.234 N 
ATOM     50  H72 UNL     1      33.751-188.210  13.429  1.00  0.00     0.174 HD
ATOM     51  H71 UNL     1      32.048-188.645  13.464  1.00  0.00     0.174 HD
ENDBRANCH   9  49
TORSDOF 14
ENDMDL
MODEL 2
REMARK VINA RESULT: -8.549711160      4.486      6.867
REMARK  14 active torsions:
REMARK  status: ('A' for Active; 'I' for Inactive)
REMARK    1  A    between atoms: C2_2  and  C4_4 
REMARK       I    between atoms: C4_4  and  N1_6 
REMARK    2  A    between atoms: N1_6  and  C5_8 
REMARK    3  A    between atoms: C5_8  and  C6_9 
REMARK    4  A    between atoms: C5_8  and  C16_48 
REMARK    5  A    between atoms: C7_12  and  C8_13 
REMARK    6  A    between atoms: C8_13  and  O2_14 
REMARK    7  A    between atoms: C8_13  and  O3_16 
REMARK    8  A    between atoms: C9_19  and  C10_20 
REMARK    9  A    between atoms: C10_20  and  N3_21 
REMARK   10  A    between atoms: C12_29  and  N7_30 
REMARK   11  A    between atoms: C13_35  and  N9_36 
REMARK   12  A    between atoms: N9_36  and  N10_38 
REMARK   13  A    between atoms: N11_43  and  N12_45 
REMARK   14  A    between atoms: C16_48  and  O5_50 
ROOT
HETATM    1  N3  UNL     1      33.004-183.135  24.468  1.00  0.00    -0.254 N 
HETATM    2  N4  UNL     1      32.919-183.610  25.711  1.00  0.00    -0.237 N 
ATOM      3  H4  UNL     1      31.988-183.741  26.106  1.00  0.00     0.208 HD
HETATM    4  N5  UNL     1      33.955-183.923  26.465  1.00  0.00    -0.269 N 
ATOM      5  H5  UNL     1      33.816-184.283  27.410  1.00  0.00     0.190 HD
HETATM    6  C11 UNL     1      35.216-183.761  25.967  1.00  0.00     0.154 A 
HETATM    7  N6  UNL     1      36.295-184.073  26.726  1.00  0.00    -0.174 N 
ATOM      8  H6  UNL     1      36.178-184.433  27.672  1.00  0.00     0.186 HD
HETATM    9  C12 UNL     1      37.521-183.898  26.208  1.00  0.00     0.679 A 
HETATM   10  N8  UNL     1      37.638-183.419  24.951  1.00  0.00    -0.174 N 
ATOM     11  H8  UNL     1      38.575-183.290  24.569  1.00  0.00     0.186 HD
HETATM   12  C13 UNL     1      36.583-183.101  24.174  1.00  0.00     0.153 A 
HETATM   13  C14 UNL     1      35.319-183.277  24.696  1.00  0.00     0.102 A 
HETATM   14  C15 UNL     1      34.187-182.949  23.908  1.00  0.00     0.156 A 
HETATM   15  N11 UNL     1      34.439-182.524  22.732  1.00  0.00    -0.290 N 
ATOM     16  H11 UNL     1      35.435-182.460  22.518  1.00  0.00     0.188 HD
ENDROOT
BRANCH   1  17
HETATM   17  C10 UNL     1      31.760-182.836  23.803  1.00  0.00     0.219 C 
BRANCH  17  18
HETATM   18  C9  UNL     1      30.968-184.104  23.702  1.00  0.00     0.100 A 
HETATM   19  C6  UNL     1      29.860-184.469  24.433  1.00  0.00     0.068 A 
HETATM   20  N2  UNL     1      29.529-185.706  23.958  1.00  0.00    -0.336 N 
HETATM   21  C7  UNL     1      30.380-186.060  23.006  1.00  0.00     0.180 A 
ATOM     22  H2  UNL     1      28.746-186.272  24.285  1.00  0.00     0.167 HD
HETATM   23  O4  UNL     1      31.231-185.091  22.868  1.00  0.00    -0.293 OA
BRANCH  19  24
HETATM   24  C5  UNL     1      29.202-183.669  25.461  1.00  0.00     0.165 C 
BRANCH  24  25
HETATM   25  N1  UNL     1      29.311-184.192  26.799  1.00  0.00    -0.348 N 
HETATM   26  C4  UNL     1      30.065-183.564  27.818  1.00  0.00     0.221 C 
HETATM   27  O1  UNL     1      30.661-182.496  27.527  1.00  0.00    -0.273 OA
ATOM     28  H1  UNL     1      28.820-185.058  27.023  1.00  0.00     0.163 HD
BRANCH  26  29
HETATM   29  C2  UNL     1      30.189-184.085  29.189  1.00  0.00     0.070 C 
HETATM   30  C1  UNL     1      31.187-185.209  29.288  1.00  0.00     0.019 C 
HETATM   31  C3  UNL     1      30.639-182.975  30.111  1.00  0.00     0.019 C 
ENDBRANCH  26  29
ENDBRANCH  24  25
BRANCH  24  32
HETATM   32  C16 UNL     1      27.733-183.433  25.158  1.00  0.00     0.142 C 
HETATM   33  C17 UNL     1      27.012-182.667  26.223  1.00  0.00     0.042 C 
BRANCH  32  34
HETATM   34  O5  UNL     1      27.154-184.688  24.999  1.00  0.00    -0.394 OA
ATOM     35  H5  UNL     1      27.168-184.877  24.069  1.00  0.00     0.210 HD
ENDBRANCH  32  34
ENDBRANCH  24  32
ENDBRANCH  19  24
BRANCH  21  36
HETATM   36  C8  UNL     1      30.444-187.309  22.183  1.00  0.00     0.331 C 
BRANCH  36  37
HETATM   37  O2  UNL     1      31.152-187.030  20.999  1.00  0.00    -0.364 OA
ATOM     38  H2  UNL     1      30.548-186.666  20.363  1.00  0.00     0.213 HD
ENDBRANCH  36  37
BRANCH  36  39
HETATM   39  O3  UNL     1      29.145-187.639  21.822  1.00  0.00    -0.364 OA
ATOM     40  H3  UNL     1      29.057-187.473  20.891  1.00  0.00     0.213 HD
ENDBRANCH  36  39
ENDBRANCH  21  36
ENDBRANCH  17  18
ENDBRANCH   1  17
BRANCH  15  41
HETATM   41  N12 UNL     1      33.634-182.144  21.717  1.00  0.00    -0.344 N 
ATOM     42 2H12 UNL     1      32.654-182.371  21.885  1.00  0.00     0.176 HD
ATOM     43 1H12 UNL     1      33.828-181.679  20.830  1.00  0.00     0.176 HD
ENDBRANCH  15  41
BRANCH  12  44
HETATM   44  N9  UNL     1      36.698-182.643  22.987  1.00  0.00    -0.291 N 
ATOM     45  H9  UNL     1      35.889-182.193  22.562  1.00  0.00     0.188 HD
BRANCH  44  46
HETATM   46  N10 UNL     1      37.865-182.728  22.249  1.00  0.00    -0.344 N 
ATOM     47 2H10 UNL     1      38.645-183.238  22.665  1.00  0.00     0.176 HD
ATOM     48 1H10 UNL     1      37.975-182.310  21.326  1.00  0.00     0.176 HD
ENDBRANCH  44  46
ENDBRANCH  12  44
BRANCH   9  49
HETATM   49  N7  UNL     1      38.583-184.190  26.922  1.00  0.00    -0.234 N 
ATOM     50  H72 UNL     1      38.764-185.146  27.228  1.00  0.00     0.174 HD
ATOM     51  H71 UNL     1      39.243-183.456  27.177  1.00  0.00     0.174 HD
ENDBRANCH   9  49
TORSDOF 14
ENDMDL
MODEL 3
REMARK VINA RESULT: -8.332276025      1.202      2.606
REMARK  14 active torsions:
REMARK  status: ('A' for Active; 'I' for Inactive)
REMARK    1  A    between atoms: C2_2  and  C4_4 
REMARK       I    between atoms: C4_4  and  N1_6 
REMARK    2  A    between atoms: N1_6  and  C5_8 
REMARK    3  A    between atoms: C5_8  and  C6_9 
REMARK    4  A    between atoms: C5_8  and  C16_48 
REMARK    5  A    between atoms: C7_12  and  C8_13 
REMARK    6  A    between atoms: C8_13  and  O2_14 
REMARK    7  A    between atoms: C8_13  and  O3_16 
REMARK    8  A    between atoms: C9_19  and  C10_20 
REMARK    9  A    between atoms: C10_20  and  N3_21 
REMARK   10  A    between atoms: C12_29  and  N7_30 
REMARK   11  A    between atoms: C13_35  and  N9_36 
REMARK   12  A    between atoms: N9_36  and  N10_38 
REMARK   13  A    between atoms: N11_43  and  N12_45 
REMARK   14  A    between atoms: C16_48  and  O5_50 
ROOT
HETATM    1  N3  UNL     1      32.836-185.537  20.127  1.00  0.00    -0.254 N 
HETATM    2  N4  UNL     1      33.713-186.537  20.222  1.00  0.00    -0.237 N 
ATOM      3  H4  UNL     1      34.079-186.760  21.147  1.00  0.00     0.208 HD
HETATM    4  N5  UNL     1      34.139-187.258  19.202  1.00  0.00    -0.269 N 
ATOM      5  H5  UNL     1      34.813-188.010  19.349  1.00  0.00     0.190 HD
HETATM    6  C11 UNL     1      33.669-186.986  17.951  1.00  0.00     0.154 A 
HETATM    7  N6  UNL     1      34.097-187.711  16.888  1.00  0.00    -0.174 N 
ATOM      8  H6  UNL     1      34.770-188.467  17.012  1.00  0.00     0.186 HD
HETATM    9  C12 UNL     1      33.618-187.416  15.670  1.00  0.00     0.679 A 
HETATM   10  N8  UNL     1      32.728-186.409  15.543  1.00  0.00    -0.174 N 
ATOM     11  H8  UNL     1      32.371-186.194  14.611  1.00  0.00     0.186 HD
HETATM   12  C13 UNL     1      32.285-185.672  16.581  1.00  0.00     0.153 A 
HETATM   13  C14 UNL     1      32.770-185.966  17.838  1.00  0.00     0.102 A 
HETATM   14  C15 UNL     1      32.329-185.208  18.951  1.00  0.00     0.156 A 
HETATM   15  N11 UNL     1      31.473-184.298  18.693  1.00  0.00    -0.290 N 
ATOM     16  H11 UNL     1      31.229-184.225  17.705  1.00  0.00     0.188 HD
ENDROOT
BRANCH   1  17
HETATM   17  C10 UNL     1      32.499-184.853  21.351  1.00  0.00     0.219 C 
BRANCH  17  18
HETATM   18  C9  UNL     1      31.371-185.592  22.003  1.00  0.00     0.100 A 
HETATM   19  C6  UNL     1      30.659-185.229  23.125  1.00  0.00     0.068 A 
HETATM   20  N2  UNL     1      29.754-186.238  23.296  1.00  0.00    -0.336 N 
HETATM   21  C7  UNL     1      29.911-187.144  22.343  1.00  0.00     0.180 A 
ATOM     22  H2  UNL     1      29.062-186.286  24.044  1.00  0.00     0.167 HD
HETATM   23  O4  UNL     1      30.880-186.742  21.581  1.00  0.00    -0.293 OA
BRANCH  19  24
HETATM   24  C5  UNL     1      30.847-184.014  23.910  1.00  0.00     0.165 C 
BRANCH  24  25
HETATM   25  N1  UNL     1      32.043-183.992  24.716  1.00  0.00    -0.348 N 
HETATM   26  C4  UNL     1      33.106-183.083  24.499  1.00  0.00     0.221 C 
HETATM   27  O1  UNL     1      32.985-182.261  23.556  1.00  0.00    -0.273 OA
ATOM     28  H1  UNL     1      32.126-184.663  25.479  1.00  0.00     0.163 HD
BRANCH  26  29
HETATM   29  C2  UNL     1      34.334-183.047  25.309  1.00  0.00     0.070 C 
HETATM   30  C1  UNL     1      34.449-184.234  26.229  1.00  0.00     0.019 C 
HETATM   31  C3  UNL     1      35.538-183.039  24.397  1.00  0.00     0.019 C 
ENDBRANCH  26  29
ENDBRANCH  24  25
BRANCH  24  32
HETATM   32  C16 UNL     1      29.660-183.717  24.809  1.00  0.00     0.142 C 
HETATM   33  C17 UNL     1      29.826-182.485  25.642  1.00  0.00     0.042 C 
BRANCH  32  34
HETATM   34  O5  UNL     1      29.496-184.828  25.630  1.00  0.00    -0.394 OA
ATOM     35  H5  UNL     1      29.901-184.612  26.461  1.00  0.00     0.210 HD
ENDBRANCH  32  34
ENDBRANCH  24  32
ENDBRANCH  19  24
BRANCH  21  36
HETATM   36  C8  UNL     1      29.172-188.423  22.094  1.00  0.00     0.331 C 
BRANCH  36  37
HETATM   37  O2  UNL     1      28.878-189.020  23.335  1.00  0.00    -0.364 OA
ATOM     38  H2  UNL     1      29.512-189.708  23.498  1.00  0.00     0.213 HD
ENDBRANCH  36  37
BRANCH  36  39
HETATM   39  O3  UNL     1      30.031-189.276  21.416  1.00  0.00    -0.364 OA
ATOM     40  H3  UNL     1      30.185-188.903  20.557  1.00  0.00     0.213 HD
ENDBRANCH  36  39
ENDBRANCH  21  36
ENDBRANCH  17  18
ENDBRANCH   1  17
BRANCH  15  41
HETATM   41  N12 UNL     1      30.829-183.414  19.484  1.00  0.00    -0.344 N 
ATOM     42 2H12 UNL     1      30.810-182.473  19.091  1.00  0.00     0.176 HD
ATOM     43 1H12 UNL     1      30.367-183.517  20.388  1.00  0.00     0.176 HD
ENDBRANCH  15  41
BRANCH  12  44
HETATM   44  N9  UNL     1      31.446-184.716  16.456  1.00  0.00    -0.291 N 
ATOM     45  H9  UNL     1      31.429-183.991  17.172  1.00  0.00     0.188 HD
BRANCH  44  46
HETATM   46  N10 UNL     1      30.561-184.615  15.398  1.00  0.00    -0.344 N 
ATOM     47 2H10 UNL     1      29.701-185.162  15.454  1.00  0.00     0.176 HD
ATOM     48 1H10 UNL     1      30.728-184.027  14.582  1.00  0.00     0.176 HD
ENDBRANCH  44  46
ENDBRANCH  12  44
BRANCH   9  49
HETATM   49  N7  UNL     1      34.017-188.102  14.624  1.00  0.00    -0.234 N 
ATOM     50  H72 UNL     1      33.561-187.992  13.718  1.00  0.00     0.174 HD
ATOM     51  H71 UNL     1      34.797-188.753  14.709  1.00  0.00     0.174 HD
ENDBRANCH   9  49
TORSDOF 14
ENDMDL
MODEL 4
REMARK VINA RESULT: -8.313478523      3.990      9.977
REMARK  14 active torsions:
REMARK  status: ('A' for Active; 'I' for Inactive)
REMARK    1  A    between atoms: C2_2  and  C4_4 
REMARK       I    between atoms: C4_4  and  N1_6 
REMARK    2  A    between atoms: N1_6  and  C5_8 
REMARK    3  A    between atoms: C5_8  and  C6_9 
REMARK    4  A    between atoms: C5_8  and  C16_48 
REMARK    5  A    between atoms: C7_12  and  C8_13 
REMARK    6  A    between atoms: C8_13  and  O2_14 
REMARK    7  A    between atoms: C8_13  and  O3_16 
REMARK    8  A    between atoms: C9_19  and  C10_20 
REMARK    9  A    between atoms: C10_20  and  N3_21 
REMARK   10  A    between atoms: C12_29  and  N7_30 
REMARK   11  A    between atoms: C13_35  and  N9_36 
REMARK   12  A    between atoms: N9_36  and  N10_38 
REMARK   13  A    between atoms: N11_43  and  N12_45 
REMARK   14  A    between atoms: C16_48  and  O5_50 
ROOT
HETATM    1  N3  UNL     1      30.202-183.352  27.029  1.00  0.00    -0.254 N 
HETATM    2  N4  UNL     1      31.369-183.462  27.665  1.00  0.00    -0.237 N 
ATOM      3  H4  UNL     1      32.202-183.632  27.101  1.00  0.00     0.208 HD
HETATM    4  N5  UNL     1      31.522-183.367  28.972  1.00  0.00    -0.269 N 
ATOM      5  H5  UNL     1      32.447-183.462  29.391  1.00  0.00     0.190 HD
HETATM    6  C11 UNL     1      30.429-183.139  29.756  1.00  0.00     0.154 A 
HETATM    7  N6  UNL     1      30.562-183.041  31.102  1.00  0.00    -0.174 N 
ATOM      8  H6  UNL     1      31.477-183.133  31.541  1.00  0.00     0.186 HD
HETATM    9  C12 UNL     1      29.466-182.820  31.845  1.00  0.00     0.679 A 
HETATM   10  N8  UNL     1      28.271-182.704  31.229  1.00  0.00    -0.174 N 
ATOM     11  H8  UNL     1      27.445-182.536  31.805  1.00  0.00     0.186 HD
HETATM   12  C13 UNL     1      28.109-182.796  29.894  1.00  0.00     0.153 A 
HETATM   13  C14 UNL     1      29.228-183.023  29.120  1.00  0.00     0.102 A 
HETATM   14  C15 UNL     1      29.093-183.129  27.713  1.00  0.00     0.156 A 
HETATM   15  N11 UNL     1      27.910-182.980  27.260  1.00  0.00    -0.290 N 
ATOM     16  H11 UNL     1      27.207-182.819  27.982  1.00  0.00     0.188 HD
ENDROOT
BRANCH   1  17
HETATM   17  C10 UNL     1      30.230-183.500  25.595  1.00  0.00     0.219 C 
BRANCH  17  18
HETATM   18  C9  UNL     1      31.655-183.688  25.173  1.00  0.00     0.100 A 
HETATM   19  C6  UNL     1      32.128-184.067  23.937  1.00  0.00     0.068 A 
HETATM   20  N2  UNL     1      33.486-184.090  24.082  1.00  0.00    -0.336 N 
HETATM   21  C7  UNL     1      33.808-183.748  25.321  1.00  0.00     0.180 A 
ATOM     22  H2  UNL     1      34.152-184.334  23.349  1.00  0.00     0.167 HD
HETATM   23  O4  UNL     1      32.702-183.512  25.957  1.00  0.00    -0.293 OA
BRANCH  19  24
HETATM   24  C5  UNL     1      31.321-184.346  22.754  1.00  0.00     0.165 C 
BRANCH  24  25
HETATM   25  N1  UNL     1      31.301-185.729  22.347  1.00  0.00    -0.348 N 
HETATM   26  C4  UNL     1      30.272-186.629  22.713  1.00  0.00     0.221 C 
HETATM   27  O1  UNL     1      29.336-186.185  23.424  1.00  0.00    -0.273 OA
ATOM     28  H1  UNL     1      32.065-186.076  21.767  1.00  0.00     0.163 HD
BRANCH  26  29
HETATM   29  C2  UNL     1      30.236-188.044  22.308  1.00  0.00     0.070 C 
HETATM   30  C1  UNL     1      28.831-188.545  22.099  1.00  0.00     0.019 C 
HETATM   31  C3  UNL     1      30.994-188.217  21.013  1.00  0.00     0.019 C 
ENDBRANCH  26  29
ENDBRANCH  24  25
BRANCH  24  32
HETATM   32  C16 UNL     1      31.734-183.503  21.560  1.00  0.00     0.142 C 
HETATM   33  C17 UNL     1      33.088-183.840  21.021  1.00  0.00     0.042 C 
BRANCH  32  34
HETATM   34  O5  UNL     1      31.706-182.178  21.983  1.00  0.00    -0.394 OA
ATOM     35  H5  UNL     1      31.412-181.663  21.240  1.00  0.00     0.210 HD
ENDBRANCH  32  34
ENDBRANCH  24  32
ENDBRANCH  19  24
BRANCH  21  36
HETATM   36  C8  UNL     1      35.150-183.625  25.972  1.00  0.00     0.331 C 
BRANCH  36  37
HETATM   37  O2  UNL     1      34.975-183.638  27.369  1.00  0.00    -0.364 OA
ATOM     38  H2  UNL     1      34.476-182.869  27.618  1.00  0.00     0.213 HD
ENDBRANCH  36  37
BRANCH  36  39
HETATM   39  O3  UNL     1      35.668-182.384  25.630  1.00  0.00    -0.364 OA
ATOM     40  H3  UNL     1      35.827-181.909  26.437  1.00  0.00     0.213 HD
ENDBRANCH  36  39
ENDBRANCH  21  36
ENDBRANCH  17  18
ENDBRANCH   1  17
BRANCH  15  41
HETATM   41  N12 UNL     1      27.415-182.996  26.004  1.00  0.00    -0.344 N 
ATOM     42 2H12 UNL     1      28.104-182.716  25.306  1.00  0.00     0.176 HD
ATOM     43 1H12 UNL     1      26.494-183.233  25.637  1.00  0.00     0.176 HD
ENDBRANCH  15  41
BRANCH  12  44
HETATM   44  N9  UNL     1      26.974-182.690  29.315  1.00  0.00    -0.291 N 
ATOM     45  H9  UNL     1      26.952-182.665  28.296  1.00  0.00     0.188 HD
BRANCH  44  46
HETATM   46  N10 UNL     1      25.776-182.606  30.000  1.00  0.00    -0.344 N 
ATOM     47 2H10 UNL     1      25.769-182.922  30.971  1.00  0.00     0.176 HD
ATOM     48 1H10 UNL     1      24.916-182.250  29.584  1.00  0.00     0.176 HD
ENDBRANCH  44  46
ENDBRANCH  12  44
BRANCH   9  49
HETATM   49  N7  UNL     1      29.567-182.724  33.150  1.00  0.00    -0.234 N 
ATOM     50  H72 UNL     1      30.160-182.013  33.580  1.00  0.00     0.174 HD
ATOM     51  H71 UNL     1      29.047-183.363  33.750  1.00  0.00     0.174 HD
ENDBRANCH   9  49
TORSDOF 14
ENDMDL
MODEL 5
REMARK VINA RESULT: -8.221989526      1.845      3.132
REMARK  14 active torsions:
REMARK  status: ('A' for Active; 'I' for Inactive)
REMARK    1  A    between atoms: C2_2  and  C4_4 
REMARK       I    between atoms: C4_4  and  N1_6 
REMARK    2  A    between atoms: N1_6  and  C5_8 
REMARK    3  A    between atoms: C5_8  and  C6_9 
REMARK    4  A    between atoms: C5_8  and  C16_48 
REMARK    5  A    between atoms: C7_12  and  C8_13 
REMARK    6  A    between atoms: C8_13  and  O2_14 
REMARK    7  A    between atoms: C8_13  and  O3_16 
REMARK    8  A    between atoms: C9_19  and  C10_20 
REMARK    9  A    between atoms: C10_20  and  N3_21 
REMARK   10  A    between atoms: C12_29  and  N7_30 
REMARK   11  A    between atoms: C13_35  and  N9_36 
REMARK   12  A    between atoms: N9_36  and  N10_38 
REMARK   13  A    between atoms: N11_43  and  N12_45 
REMARK   14  A    between atoms: C16_48  and  O5_50 
ROOT
HETATM    1  N3  UNL     1      32.781-185.101  20.359  1.00  0.00    -0.254 N 
HETATM    2  N4  UNL     1      32.828-186.310  19.798  1.00  0.00    -0.237 N 
ATOM      3  H4  UNL     1      32.853-187.120  20.418  1.00  0.00     0.208 HD
HETATM    4  N5  UNL     1      32.843-186.532  18.498  1.00  0.00    -0.269 N 
ATOM      5  H5  UNL     1      32.880-187.486  18.137  1.00  0.00     0.190 HD
HETATM    6  C11 UNL     1      32.810-185.471  17.640  1.00  0.00     0.154 A 
HETATM    7  N6  UNL     1      32.829-185.675  16.300  1.00  0.00    -0.174 N 
ATOM      8  H6  UNL     1      32.866-186.620  15.919  1.00  0.00     0.186 HD
HETATM    9  C12 UNL     1      32.799-184.611  15.484  1.00  0.00     0.679 A 
HETATM   10  N8  UNL     1      32.751-183.374  16.023  1.00  0.00    -0.174 N 
ATOM     11  H8  UNL     1      32.728-182.573  15.392  1.00  0.00     0.186 HD
HETATM   12  C13 UNL     1      32.730-183.141  17.350  1.00  0.00     0.153 A 
HETATM   13  C14 UNL     1      32.761-184.228  18.199  1.00  0.00     0.102 A 
HETATM   14  C15 UNL     1      32.744-184.019  19.601  1.00  0.00     0.156 A 
HETATM   15  N11 UNL     1      32.678-182.802  19.976  1.00  0.00    -0.290 N 
ATOM     16  H11 UNL     1      32.663-182.131  19.207  1.00  0.00     0.188 HD
ENDROOT
BRANCH   1  17
HETATM   17  C10 UNL     1      32.785-185.056  21.800  1.00  0.00     0.219 C 
BRANCH  17  18
HETATM   18  C9  UNL     1      31.504-185.659  22.290  1.00  0.00     0.100 A 
HETATM   19  C6  UNL     1      30.695-185.212  23.310  1.00  0.00     0.068 A 
HETATM   20  N2  UNL     1      29.667-186.111  23.350  1.00  0.00    -0.336 N 
HETATM   21  C7  UNL     1      29.847-187.036  22.419  1.00  0.00     0.180 A 
ATOM     22  H2  UNL     1      28.881-186.077  23.999  1.00  0.00     0.167 HD
HETATM   23  O4  UNL     1      30.948-186.750  21.796  1.00  0.00    -0.293 OA
BRANCH  19  24
HETATM   24  C5  UNL     1      30.911-184.021  24.123  1.00  0.00     0.165 C 
BRANCH  24  25
HETATM   25  N1  UNL     1      32.085-184.063  24.960  1.00  0.00    -0.348 N 
HETATM   26  C4  UNL     1      33.152-183.141  24.844  1.00  0.00     0.221 C 
HETATM   27  O1  UNL     1      33.055-182.246  23.967  1.00  0.00    -0.273 OA
ATOM     28  H1  UNL     1      32.149-184.793  25.669  1.00  0.00     0.163 HD
BRANCH  26  29
HETATM   29  C2  UNL     1      34.358-183.170  25.687  1.00  0.00     0.070 C 
HETATM   30  C1  UNL     1      34.437-184.414  26.532  1.00  0.00     0.019 C 
HETATM   31  C3  UNL     1      35.587-183.118  24.810  1.00  0.00     0.019 C 
ENDBRANCH  26  29
ENDBRANCH  24  25
BRANCH  24  32
HETATM   32  C16 UNL     1      29.714-183.691  24.997  1.00  0.00     0.142 C 
HETATM   33  C17 UNL     1      29.894-182.461  25.830  1.00  0.00     0.042 C 
BRANCH  32  34
HETATM   34  O5  UNL     1      29.506-184.796  25.818  1.00  0.00    -0.394 OA
ATOM     35  H5  UNL     1      29.110-184.469  26.616  1.00  0.00     0.210 HD
ENDBRANCH  32  34
ENDBRANCH  24  32
ENDBRANCH  19  24
BRANCH  21  36
HETATM   36  C8  UNL     1      29.009-188.225  22.063  1.00  0.00     0.331 C 
BRANCH  36  37
HETATM   37  O2  UNL     1      28.772-188.973  23.231  1.00  0.00    -0.364 OA
ATOM     38  H2  UNL     1      28.310-188.425  23.853  1.00  0.00     0.213 HD
ENDBRANCH  36  37
BRANCH  36  39
HETATM   39  O3  UNL     1      29.756-189.020  21.205  1.00  0.00    -0.364 OA
ATOM     40  H3  UNL     1      29.249-189.803  21.027  1.00  0.00     0.213 HD
ENDBRANCH  36  39
ENDBRANCH  21  36
ENDBRANCH  17  18
ENDBRANCH   1  17
BRANCH  15  41
HETATM   41  N12 UNL     1      32.625-182.235  21.200  1.00  0.00    -0.344 N 
ATOM     42 2H12 UNL     1      33.055-181.310  21.225  1.00  0.00     0.176 HD
ATOM     43 1H12 UNL     1      32.239-182.560  22.086  1.00  0.00     0.176 HD
ENDBRANCH  15  41
BRANCH  12  44
HETATM   44  N9  UNL     1      32.689-181.969  17.857  1.00  0.00    -0.291 N 
ATOM     45  H9  UNL     1      32.697-181.880  18.872  1.00  0.00     0.188 HD
BRANCH  44  46
HETATM   46  N10 UNL     1      32.635-180.814  17.098  1.00  0.00    -0.344 N 
ATOM     47 2H10 UNL     1      31.726-180.547  16.717  1.00  0.00     0.176 HD
ATOM     48 1H10 UNL     1      33.448-180.230  16.907  1.00  0.00     0.176 HD
ENDBRANCH  44  46
ENDBRANCH  12  44
BRANCH   9  49
HETATM   49  N7  UNL     1      32.819-184.781  14.182  1.00  0.00    -0.234 N 
ATOM     50  H72 UNL     1      32.006-184.554  13.609  1.00  0.00     0.174 HD
ATOM     51  H71 UNL     1      33.658-185.142  13.728  1.00  0.00     0.174 HD
ENDBRANCH   9  49
TORSDOF 14
ENDMDL
