MODEL 1
REMARK VINA RESULT: -8.417733363      0.000      0.000
REMARK  18 active torsions:
REMARK  status: ('A' for Active; 'I' for Inactive)
REMARK    1  A    between atoms: N2_3  and  C2_5 
REMARK    2  A    between atoms: C2_5  and  N3_6 
REMARK    3  A    between atoms: C2_5  and  C3_11 
REMARK    4  A    between atoms: N3_6  and  N4_8 
REMARK    5  A    between atoms: C3_11  and  N5_12 
REMARK    6  A    between atoms: C3_11  and  O8_33 
REMARK    7  A    between atoms: N5_12  and  C4_14 
REMARK    8  A    between atoms: C6_16  and  C7_17 
REMARK    9  A    between atoms: C7_17  and  O1_18 
REMARK   10  A    between atoms: C7_17  and  O2_20 
REMARK   11  A    between atoms: C8_23  and  C9_24 
REMARK   12  A    between atoms: C9_24  and  O4_25 
REMARK   13  A    between atoms: C9_24  and  C10_27 
REMARK   14  A    between atoms: C11_30  and  O7_31 
REMARK   15  A    between atoms: O8_33  and  N6_34 
REMARK   16  A    between atoms: N6_34  and  N7_36 
REMARK   17  A    between atoms: N7_36  and  C12_38 
REMARK   18  A    between atoms: C14_44  and  C15_45 
ROOT
HETATM    1  N1  UNL     1      33.427-182.349  24.353  1.00  0.00    -0.172 NA
HETATM    2  C1  UNL     1      32.595-182.627  25.111  1.00  0.00     0.183 C 
HETATM    3  N2  UNL     1      31.588-182.983  26.017  1.00  0.00    -0.278 N 
ATOM      4  H2  UNL     1      31.856-183.393  26.912  1.00  0.00     0.179 HD
ENDROOT
BRANCH   3   5
HETATM    5  C2  UNL     1      30.207-182.794  25.739  1.00  0.00     0.157 C 
BRANCH   5   6
HETATM    6  N3  UNL     1      29.756-181.592  25.864  1.00  0.00    -0.291 N 
ATOM      7  H3  UNL     1      29.107-181.243  25.159  1.00  0.00     0.188 HD
BRANCH   6   8
HETATM    8  N4  UNL     1      30.109-180.750  26.906  1.00  0.00    -0.344 N 
ATOM      9  H42 UNL     1      30.631-181.159  27.681  1.00  0.00     0.176 HD
ATOM     10  H41 UNL     1      29.872-179.759  26.931  1.00  0.00     0.176 HD
ENDBRANCH   6   8
ENDBRANCH   5   6
BRANCH   5  11
HETATM   11  C3  UNL     1      29.330-183.941  25.321  1.00  0.00     0.323 C 
BRANCH  11  12
HETATM   12  N5  UNL     1      29.931-184.869  24.519  1.00  0.00    -0.353 N 
ATOM     13  H5  UNL     1      30.288-185.564  25.175  1.00  0.00     0.162 HD
BRANCH  12  14
HETATM   14  C4  UNL     1      30.261-185.298  23.438  1.00  0.00     0.069 A 
HETATM   15  C5  UNL     1      30.023-186.660  23.150  1.00  0.00     0.070 A 
HETATM   16  C6  UNL     1      30.376-187.213  21.935  1.00  0.00     0.110 A 
HETATM   17  O3  UNL     1      30.945-186.468  21.019  1.00  0.00    -0.308 OA
HETATM   18  C8  UNL     1      31.205-185.202  21.189  1.00  0.00     0.128 A 
HETATM   19  C11 UNL     1      30.861-184.601  22.417  1.00  0.00     0.125 A 
BRANCH  16  20
HETATM   20  C7  UNL     1      30.104-188.667  21.667  1.00  0.00     0.312 C 
BRANCH  20  21
HETATM   21  O1  UNL     1      30.762-189.021  20.491  1.00  0.00    -0.365 OA
ATOM     22  H1  UNL     1      30.689-189.962  20.384  1.00  0.00     0.213 HD
ENDBRANCH  20  21
BRANCH  20  23
HETATM   23  O2  UNL     1      28.723-188.798  21.548  1.00  0.00    -0.365 OA
ATOM     24  H2  UNL     1      28.537-189.729  21.558  1.00  0.00     0.213 HD
ENDBRANCH  20  23
ENDBRANCH  16  20
BRANCH  18  25
HETATM   25  C9  UNL     1      31.856-184.395  20.113  1.00  0.00     0.278 C 
BRANCH  25  26
HETATM   26  O4  UNL     1      31.015-183.324  19.800  1.00  0.00    -0.378 OA
ATOM     27  H4  UNL     1      31.427-182.811  19.116  1.00  0.00     0.211 HD
ENDBRANCH  25  26
BRANCH  25  28
HETATM   28  C10 UNL     1      32.229-185.182  18.944  1.00  0.00     0.209 C 
HETATM   29  O5  UNL     1      31.459-185.246  17.961  1.00  0.00    -0.646 OA
HETATM   30  O6  UNL     1      33.424-185.870  18.883  1.00  0.00    -0.646 OA
ENDBRANCH  25  28
ENDBRANCH  18  25
BRANCH  19  31
HETATM   31  O7  UNL     1      31.173-183.272  22.502  1.00  0.00    -0.356 OA
ATOM     32  H7  UNL     1      31.798-182.848  21.924  1.00  0.00     0.218 HD
ENDBRANCH  19  31
ENDBRANCH  12  14
ENDBRANCH  11  12
BRANCH  11  33
HETATM   33  O8  UNL     1      29.012-184.605  26.571  1.00  0.00    -0.231 OA
BRANCH  33  34
HETATM   34  N6  UNL     1      27.897-184.195  27.234  1.00  0.00    -0.203 N 
ATOM     35  H6  UNL     1      27.008-184.619  26.971  1.00  0.00     0.216 HD
BRANCH  34  36
HETATM   36  N7  UNL     1      27.883-183.324  28.156  1.00  0.00    -0.264 N 
ATOM     37  H7  UNL     1      27.173-182.592  28.128  1.00  0.00     0.190 HD
BRANCH  36  38
HETATM   38  C12 UNL     1      28.815-183.328  29.225  1.00  0.00     0.154 A 
HETATM   39  N8  UNL     1      30.099-183.707  29.151  1.00  0.00    -0.335 N 
HETATM   40  C13 UNL     1      30.614-183.555  30.381  1.00  0.00     0.182 A 
ATOM     41  H8  UNL     1      30.589-184.045  28.322  1.00  0.00     0.168 HD
HETATM   42  N9  UNL     1      29.653-183.080  31.226  1.00  0.00    -0.345 N 
HETATM   43  C14 UNL     1      28.510-182.932  30.506  1.00  0.00     0.144 A 
ATOM     44  H9  UNL     1      29.771-182.873  32.218  1.00  0.00     0.167 HD
BRANCH  43  45
HETATM   45  C15 UNL     1      27.223-182.459  30.964  1.00  0.00     0.285 C 
HETATM   46  N10 UNL     1      26.155-182.280  30.052  1.00  0.00    -0.056 NA
HETATM   47  O9  UNL     1      27.044-182.203  32.181  1.00  0.00    -0.269 OA
ENDBRANCH  43  45
ENDBRANCH  36  38
ENDBRANCH  34  36
ENDBRANCH  33  34
ENDBRANCH  11  33
ENDBRANCH   5  11
ENDBRANCH   3   5
TORSDOF 18
ENDMDL
MODEL 2
REMARK VINA RESULT: -8.155619815      2.300      4.310
REMARK  18 active torsions:
REMARK  status: ('A' for Active; 'I' for Inactive)
REMARK    1  A    between atoms: N2_3  and  C2_5 
REMARK    2  A    between atoms: C2_5  and  N3_6 
REMARK    3  A    between atoms: C2_5  and  C3_11 
REMARK    4  A    between atoms: N3_6  and  N4_8 
REMARK    5  A    between atoms: C3_11  and  N5_12 
REMARK    6  A    between atoms: C3_11  and  O8_33 
REMARK    7  A    between atoms: N5_12  and  C4_14 
REMARK    8  A    between atoms: C6_16  and  C7_17 
REMARK    9  A    between atoms: C7_17  and  O1_18 
REMARK   10  A    between atoms: C7_17  and  O2_20 
REMARK   11  A    between atoms: C8_23  and  C9_24 
REMARK   12  A    between atoms: C9_24  and  O4_25 
REMARK   13  A    between atoms: C9_24  and  C10_27 
REMARK   14  A    between atoms: C11_30  and  O7_31 
REMARK   15  A    between atoms: O8_33  and  N6_34 
REMARK   16  A    between atoms: N6_34  and  N7_36 
REMARK   17  A    between atoms: N7_36  and  C12_38 
REMARK   18  A    between atoms: C14_44  and  C15_45 
ROOT
HETATM    1  N1  UNL     1      27.229-184.328  25.259  1.00  0.00    -0.172 NA
HETATM    2  C1  UNL     1      27.926-183.402  25.248  1.00  0.00     0.183 C 
HETATM    3  N2  UNL     1      28.784-182.295  25.225  1.00  0.00    -0.278 N 
ATOM      4  H2  UNL     1      28.734-181.653  24.434  1.00  0.00     0.179 HD
ENDROOT
BRANCH   3   5
HETATM    5  C2  UNL     1      29.720-182.030  26.261  1.00  0.00     0.157 C 
BRANCH   5   6
HETATM    6  N3  UNL     1      29.813-180.805  26.650  1.00  0.00    -0.291 N 
ATOM      7  H3  UNL     1      29.093-180.439  27.274  1.00  0.00     0.188 HD
BRANCH   6   8
HETATM    8  N4  UNL     1      30.840-179.959  26.264  1.00  0.00    -0.344 N 
ATOM      9  H42 UNL     1      30.714-179.434  25.399  1.00  0.00     0.176 HD
ATOM     10  H41 UNL     1      31.700-179.842  26.800  1.00  0.00     0.176 HD
ENDBRANCH   6   8
ENDBRANCH   5   6
BRANCH   5  11
HETATM   11  C3  UNL     1      30.549-183.130  26.864  1.00  0.00     0.323 C 
BRANCH  11  12
HETATM   12  N5  UNL     1      31.673-183.461  26.163  1.00  0.00    -0.353 N 
ATOM     13  H5  UNL     1      32.164-184.109  26.780  1.00  0.00     0.162 HD
BRANCH  12  14
HETATM   14  C4  UNL     1      32.391-183.388  25.194  1.00  0.00     0.069 A 
HETATM   15  C5  UNL     1      33.755-183.073  25.386  1.00  0.00     0.070 A 
HETATM   16  C6  UNL     1      34.629-182.974  24.322  1.00  0.00     0.110 A 
HETATM   17  O3  UNL     1      34.197-183.174  23.100  1.00  0.00    -0.308 OA
HETATM   18  C8  UNL     1      32.959-183.470  22.821  1.00  0.00     0.128 A 
HETATM   19  C11 UNL     1      32.036-183.580  23.881  1.00  0.00     0.125 A 
BRANCH  16  20
HETATM   20  C7  UNL     1      36.073-182.637  24.568  1.00  0.00     0.312 C 
BRANCH  20  21
HETATM   21  O1  UNL     1      36.188-181.250  24.648  1.00  0.00    -0.365 OA
ATOM     22  H1  UNL     1      36.751-180.959  23.941  1.00  0.00     0.213 HD
ENDBRANCH  20  21
BRANCH  20  23
HETATM   23  O2  UNL     1      36.791-183.155  23.493  1.00  0.00    -0.365 OA
ATOM     24  H2  UNL     1      37.064-184.029  23.744  1.00  0.00     0.213 HD
ENDBRANCH  20  23
ENDBRANCH  16  20
BRANCH  18  25
HETATM   25  C9  UNL     1      32.515-183.690  21.411  1.00  0.00     0.278 C 
BRANCH  25  26
HETATM   26  O4  UNL     1      31.439-182.836  21.154  1.00  0.00    -0.378 OA
ATOM     27  H4  UNL     1      31.547-182.474  20.283  1.00  0.00     0.211 HD
ENDBRANCH  25  26
BRANCH  25  28
HETATM   28  C10 UNL     1      32.216-185.084  21.109  1.00  0.00     0.209 C 
HETATM   29  O5  UNL     1      31.083-185.405  20.689  1.00  0.00    -0.646 OA
HETATM   30  O6  UNL     1      33.157-186.080  21.273  1.00  0.00    -0.646 OA
ENDBRANCH  25  28
ENDBRANCH  18  25
BRANCH  19  31
HETATM   31  O7  UNL     1      30.763-183.893  23.490  1.00  0.00    -0.356 OA
ATOM     32  H7  UNL     1      30.011-183.344  23.684  1.00  0.00     0.218 HD
ENDBRANCH  19  31
ENDBRANCH  12  14
ENDBRANCH  11  12
BRANCH  11  33
HETATM   33  O8  UNL     1      30.988-182.575  28.131  1.00  0.00    -0.231 OA
BRANCH  33  34
HETATM   34  N6  UNL     1      31.114-183.429  29.182  1.00  0.00    -0.203 N 
ATOM     35  H6  UNL     1      31.718-184.241  29.062  1.00  0.00     0.216 HD
BRANCH  34  36
HETATM   36  N7  UNL     1      30.533-183.290  30.301  1.00  0.00    -0.264 N 
ATOM     37  H7  UNL     1      31.083-183.388  31.155  1.00  0.00     0.190 HD
BRANCH  36  38
HETATM   38  C12 UNL     1      29.149-183.003  30.412  1.00  0.00     0.154 A 
HETATM   39  N8  UNL     1      28.254-183.029  29.414  1.00  0.00    -0.335 N 
HETATM   40  C13 UNL     1      27.070-182.696  29.952  1.00  0.00     0.182 A 
ATOM     41  H8  UNL     1      28.437-183.257  28.437  1.00  0.00     0.168 HD
HETATM   42  N9  UNL     1      27.223-182.462  31.288  1.00  0.00    -0.345 N 
HETATM   43  C14 UNL     1      28.534-182.653  31.592  1.00  0.00     0.144 A 
ATOM     44  H9  UNL     1      26.487-182.193  31.941  1.00  0.00     0.167 HD
BRANCH  43  45
HETATM   45  C15 UNL     1      29.179-182.522  32.879  1.00  0.00     0.285 C 
HETATM   46  N10 UNL     1      28.414-182.289  34.048  1.00  0.00    -0.056 NA
HETATM   47  O9  UNL     1      30.428-182.615  32.968  1.00  0.00    -0.269 OA
ENDBRANCH  43  45
ENDBRANCH  36  38
ENDBRANCH  34  36
ENDBRANCH  33  34
ENDBRANCH  11  33
ENDBRANCH   5  11
ENDBRANCH   3   5
TORSDOF 18
ENDMDL
MODEL 3
REMARK VINA RESULT: -8.151923490      1.033      1.743
REMARK  18 active torsions:
REMARK  status: ('A' for Active; 'I' for Inactive)
REMARK    1  A    between atoms: N2_3  and  C2_5 
REMARK    2  A    between atoms: C2_5  and  N3_6 
REMARK    3  A    between atoms: C2_5  and  C3_11 
REMARK    4  A    between atoms: N3_6  and  N4_8 
REMARK    5  A    between atoms: C3_11  and  N5_12 
REMARK    6  A    between atoms: C3_11  and  O8_33 
REMARK    7  A    between atoms: N5_12  and  C4_14 
REMARK    8  A    between atoms: C6_16  and  C7_17 
REMARK    9  A    between atoms: C7_17  and  O1_18 
REMARK   10  A    between atoms: C7_17  and  O2_20 
REMARK   11  A    between atoms: C8_23  and  C9_24 
REMARK   12  A    between atoms: C9_24  and  O4_25 
REMARK   13  A    between atoms: C9_24  and  C10_27 
REMARK   14  A    between atoms: C11_30  and  O7_31 
REMARK   15  A    between atoms: O8_33  and  N6_34 
REMARK   16  A    between atoms: N6_34  and  N7_36 
REMARK   17  A    between atoms: N7_36  and  C12_38 
REMARK   18  A    between atoms: C14_44  and  C15_45 
ROOT
HETATM    1  N1  UNL     1      33.433-184.020  25.741  1.00  0.00    -0.172 NA
HETATM    2  C1  UNL     1      32.616-183.224  25.534  1.00  0.00     0.183 C 
HETATM    3  N2  UNL     1      31.632-182.254  25.305  1.00  0.00    -0.278 N 
ATOM      4  H2  UNL     1      31.911-181.356  24.911  1.00  0.00     0.179 HD
ENDROOT
BRANCH   3   5
HETATM    5  C2  UNL     1      30.259-182.472  25.599  1.00  0.00     0.157 C 
BRANCH   5   6
HETATM    6  N3  UNL     1      29.637-181.505  26.183  1.00  0.00    -0.291 N 
ATOM      7  H3  UNL     1      28.638-181.611  26.363  1.00  0.00     0.188 HD
BRANCH   6   8
HETATM    8  N4  UNL     1      30.255-180.331  26.580  1.00  0.00    -0.344 N 
ATOM      9  H42 UNL     1      31.094-180.050  26.073  1.00  0.00     0.176 HD
ATOM     10  H41 UNL     1      29.913-179.748  27.344  1.00  0.00     0.176 HD
ENDBRANCH   6   8
ENDBRANCH   5   6
BRANCH   5  11
HETATM   11  C3  UNL     1      29.579-183.765  25.241  1.00  0.00     0.323 C 
BRANCH  11  12
HETATM   12  N5  UNL     1      30.288-184.583  24.407  1.00  0.00    -0.353 N 
ATOM     13  H5  UNL     1      30.967-185.029  25.024  1.00  0.00     0.162 HD
BRANCH  12  14
HETATM   14  C4  UNL     1      30.531-185.053  23.321  1.00  0.00     0.069 A 
HETATM   15  C5  UNL     1      30.249-186.419  23.099  1.00  0.00     0.070 A 
HETATM   16  C6  UNL     1      30.503-187.020  21.882  1.00  0.00     0.110 A 
HETATM   17  O3  UNL     1      31.015-186.317  20.901  1.00  0.00    -0.308 OA
HETATM   18  C8  UNL     1      31.308-185.051  21.007  1.00  0.00     0.128 A 
HETATM   19  C11 UNL     1      31.064-184.403  22.235  1.00  0.00     0.125 A 
BRANCH  16  20
HETATM   20  C7  UNL     1      30.189-188.476  21.685  1.00  0.00     0.312 C 
BRANCH  20  21
HETATM   21  O1  UNL     1      30.782-188.891  20.495  1.00  0.00    -0.365 OA
ATOM     22  H1  UNL     1      31.702-189.059  20.665  1.00  0.00     0.213 HD
ENDBRANCH  20  21
BRANCH  20  23
HETATM   23  O2  UNL     1      28.801-188.581  21.636  1.00  0.00    -0.365 OA
ATOM     24  H2  UNL     1      28.604-189.328  21.084  1.00  0.00     0.213 HD
ENDBRANCH  20  23
ENDBRANCH  16  20
BRANCH  18  25
HETATM   25  C9  UNL     1      31.891-184.293  19.859  1.00  0.00     0.278 C 
BRANCH  25  26
HETATM   26  O4  UNL     1      31.039-183.225  19.563  1.00  0.00    -0.378 OA
ATOM     27  H4  UNL     1      31.286-182.874  18.716  1.00  0.00     0.211 HD
ENDBRANCH  25  26
BRANCH  25  28
HETATM   28  C10 UNL     1      32.176-185.128  18.699  1.00  0.00     0.209 C 
HETATM   29  O5  UNL     1      33.244-185.774  18.640  1.00  0.00    -0.646 OA
HETATM   30  O6  UNL     1      31.291-185.233  17.645  1.00  0.00    -0.646 OA
ENDBRANCH  25  28
ENDBRANCH  18  25
BRANCH  19  31
HETATM   31  O7  UNL     1      31.404-183.078  22.250  1.00  0.00    -0.356 OA
ATOM     32  H7  UNL     1      31.747-182.621  21.491  1.00  0.00     0.218 HD
ENDBRANCH  19  31
ENDBRANCH  12  14
ENDBRANCH  11  12
BRANCH  11  33
HETATM   33  O8  UNL     1      29.462-184.456  26.512  1.00  0.00    -0.231 OA
BRANCH  33  34
HETATM   34  N6  UNL     1      28.524-184.005  27.389  1.00  0.00    -0.203 N 
ATOM     35  H6  UNL     1      27.879-183.287  27.062  1.00  0.00     0.216 HD
BRANCH  34  36
HETATM   36  N7  UNL     1      28.394-184.413  28.583  1.00  0.00    -0.264 N 
ATOM     37  H7  UNL     1      28.645-185.377  28.801  1.00  0.00     0.190 HD
BRANCH  36  38
HETATM   38  C12 UNL     1      27.914-183.581  29.626  1.00  0.00     0.154 A 
HETATM   39  N8  UNL     1      26.635-183.447  30.004  1.00  0.00    -0.335 N 
HETATM   40  C13 UNL     1      26.626-182.568  31.019  1.00  0.00     0.182 A 
ATOM     41  H8  UNL     1      25.827-183.921  29.600  1.00  0.00     0.168 HD
HETATM   42  N9  UNL     1      27.899-182.151  31.276  1.00  0.00    -0.345 N 
HETATM   43  C14 UNL     1      28.724-182.785  30.401  1.00  0.00     0.144 A 
ATOM     44  H9  UNL     1      28.182-181.485  31.995  1.00  0.00     0.167 HD
BRANCH  43  45
HETATM   45  C15 UNL     1      30.160-182.667  30.285  1.00  0.00     0.285 C 
HETATM   46  N10 UNL     1      30.769-182.495  29.018  1.00  0.00    -0.056 NA
HETATM   47  O9  UNL     1      30.880-182.717  31.313  1.00  0.00    -0.269 OA
ENDBRANCH  43  45
ENDBRANCH  36  38
ENDBRANCH  34  36
ENDBRANCH  33  34
ENDBRANCH  11  33
ENDBRANCH   5  11
ENDBRANCH   3   5
TORSDOF 18
ENDMDL
MODEL 4
REMARK VINA RESULT: -7.956570894      1.940      4.809
REMARK  18 active torsions:
REMARK  status: ('A' for Active; 'I' for Inactive)
REMARK    1  A    between atoms: N2_3  and  C2_5 
REMARK    2  A    between atoms: C2_5  and  N3_6 
REMARK    3  A    between atoms: C2_5  and  C3_11 
REMARK    4  A    between atoms: N3_6  and  N4_8 
REMARK    5  A    between atoms: C3_11  and  N5_12 
REMARK    6  A    between atoms: C3_11  and  O8_33 
REMARK    7  A    between atoms: N5_12  and  C4_14 
REMARK    8  A    between atoms: C6_16  and  C7_17 
REMARK    9  A    between atoms: C7_17  and  O1_18 
REMARK   10  A    between atoms: C7_17  and  O2_20 
REMARK   11  A    between atoms: C8_23  and  C9_24 
REMARK   12  A    between atoms: C9_24  and  O4_25 
REMARK   13  A    between atoms: C9_24  and  C10_27 
REMARK   14  A    between atoms: C11_30  and  O7_31 
REMARK   15  A    between atoms: O8_33  and  N6_34 
REMARK   16  A    between atoms: N6_34  and  N7_36 
REMARK   17  A    between atoms: N7_36  and  C12_38 
REMARK   18  A    between atoms: C14_44  and  C15_45 
ROOT
HETATM    1  N1  UNL     1      30.338-184.112  29.575  1.00  0.00    -0.172 NA
HETATM    2  C1  UNL     1      29.427-184.027  28.862  1.00  0.00     0.183 C 
HETATM    3  N2  UNL     1      28.327-183.946  28.000  1.00  0.00    -0.278 N 
ATOM      4  H2  UNL     1      27.388-183.948  28.400  1.00  0.00     0.179 HD
ENDROOT
BRANCH   3   5
HETATM    5  C2  UNL     1      28.466-183.861  26.588  1.00  0.00     0.157 C 
BRANCH   5   6
HETATM    6  N3  UNL     1      27.424-183.478  25.931  1.00  0.00    -0.291 N 
ATOM      7  H3  UNL     1      26.574-184.036  26.004  1.00  0.00     0.188 HD
BRANCH   6   8
HETATM    8  N4  UNL     1      27.401-182.346  25.133  1.00  0.00    -0.344 N 
ATOM      9  H42 UNL     1      27.428-182.485  24.123  1.00  0.00     0.176 HD
ATOM     10  H41 UNL     1      27.360-181.397  25.506  1.00  0.00     0.176 HD
ENDBRANCH   6   8
ENDBRANCH   5   6
BRANCH   5  11
HETATM   11  C3  UNL     1      29.764-184.200  25.909  1.00  0.00     0.323 C 
BRANCH  11  12
HETATM   12  N5  UNL     1      29.642-184.764  24.671  1.00  0.00    -0.353 N 
ATOM     13  H5  UNL     1      28.640-184.936  24.579  1.00  0.00     0.162 HD
BRANCH  12  14
HETATM   14  C4  UNL     1      30.100-185.166  23.627  1.00  0.00     0.069 A 
HETATM   15  C5  UNL     1      29.876-186.512  23.265  1.00  0.00     0.070 A 
HETATM   16  C6  UNL     1      30.372-187.035  22.087  1.00  0.00     0.110 A 
HETATM   17  O3  UNL     1      31.067-186.274  21.276  1.00  0.00    -0.308 OA
HETATM   18  C8  UNL     1      31.326-185.020  21.521  1.00  0.00     0.128 A 
HETATM   19  C11 UNL     1      30.838-184.451  22.715  1.00  0.00     0.125 A 
BRANCH  16  20
HETATM   20  C7  UNL     1      30.112-188.473  21.738  1.00  0.00     0.312 C 
BRANCH  20  21
HETATM   21  O1  UNL     1      30.812-188.769  20.570  1.00  0.00    -0.365 OA
ATOM     22  H1  UNL     1      31.740-188.762  20.772  1.00  0.00     0.213 HD
ENDBRANCH  20  21
BRANCH  20  23
HETATM   23  O2  UNL     1      28.736-188.596  21.562  1.00  0.00    -0.365 OA
ATOM     24  H2  UNL     1      28.327-188.116  22.273  1.00  0.00     0.213 HD
ENDBRANCH  20  23
ENDBRANCH  16  20
BRANCH  18  25
HETATM   25  C9  UNL     1      32.124-184.194  20.565  1.00  0.00     0.278 C 
BRANCH  25  26
HETATM   26  O4  UNL     1      31.243-183.372  19.856  1.00  0.00    -0.378 OA
ATOM     27  H4  UNL     1      31.700-183.030  19.098  1.00  0.00     0.211 HD
ENDBRANCH  25  26
BRANCH  25  28
HETATM   28  C10 UNL     1      32.984-184.986  19.694  1.00  0.00     0.209 C 
HETATM   29  O5  UNL     1      32.631-185.230  18.520  1.00  0.00    -0.646 OA
HETATM   30  O6  UNL     1      34.196-185.483  20.127  1.00  0.00    -0.646 OA
ENDBRANCH  25  28
ENDBRANCH  18  25
BRANCH  19  31
HETATM   31  O7  UNL     1      31.160-183.132  22.883  1.00  0.00    -0.356 OA
ATOM     32  H7  UNL     1      32.024-182.782  22.699  1.00  0.00     0.218 HD
ENDBRANCH  19  31
ENDBRANCH  12  14
ENDBRANCH  11  12
BRANCH  11  33
HETATM   33  O8  UNL     1      30.404-182.911  25.725  1.00  0.00    -0.231 OA
BRANCH  33  34
HETATM   34  N6  UNL     1      31.754-182.851  25.886  1.00  0.00    -0.203 N 
ATOM     35  H6  UNL     1      32.143-182.006  26.304  1.00  0.00     0.216 HD
BRANCH  34  36
HETATM   36  N7  UNL     1      32.563-183.769  25.554  1.00  0.00    -0.264 N 
ATOM     37  H7  UNL     1      32.206-184.577  25.045  1.00  0.00     0.190 HD
BRANCH  36  38
HETATM   38  C12 UNL     1      33.946-183.716  25.863  1.00  0.00     0.154 A 
HETATM   39  N8  UNL     1      34.516-184.121  27.007  1.00  0.00    -0.335 N 
HETATM   40  C13 UNL     1      35.833-183.894  26.880  1.00  0.00     0.182 A 
ATOM     41  H8  UNL     1      34.041-184.524  27.816  1.00  0.00     0.168 HD
HETATM   42  N9  UNL     1      36.088-183.346  25.657  1.00  0.00    -0.345 N 
HETATM   43  C14 UNL     1      34.903-183.228  25.004  1.00  0.00     0.144 A 
ATOM     44  H9  UNL     1      37.004-183.074  25.297  1.00  0.00     0.167 HD
BRANCH  43  45
HETATM   45  C15 UNL     1      34.663-182.703  23.678  1.00  0.00     0.285 C 
HETATM   46  N10 UNL     1      35.518-183.045  22.602  1.00  0.00    -0.056 NA
HETATM   47  O9  UNL     1      33.690-181.935  23.473  1.00  0.00    -0.269 OA
ENDBRANCH  43  45
ENDBRANCH  36  38
ENDBRANCH  34  36
ENDBRANCH  33  34
ENDBRANCH  11  33
ENDBRANCH   5  11
ENDBRANCH   3   5
TORSDOF 18
ENDMDL
MODEL 5
REMARK VINA RESULT: -7.951209336      2.494      9.241
REMARK  18 active torsions:
REMARK  status: ('A' for Active; 'I' for Inactive)
REMARK    1  A    between atoms: N2_3  and  C2_5 
REMARK    2  A    between atoms: C2_5  and  N3_6 
REMARK    3  A    between atoms: C2_5  and  C3_11 
REMARK    4  A    between atoms: N3_6  and  N4_8 
REMARK    5  A    between atoms: C3_11  and  N5_12 
REMARK    6  A    between atoms: C3_11  and  O8_33 
REMARK    7  A    between atoms: N5_12  and  C4_14 
REMARK    8  A    between atoms: C6_16  and  C7_17 
REMARK    9  A    between atoms: C7_17  and  O1_18 
REMARK   10  A    between atoms: C7_17  and  O2_20 
REMARK   11  A    between atoms: C8_23  and  C9_24 
REMARK   12  A    between atoms: C9_24  and  O4_25 
REMARK   13  A    between atoms: C9_24  and  C10_27 
REMARK   14  A    between atoms: C11_30  and  O7_31 
REMARK   15  A    between atoms: O8_33  and  N6_34 
REMARK   16  A    between atoms: N6_34  and  N7_36 
REMARK   17  A    between atoms: N7_36  and  C12_38 
REMARK   18  A    between atoms: C14_44  and  C15_45 
ROOT
HETATM    1  N1  UNL     1      33.535-184.057  25.683  1.00  0.00    -0.172 NA
HETATM    2  C1  UNL     1      32.654-183.309  25.599  1.00  0.00     0.183 C 
HETATM    3  N2  UNL     1      31.597-182.393  25.514  1.00  0.00    -0.278 N 
ATOM      4  H2  UNL     1      31.716-181.558  24.940  1.00  0.00     0.179 HD
ENDROOT
BRANCH   3   5
HETATM    5  C2  UNL     1      30.365-182.582  26.196  1.00  0.00     0.157 C 
BRANCH   5   6
HETATM    6  N3  UNL     1      29.604-181.547  26.303  1.00  0.00    -0.291 N 
ATOM      7  H3  UNL     1      28.604-181.662  26.136  1.00  0.00     0.188 HD
BRANCH   6   8
HETATM    8  N4  UNL     1      30.074-180.287  26.634  1.00  0.00    -0.344 N 
ATOM      9  H42 UNL     1      29.533-179.748  27.311  1.00  0.00     0.176 HD
ATOM     10  H41 UNL     1      30.922-179.882  26.236  1.00  0.00     0.176 HD
ENDBRANCH   6   8
ENDBRANCH   5   6
BRANCH   5  11
HETATM   11  C3  UNL     1      29.980-183.923  26.757  1.00  0.00     0.323 C 
BRANCH  11  12
HETATM   12  N5  UNL     1      29.808-183.960  28.111  1.00  0.00    -0.353 N 
ATOM     13  H5  UNL     1      30.441-184.699  28.418  1.00  0.00     0.162 HD
BRANCH  12  14
HETATM   14  C4  UNL     1      29.299-183.574  29.137  1.00  0.00     0.069 A 
HETATM   15  C5  UNL     1      27.894-183.436  29.183  1.00  0.00     0.070 A 
HETATM   16  C6  UNL     1      27.248-183.000  30.323  1.00  0.00     0.110 A 
HETATM   17  O3  UNL     1      27.943-182.705  31.395  1.00  0.00    -0.308 OA
HETATM   18  C8  UNL     1      29.242-182.800  31.452  1.00  0.00     0.128 A 
HETATM   19  C11 UNL     1      29.937-183.241  30.307  1.00  0.00     0.125 A 
BRANCH  16  20
HETATM   20  C7  UNL     1      25.751-182.867  30.331  1.00  0.00     0.312 C 
BRANCH  20  21
HETATM   21  O1  UNL     1      25.403-181.833  29.464  1.00  0.00    -0.365 OA
ATOM     22  H1  UNL     1      25.510-182.146  28.573  1.00  0.00     0.213 HD
ENDBRANCH  20  21
BRANCH  20  23
HETATM   23  O2  UNL     1      25.385-182.586  31.645  1.00  0.00    -0.365 OA
ATOM     24  H2  UNL     1      24.907-183.344  31.962  1.00  0.00     0.213 HD
ENDBRANCH  20  23
ENDBRANCH  16  20
BRANCH  18  25
HETATM   25  C9  UNL     1      29.990-182.452  32.698  1.00  0.00     0.278 C 
BRANCH  25  26
HETATM   26  O4  UNL     1      30.703-183.581  33.110  1.00  0.00    -0.378 OA
ATOM     27  H4  UNL     1      30.363-183.856  33.953  1.00  0.00     0.211 HD
ENDBRANCH  25  26
BRANCH  25  28
HETATM   28  C10 UNL     1      29.139-181.905  33.749  1.00  0.00     0.209 C 
HETATM   29  O5  UNL     1      28.881-180.682  33.771  1.00  0.00    -0.646 OA
HETATM   30  O6  UNL     1      28.600-182.704  34.735  1.00  0.00    -0.646 OA
ENDBRANCH  25  28
ENDBRANCH  18  25
BRANCH  19  31
HETATM   31  O7  UNL     1      31.294-183.309  30.463  1.00  0.00    -0.356 OA
ATOM     32  H7  UNL     1      31.779-182.736  31.047  1.00  0.00     0.218 HD
ENDBRANCH  19  31
ENDBRANCH  12  14
ENDBRANCH  11  12
BRANCH  11  33
HETATM   33  O8  UNL     1      28.684-184.187  26.159  1.00  0.00    -0.231 OA
BRANCH  33  34
HETATM   34  N6  UNL     1      28.661-184.595  24.861  1.00  0.00    -0.203 N 
ATOM     35  H6  UNL     1      27.773-184.925  24.485  1.00  0.00     0.216 HD
BRANCH  34  36
HETATM   36  N7  UNL     1      29.665-184.595  24.086  1.00  0.00    -0.264 N 
ATOM     37  H7  UNL     1      30.263-183.769  24.058  1.00  0.00     0.190 HD
BRANCH  36  38
HETATM   38  C12 UNL     1      29.988-185.698  23.256  1.00  0.00     0.154 A 
HETATM   39  N8  UNL     1      29.320-186.859  23.189  1.00  0.00    -0.335 N 
HETATM   40  C13 UNL     1      29.960-187.616  22.284  1.00  0.00     0.182 A 
ATOM     41  H8  UNL     1      28.489-187.115  23.721  1.00  0.00     0.168 HD
HETATM   42  N9  UNL     1      31.028-186.931  21.783  1.00  0.00    -0.345 N 
HETATM   43  C14 UNL     1      31.057-185.715  22.390  1.00  0.00     0.144 A 
ATOM     44  H9  UNL     1      31.686-187.269  21.081  1.00  0.00     0.167 HD
BRANCH  43  45
HETATM   45  C15 UNL     1      32.003-184.641  22.189  1.00  0.00     0.285 C 
HETATM   46  N10 UNL     1      33.341-184.918  21.817  1.00  0.00    -0.056 NA
HETATM   47  O9  UNL     1      31.642-183.448  22.345  1.00  0.00    -0.269 OA
ENDBRANCH  43  45
ENDBRANCH  36  38
ENDBRANCH  34  36
ENDBRANCH  33  34
ENDBRANCH  11  33
ENDBRANCH   5  11
ENDBRANCH   3   5
TORSDOF 18
ENDMDL
