MODEL 1
REMARK VINA RESULT: -9.542434501      0.000      0.000
REMARK  10 active torsions:
REMARK  status: ('A' for Active; 'I' for Inactive)
REMARK       I    between atoms: C2_2  and  N1_4 
REMARK    1  A    between atoms: N1_4  and  C3_6 
REMARK    2  A    between atoms: C4_7  and  C5_8 
REMARK    3  A    between atoms: C6_12  and  N2_13 
REMARK       I    between atoms: N2_13  and  C7_15 
REMARK       I    between atoms: C7_15  and  N3_16 
REMARK       I    between atoms: C7_15  and  N4_20 
REMARK    4  A    between atoms: C8_24  and  N5_25 
REMARK    5  A    between atoms: N5_25  and  N6_27 
REMARK       I    between atoms: N6_27  and  C9_29 
REMARK    6  A    between atoms: C9_29  and  C10_31 
REMARK    7  A    between atoms: C10_31  and  C11_32 
REMARK    8  A    between atoms: C11_32  and  N7_33 
REMARK    9  A    between atoms: C13_41  and  N11_42 
REMARK   10  A    between atoms: C16_48  and  O6_49 
ROOT
HETATM    1  C3  UNL     1      32.011-183.617  19.856  1.00  0.00     0.112 A 
HETATM    2  C4  UNL     1      31.843-184.930  19.491  1.00  0.00     0.183 A 
HETATM    3  O4  UNL     1      31.593-185.892  20.375  1.00  0.00    -0.282 OA
HETATM    4  C6  UNL     1      31.490-185.647  21.651  1.00  0.00     0.178 A 
HETATM    5  C8  UNL     1      31.649-184.343  22.075  1.00  0.00     0.135 A 
HETATM    6  C16 UNL     1      31.909-183.307  21.208  1.00  0.00     0.128 A 
ENDROOT
BRANCH   5   7
HETATM    7  N5  UNL     1      31.542-184.076  23.454  1.00  0.00    -0.292 N 
ATOM      8  H5  UNL     1      32.261-184.446  24.077  1.00  0.00     0.187 HD
BRANCH   7   9
HETATM    9  N6  UNL     1      30.506-183.333  24.009  1.00  0.00    -0.269 N 
HETATM   10  C9  UNL     1      29.389-183.894  24.695  1.00  0.00     0.237 C 
HETATM   11  O5  UNL     1      29.319-185.131  24.816  1.00  0.00    -0.272 OA
ATOM     12  H6  UNL     1      30.548-182.318  23.919  1.00  0.00     0.190 HD
BRANCH  10  13
HETATM   13  C10 UNL     1      28.370-182.994  25.232  1.00  0.00     0.126 C 
BRANCH  13  14
HETATM   14  C11 UNL     1      27.898-183.291  26.623  1.00  0.00     0.161 C 
BRANCH  14  15
HETATM   15  N7  UNL     1      29.003-183.342  27.553  1.00  0.00    -0.258 N 
HETATM   16  N8  UNL     1      30.285-183.576  27.397  1.00  0.00    -0.237 N 
HETATM   17  N9  UNL     1      30.930-183.497  28.549  1.00  0.00    -0.267 N 
ATOM     18  H8  UNL     1      30.727-183.791  26.503  1.00  0.00     0.208 HD
HETATM   19  C12 UNL     1      30.042-183.197  29.518  1.00  0.00     0.183 A 
ATOM     20  H9  UNL     1      31.931-183.639  28.681  1.00  0.00     0.190 HD
HETATM   21  N10 UNL     1      29.883-182.957  30.842  1.00  0.00    -0.172 N 
HETATM   22  C15 UNL     1      28.824-183.100  28.887  1.00  0.00     0.187 A 
HETATM   23  C13 UNL     1      28.577-182.711  31.046  1.00  0.00     0.681 A 
ATOM     24  H10 UNL     1      30.616-182.962  31.552  1.00  0.00     0.186 HD
HETATM   25  N12 UNL     1      27.937-182.799  29.843  1.00  0.00    -0.167 N 
HETATM   26  C14 UNL     1      26.522-182.595  29.658  1.00  0.00     0.177 C 
BRANCH  23  27
HETATM   27  N11 UNL     1      28.003-182.435  32.171  1.00  0.00    -0.234 N 
ATOM     28 2H11 UNL     1      28.419-182.581  33.090  1.00  0.00     0.174 HD
ATOM     29 1H11 UNL     1      27.071-182.041  32.305  1.00  0.00     0.174 HD
ENDBRANCH  23  27
ENDBRANCH  14  15
ENDBRANCH  13  14
ENDBRANCH  10  13
ENDBRANCH   7   9
ENDBRANCH   5   7
BRANCH   4  30
HETATM   30  N2  UNL     1      31.244-186.588  22.530  1.00  0.00    -0.319 N 
HETATM   31  C7  UNL     1      30.259-187.582  22.152  1.00  0.00     0.482 C 
HETATM   32  N3  UNL     1      29.896-188.390  23.297  1.00  0.00    -0.033 N 
HETATM   33  N4  UNL     1      30.781-188.358  21.067  1.00  0.00    -0.033 N 
ATOM     34  H33 UNL     1      30.712-188.813  23.738  1.00  0.00     0.278 HD
ATOM     35  H32 UNL     1      29.580-187.820  24.081  1.00  0.00     0.278 HD
ATOM     36  H31 UNL     1      29.202-189.089  23.031  1.00  0.00     0.278 HD
ATOM     37  H43 UNL     1      31.074-187.779  20.279  1.00  0.00     0.278 HD
ATOM     38  H42 UNL     1      31.689-188.771  21.284  1.00  0.00     0.278 HD
ATOM     39  H41 UNL     1      30.087-189.057  20.801  1.00  0.00     0.278 HD
ATOM     40  H2  UNL     1      31.721-186.620  23.431  1.00  0.00     0.165 HD
ENDBRANCH   4  30
BRANCH   6  41
HETATM   41  O6  UNL     1      32.070-182.007  21.621  1.00  0.00    -0.356 OA
ATOM     42  H6  UNL     1      31.328-181.533  21.979  1.00  0.00     0.218 HD
ENDBRANCH   6  41
BRANCH   1  43
HETATM   43  N1  UNL     1      32.294-182.606  18.894  1.00  0.00    -0.323 N 
HETATM   44  C2  UNL     1      33.639-182.270  18.595  1.00  0.00     0.218 C 
HETATM   45  C1  UNL     1      33.960-181.221  17.597  1.00  0.00     0.117 C 
HETATM   46  O1  UNL     1      34.597-182.852  19.164  1.00  0.00    -0.274 OA
ATOM     47  H1  UNL     1      31.530-182.124  18.421  1.00  0.00     0.169 HD
ENDBRANCH   1  43
BRANCH   2  48
HETATM   48  C5  UNL     1      31.937-185.306  18.086  1.00  0.00     0.236 C 
HETATM   49  O2  UNL     1      33.045-185.749  17.638  1.00  0.00    -0.642 OA
HETATM   50  O3  UNL     1      30.917-185.224  17.190  1.00  0.00    -0.642 OA
ENDBRANCH   2  48
TORSDOF 10
ENDMDL
MODEL 2
REMARK VINA RESULT: -9.314646102      1.651      1.865
REMARK  10 active torsions:
REMARK  status: ('A' for Active; 'I' for Inactive)
REMARK       I    between atoms: C2_2  and  N1_4 
REMARK    1  A    between atoms: N1_4  and  C3_6 
REMARK    2  A    between atoms: C4_7  and  C5_8 
REMARK    3  A    between atoms: C6_12  and  N2_13 
REMARK       I    between atoms: N2_13  and  C7_15 
REMARK       I    between atoms: C7_15  and  N3_16 
REMARK       I    between atoms: C7_15  and  N4_20 
REMARK    4  A    between atoms: C8_24  and  N5_25 
REMARK    5  A    between atoms: N5_25  and  N6_27 
REMARK       I    between atoms: N6_27  and  C9_29 
REMARK    6  A    between atoms: C9_29  and  C10_31 
REMARK    7  A    between atoms: C10_31  and  C11_32 
REMARK    8  A    between atoms: C11_32  and  N7_33 
REMARK    9  A    between atoms: C13_41  and  N11_42 
REMARK   10  A    between atoms: C16_48  and  O6_49 
ROOT
HETATM    1  C3  UNL     1      32.372-184.085  21.264  1.00  0.00     0.112 A 
HETATM    2  C4  UNL     1      32.749-185.380  21.010  1.00  0.00     0.183 A 
HETATM    3  O4  UNL     1      32.178-186.421  21.609  1.00  0.00    -0.282 OA
HETATM    4  C6  UNL     1      31.219-186.276  22.481  1.00  0.00     0.178 A 
HETATM    5  C8  UNL     1      30.799-184.994  22.774  1.00  0.00     0.135 A 
HETATM    6  C16 UNL     1      31.351-183.880  22.187  1.00  0.00     0.128 A 
ENDROOT
BRANCH   5   7
HETATM    7  N5  UNL     1      29.766-184.835  23.718  1.00  0.00    -0.292 N 
ATOM      8  H5  UNL     1      28.956-185.452  23.660  1.00  0.00     0.187 HD
BRANCH   7   9
HETATM    9  N6  UNL     1      29.795-183.877  24.726  1.00  0.00    -0.269 N 
HETATM   10  C9  UNL     1      28.704-183.589  25.597  1.00  0.00     0.237 C 
HETATM   11  O5  UNL     1      27.644-184.228  25.462  1.00  0.00    -0.272 OA
ATOM     12  H6  UNL     1      30.656-183.344  24.851  1.00  0.00     0.190 HD
BRANCH  10  13
HETATM   13  C10 UNL     1      28.873-182.555  26.617  1.00  0.00     0.126 C 
BRANCH  13  14
HETATM   14  C11 UNL     1      28.372-182.897  27.988  1.00  0.00     0.161 C 
BRANCH  14  15
HETATM   15  N7  UNL     1      29.463-183.036  28.926  1.00  0.00    -0.258 N 
HETATM   16  N8  UNL     1      30.746-183.261  28.768  1.00  0.00    -0.237 N 
HETATM   17  N9  UNL     1      31.374-183.288  29.932  1.00  0.00    -0.267 N 
ATOM     18  H8  UNL     1      31.201-183.397  27.866  1.00  0.00     0.208 HD
HETATM   19  C12 UNL     1      30.473-183.071  30.911  1.00  0.00     0.183 A 
ATOM     20  H9  UNL     1      32.372-183.445  30.067  1.00  0.00     0.190 HD
HETATM   21  N10 UNL     1      30.294-182.950  32.249  1.00  0.00    -0.172 N 
HETATM   22  C15 UNL     1      29.265-182.913  30.274  1.00  0.00     0.187 A 
HETATM   23  C13 UNL     1      28.986-182.718  32.455  1.00  0.00     0.681 A 
ATOM     24  H10 UNL     1      31.016-183.022  32.966  1.00  0.00     0.186 HD
HETATM   25  N12 UNL     1      28.364-182.695  31.239  1.00  0.00    -0.167 N 
HETATM   26  C14 UNL     1      26.953-182.469  31.053  1.00  0.00     0.177 C 
BRANCH  23  27
HETATM   27  N11 UNL     1      28.396-182.540  33.591  1.00  0.00    -0.234 N 
ATOM     28 2H11 UNL     1      28.860-182.250  34.452  1.00  0.00     0.174 HD
ATOM     29 1H11 UNL     1      27.403-182.662  33.794  1.00  0.00     0.174 HD
ENDBRANCH  23  27
ENDBRANCH  14  15
ENDBRANCH  13  14
ENDBRANCH  10  13
ENDBRANCH   7   9
ENDBRANCH   5   7
BRANCH   4  30
HETATM   30  N2  UNL     1      30.651-187.296  23.077  1.00  0.00    -0.319 N 
HETATM   31  C7  UNL     1      29.703-188.059  22.288  1.00  0.00     0.482 C 
HETATM   32  N3  UNL     1      28.966-188.973  23.133  1.00  0.00    -0.033 N 
HETATM   33  N4  UNL     1      30.413-188.724  21.235  1.00  0.00    -0.033 N 
ATOM     34  H33 UNL     1      29.586-189.578  23.671  1.00  0.00     0.278 HD
ATOM     35  H32 UNL     1      28.514-188.492  23.911  1.00  0.00     0.278 HD
ATOM     36  H31 UNL     1      28.299-189.509  22.578  1.00  0.00     0.278 HD
ATOM     37  H43 UNL     1      30.964-188.079  20.668  1.00  0.00     0.278 HD
ATOM     38  H42 UNL     1      31.181-189.298  21.584  1.00  0.00     0.278 HD
ATOM     39  H41 UNL     1      29.746-189.260  20.680  1.00  0.00     0.278 HD
ATOM     40  H2  UNL     1      30.863-187.540  24.044  1.00  0.00     0.165 HD
ENDBRANCH   4  30
BRANCH   6  41
HETATM   41  O6  UNL     1      30.940-182.601  22.473  1.00  0.00    -0.356 OA
ATOM     42  H6  UNL     1      31.565-181.887  22.433  1.00  0.00     0.218 HD
ENDBRANCH   6  41
BRANCH   1  43
HETATM   43  N1  UNL     1      33.008-182.984  20.623  1.00  0.00    -0.323 N 
HETATM   44  C2  UNL     1      33.902-182.159  21.352  1.00  0.00     0.218 C 
HETATM   45  C1  UNL     1      34.576-181.006  20.707  1.00  0.00     0.117 C 
HETATM   46  O1  UNL     1      34.149-182.381  22.564  1.00  0.00    -0.274 OA
ATOM     47  H1  UNL     1      32.820-182.789  19.639  1.00  0.00     0.169 HD
ENDBRANCH   1  43
BRANCH   2  48
HETATM   48  C5  UNL     1      33.811-185.648  20.049  1.00  0.00     0.236 C 
HETATM   49  O2  UNL     1      34.601-186.626  20.260  1.00  0.00    -0.642 OA
HETATM   50  O3  UNL     1      34.037-184.927  18.919  1.00  0.00    -0.642 OA
ENDBRANCH   2  48
TORSDOF 10
ENDMDL
MODEL 3
REMARK VINA RESULT: -9.117072160      1.625      2.191
REMARK  10 active torsions:
REMARK  status: ('A' for Active; 'I' for Inactive)
REMARK       I    between atoms: C2_2  and  N1_4 
REMARK    1  A    between atoms: N1_4  and  C3_6 
REMARK    2  A    between atoms: C4_7  and  C5_8 
REMARK    3  A    between atoms: C6_12  and  N2_13 
REMARK       I    between atoms: N2_13  and  C7_15 
REMARK       I    between atoms: C7_15  and  N3_16 
REMARK       I    between atoms: C7_15  and  N4_20 
REMARK    4  A    between atoms: C8_24  and  N5_25 
REMARK    5  A    between atoms: N5_25  and  N6_27 
REMARK       I    between atoms: N6_27  and  C9_29 
REMARK    6  A    between atoms: C9_29  and  C10_31 
REMARK    7  A    between atoms: C10_31  and  C11_32 
REMARK    8  A    between atoms: C11_32  and  N7_33 
REMARK    9  A    between atoms: C13_41  and  N11_42 
REMARK   10  A    between atoms: C16_48  and  O6_49 
ROOT
HETATM    1  C3  UNL     1      32.487-183.985  20.991  1.00  0.00     0.112 A 
HETATM    2  C4  UNL     1      32.787-185.307  20.776  1.00  0.00     0.183 A 
HETATM    3  O4  UNL     1      32.208-186.291  21.458  1.00  0.00    -0.282 OA
HETATM    4  C6  UNL     1      31.315-186.061  22.379  1.00  0.00     0.178 A 
HETATM    5  C8  UNL     1      30.974-184.748  22.636  1.00  0.00     0.135 A 
HETATM    6  C16 UNL     1      31.538-183.689  21.963  1.00  0.00     0.128 A 
ENDROOT
BRANCH   5   7
HETATM    7  N5  UNL     1      30.011-184.496  23.633  1.00  0.00    -0.292 N 
ATOM      8  H5  UNL     1      29.111-184.972  23.569  1.00  0.00     0.187 HD
BRANCH   7   9
HETATM    9  N6  UNL     1      30.226-183.630  24.700  1.00  0.00    -0.269 N 
HETATM   10  C9  UNL     1      29.190-183.018  25.464  1.00  0.00     0.237 C 
HETATM   11  O5  UNL     1      28.005-183.264  25.172  1.00  0.00    -0.272 OA
ATOM     12  H6  UNL     1      31.192-183.418  24.952  1.00  0.00     0.190 HD
BRANCH  10  13
HETATM   13  C10 UNL     1      29.559-182.127  26.563  1.00  0.00     0.126 C 
BRANCH  13  14
HETATM   14  C11 UNL     1      29.689-182.767  27.912  1.00  0.00     0.161 C 
BRANCH  14  15
HETATM   15  N7  UNL     1      28.445-182.704  28.645  1.00  0.00    -0.258 N 
HETATM   16  N8  UNL     1      27.189-182.696  28.264  1.00  0.00    -0.237 N 
HETATM   17  N9  UNL     1      26.374-182.649  29.304  1.00  0.00    -0.267 N 
ATOM     18  H8  UNL     1      26.882-182.724  27.292  1.00  0.00     0.208 HD
HETATM   19  C12 UNL     1      27.115-182.623  30.430  1.00  0.00     0.183 A 
ATOM     20  H9  UNL     1      25.355-182.634  29.262  1.00  0.00     0.190 HD
HETATM   21  N10 UNL     1      27.076-182.578  31.784  1.00  0.00    -0.172 N 
HETATM   22  C15 UNL     1      28.424-182.657  30.012  1.00  0.00     0.187 A 
HETATM   23  C13 UNL     1      28.350-182.585  32.217  1.00  0.00     0.681 A 
ATOM     24  H10 UNL     1      26.239-182.547  32.366  1.00  0.00     0.186 HD
HETATM   25  N12 UNL     1      29.167-182.635  31.124  1.00  0.00    -0.167 N 
HETATM   26  C14 UNL     1      30.607-182.658  31.188  1.00  0.00     0.177 C 
BRANCH  23  27
HETATM   27  N11 UNL     1      28.755-182.553  33.444  1.00  0.00    -0.234 N 
ATOM     28 2H11 UNL     1      28.146-182.484  34.259  1.00  0.00     0.174 HD
ATOM     29 1H11 UNL     1      29.720-182.588  33.774  1.00  0.00     0.174 HD
ENDBRANCH  23  27
ENDBRANCH  14  15
ENDBRANCH  13  14
ENDBRANCH  10  13
ENDBRANCH   7   9
ENDBRANCH   5   7
BRANCH   4  30
HETATM   30  N2  UNL     1      30.739-187.024  23.057  1.00  0.00    -0.319 N 
HETATM   31  C7  UNL     1      29.783-187.839  22.334  1.00  0.00     0.482 C 
HETATM   32  N3  UNL     1      29.040-188.676  23.252  1.00  0.00    -0.033 N 
HETATM   33  N4  UNL     1      30.484-188.594  21.337  1.00  0.00    -0.033 N 
ATOM     34  H33 UNL     1      29.657-189.241  23.836  1.00  0.00     0.278 HD
ATOM     35  H32 UNL     1      28.594-188.130  23.989  1.00  0.00     0.278 HD
ATOM     36  H31 UNL     1      28.367-189.250  22.744  1.00  0.00     0.278 HD
ATOM     37  H43 UNL     1      31.039-188.003  20.719  1.00  0.00     0.278 HD
ATOM     38  H42 UNL     1      31.248-189.144  21.730  1.00  0.00     0.278 HD
ATOM     39  H41 UNL     1      29.811-189.168  20.829  1.00  0.00     0.278 HD
ATOM     40  H2  UNL     1      30.952-187.190  24.040  1.00  0.00     0.165 HD
ENDBRANCH   4  30
BRANCH   6  41
HETATM   41  O6  UNL     1      31.205-182.380  22.213  1.00  0.00    -0.356 OA
ATOM     42  H6  UNL     1      30.379-182.037  21.895  1.00  0.00     0.218 HD
ENDBRANCH   6  41
BRANCH   1  43
HETATM   43  N1  UNL     1      33.131-182.946  20.260  1.00  0.00    -0.323 N 
HETATM   44  C2  UNL     1      34.001-182.045  20.925  1.00  0.00     0.218 C 
HETATM   45  C1  UNL     1      34.683-180.955  20.186  1.00  0.00     0.117 C 
HETATM   46  O1  UNL     1      34.220-182.145  22.159  1.00  0.00    -0.274 OA
ATOM     47  H1  UNL     1      32.966-182.850  19.257  1.00  0.00     0.169 HD
ENDBRANCH   1  43
BRANCH   2  48
HETATM   48  C5  UNL     1      33.773-185.669  19.765  1.00  0.00     0.236 C 
HETATM   49  O2  UNL     1      34.578-186.629  20.005  1.00  0.00    -0.642 OA
HETATM   50  O3  UNL     1      33.911-185.057  18.560  1.00  0.00    -0.642 OA
ENDBRANCH   2  48
TORSDOF 10
ENDMDL
MODEL 4
REMARK VINA RESULT: -8.827316954      3.186     10.119
REMARK  10 active torsions:
REMARK  status: ('A' for Active; 'I' for Inactive)
REMARK       I    between atoms: C2_2  and  N1_4 
REMARK    1  A    between atoms: N1_4  and  C3_6 
REMARK    2  A    between atoms: C4_7  and  C5_8 
REMARK    3  A    between atoms: C6_12  and  N2_13 
REMARK       I    between atoms: N2_13  and  C7_15 
REMARK       I    between atoms: C7_15  and  N3_16 
REMARK       I    between atoms: C7_15  and  N4_20 
REMARK    4  A    between atoms: C8_24  and  N5_25 
REMARK    5  A    between atoms: N5_25  and  N6_27 
REMARK       I    between atoms: N6_27  and  C9_29 
REMARK    6  A    between atoms: C9_29  and  C10_31 
REMARK    7  A    between atoms: C10_31  and  C11_32 
REMARK    8  A    between atoms: C11_32  and  N7_33 
REMARK    9  A    between atoms: C13_41  and  N11_42 
REMARK   10  A    between atoms: C16_48  and  O6_49 
ROOT
HETATM    1  C3  UNL     1      29.237-182.594  30.455  1.00  0.00     0.112 A 
HETATM    2  C4  UNL     1      27.982-182.785  29.932  1.00  0.00     0.183 A 
HETATM    3  O4  UNL     1      27.779-183.370  28.755  1.00  0.00    -0.282 OA
HETATM    4  C6  UNL     1      28.765-183.800  28.019  1.00  0.00     0.178 A 
HETATM    5  C8  UNL     1      30.050-183.635  28.496  1.00  0.00     0.135 A 
HETATM    6  C16 UNL     1      30.322-183.039  29.705  1.00  0.00     0.128 A 
ENDROOT
BRANCH   5   7
HETATM    7  N5  UNL     1      31.117-184.097  27.701  1.00  0.00    -0.292 N 
ATOM      8  H5  UNL     1      31.437-185.057  27.829  1.00  0.00     0.187 HD
BRANCH   7   9
HETATM    9  N6  UNL     1      31.756-183.308  26.750  1.00  0.00    -0.269 N 
HETATM   10  C9  UNL     1      31.552-183.418  25.344  1.00  0.00     0.237 C 
HETATM   11  O5  UNL     1      30.751-184.270  24.918  1.00  0.00    -0.272 OA
ATOM     12  H6  UNL     1      32.416-182.604  27.082  1.00  0.00     0.190 HD
BRANCH  10  13
HETATM   13  C10 UNL     1      32.290-182.521  24.454  1.00  0.00     0.126 C 
BRANCH  13  14
HETATM   14  C11 UNL     1      33.223-183.180  23.484  1.00  0.00     0.161 C 
BRANCH  14  15
HETATM   15  N7  UNL     1      32.540-183.543  22.263  1.00  0.00    -0.258 N 
HETATM   16  N8  UNL     1      31.570-184.388  22.006  1.00  0.00    -0.237 N 
HETATM   17  N9  UNL     1      31.247-184.371  20.723  1.00  0.00    -0.267 N 
ATOM     18  H8  UNL     1      31.121-184.981  22.704  1.00  0.00     0.208 HD
HETATM   19  C12 UNL     1      32.036-183.477  20.095  1.00  0.00     0.183 A 
ATOM     20  H9  UNL     1      30.524-184.939  20.283  1.00  0.00     0.190 HD
HETATM   21  N10 UNL     1      32.333-182.902  18.903  1.00  0.00    -0.172 N 
HETATM   22  C15 UNL     1      32.853-182.954  21.069  1.00  0.00     0.187 A 
HETATM   23  C13 UNL     1      33.327-182.024  19.124  1.00  0.00     0.681 A 
ATOM     24  H10 UNL     1      31.885-183.097  18.008  1.00  0.00     0.186 HD
HETATM   25  N12 UNL     1      33.638-182.063  20.453  1.00  0.00    -0.167 N 
HETATM   26  C14 UNL     1      34.660-181.256  21.072  1.00  0.00     0.177 C 
BRANCH  23  27
HETATM   27  N11 UNL     1      33.903-181.264  18.250  1.00  0.00    -0.234 N 
ATOM     28 2H11 UNL     1      34.475-181.596  17.474  1.00  0.00     0.174 HD
ATOM     29 1H11 UNL     1      33.875-180.245  18.209  1.00  0.00     0.174 HD
ENDBRANCH  23  27
ENDBRANCH  14  15
ENDBRANCH  13  14
ENDBRANCH  10  13
ENDBRANCH   7   9
ENDBRANCH   5   7
BRANCH   4  30
HETATM   30  N2  UNL     1      28.575-184.377  26.857  1.00  0.00    -0.319 N 
HETATM   31  C7  UNL     1      27.659-183.715  25.950  1.00  0.00     0.482 C 
HETATM   32  N3  UNL     1      27.343-184.580  24.834  1.00  0.00    -0.033 N 
HETATM   33  N4  UNL     1      28.239-182.469  25.540  1.00  0.00    -0.033 N 
ATOM     34  H33 UNL     1      28.182-184.907  24.355  1.00  0.00     0.278 HD
ATOM     35  H32 UNL     1      26.985-185.484  25.143  1.00  0.00     0.278 HD
ATOM     36  H31 UNL     1      26.698-184.114  24.196  1.00  0.00     0.278 HD
ATOM     37  H43 UNL     1      28.499-181.881  26.332  1.00  0.00     0.278 HD
ATOM     38  H42 UNL     1      29.170-182.586  25.139  1.00  0.00     0.278 HD
ATOM     39  H41 UNL     1      27.594-182.003  24.902  1.00  0.00     0.278 HD
ATOM     40  H2  UNL     1      29.046-185.246  26.605  1.00  0.00     0.165 HD
ENDBRANCH   4  30
BRANCH   6  41
HETATM   41  O6  UNL     1      31.596-182.869  30.187  1.00  0.00    -0.356 OA
ATOM     42  H6  UNL     1      32.272-183.497  29.960  1.00  0.00     0.218 HD
ENDBRANCH   6  41
BRANCH   1  43
HETATM   43  N1  UNL     1      29.432-181.951  31.710  1.00  0.00    -0.323 N 
HETATM   44  C2  UNL     1      29.911-182.694  32.820  1.00  0.00     0.218 C 
HETATM   45  C1  UNL     1      30.121-182.047  34.138  1.00  0.00     0.117 C 
HETATM   46  O1  UNL     1      30.170-183.919  32.718  1.00  0.00    -0.274 OA
ATOM     47  H1  UNL     1      29.228-180.956  31.811  1.00  0.00     0.169 HD
ENDBRANCH   1  43
BRANCH   2  48
HETATM   48  C5  UNL     1      26.813-182.340  30.680  1.00  0.00     0.236 C 
HETATM   49  O2  UNL     1      25.780-181.955  30.039  1.00  0.00    -0.642 OA
HETATM   50  O3  UNL     1      26.727-182.299  32.037  1.00  0.00    -0.642 OA
ENDBRANCH   2  48
TORSDOF 10
ENDMDL
MODEL 5
REMARK VINA RESULT: -8.825898756      2.263      4.451
REMARK  10 active torsions:
REMARK  status: ('A' for Active; 'I' for Inactive)
REMARK       I    between atoms: C2_2  and  N1_4 
REMARK    1  A    between atoms: N1_4  and  C3_6 
REMARK    2  A    between atoms: C4_7  and  C5_8 
REMARK    3  A    between atoms: C6_12  and  N2_13 
REMARK       I    between atoms: N2_13  and  C7_15 
REMARK       I    between atoms: C7_15  and  N3_16 
REMARK       I    between atoms: C7_15  and  N4_20 
REMARK    4  A    between atoms: C8_24  and  N5_25 
REMARK    5  A    between atoms: N5_25  and  N6_27 
REMARK       I    between atoms: N6_27  and  C9_29 
REMARK    6  A    between atoms: C9_29  and  C10_31 
REMARK    7  A    between atoms: C10_31  and  C11_32 
REMARK    8  A    between atoms: C11_32  and  N7_33 
REMARK    9  A    between atoms: C13_41  and  N11_42 
REMARK   10  A    between atoms: C16_48  and  O6_49 
ROOT
HETATM    1  C3  UNL     1      31.317-185.020  22.327  1.00  0.00     0.112 A 
HETATM    2  C4  UNL     1      32.530-185.022  21.685  1.00  0.00     0.183 A 
HETATM    3  O4  UNL     1      33.521-184.203  22.028  1.00  0.00    -0.282 OA
HETATM    4  C6  UNL     1      33.402-183.343  22.999  1.00  0.00     0.178 A 
HETATM    5  C8  UNL     1      32.202-183.298  23.681  1.00  0.00     0.135 A 
HETATM    6  C16 UNL     1      31.143-184.120  23.373  1.00  0.00     0.128 A 
ENDROOT
BRANCH   5   7
HETATM    7  N5  UNL     1      32.069-182.367  24.730  1.00  0.00    -0.292 N 
ATOM      8  H5  UNL     1      32.891-181.833  25.011  1.00  0.00     0.187 HD
BRANCH   7   9
HETATM    9  N6  UNL     1      30.871-182.139  25.399  1.00  0.00    -0.269 N 
HETATM   10  C9  UNL     1      30.516-182.739  26.642  1.00  0.00     0.237 C 
HETATM   11  O5  UNL     1      31.318-183.524  27.180  1.00  0.00    -0.272 OA
ATOM     12  H6  UNL     1      30.202-181.498  24.971  1.00  0.00     0.190 HD
BRANCH  10  13
HETATM   13  C10 UNL     1      29.221-182.408  27.237  1.00  0.00     0.126 C 
BRANCH  13  14
HETATM   14  C11 UNL     1      28.493-183.540  27.896  1.00  0.00     0.161 C 
BRANCH  14  15
HETATM   15  N7  UNL     1      27.742-183.084  29.043  1.00  0.00    -0.258 N 
HETATM   16  N8  UNL     1      26.484-182.744  29.203  1.00  0.00    -0.237 N 
HETATM   17  N9  UNL     1      26.235-182.406  30.458  1.00  0.00    -0.267 N 
ATOM     18  H8  UNL     1      25.789-182.742  28.457  1.00  0.00     0.208 HD
HETATM   19  C12 UNL     1      27.374-182.524  31.168  1.00  0.00     0.183 A 
ATOM     20  H9  UNL     1      25.333-182.106  30.825  1.00  0.00     0.190 HD
HETATM   21  N10 UNL     1      27.938-182.390  32.393  1.00  0.00    -0.172 N 
HETATM   22  C15 UNL     1      28.326-182.952  30.273  1.00  0.00     0.187 A 
HETATM   23  C13 UNL     1      29.233-182.730  32.273  1.00  0.00     0.681 A 
ATOM     24  H10 UNL     1      27.468-182.088  33.247  1.00  0.00     0.186 HD
HETATM   25  N12 UNL     1      29.461-183.074  30.971  1.00  0.00    -0.167 N 
HETATM   26  C14 UNL     1      30.738-183.500  30.456  1.00  0.00     0.177 C 
BRANCH  23  27
HETATM   27  N11 UNL     1      30.126-182.741  33.209  1.00  0.00    -0.234 N 
ATOM     28 2H11 UNL     1      29.962-182.461  34.175  1.00  0.00     0.174 HD
ATOM     29 1H11 UNL     1      31.103-183.022  33.123  1.00  0.00     0.174 HD
ENDBRANCH  23  27
ENDBRANCH  14  15
ENDBRANCH  13  14
ENDBRANCH  10  13
ENDBRANCH   7   9
ENDBRANCH   5   7
BRANCH   4  30
HETATM   30  N2  UNL     1      34.372-182.531  23.344  1.00  0.00    -0.319 N 
HETATM   31  C7  UNL     1      35.327-182.191  22.307  1.00  0.00     0.482 C 
HETATM   32  N3  UNL     1      36.472-181.516  22.880  1.00  0.00    -0.033 N 
HETATM   33  N4  UNL     1      34.661-181.406  21.309  1.00  0.00    -0.033 N 
ATOM     34  H33 UNL     1      36.198-180.700  23.427  1.00  0.00     0.278 HD
ATOM     35  H32 UNL     1      36.900-182.062  23.628  1.00  0.00     0.278 HD
ATOM     36  H31 UNL     1      37.144-181.277  22.151  1.00  0.00     0.278 HD
ATOM     37  H43 UNL     1      33.831-181.869  20.939  1.00  0.00     0.278 HD
ATOM     38  H42 UNL     1      34.202-180.584  21.702  1.00  0.00     0.278 HD
ATOM     39  H41 UNL     1      35.333-181.167  20.580  1.00  0.00     0.278 HD
ATOM     40  H2  UNL     1      34.452-182.159  24.290  1.00  0.00     0.165 HD
ENDBRANCH   4  30
BRANCH   6  41
HETATM   41  O6  UNL     1      29.946-184.082  24.045  1.00  0.00    -0.356 OA
ATOM     42  H6  UNL     1      29.241-183.535  23.718  1.00  0.00     0.218 HD
ENDBRANCH   6  41
BRANCH   1  43
HETATM   43  N1  UNL     1      30.265-185.895  21.934  1.00  0.00    -0.323 N 
HETATM   44  C2  UNL     1      30.136-187.169  22.545  1.00  0.00     0.218 C 
HETATM   45  C1  UNL     1      29.049-188.098  22.152  1.00  0.00     0.117 C 
HETATM   46  O1  UNL     1      30.938-187.546  23.436  1.00  0.00    -0.274 OA
ATOM     47  H1  UNL     1      29.604-185.606  21.213  1.00  0.00     0.169 HD
ENDBRANCH   1  43
BRANCH   2  48
HETATM   48  C5  UNL     1      32.765-185.949  20.586  1.00  0.00     0.236 C 
HETATM   49  O2  UNL     1      33.908-186.503  20.479  1.00  0.00    -0.642 OA
HETATM   50  O3  UNL     1      31.846-186.282  19.641  1.00  0.00    -0.642 OA
ENDBRANCH   2  48
TORSDOF 10
ENDMDL
