MODEL 1
REMARK VINA RESULT: -5.822664595      0.000      0.000
REMARK  8 active torsions:
REMARK  status: ('A' for Active; 'I' for Inactive)
REMARK    1  A    between atoms: C2_2  and  C3_3 
REMARK    2  A    between atoms: C4_4  and  C5_5 
REMARK    3  A    between atoms: C8_9  and  O1_10 
REMARK    4  A    between atoms: C10_12  and  O2_13 
REMARK    5  A    between atoms: C14_20  and  S1_21 
REMARK    6  A    between atoms: S1_21  and  C15_22 
REMARK    7  A    between atoms: C19_28  and  N3_29 
REMARK    8  A    between atoms: N3_29  and  N4_31 
ROOT
HETATM    1  C3  UNL     1     -11.619  -3.501   1.426  1.00  0.00    -0.005 A 
HETATM    2  C4  UNL     1     -11.658  -3.383   0.076  1.00  0.00     0.095 A 
HETATM    3  O3  UNL     1     -12.817  -2.773  -0.222  1.00  0.00    -0.291 OA
HETATM    4  C13 UNL     1     -13.507  -2.497   0.813  1.00  0.00     0.165 A 
HETATM    5  N1  UNL     1     -14.715  -1.900   1.021  1.00  0.00    -0.316 N 
ATOM      6  H1  UNL     1     -15.241  -1.573   0.211  1.00  0.00     0.170 HD
HETATM    7  C14 UNL     1     -15.241  -1.724   2.235  1.00  0.00     0.148 A 
HETATM    8  N2  UNL     1     -14.534  -2.160   3.281  1.00  0.00    -0.321 N 
ATOM      9  H2  UNL     1     -14.925  -2.032   4.215  1.00  0.00     0.169 HD
HETATM   10  C19 UNL     1     -13.312  -2.771   3.166  1.00  0.00     0.136 A 
HETATM   11  C20 UNL     1     -12.809  -2.931   1.908  1.00  0.00     0.070 A 
ENDROOT
BRANCH   2  12
HETATM   12  C5  UNL     1     -10.766  -3.757  -1.006  1.00  0.00     0.003 A 
HETATM   13  C6  UNL     1      -9.439  -4.002  -0.879  1.00  0.00     0.041 A 
HETATM   14  C7  UNL     1      -8.638  -4.345  -1.995  1.00  0.00     0.071 A 
HETATM   15 CL1  UNL     1      -6.943  -4.647  -1.767  1.00  0.00    -0.081 Cl
HETATM   16  C8  UNL     1      -9.169  -4.445  -3.255  1.00  0.00     0.123 A 
HETATM   17  C10 UNL     1     -10.513  -4.200  -3.398  1.00  0.00     0.104 A 
HETATM   18  C12 UNL     1     -11.274  -3.869  -2.310  1.00  0.00     0.054 A 
BRANCH  16  19
HETATM   19  O1  UNL     1      -8.426  -4.777  -4.376  1.00  0.00    -0.351 OA
HETATM   20  C9  UNL     1      -7.744  -3.811  -5.157  1.00  0.00     0.210 C 
ENDBRANCH  16  19
BRANCH  17  21
HETATM   21  O2  UNL     1     -11.109  -4.285  -4.647  1.00  0.00    -0.353 OA
HETATM   22  C11 UNL     1     -11.475  -5.541  -5.186  1.00  0.00     0.210 C 
ENDBRANCH  17  21
ENDBRANCH   2  12
BRANCH   1  23
HETATM   23  C2  UNL     1     -10.594  -4.102   2.267  1.00  0.00     0.038 C 
HETATM   24  C1  UNL     1      -9.459  -3.208   2.665  1.00  0.00     0.010 C 
ENDBRANCH   1  23
BRANCH  10  25
HETATM   25  N3  UNL     1     -12.685  -3.176   4.182  1.00  0.00    -0.291 N 
ATOM     26  H3  UNL     1     -11.693  -2.942   4.216  1.00  0.00     0.188 HD
BRANCH  25  27
HETATM   27  N4  UNL     1     -13.170  -3.898   5.257  1.00  0.00    -0.344 N 
ATOM     28  H42 UNL     1     -13.378  -4.876   5.054  1.00  0.00     0.176 HD
ATOM     29  H41 UNL     1     -13.340  -3.576   6.210  1.00  0.00     0.176 HD
ENDBRANCH  25  27
ENDBRANCH  10  25
BRANCH   7  30
HETATM   30  S1  UNL     1     -16.847  -0.923   2.437  1.00  0.00    -0.085 SA
BRANCH  30  31
HETATM   31  C15 UNL     1     -18.121  -2.206   2.319  1.00  0.00     0.005 C 
HETATM   32  C16 UNL     1     -18.230  -2.696   0.894  1.00  0.00     0.026 C 
HETATM   33  C17 UNL     1     -17.806  -3.372   3.215  1.00  0.00     0.026 C 
HETATM   34  C18 UNL     1     -19.433  -1.536   2.711  1.00  0.00     0.026 C 
ENDBRANCH  30  31
ENDBRANCH   7  30
TORSDOF 8
ENDMDL
MODEL 2
REMARK VINA RESULT: -5.627914432      6.615      8.891
REMARK  8 active torsions:
REMARK  status: ('A' for Active; 'I' for Inactive)
REMARK    1  A    between atoms: C2_2  and  C3_3 
REMARK    2  A    between atoms: C4_4  and  C5_5 
REMARK    3  A    between atoms: C8_9  and  O1_10 
REMARK    4  A    between atoms: C10_12  and  O2_13 
REMARK    5  A    between atoms: C14_20  and  S1_21 
REMARK    6  A    between atoms: S1_21  and  C15_22 
REMARK    7  A    between atoms: C19_28  and  N3_29 
REMARK    8  A    between atoms: N3_29  and  N4_31 
ROOT
HETATM    1  C3  UNL     1      -5.670  -3.990   0.526  1.00  0.00    -0.005 A 
HETATM    2  C4  UNL     1      -5.969  -5.270   0.854  1.00  0.00     0.095 A 
HETATM    3  O3  UNL     1      -6.724  -5.757  -0.145  1.00  0.00    -0.291 OA
HETATM    4  C13 UNL     1      -6.925  -4.902  -1.069  1.00  0.00     0.165 A 
HETATM    5  N1  UNL     1      -7.606  -4.919  -2.250  1.00  0.00    -0.316 N 
ATOM      6  H1  UNL     1      -8.085  -5.777  -2.523  1.00  0.00     0.170 HD
HETATM    7  C14 UNL     1      -7.674  -3.866  -3.067  1.00  0.00     0.148 A 
HETATM    8  N2  UNL     1      -7.038  -2.753  -2.690  1.00  0.00    -0.321 N 
ATOM      9  H2  UNL     1      -7.082  -1.940  -3.305  1.00  0.00     0.169 HD
HETATM   10  C19 UNL     1      -6.330  -2.646  -1.521  1.00  0.00     0.136 A 
HETATM   11  C20 UNL     1      -6.284  -3.746  -0.715  1.00  0.00     0.070 A 
ENDROOT
BRANCH   2  12
HETATM   12  C5  UNL     1      -5.656  -6.134   1.978  1.00  0.00     0.003 A 
HETATM   13  C6  UNL     1      -4.422  -6.314   2.508  1.00  0.00     0.041 A 
HETATM   14  C7  UNL     1      -4.203  -7.192   3.597  1.00  0.00     0.071 A 
HETATM   15 CL1  UNL     1      -2.597  -7.379   4.232  1.00  0.00    -0.081 Cl
HETATM   16  C8  UNL     1      -5.230  -7.900   4.164  1.00  0.00     0.123 A 
HETATM   17  C10 UNL     1      -6.487  -7.727   3.636  1.00  0.00     0.104 A 
HETATM   18  C12 UNL     1      -6.683  -6.875   2.585  1.00  0.00     0.054 A 
BRANCH  16  19
HETATM   19  O1  UNL     1      -5.066  -8.771   5.230  1.00  0.00    -0.351 OA
HETATM   20  C9  UNL     1      -4.732 -10.137   5.058  1.00  0.00     0.210 C 
ENDBRANCH  16  19
BRANCH  17  21
HETATM   21  O2  UNL     1      -7.567  -8.416   4.168  1.00  0.00    -0.353 OA
HETATM   22  C11 UNL     1      -8.637  -8.829   3.339  1.00  0.00     0.210 C 
ENDBRANCH  17  21
ENDBRANCH   2  12
BRANCH   1  23
HETATM   23  C2  UNL     1      -4.895  -3.007   1.268  1.00  0.00     0.038 C 
HETATM   24  C1  UNL     1      -3.413  -3.031   1.048  1.00  0.00     0.010 C 
ENDBRANCH   1  23
BRANCH  10  25
HETATM   25  N3  UNL     1      -5.753  -1.570  -1.201  1.00  0.00    -0.291 N 
ATOM     26  H3  UNL     1      -4.931  -1.667  -0.605  1.00  0.00     0.188 HD
BRANCH  25  27
HETATM   27  N4  UNL     1      -6.093  -0.278  -1.554  1.00  0.00    -0.344 N 
ATOM     28  H42 UNL     1      -6.660   0.216  -0.866  1.00  0.00     0.176 HD
ATOM     29  H41 UNL     1      -5.849   0.230  -2.404  1.00  0.00     0.176 HD
ENDBRANCH  25  27
ENDBRANCH  10  25
BRANCH   7  30
HETATM   30  S1  UNL     1      -8.593  -3.959  -4.618  1.00  0.00    -0.085 SA
BRANCH  30  31
HETATM   31  C15 UNL     1     -10.042  -5.009  -4.337  1.00  0.00     0.005 C 
HETATM   32  C16 UNL     1     -11.180  -4.568  -5.229  1.00  0.00     0.026 C 
HETATM   33  C17 UNL     1      -9.732  -6.453  -4.618  1.00  0.00     0.026 C 
HETATM   34  C18 UNL     1     -10.446  -4.793  -2.883  1.00  0.00     0.026 C 
ENDBRANCH  30  31
ENDBRANCH   7  30
TORSDOF 8
ENDMDL
MODEL 3
REMARK VINA RESULT: -5.621557316      6.299      9.589
REMARK  8 active torsions:
REMARK  status: ('A' for Active; 'I' for Inactive)
REMARK    1  A    between atoms: C2_2  and  C3_3 
REMARK    2  A    between atoms: C4_4  and  C5_5 
REMARK    3  A    between atoms: C8_9  and  O1_10 
REMARK    4  A    between atoms: C10_12  and  O2_13 
REMARK    5  A    between atoms: C14_20  and  S1_21 
REMARK    6  A    between atoms: S1_21  and  C15_22 
REMARK    7  A    between atoms: C19_28  and  N3_29 
REMARK    8  A    between atoms: N3_29  and  N4_31 
ROOT
HETATM    1  C3  UNL     1      -6.053  -4.252  -0.092  1.00  0.00    -0.005 A 
HETATM    2  C4  UNL     1      -6.714  -3.697  -1.137  1.00  0.00     0.095 A 
HETATM    3  O3  UNL     1      -6.080  -2.549  -1.427  1.00  0.00    -0.291 OA
HETATM    4  C13 UNL     1      -5.084  -2.332  -0.662  1.00  0.00     0.165 A 
HETATM    5  N1  UNL     1      -4.159  -1.335  -0.562  1.00  0.00    -0.316 N 
ATOM      6  H1  UNL     1      -4.214  -0.554  -1.217  1.00  0.00     0.170 HD
HETATM    7  C14 UNL     1      -3.187  -1.333   0.351  1.00  0.00     0.148 A 
HETATM    8  N2  UNL     1      -3.134  -2.365   1.197  1.00  0.00    -0.321 N 
ATOM      9  H2  UNL     1      -2.396  -2.377   1.901  1.00  0.00     0.169 HD
HETATM   10  C19 UNL     1      -4.021  -3.411   1.170  1.00  0.00     0.136 A 
HETATM   11  C20 UNL     1      -5.000  -3.376   0.220  1.00  0.00     0.070 A 
ENDROOT
BRANCH   2  12
HETATM   12  C5  UNL     1      -7.870  -4.076  -1.930  1.00  0.00     0.003 A 
HETATM   13  C6  UNL     1      -7.877  -5.020  -2.904  1.00  0.00     0.041 A 
HETATM   14  C7  UNL     1      -9.049  -5.315  -3.641  1.00  0.00     0.071 A 
HETATM   15 CL1  UNL     1      -8.994  -6.534  -4.877  1.00  0.00    -0.081 Cl
HETATM   16  C8  UNL     1     -10.229  -4.660  -3.404  1.00  0.00     0.123 A 
HETATM   17  C10 UNL     1     -10.236  -3.702  -2.418  1.00  0.00     0.104 A 
HETATM   18  C12 UNL     1      -9.096  -3.428  -1.715  1.00  0.00     0.054 A 
BRANCH  16  19
HETATM   19  O1  UNL     1     -11.401  -4.914  -4.098  1.00  0.00    -0.351 OA
HETATM   20  C9  UNL     1     -11.558  -4.608  -5.473  1.00  0.00     0.210 C 
ENDBRANCH  16  19
BRANCH  17  21
HETATM   21  O2  UNL     1     -11.401  -3.006  -2.131  1.00  0.00    -0.353 OA
HETATM   22  C11 UNL     1     -11.937  -3.008  -0.823  1.00  0.00     0.210 C 
ENDBRANCH  17  21
ENDBRANCH   2  12
BRANCH   1  23
HETATM   23  C2  UNL     1      -6.336  -5.488   0.623  1.00  0.00     0.038 C 
HETATM   24  C1  UNL     1      -7.280  -5.380   1.781  1.00  0.00     0.010 C 
ENDBRANCH   1  23
BRANCH  10  25
HETATM   25  N3  UNL     1      -3.939  -4.361   1.996  1.00  0.00    -0.291 N 
ATOM     26  H3  UNL     1      -4.723  -4.458   2.641  1.00  0.00     0.188 HD
BRANCH  25  27
HETATM   27  N4  UNL     1      -2.923  -5.287   2.140  1.00  0.00    -0.344 N 
ATOM     28  H42 UNL     1      -2.879  -5.989   1.402  1.00  0.00     0.176 HD
ATOM     29  H41 UNL     1      -2.226  -5.350   2.882  1.00  0.00     0.176 HD
ENDBRANCH  25  27
ENDBRANCH  10  25
BRANCH   7  30
HETATM   30  S1  UNL     1      -1.995   0.021   0.426  1.00  0.00    -0.085 SA
BRANCH  30  31
HETATM   31  C15 UNL     1      -0.680  -0.336  -0.768  1.00  0.00     0.005 C 
HETATM   32  C16 UNL     1      -0.157  -1.738  -0.557  1.00  0.00     0.026 C 
HETATM   33  C17 UNL     1      -1.177  -0.206  -2.182  1.00  0.00     0.026 C 
HETATM   34  C18 UNL     1       0.440   0.656  -0.474  1.00  0.00     0.026 C 
ENDBRANCH  30  31
ENDBRANCH   7  30
TORSDOF 8
ENDMDL
MODEL 4
REMARK VINA RESULT: -5.510514510      5.026      7.267
REMARK  8 active torsions:
REMARK  status: ('A' for Active; 'I' for Inactive)
REMARK    1  A    between atoms: C2_2  and  C3_3 
REMARK    2  A    between atoms: C4_4  and  C5_5 
REMARK    3  A    between atoms: C8_9  and  O1_10 
REMARK    4  A    between atoms: C10_12  and  O2_13 
REMARK    5  A    between atoms: C14_20  and  S1_21 
REMARK    6  A    between atoms: S1_21  and  C15_22 
REMARK    7  A    between atoms: C19_28  and  N3_29 
REMARK    8  A    between atoms: N3_29  and  N4_31 
ROOT
HETATM    1  C3  UNL     1      -9.193  -4.407   2.291  1.00  0.00    -0.005 A 
HETATM    2  C4  UNL     1      -8.268  -4.190   1.324  1.00  0.00     0.095 A 
HETATM    3  O3  UNL     1      -7.317  -5.125   1.485  1.00  0.00    -0.291 OA
HETATM    4  C13 UNL     1      -7.560  -5.908   2.461  1.00  0.00     0.165 A 
HETATM    5  N1  UNL     1      -6.914  -6.978   3.006  1.00  0.00    -0.316 N 
ATOM      6  H1  UNL     1      -6.034  -7.279   2.589  1.00  0.00     0.170 HD
HETATM    7  C14 UNL     1      -7.382  -7.651   4.060  1.00  0.00     0.148 A 
HETATM    8  N2  UNL     1      -8.537  -7.240   4.590  1.00  0.00    -0.321 N 
ATOM      9  H2  UNL     1      -8.906  -7.745   5.396  1.00  0.00     0.169 HD
HETATM   10  C19 UNL     1      -9.253  -6.175   4.107  1.00  0.00     0.136 A 
HETATM   11  C20 UNL     1      -8.742  -5.515   3.029  1.00  0.00     0.070 A 
ENDROOT
BRANCH   2  12
HETATM   12  C5  UNL     1      -8.125  -3.227   0.247  1.00  0.00     0.003 A 
HETATM   13  C6  UNL     1      -7.368  -2.103   0.295  1.00  0.00     0.041 A 
HETATM   14  C7  UNL     1      -7.299  -1.208  -0.799  1.00  0.00     0.071 A 
HETATM   15 CL1  UNL     1      -6.310   0.215  -0.676  1.00  0.00    -0.081 Cl
HETATM   16  C8  UNL     1      -7.995  -1.437  -1.957  1.00  0.00     0.123 A 
HETATM   17  C10 UNL     1      -8.767  -2.573  -2.020  1.00  0.00     0.104 A 
HETATM   18  C12 UNL     1      -8.823  -3.428  -0.954  1.00  0.00     0.054 A 
BRANCH  16  19
HETATM   19  O1  UNL     1      -7.960  -0.591  -3.055  1.00  0.00    -0.351 OA
HETATM   20  C9  UNL     1      -8.723   0.601  -3.127  1.00  0.00     0.210 C 
ENDBRANCH  16  19
BRANCH  17  21
HETATM   21  O2  UNL     1      -9.494  -2.859  -3.165  1.00  0.00    -0.353 OA
HETATM   22  C11 UNL     1      -9.112  -3.925  -4.014  1.00  0.00     0.210 C 
ENDBRANCH  17  21
ENDBRANCH   2  12
BRANCH   1  23
HETATM   23  C2  UNL     1     -10.415  -3.669   2.576  1.00  0.00     0.038 C 
HETATM   24  C1  UNL     1     -11.518  -3.805   1.571  1.00  0.00     0.010 C 
ENDBRANCH   1  23
BRANCH  10  25
HETATM   25  N3  UNL     1     -10.336  -5.815   4.647  1.00  0.00    -0.291 N 
ATOM     26  H3  UNL     1     -10.732  -4.939   4.308  1.00  0.00     0.188 HD
BRANCH  25  27
HETATM   27  N4  UNL     1     -11.054  -6.457   5.639  1.00  0.00    -0.344 N 
ATOM     28  H42 UNL     1     -12.059  -6.505   5.473  1.00  0.00     0.176 HD
ATOM     29  H41 UNL     1     -10.705  -6.880   6.499  1.00  0.00     0.176 HD
ENDBRANCH  25  27
ENDBRANCH  10  25
BRANCH   7  30
HETATM   30  S1  UNL     1      -6.475  -9.061   4.730  1.00  0.00    -0.085 SA
BRANCH  30  31
HETATM   31  C15 UNL     1      -7.490 -10.540   4.476  1.00  0.00     0.005 C 
HETATM   32  C16 UNL     1      -8.472 -10.305   3.351  1.00  0.00     0.026 C 
HETATM   33  C17 UNL     1      -6.640 -11.735   4.142  1.00  0.00     0.026 C 
HETATM   34  C18 UNL     1      -8.267 -10.748   5.771  1.00  0.00     0.026 C 
ENDBRANCH  30  31
ENDBRANCH   7  30
TORSDOF 8
ENDMDL
MODEL 5
REMARK VINA RESULT: -5.488656485      5.420      7.930
REMARK  8 active torsions:
REMARK  status: ('A' for Active; 'I' for Inactive)
REMARK    1  A    between atoms: C2_2  and  C3_3 
REMARK    2  A    between atoms: C4_4  and  C5_5 
REMARK    3  A    between atoms: C8_9  and  O1_10 
REMARK    4  A    between atoms: C10_12  and  O2_13 
REMARK    5  A    between atoms: C14_20  and  S1_21 
REMARK    6  A    between atoms: S1_21  and  C15_22 
REMARK    7  A    between atoms: C19_28  and  N3_29 
REMARK    8  A    between atoms: N3_29  and  N4_31 
ROOT
HETATM    1  C3  UNL     1      -7.351  -4.734   1.096  1.00  0.00    -0.005 A 
HETATM    2  C4  UNL     1      -8.603  -4.247   1.272  1.00  0.00     0.095 A 
HETATM    3  O3  UNL     1      -9.105  -4.860   2.357  1.00  0.00    -0.291 OA
HETATM    4  C13 UNL     1      -8.285  -5.685   2.877  1.00  0.00     0.165 A 
HETATM    5  N1  UNL     1      -8.330  -6.521   3.954  1.00  0.00    -0.316 N 
ATOM      6  H1  UNL     1      -9.179  -6.542   4.518  1.00  0.00     0.170 HD
HETATM    7  C14 UNL     1      -7.314  -7.312   4.304  1.00  0.00     0.148 A 
HETATM    8  N2  UNL     1      -6.211  -7.267   3.551  1.00  0.00    -0.321 N 
ATOM      9  H2  UNL     1      -5.426  -7.867   3.807  1.00  0.00     0.169 HD
HETATM   10  C19 UNL     1      -6.078  -6.457   2.453  1.00  0.00     0.136 A 
HETATM   11  C20 UNL     1      -7.139  -5.663   2.130  1.00  0.00     0.070 A 
ENDROOT
BRANCH   2  12
HETATM   12  C5  UNL     1      -9.427  -3.277   0.574  1.00  0.00     0.003 A 
HETATM   13  C6  UNL     1      -9.681  -2.015   0.998  1.00  0.00     0.041 A 
HETATM   14  C7  UNL     1     -10.512  -1.137   0.260  1.00  0.00     0.071 A 
HETATM   15 CL1  UNL     1     -10.799   0.468   0.857  1.00  0.00    -0.081 Cl
HETATM   16  C8  UNL     1     -11.099  -1.526  -0.916  1.00  0.00     0.123 A 
HETATM   17  C10 UNL     1     -10.849  -2.803  -1.358  1.00  0.00     0.104 A 
HETATM   18  C12 UNL     1     -10.044  -3.638  -0.635  1.00  0.00     0.054 A 
BRANCH  16  19
HETATM   19  O1  UNL     1     -11.919  -0.704  -1.673  1.00  0.00    -0.351 OA
HETATM   20  C9  UNL     1     -13.292  -0.514  -1.379  1.00  0.00     0.210 C 
ENDBRANCH  16  19
BRANCH  17  21
HETATM   21  O2  UNL     1     -11.414  -3.254  -2.542  1.00  0.00    -0.353 OA
HETATM   22  C11 UNL     1     -10.776  -4.258  -3.308  1.00  0.00     0.210 C 
ENDBRANCH  17  21
ENDBRANCH   2  12
BRANCH   1  23
HETATM   23  C2  UNL     1      -6.379  -4.420   0.059  1.00  0.00     0.038 C 
HETATM   24  C1  UNL     1      -6.799  -4.713  -1.349  1.00  0.00     0.010 C 
ENDBRANCH   1  23
BRANCH  10  25
HETATM   25  N3  UNL     1      -5.021  -6.456   1.765  1.00  0.00    -0.291 N 
ATOM     26  H3  UNL     1      -5.094  -6.868   0.835  1.00  0.00     0.188 HD
BRANCH  25  27
HETATM   27  N4  UNL     1      -3.774  -5.967   2.110  1.00  0.00    -0.344 N 
ATOM     28  H42 UNL     1      -2.996  -6.388   1.602  1.00  0.00     0.176 HD
ATOM     29  H41 UNL     1      -3.545  -5.251   2.799  1.00  0.00     0.176 HD
ENDBRANCH  25  27
ENDBRANCH  10  25
BRANCH   7  30
HETATM   30  S1  UNL     1      -7.441  -8.395   5.743  1.00  0.00    -0.085 SA
BRANCH  30  31
HETATM   31  C15 UNL     1      -7.510 -10.103   5.143  1.00  0.00     0.005 C 
HETATM   32  C16 UNL     1      -8.339 -10.174   3.882  1.00  0.00     0.026 C 
HETATM   33  C17 UNL     1      -6.134 -10.637   4.856  1.00  0.00     0.026 C 
HETATM   34  C18 UNL     1      -8.207 -10.907   6.236  1.00  0.00     0.026 C 
ENDBRANCH  30  31
ENDBRANCH   7  30
TORSDOF 8
ENDMDL
