MODEL 1
REMARK VINA RESULT: -7.232618198      0.000      0.000
REMARK  7 active torsions:
REMARK  status: ('A' for Active; 'I' for Inactive)
REMARK    1  A    between atoms: N1_1  and  C1_5 
REMARK    2  A    between atoms: C1_5  and  C2_6 
REMARK    3  A    between atoms: C3_9  and  C4_10 
REMARK    4  A    between atoms: C4_10  and  S1_11 
REMARK    5  A    between atoms: S1_11  and  C5_14 
REMARK    6  A    between atoms: C9_20  and  N3_21 
REMARK    7  A    between atoms: N3_21  and  C10_23 
ROOT
HETATM    1  C2  UNL     1     -11.255  -2.895  -0.464  1.00  0.00     0.089 A 
HETATM    2  N2  UNL     1     -11.249  -3.974  -1.223  1.00  0.00    -0.352 N 
ATOM      3  H2  UNL     1     -11.988  -4.670  -1.121  1.00  0.00     0.166 HD
HETATM    4  C3  UNL     1     -10.315  -4.155  -2.095  1.00  0.00     0.058 A 
HETATM    5  C9  UNL     1      -9.340  -3.186  -2.190  1.00  0.00     0.096 A 
HETATM    6  S3  UNL     1      -9.841  -2.065  -1.011  1.00  0.00    -0.055 SA
ENDROOT
BRANCH   4   7
HETATM    7  C4  UNL     1     -10.283  -5.353  -3.029  1.00  0.00     0.206 C 
BRANCH   7   8
HETATM    8  S1  UNL     1     -10.785  -4.889  -4.665  1.00  0.00     0.187 S 
HETATM    9  O1  UNL     1      -9.679  -4.296  -5.446  1.00  0.00    -0.222 OA
HETATM   10  O2  UNL     1     -11.960  -3.954  -4.561  1.00  0.00    -0.222 OA
BRANCH   8  11
HETATM   11  C5  UNL     1     -11.333  -6.370  -5.483  1.00  0.00     0.101 A 
HETATM   12  C6  UNL     1     -10.768  -7.618  -5.463  1.00  0.00     0.033 A 
HETATM   13  C7  UNL     1     -11.372  -8.574  -6.174  1.00  0.00     0.033 A 
HETATM   14  C8  UNL     1     -12.505  -8.227  -6.864  1.00  0.00     0.075 A 
HETATM   15 CL1  UNL     1     -13.499  -9.278  -7.889  1.00  0.00    -0.076 Cl
HETATM   16  S2  UNL     1     -12.687  -6.574  -6.494  1.00  0.00    -0.066 SA
ENDBRANCH   8  11
ENDBRANCH   7   8
ENDBRANCH   4   7
BRANCH   5  17
HETATM   17  N3  UNL     1      -8.170  -3.180  -3.036  1.00  0.00    -0.378 N 
ATOM     18  H3  UNL     1      -8.245  -2.920  -4.019  1.00  0.00     0.160 HD
BRANCH  17  19
HETATM   19  C10 UNL     1      -6.874  -3.552  -2.466  1.00  0.00     0.082 C 
HETATM   20  C11 UNL     1      -7.049  -4.791  -1.684  1.00  0.00     0.025 C 
HETATM   21  C12 UNL     1      -6.842  -4.622  -0.195  1.00  0.00     0.002 C 
HETATM   22  C13 UNL     1      -5.621  -3.733   0.071  1.00  0.00     0.000 C 
HETATM   23  C14 UNL     1      -6.086  -2.351  -0.373  1.00  0.00     0.002 C 
HETATM   24  C15 UNL     1      -6.263  -2.372  -1.849  1.00  0.00     0.025 C 
ENDBRANCH  17  19
ENDBRANCH   5  17
BRANCH   1  25
HETATM   25  C1  UNL     1     -12.190  -2.441   0.631  1.00  0.00     0.172 C 
HETATM   26  C16 UNL     1     -13.237  -3.446   1.006  1.00  0.00     0.046 C 
HETATM   27  C17 UNL     1     -14.236  -2.304   1.020  1.00  0.00     0.006 C 
HETATM   28  C18 UNL     1     -13.266  -1.551   0.105  1.00  0.00     0.046 C 
BRANCH  25  29
HETATM   29  N1  UNL     1     -11.428  -1.912   1.738  1.00  0.00    -0.064 N 
ATOM     30  H13 UNL     1     -10.723  -2.570   2.068  1.00  0.00     0.275 HD
ATOM     31  H12 UNL     1     -10.803  -1.159   1.448  1.00  0.00     0.275 HD
ATOM     32  H11 UNL     1     -12.060  -1.620   2.484  1.00  0.00     0.275 HD
ENDBRANCH  25  29
ENDBRANCH   1  25
TORSDOF 7
ENDMDL
MODEL 2
REMARK VINA RESULT: -7.152811391      1.963      2.606
REMARK  7 active torsions:
REMARK  status: ('A' for Active; 'I' for Inactive)
REMARK    1  A    between atoms: N1_1  and  C1_5 
REMARK    2  A    between atoms: C1_5  and  C2_6 
REMARK    3  A    between atoms: C3_9  and  C4_10 
REMARK    4  A    between atoms: C4_10  and  S1_11 
REMARK    5  A    between atoms: S1_11  and  C5_14 
REMARK    6  A    between atoms: C9_20  and  N3_21 
REMARK    7  A    between atoms: N3_21  and  C10_23 
ROOT
HETATM    1  C2  UNL     1      -9.880  -3.680   0.148  1.00  0.00     0.089 A 
HETATM    2  N2  UNL     1      -9.575  -4.217  -1.018  1.00  0.00    -0.352 N 
ATOM      3  H2  UNL     1     -10.315  -4.588  -1.614  1.00  0.00     0.166 HD
HETATM    4  C3  UNL     1      -8.347  -4.275  -1.410  1.00  0.00     0.058 A 
HETATM    5  C9  UNL     1      -7.386  -3.761  -0.566  1.00  0.00     0.096 A 
HETATM    6  S3  UNL     1      -8.325  -3.218   0.746  1.00  0.00    -0.055 SA
ENDROOT
BRANCH   4   7
HETATM    7  C4  UNL     1      -7.940  -4.838  -2.761  1.00  0.00     0.206 C 
BRANCH   7   8
HETATM    8  S1  UNL     1      -8.837  -4.046  -4.069  1.00  0.00     0.187 S 
HETATM    9  O1  UNL     1      -7.955  -3.615  -5.175  1.00  0.00    -0.222 OA
HETATM   10  O2  UNL     1      -9.612  -2.892  -3.491  1.00  0.00    -0.222 OA
BRANCH   8  11
HETATM   11  C5  UNL     1     -10.004  -5.232  -4.697  1.00  0.00     0.101 A 
HETATM   12  C6  UNL     1      -9.894  -6.597  -4.747  1.00  0.00     0.033 A 
HETATM   13  C7  UNL     1     -10.915  -7.273  -5.279  1.00  0.00     0.033 A 
HETATM   14  C8  UNL     1     -11.988  -6.547  -5.729  1.00  0.00     0.075 A 
HETATM   15 CL1  UNL     1     -13.465  -7.173  -6.482  1.00  0.00    -0.076 Cl
HETATM   16  S2  UNL     1     -11.530  -4.941  -5.393  1.00  0.00    -0.066 SA
ENDBRANCH   8  11
ENDBRANCH   7   8
ENDBRANCH   4   7
BRANCH   5  17
HETATM   17  N3  UNL     1      -5.953  -3.758  -0.744  1.00  0.00    -0.378 N 
ATOM     18  H3  UNL     1      -5.517  -4.378  -1.425  1.00  0.00     0.160 HD
BRANCH  17  19
HETATM   19  C10 UNL     1      -5.135  -2.852   0.064  1.00  0.00     0.082 C 
HETATM   20  C11 UNL     1      -4.478  -1.889  -0.840  1.00  0.00     0.025 C 
HETATM   21  C12 UNL     1      -2.973  -2.025  -0.906  1.00  0.00     0.002 C 
HETATM   22  C13 UNL     1      -2.399  -2.247   0.500  1.00  0.00     0.000 C 
HETATM   23  C14 UNL     1      -2.860  -3.657   0.850  1.00  0.00     0.002 C 
HETATM   24  C15 UNL     1      -4.338  -3.638   1.009  1.00  0.00     0.025 C 
ENDBRANCH  17  19
ENDBRANCH   5  17
BRANCH   1  25
HETATM   25  C1  UNL     1     -11.200  -3.500   0.857  1.00  0.00     0.172 C 
HETATM   26  C16 UNL     1     -12.402  -3.770   0.004  1.00  0.00     0.046 C 
HETATM   27  C17 UNL     1     -13.024  -2.519   0.600  1.00  0.00     0.006 C 
HETATM   28  C18 UNL     1     -11.599  -2.064   0.927  1.00  0.00     0.046 C 
BRANCH  25  29
HETATM   29  N1  UNL     1     -11.178  -4.202   2.120  1.00  0.00    -0.064 N 
ATOM     30  H13 UNL     1     -12.052  -4.095   2.634  1.00  0.00     0.275 HD
ATOM     31  H12 UNL     1     -11.202  -5.214   1.995  1.00  0.00     0.275 HD
ATOM     32  H11 UNL     1     -10.371  -3.902   2.668  1.00  0.00     0.275 HD
ENDBRANCH  25  29
ENDBRANCH   1  25
TORSDOF 7
ENDMDL
MODEL 3
REMARK VINA RESULT: -6.963607558      1.974      2.524
REMARK  7 active torsions:
REMARK  status: ('A' for Active; 'I' for Inactive)
REMARK    1  A    between atoms: N1_1  and  C1_5 
REMARK    2  A    between atoms: C1_5  and  C2_6 
REMARK    3  A    between atoms: C3_9  and  C4_10 
REMARK    4  A    between atoms: C4_10  and  S1_11 
REMARK    5  A    between atoms: S1_11  and  C5_14 
REMARK    6  A    between atoms: C9_20  and  N3_21 
REMARK    7  A    between atoms: N3_21  and  C10_23 
ROOT
HETATM    1  C2  UNL     1     -10.171  -3.522   0.303  1.00  0.00     0.089 A 
HETATM    2  N2  UNL     1      -9.769  -4.065  -0.830  1.00  0.00    -0.352 N 
ATOM      3  H2  UNL     1     -10.455  -4.447  -1.481  1.00  0.00     0.166 HD
HETATM    4  C3  UNL     1      -8.512  -4.118  -1.120  1.00  0.00     0.058 A 
HETATM    5  C9  UNL     1      -7.627  -3.590  -0.204  1.00  0.00     0.096 A 
HETATM    6  S3  UNL     1      -8.674  -3.043   1.022  1.00  0.00    -0.055 SA
ENDROOT
BRANCH   4   7
HETATM    7  C4  UNL     1      -7.993  -4.688  -2.429  1.00  0.00     0.206 C 
BRANCH   7   8
HETATM    8  S1  UNL     1      -8.789  -3.916  -3.812  1.00  0.00     0.187 S 
HETATM    9  O1  UNL     1      -7.826  -3.492  -4.850  1.00  0.00    -0.222 OA
HETATM   10  O2  UNL     1      -9.615  -2.762  -3.309  1.00  0.00    -0.222 OA
BRANCH   8  11
HETATM   11  C5  UNL     1      -9.896  -5.117  -4.516  1.00  0.00     0.101 A 
HETATM   12  C6  UNL     1      -9.717  -6.469  -4.652  1.00  0.00     0.033 A 
HETATM   13  C7  UNL     1     -10.704  -7.161  -5.227  1.00  0.00     0.033 A 
HETATM   14  C8  UNL     1     -11.812  -6.462  -5.634  1.00  0.00     0.075 A 
HETATM   15 CL1  UNL     1     -13.257  -7.112  -6.428  1.00  0.00    -0.076 Cl
HETATM   16  S2  UNL     1     -11.435  -4.859  -5.196  1.00  0.00    -0.066 SA
ENDBRANCH   8  11
ENDBRANCH   7   8
ENDBRANCH   4   7
BRANCH   5  17
HETATM   17  N3  UNL     1      -6.185  -3.577  -0.266  1.00  0.00    -0.378 N 
ATOM     18  H3  UNL     1      -5.702  -2.982  -0.939  1.00  0.00     0.160 HD
BRANCH  17  19
HETATM   19  C10 UNL     1      -5.423  -4.428   0.650  1.00  0.00     0.082 C 
HETATM   20  C11 UNL     1      -6.100  -5.735   0.741  1.00  0.00     0.025 C 
HETATM   21  C12 UNL     1      -6.688  -6.038   2.101  1.00  0.00     0.002 C 
HETATM   22  C13 UNL     1      -5.709  -5.622   3.206  1.00  0.00     0.000 C 
HETATM   23  C14 UNL     1      -5.737  -4.099   3.147  1.00  0.00     0.002 C 
HETATM   24  C15 UNL     1      -5.116  -3.672   1.866  1.00  0.00     0.025 C 
ENDBRANCH  17  19
ENDBRANCH   5  17
BRANCH   1  25
HETATM   25  C1  UNL     1     -11.546  -3.346   0.901  1.00  0.00     0.172 C 
HETATM   26  C16 UNL     1     -12.672  -3.659  -0.037  1.00  0.00     0.046 C 
HETATM   27  C17 UNL     1     -13.358  -2.404   0.473  1.00  0.00     0.006 C 
HETATM   28  C18 UNL     1     -11.971  -1.916   0.899  1.00  0.00     0.046 C 
BRANCH  25  29
HETATM   29  N1  UNL     1     -11.613  -4.014   2.180  1.00  0.00    -0.064 N 
ATOM     30  H13 UNL     1     -11.259  -4.969   2.133  1.00  0.00     0.275 HD
ATOM     31  H12 UNL     1     -10.936  -3.638   2.844  1.00  0.00     0.275 HD
ATOM     32  H11 UNL     1     -12.567  -3.976   2.540  1.00  0.00     0.275 HD
ENDBRANCH  25  29
ENDBRANCH   1  25
TORSDOF 7
ENDMDL
MODEL 4
REMARK VINA RESULT: -6.839094982      2.055      5.382
REMARK  7 active torsions:
REMARK  status: ('A' for Active; 'I' for Inactive)
REMARK    1  A    between atoms: N1_1  and  C1_5 
REMARK    2  A    between atoms: C1_5  and  C2_6 
REMARK    3  A    between atoms: C3_9  and  C4_10 
REMARK    4  A    between atoms: C4_10  and  S1_11 
REMARK    5  A    between atoms: S1_11  and  C5_14 
REMARK    6  A    between atoms: C9_20  and  N3_21 
REMARK    7  A    between atoms: N3_21  and  C10_23 
ROOT
HETATM    1  C2  UNL     1      -5.869  -2.353  -0.773  1.00  0.00     0.089 A 
HETATM    2  N2  UNL     1      -6.235  -3.193  -1.721  1.00  0.00    -0.352 N 
ATOM      3  H2  UNL     1      -5.603  -3.386  -2.498  1.00  0.00     0.166 HD
HETATM    4  C3  UNL     1      -7.387  -3.774  -1.673  1.00  0.00     0.058 A 
HETATM    5  C9  UNL     1      -8.202  -3.475  -0.602  1.00  0.00     0.096 A 
HETATM    6  S3  UNL     1      -7.245  -2.374   0.274  1.00  0.00    -0.055 SA
ENDROOT
BRANCH   4   7
HETATM    7  C4  UNL     1      -7.842  -4.786  -2.709  1.00  0.00     0.206 C 
BRANCH   7   8
HETATM    8  S1  UNL     1      -8.746  -3.992  -4.011  1.00  0.00     0.187 S 
HETATM    9  O1  UNL     1      -7.870  -3.550  -5.116  1.00  0.00    -0.222 OA
HETATM   10  O2  UNL     1      -9.527  -2.846  -3.425  1.00  0.00    -0.222 OA
BRANCH   8  11
HETATM   11  C5  UNL     1      -9.908  -5.181  -4.642  1.00  0.00     0.101 A 
HETATM   12  C6  UNL     1      -9.775  -6.542  -4.736  1.00  0.00     0.033 A 
HETATM   13  C7  UNL     1     -10.798  -7.222  -5.260  1.00  0.00     0.033 A 
HETATM   14  C8  UNL     1     -11.895  -6.503  -5.660  1.00  0.00     0.075 A 
HETATM   15 CL1  UNL     1     -13.381  -7.135  -6.392  1.00  0.00    -0.076 Cl
HETATM   16  S2  UNL     1     -11.457  -4.899  -5.289  1.00  0.00    -0.066 SA
ENDBRANCH   8  11
ENDBRANCH   7   8
ENDBRANCH   4   7
BRANCH   5  17
HETATM   17  N3  UNL     1      -9.545  -3.942  -0.349  1.00  0.00    -0.378 N 
ATOM     18  H3  UNL     1      -9.846  -4.856  -0.685  1.00  0.00     0.160 HD
BRANCH  17  19
HETATM   19  C10 UNL     1     -10.470  -3.086   0.395  1.00  0.00     0.082 C 
HETATM   20  C11 UNL     1     -11.492  -3.944   1.026  1.00  0.00     0.025 C 
HETATM   21  C12 UNL     1     -12.890  -3.749   0.482  1.00  0.00     0.002 C 
HETATM   22  C13 UNL     1     -13.180  -2.255   0.290  1.00  0.00     0.000 C 
HETATM   23  C14 UNL     1     -12.293  -1.873  -0.889  1.00  0.00     0.002 C 
HETATM   24  C15 UNL     1     -10.875  -1.962  -0.452  1.00  0.00     0.025 C 
ENDBRANCH  17  19
ENDBRANCH   5  17
BRANCH   1  25
HETATM   25  C1  UNL     1      -4.617  -1.531  -0.586  1.00  0.00     0.172 C 
HETATM   26  C16 UNL     1      -3.360  -2.207  -1.042  1.00  0.00     0.046 C 
HETATM   27  C17 UNL     1      -2.706  -1.707   0.233  1.00  0.00     0.006 C 
HETATM   28  C18 UNL     1      -4.117  -1.597   0.818  1.00  0.00     0.046 C 
BRANCH  25  29
HETATM   29  N1  UNL     1      -4.820  -0.201  -1.113  1.00  0.00    -0.064 N 
ATOM     30  H13 UNL     1      -4.509  -0.120  -2.080  1.00  0.00     0.275 HD
ATOM     31  H12 UNL     1      -5.809   0.006  -1.258  1.00  0.00     0.275 HD
ATOM     32  H11 UNL     1      -4.370   0.484  -0.506  1.00  0.00     0.275 HD
ENDBRANCH  25  29
ENDBRANCH   1  25
TORSDOF 7
ENDMDL
MODEL 5
REMARK VINA RESULT: -6.827078129      2.827      4.475
REMARK  7 active torsions:
REMARK  status: ('A' for Active; 'I' for Inactive)
REMARK    1  A    between atoms: N1_1  and  C1_5 
REMARK    2  A    between atoms: C1_5  and  C2_6 
REMARK    3  A    between atoms: C3_9  and  C4_10 
REMARK    4  A    between atoms: C4_10  and  S1_11 
REMARK    5  A    between atoms: S1_11  and  C5_14 
REMARK    6  A    between atoms: C9_20  and  N3_21 
REMARK    7  A    between atoms: N3_21  and  C10_23 
ROOT
HETATM    1  C2  UNL     1      -7.700  -0.334  -2.403  1.00  0.00     0.089 A 
HETATM    2  N2  UNL     1      -8.561  -1.190  -2.918  1.00  0.00    -0.352 N 
ATOM      3  H2  UNL     1      -9.039  -0.964  -3.791  1.00  0.00     0.166 HD
HETATM    4  C3  UNL     1      -8.803  -2.311  -2.327  1.00  0.00     0.058 A 
HETATM    5  C9  UNL     1      -8.132  -2.564  -1.150  1.00  0.00     0.096 A 
HETATM    6  S3  UNL     1      -7.185  -1.161  -0.975  1.00  0.00    -0.055 SA
ENDROOT
BRANCH   4   7
HETATM    7  C4  UNL     1      -9.747  -3.355  -2.897  1.00  0.00     0.206 C 
BRANCH   7   8
HETATM    8  S1  UNL     1      -8.865  -4.519  -3.902  1.00  0.00     0.187 S 
HETATM    9  O1  UNL     1      -7.934  -5.352  -3.112  1.00  0.00    -0.222 OA
HETATM   10  O2  UNL     1      -8.154  -3.769  -4.996  1.00  0.00    -0.222 OA
BRANCH   8  11
HETATM   11  C5  UNL     1     -10.076  -5.578  -4.661  1.00  0.00     0.101 A 
HETATM   12  C6  UNL     1     -10.043  -6.939  -4.821  1.00  0.00     0.033 A 
HETATM   13  C7  UNL     1     -11.082  -7.507  -5.437  1.00  0.00     0.033 A 
HETATM   14  C8  UNL     1     -12.095  -6.684  -5.859  1.00  0.00     0.075 A 
HETATM   15 CL1  UNL     1     -13.578  -7.157  -6.706  1.00  0.00    -0.076 Cl
HETATM   16  S2  UNL     1     -11.557  -5.141  -5.377  1.00  0.00    -0.066 SA
ENDBRANCH   8  11
ENDBRANCH   7   8
ENDBRANCH   4   7
BRANCH   5  17
HETATM   17  N3  UNL     1      -8.267  -3.706  -0.276  1.00  0.00    -0.378 N 
ATOM     18  H3  UNL     1      -9.057  -4.343  -0.377  1.00  0.00     0.160 HD
BRANCH  17  19
HETATM   19  C10 UNL     1      -7.256  -3.939   0.756  1.00  0.00     0.082 C 
HETATM   20  C11 UNL     1      -6.255  -4.882   0.221  1.00  0.00     0.025 C 
HETATM   21  C12 UNL     1      -6.231  -6.225   0.917  1.00  0.00     0.002 C 
HETATM   22  C13 UNL     1      -6.349  -6.037   2.435  1.00  0.00     0.000 C 
HETATM   23  C14 UNL     1      -7.789  -5.575   2.623  1.00  0.00     0.002 C 
HETATM   24  C15 UNL     1      -7.923  -4.218   2.030  1.00  0.00     0.025 C 
ENDBRANCH  17  19
ENDBRANCH   5  17
BRANCH   1  25
HETATM   25  C1  UNL     1      -7.247   1.033  -2.856  1.00  0.00     0.172 C 
HETATM   26  C16 UNL     1      -5.788   1.302  -2.645  1.00  0.00     0.046 C 
HETATM   27  C17 UNL     1      -6.183   2.676  -2.135  1.00  0.00     0.006 C 
HETATM   28  C18 UNL     1      -7.565   2.084  -1.846  1.00  0.00     0.046 C 
BRANCH  25  29
HETATM   29  N1  UNL     1      -7.727   1.290  -4.195  1.00  0.00    -0.064 N 
ATOM     30  H13 UNL     1      -8.318   0.535  -4.541  1.00  0.00     0.275 HD
ATOM     31  H12 UNL     1      -8.418   2.040  -4.217  1.00  0.00     0.275 HD
ATOM     32  H11 UNL     1      -6.939   1.475  -4.815  1.00  0.00     0.275 HD
ENDBRANCH  25  29
ENDBRANCH   1  25
TORSDOF 7
ENDMDL
