MODEL 1
REMARK VINA RESULT: -5.824971795      0.000      0.000
REMARK  5 active torsions:
REMARK  status: ('A' for Active; 'I' for Inactive)
REMARK    1  A    between atoms: C12_16  and  O4_17 
REMARK    2  A    between atoms: C12_16  and  C13_19 
REMARK    3  A    between atoms: C13_19  and  N1_20 
REMARK    4  A    between atoms: N1_20  and  C14_22 
REMARK    5  A    between atoms: C14_22  and  C15_23 
ROOT
HETATM    1  C1  UNL     1      -6.011  -6.590   1.450  1.00  0.00     0.043 C 
HETATM    2  C2  UNL     1      -6.087  -5.149   1.084  1.00  0.00    -0.087 C 
HETATM    3  C3  UNL     1      -5.140  -4.299   1.462  1.00  0.00    -0.024 C 
HETATM    4  C4  UNL     1      -5.138  -2.850   1.144  1.00  0.00     0.030 C 
HETATM    5  C5  UNL     1      -3.783  -2.285   0.879  1.00  0.00     0.044 C 
HETATM    6  C6  UNL     1      -3.627  -1.658  -0.462  1.00  0.00     0.084 A 
HETATM    7  C7  UNL     1      -2.330  -1.924  -1.217  1.00  0.00     0.049 C 
HETATM    8  O1  UNL     1      -4.806  -1.721  -1.232  1.00  0.00    -0.370 OA
HETATM    9  C8  UNL     1      -4.374  -0.497  -0.800  1.00  0.00     0.158 A 
HETATM   10  C9  UNL     1      -5.042   0.290   0.268  1.00  0.00     0.054 C 
HETATM   11  C10 UNL     1      -6.406   0.778  -0.093  1.00  0.00     0.106 C 
HETATM   12  C11 UNL     1      -7.349   0.685   1.107  1.00  0.00     0.026 C 
HETATM   13  S1  UNL     1      -7.176  -0.118  -1.444  1.00  0.00     0.161 S 
HETATM   14  O2  UNL     1      -7.934   0.840  -2.351  1.00  0.00    -0.228 OA
HETATM   15  O3  UNL     1      -8.149  -1.369  -0.870  1.00  0.00    -0.228 OA
HETATM   16  C12 UNL     1      -8.834  -2.064  -1.859  1.00  0.00     0.314 C 
HETATM   17  O5  UNL     1      -9.521  -3.138  -1.399  1.00  0.00    -0.294 OA
HETATM   18  C16 UNL     1     -10.171  -3.652  -0.365  1.00  0.00     0.045 C 
HETATM   19  C17 UNL     1     -11.682  -3.902  -0.361  1.00  0.00     0.076 C 
HETATM   20  C18 UNL     1      -9.598  -4.020   0.796  1.00  0.00     0.005 C 
HETATM   21  C19 UNL     1      -8.193  -3.945   1.176  1.00  0.00     0.034 C 
HETATM   22  C20 UNL     1      -7.266  -4.710   0.277  1.00  0.00     0.037 C 
ENDROOT
BRANCH  16  23
HETATM   23  O4  UNL     1      -9.772  -1.123  -2.366  1.00  0.00    -0.341 OA
ATOM     24  H4  UNL     1      -9.239  -0.476  -2.814  1.00  0.00     0.215 HD
ENDBRANCH  16  23
BRANCH  16  25
HETATM   25  C13 UNL     1      -7.906  -2.328  -3.018  1.00  0.00     0.217 C 
BRANCH  25  26
HETATM   26  N1  UNL     1      -7.780  -3.668  -3.448  1.00  0.00    -0.413 N 
ATOM     27  H1  UNL     1      -7.190  -4.321  -2.933  1.00  0.00     0.153 HD
BRANCH  26  28
HETATM   28  C14 UNL     1      -8.480  -4.095  -4.597  1.00  0.00     0.129 C 
BRANCH  28  29
HETATM   29  C15 UNL     1      -8.905  -5.574  -4.481  1.00  0.00     0.134 C 
HETATM   30 CL1  UNL     1     -10.388  -5.579  -3.474  1.00  0.00    -0.129 Cl
ENDBRANCH  28  29
ENDBRANCH  26  28
ENDBRANCH  25  26
ENDBRANCH  16  25
TORSDOF 5
ENDMDL
MODEL 2
REMARK VINA RESULT: -5.789591723      2.880      4.619
REMARK  5 active torsions:
REMARK  status: ('A' for Active; 'I' for Inactive)
REMARK    1  A    between atoms: C12_16  and  O4_17 
REMARK    2  A    between atoms: C12_16  and  C13_19 
REMARK    3  A    between atoms: C13_19  and  N1_20 
REMARK    4  A    between atoms: N1_20  and  C14_22 
REMARK    5  A    between atoms: C14_22  and  C15_23 
ROOT
HETATM    1  C1  UNL     1     -10.608  -4.367  -3.950  1.00  0.00     0.043 C 
HETATM    2  C2  UNL     1     -10.004  -4.096  -2.617  1.00  0.00    -0.087 C 
HETATM    3  C3  UNL     1      -8.817  -4.596  -2.291  1.00  0.00    -0.024 C 
HETATM    4  C4  UNL     1      -8.145  -4.378  -0.988  1.00  0.00     0.030 C 
HETATM    5  C5  UNL     1      -6.662  -4.246  -1.080  1.00  0.00     0.044 C 
HETATM    6  C6  UNL     1      -6.122  -2.965  -0.548  1.00  0.00     0.084 A 
HETATM    7  C7  UNL     1      -5.013  -2.285  -1.343  1.00  0.00     0.049 C 
HETATM    8  O1  UNL     1      -7.131  -2.113  -0.054  1.00  0.00    -0.370 OA
HETATM    9  C8  UNL     1      -6.242  -2.657   0.834  1.00  0.00     0.158 A 
HETATM   10  C9  UNL     1      -6.588  -3.727   1.803  1.00  0.00     0.054 C 
HETATM   11  C10 UNL     1      -7.555  -3.307   2.860  1.00  0.00     0.106 C 
HETATM   12  C11 UNL     1      -8.548  -4.430   3.162  1.00  0.00     0.026 C 
HETATM   13  S1  UNL     1      -8.514  -1.849   2.445  1.00  0.00     0.161 S 
HETATM   14  O2  UNL     1      -8.683  -0.959   3.668  1.00  0.00    -0.228 OA
HETATM   15  O3  UNL     1      -9.989  -2.267   1.744  1.00  0.00    -0.228 OA
HETATM   16  C12 UNL     1     -10.817  -1.188   1.458  1.00  0.00     0.314 C 
HETATM   17  O5  UNL     1     -11.947  -1.526   0.791  1.00  0.00    -0.294 OA
HETATM   18  C16 UNL     1     -12.850  -2.475   0.591  1.00  0.00     0.045 C 
HETATM   19  C17 UNL     1     -14.308  -2.358   1.043  1.00  0.00     0.076 C 
HETATM   20  C18 UNL     1     -12.608  -3.645  -0.029  1.00  0.00     0.005 C 
HETATM   21  C19 UNL     1     -11.357  -4.125  -0.602  1.00  0.00     0.034 C 
HETATM   22  C20 UNL     1     -10.787  -3.241  -1.673  1.00  0.00     0.037 C 
ENDROOT
BRANCH  16  23
HETATM   23  O4  UNL     1     -11.190  -0.683   2.735  1.00  0.00    -0.341 OA
ATOM     24  H4  UNL     1     -11.733   0.072   2.541  1.00  0.00     0.215 HD
ENDBRANCH  16  23
BRANCH  16  25
HETATM   25  C13 UNL     1      -9.999  -0.080   0.843  1.00  0.00     0.217 C 
BRANCH  25  26
HETATM   26  N1  UNL     1      -9.527  -0.286  -0.473  1.00  0.00    -0.413 N 
ATOM     27  H1  UNL     1      -8.779  -0.955  -0.653  1.00  0.00     0.153 HD
BRANCH  26  28
HETATM   28  C14 UNL     1     -10.102   0.443  -1.536  1.00  0.00     0.129 C 
BRANCH  28  29
HETATM   29  C15 UNL     1      -9.080   0.693  -2.665  1.00  0.00     0.134 C 
HETATM   30 CL1  UNL     1      -8.292  -0.887  -2.972  1.00  0.00    -0.129 Cl
ENDBRANCH  28  29
ENDBRANCH  26  28
ENDBRANCH  25  26
ENDBRANCH  16  25
TORSDOF 5
ENDMDL
MODEL 3
REMARK VINA RESULT: -5.743633868      2.386      4.873
REMARK  5 active torsions:
REMARK  status: ('A' for Active; 'I' for Inactive)
REMARK    1  A    between atoms: C12_16  and  O4_17 
REMARK    2  A    between atoms: C12_16  and  C13_19 
REMARK    3  A    between atoms: C13_19  and  N1_20 
REMARK    4  A    between atoms: N1_20  and  C14_22 
REMARK    5  A    between atoms: C14_22  and  C15_23 
ROOT
HETATM    1  C1  UNL     1      -8.629  -5.074  -3.864  1.00  0.00     0.043 C 
HETATM    2  C2  UNL     1      -8.283  -3.983  -2.912  1.00  0.00    -0.087 C 
HETATM    3  C3  UNL     1      -8.079  -2.743  -3.342  1.00  0.00    -0.024 C 
HETATM    4  C4  UNL     1      -7.730  -1.599  -2.466  1.00  0.00     0.030 C 
HETATM    5  C5  UNL     1      -8.337  -0.302  -2.884  1.00  0.00     0.044 C 
HETATM    6  C6  UNL     1      -9.199   0.337  -1.852  1.00  0.00     0.084 A 
HETATM    7  C7  UNL     1     -10.505   0.969  -2.318  1.00  0.00     0.049 C 
HETATM    8  O1  UNL     1      -9.275  -0.418  -0.664  1.00  0.00    -0.370 OA
HETATM    9  C8  UNL     1      -8.633   0.791  -0.629  1.00  0.00     0.158 A 
HETATM   10  C9  UNL     1      -7.162   0.946  -0.507  1.00  0.00     0.054 C 
HETATM   11  C10 UNL     1      -6.605   0.490   0.801  1.00  0.00     0.106 C 
HETATM   12  C11 UNL     1      -5.264  -0.219   0.601  1.00  0.00     0.026 C 
HETATM   13  S1  UNL     1      -7.670  -0.636   1.704  1.00  0.00     0.161 S 
HETATM   14  O2  UNL     1      -7.629  -0.326   3.194  1.00  0.00    -0.228 OA
HETATM   15  O3  UNL     1      -7.285  -2.242   1.369  1.00  0.00    -0.228 OA
HETATM   16  C12 UNL     1      -8.024  -3.174   2.088  1.00  0.00     0.314 C 
HETATM   17  O5  UNL     1      -7.787  -4.459   1.727  1.00  0.00    -0.294 OA
HETATM   18  C16 UNL     1      -6.888  -5.306   1.249  1.00  0.00     0.045 C 
HETATM   19  C17 UNL     1      -6.282  -6.444   2.076  1.00  0.00     0.076 C 
HETATM   20  C18 UNL     1      -6.401  -5.281  -0.005  1.00  0.00     0.005 C 
HETATM   21  C19 UNL     1      -6.729  -4.361  -1.087  1.00  0.00     0.034 C 
HETATM   22  C20 UNL     1      -8.182  -4.344  -1.465  1.00  0.00     0.037 C 
ENDROOT
BRANCH  16  23
HETATM   23  O4  UNL     1      -7.593  -3.004   3.433  1.00  0.00    -0.341 OA
ATOM     24  H4  UNL     1      -7.707  -2.076   3.602  1.00  0.00     0.215 HD
ENDBRANCH  16  23
BRANCH  16  25
HETATM   25  C13 UNL     1      -9.473  -2.754   2.105  1.00  0.00     0.217 C 
BRANCH  25  26
HETATM   26  N1  UNL     1     -10.214  -2.958   0.919  1.00  0.00    -0.413 N 
ATOM     27  H1  UNL     1     -10.002  -2.418   0.080  1.00  0.00     0.153 HD
BRANCH  26  28
HETATM   28  C14 UNL     1     -11.251  -3.916   0.906  1.00  0.00     0.129 C 
BRANCH  28  29
HETATM   29  C15 UNL     1     -12.380  -3.511  -0.065  1.00  0.00     0.134 C 
HETATM   30 CL1  UNL     1     -11.569  -3.068  -1.601  1.00  0.00    -0.129 Cl
ENDBRANCH  28  29
ENDBRANCH  26  28
ENDBRANCH  25  26
ENDBRANCH  16  25
TORSDOF 5
ENDMDL
MODEL 4
REMARK VINA RESULT: -5.574962833      2.766      6.045
REMARK  5 active torsions:
REMARK  status: ('A' for Active; 'I' for Inactive)
REMARK    1  A    between atoms: C12_16  and  O4_17 
REMARK    2  A    between atoms: C12_16  and  C13_19 
REMARK    3  A    between atoms: C13_19  and  N1_20 
REMARK    4  A    between atoms: N1_20  and  C14_22 
REMARK    5  A    between atoms: C14_22  and  C15_23 
ROOT
HETATM    1  C1  UNL     1      -8.534  -5.702  -3.576  1.00  0.00     0.043 C 
HETATM    2  C2  UNL     1      -8.843  -4.597  -2.628  1.00  0.00    -0.087 C 
HETATM    3  C3  UNL     1     -10.005  -3.957  -2.682  1.00  0.00    -0.024 C 
HETATM    4  C4  UNL     1     -10.393  -2.846  -1.780  1.00  0.00     0.030 C 
HETATM    5  C5  UNL     1     -11.837  -2.838  -1.408  1.00  0.00     0.044 C 
HETATM    6  C6  UNL     1     -12.098  -2.915   0.055  1.00  0.00     0.084 A 
HETATM    7  C7  UNL     1     -13.234  -3.818   0.521  1.00  0.00     0.049 C 
HETATM    8  O1  UNL     1     -10.913  -2.984   0.816  1.00  0.00    -0.370 OA
HETATM    9  C8  UNL     1     -11.687  -1.859   0.913  1.00  0.00     0.158 A 
HETATM   10  C9  UNL     1     -11.314  -0.542   0.337  1.00  0.00     0.054 C 
HETATM   11  C10 UNL     1     -10.123   0.090   0.978  1.00  0.00     0.106 C 
HETATM   12  C11 UNL     1      -9.247   0.780  -0.069  1.00  0.00     0.026 C 
HETATM   13  S1  UNL     1      -9.073  -1.055   1.876  1.00  0.00     0.161 S 
HETATM   14  O2  UNL     1      -8.568  -0.415   3.161  1.00  0.00    -0.228 OA
HETATM   15  O3  UNL     1      -7.820  -1.625   0.904  1.00  0.00    -0.228 OA
HETATM   16  C12 UNL     1      -6.923  -2.464   1.554  1.00  0.00     0.314 C 
HETATM   17  O5  UNL     1      -5.988  -3.007   0.737  1.00  0.00    -0.294 OA
HETATM   18  C16 UNL     1      -5.270  -2.831  -0.362  1.00  0.00     0.045 C 
HETATM   19  C17 UNL     1      -3.751  -2.638  -0.353  1.00  0.00     0.076 C 
HETATM   20  C18 UNL     1      -5.772  -2.802  -1.611  1.00  0.00     0.005 C 
HETATM   21  C19 UNL     1      -7.159  -2.953  -2.033  1.00  0.00     0.034 C 
HETATM   22  C20 UNL     1      -7.795  -4.249  -1.620  1.00  0.00     0.037 C 
ENDROOT
BRANCH  16  23
HETATM   23  O4  UNL     1      -6.260  -1.618   2.486  1.00  0.00    -0.341 OA
ATOM     24  H4  UNL     1      -6.935  -1.380   3.110  1.00  0.00     0.215 HD
ENDBRANCH  16  23
BRANCH  16  25
HETATM   25  C13 UNL     1      -7.688  -3.440   2.414  1.00  0.00     0.217 C 
BRANCH  25  26
HETATM   26  N1  UNL     1      -7.825  -4.758   1.923  1.00  0.00    -0.413 N 
ATOM     27  H1  UNL     1      -7.862  -4.932   0.919  1.00  0.00     0.153 HD
BRANCH  26  28
HETATM   28  C14 UNL     1      -7.910  -5.831   2.835  1.00  0.00     0.129 C 
BRANCH  28  29
HETATM   29  C15 UNL     1      -6.877  -6.930   2.510  1.00  0.00     0.134 C 
HETATM   30 CL1  UNL     1      -6.082  -6.420   0.987  1.00  0.00    -0.129 Cl
ENDBRANCH  28  29
ENDBRANCH  26  28
ENDBRANCH  25  26
ENDBRANCH  16  25
TORSDOF 5
ENDMDL
MODEL 5
REMARK VINA RESULT: -5.507945706      3.353      5.052
REMARK  5 active torsions:
REMARK  status: ('A' for Active; 'I' for Inactive)
REMARK    1  A    between atoms: C12_16  and  O4_17 
REMARK    2  A    between atoms: C12_16  and  C13_19 
REMARK    3  A    between atoms: C13_19  and  N1_20 
REMARK    4  A    between atoms: N1_20  and  C14_22 
REMARK    5  A    between atoms: C14_22  and  C15_23 
ROOT
HETATM    1  C1  UNL     1      -6.494  -6.350   2.184  1.00  0.00     0.043 C 
HETATM    2  C2  UNL     1      -7.019  -5.278   1.294  1.00  0.00    -0.087 C 
HETATM    3  C3  UNL     1      -6.563  -5.136   0.055  1.00  0.00    -0.024 C 
HETATM    4  C4  UNL     1      -7.028  -4.098  -0.896  1.00  0.00     0.030 C 
HETATM    5  C5  UNL     1      -7.092  -4.554  -2.315  1.00  0.00     0.044 C 
HETATM    6  C6  UNL     1      -8.439  -4.442  -2.939  1.00  0.00     0.084 A 
HETATM    7  C7  UNL     1      -8.904  -5.595  -3.821  1.00  0.00     0.049 C 
HETATM    8  O1  UNL     1      -9.406  -3.921  -2.055  1.00  0.00    -0.370 OA
HETATM    9  C8  UNL     1      -9.034  -3.166  -3.134  1.00  0.00     0.158 A 
HETATM   10  C9  UNL     1      -8.201  -1.940  -3.042  1.00  0.00     0.054 C 
HETATM   11  C10 UNL     1      -8.863  -0.803  -2.337  1.00  0.00     0.106 C 
HETATM   12  C11 UNL     1      -7.859  -0.051  -1.462  1.00  0.00     0.026 C 
HETATM   13  S1  UNL     1     -10.230  -1.285  -1.281  1.00  0.00     0.161 S 
HETATM   14  O2  UNL     1     -11.362  -0.271  -1.382  1.00  0.00    -0.228 OA
HETATM   15  O3  UNL     1      -9.720  -1.524   0.308  1.00  0.00    -0.228 OA
HETATM   16  C12 UNL     1     -10.740  -1.832   1.200  1.00  0.00     0.314 C 
HETATM   17  O5  UNL     1     -10.305  -2.136   2.447  1.00  0.00    -0.294 OA
HETATM   18  C16 UNL     1      -9.363  -1.919   3.353  1.00  0.00     0.045 C 
HETATM   19  C17 UNL     1      -9.616  -1.179   4.670  1.00  0.00     0.076 C 
HETATM   20  C18 UNL     1      -8.082  -2.317   3.239  1.00  0.00     0.005 C 
HETATM   21  C19 UNL     1      -7.454  -3.047   2.145  1.00  0.00     0.034 C 
HETATM   22  C20 UNL     1      -8.077  -4.382   1.854  1.00  0.00     0.037 C 
ENDROOT
BRANCH  16  23
HETATM   23  O4  UNL     1     -11.512  -0.640   1.278  1.00  0.00    -0.341 OA
ATOM     24  H4  UNL     1     -10.952   0.029   0.902  1.00  0.00     0.215 HD
ENDBRANCH  16  23
BRANCH  16  25
HETATM   25  C13 UNL     1     -11.669  -2.838   0.567  1.00  0.00     0.217 C 
BRANCH  25  26
HETATM   26  N1  UNL     1     -12.452  -3.627   1.440  1.00  0.00    -0.413 N 
ATOM     27  H1  UNL     1     -12.096  -4.517   1.789  1.00  0.00     0.153 HD
BRANCH  26  28
HETATM   28  C14 UNL     1     -13.730  -3.170   1.826  1.00  0.00     0.129 C 
BRANCH  28  29
HETATM   29  C15 UNL     1     -13.748  -2.725   3.303  1.00  0.00     0.134 C 
HETATM   30 CL1  UNL     1     -15.193  -3.496   4.030  1.00  0.00    -0.129 Cl
ENDBRANCH  28  29
ENDBRANCH  26  28
ENDBRANCH  25  26
ENDBRANCH  16  25
TORSDOF 5
ENDMDL
