MODEL 1
REMARK VINA RESULT: -6.599697695      0.000      0.000
REMARK  6 active torsions:
REMARK  status: ('A' for Active; 'I' for Inactive)
REMARK    1  A    between atoms: C2_2  and  C3_3 
REMARK       I    between atoms: C3_3  and  N1_5 
REMARK    2  A    between atoms: N1_5  and  C4_7 
REMARK    3  A    between atoms: C6_12  and  S1_13 
REMARK    4  A    between atoms: S1_13  and  S2_14 
REMARK    5  A    between atoms: S2_14  and  C7_15 
REMARK    6  A    between atoms: C10_22  and  C11_23 
ROOT
HETATM    1  C4  UNL     1      -9.186  -4.348  -2.942  1.00  0.00     0.146 A 
HETATM    2  N2  UNL     1      -7.986  -4.786  -2.537  1.00  0.00    -0.281 N 
ATOM      3  H2  UNL     1      -7.340  -5.327  -3.112  1.00  0.00     0.189 HD
HETATM    4  N3  UNL     1      -7.757  -4.421  -1.300  1.00  0.00    -0.286 N 
HETATM    5  C5  UNL     1      -6.544  -4.735  -0.557  1.00  0.00     0.178 C 
HETATM    6  C6  UNL     1      -8.831  -3.717  -0.853  1.00  0.00     0.122 A 
HETATM    7  C15 UNL     1      -9.739  -3.669  -1.892  1.00  0.00     0.125 A 
HETATM    8  C16 UNL     1     -11.008  -3.007  -1.808  1.00  0.00     0.106 C 
HETATM    9  N6  UNL     1     -12.009  -2.479  -1.722  1.00  0.00    -0.191 NA
ENDROOT
BRANCH   1  10
HETATM   10  N1  UNL     1      -9.666  -4.561  -4.107  1.00  0.00    -0.311 N 
HETATM   11  C3  UNL     1      -9.821  -5.814  -4.731  1.00  0.00     0.222 C 
HETATM   12  O1  UNL     1      -8.911  -6.385  -5.387  1.00  0.00    -0.273 OA
ATOM     13  H1  UNL     1      -9.968  -3.743  -4.637  1.00  0.00     0.170 HD
BRANCH  11  14
HETATM   14  C2  UNL     1     -11.128  -6.509  -4.614  1.00  0.00     0.099 C 
HETATM   15  C1  UNL     1     -11.092  -7.709  -5.534  1.00  0.00     0.014 C 
ENDBRANCH  11  14
ENDBRANCH   1  10
BRANCH   6  16
HETATM   16  S1  UNL     1      -8.904  -3.046   0.781  1.00  0.00    -0.030 SA
BRANCH  16  17
HETATM   17  S2  UNL     1     -10.413  -4.126   1.811  1.00  0.00    -0.031 SA
BRANCH  17  18
HETATM   18  C7  UNL     1     -10.189  -3.826   3.531  1.00  0.00     0.109 A 
HETATM   19  N4  UNL     1     -10.542  -2.795   4.299  1.00  0.00    -0.292 N 
HETATM   20  N5  UNL     1     -10.168  -2.998   5.547  1.00  0.00    -0.303 N 
ATOM     21  H4  UNL     1     -11.034  -1.965   3.968  1.00  0.00     0.187 HD
HETATM   22  C8  UNL     1      -9.540  -4.200   5.643  1.00  0.00     0.036 A 
ATOM     23  H5  UNL     1     -10.325  -2.352   6.321  1.00  0.00     0.186 HD
HETATM   24  C9  UNL     1      -8.989  -4.751   6.895  1.00  0.00     0.070 C 
HETATM   25  C10 UNL     1      -9.546  -4.729   4.390  1.00  0.00     0.040 A 
BRANCH  25  26
HETATM   26  C11 UNL     1      -8.983  -6.030   3.962  1.00  0.00     0.021 A 
HETATM   27  C12 UNL     1      -7.892  -6.353   3.226  1.00  0.00     0.022 A 
HETATM   28  C13 UNL     1      -7.639  -7.655   3.003  1.00  0.00     0.033 A 
HETATM   29  C14 UNL     1      -8.503  -8.566   3.536  1.00  0.00     0.075 A 
HETATM   30 CL1  UNL     1      -8.439 -10.334   3.417  1.00  0.00    -0.076 Cl
HETATM   31  S3  UNL     1      -9.644  -7.592   4.333  1.00  0.00    -0.077 SA
ENDBRANCH  25  26
ENDBRANCH  17  18
ENDBRANCH  16  17
ENDBRANCH   6  16
TORSDOF 6
ENDMDL
MODEL 2
REMARK VINA RESULT: -6.546904789      3.032      3.819
REMARK  6 active torsions:
REMARK  status: ('A' for Active; 'I' for Inactive)
REMARK    1  A    between atoms: C2_2  and  C3_3 
REMARK       I    between atoms: C3_3  and  N1_5 
REMARK    2  A    between atoms: N1_5  and  C4_7 
REMARK    3  A    between atoms: C6_12  and  S1_13 
REMARK    4  A    between atoms: S1_13  and  S2_14 
REMARK    5  A    between atoms: S2_14  and  C7_15 
REMARK    6  A    between atoms: C10_22  and  C11_23 
ROOT
HETATM    1  C4  UNL     1      -8.200  -3.824  -3.087  1.00  0.00     0.146 A 
HETATM    2  N2  UNL     1      -7.640  -4.767  -2.317  1.00  0.00    -0.281 N 
ATOM      3  H2  UNL     1      -7.669  -5.768  -2.510  1.00  0.00     0.189 HD
HETATM    4  N3  UNL     1      -7.050  -4.225  -1.281  1.00  0.00    -0.286 N 
HETATM    5  C5  UNL     1      -6.345  -4.970  -0.246  1.00  0.00     0.178 C 
HETATM    6  C6  UNL     1      -7.213  -2.875  -1.350  1.00  0.00     0.122 A 
HETATM    7  C15 UNL     1      -7.942  -2.619  -2.494  1.00  0.00     0.125 A 
HETATM    8  C16 UNL     1      -8.319  -1.302  -2.918  1.00  0.00     0.106 C 
HETATM    9  N6  UNL     1      -8.610  -0.252  -3.234  1.00  0.00    -0.191 NA
ENDROOT
BRANCH   1  10
HETATM   10  N1  UNL     1      -8.843  -4.072  -4.164  1.00  0.00    -0.311 N 
HETATM   11  C3  UNL     1      -9.308  -5.332  -4.587  1.00  0.00     0.222 C 
HETATM   12  O1  UNL     1      -8.608  -6.155  -5.234  1.00  0.00    -0.273 OA
ATOM     13  H1  UNL     1      -9.038  -3.280  -4.776  1.00  0.00     0.170 HD
BRANCH  11  14
HETATM   14  C2  UNL     1     -10.703  -5.721  -4.260  1.00  0.00     0.099 C 
HETATM   15  C1  UNL     1     -11.032  -6.961  -5.060  1.00  0.00     0.014 C 
ENDBRANCH  11  14
ENDBRANCH   1  10
BRANCH   6  16
HETATM   16  S1  UNL     1      -6.553  -1.783  -0.128  1.00  0.00    -0.030 SA
BRANCH  16  17
HETATM   17  S2  UNL     1      -8.035  -1.599   1.381  1.00  0.00    -0.031 SA
BRANCH  17  18
HETATM   18  C7  UNL     1      -8.016  -3.091   2.317  1.00  0.00     0.109 A 
HETATM   19  N4  UNL     1      -7.060  -3.656   3.054  1.00  0.00    -0.292 N 
HETATM   20  N5  UNL     1      -7.489  -4.785   3.583  1.00  0.00    -0.303 N 
ATOM     21  H4  UNL     1      -6.126  -3.269   3.191  1.00  0.00     0.187 HD
HETATM   22  C8  UNL     1      -8.776  -5.004   3.201  1.00  0.00     0.036 A 
ATOM     23  H5  UNL     1      -6.941  -5.398   4.187  1.00  0.00     0.186 HD
HETATM   24  C9  UNL     1      -9.574  -6.176   3.608  1.00  0.00     0.070 C 
HETATM   25  C10 UNL     1      -9.117  -3.953   2.409  1.00  0.00     0.040 A 
BRANCH  25  26
HETATM   26  C11 UNL     1     -10.417  -3.719   1.739  1.00  0.00     0.021 A 
HETATM   27  C12 UNL     1     -10.877  -4.035   0.504  1.00  0.00     0.022 A 
HETATM   28  C13 UNL     1     -12.133  -3.679   0.182  1.00  0.00     0.033 A 
HETATM   29  C14 UNL     1     -12.862  -3.018   1.127  1.00  0.00     0.075 A 
HETATM   30 CL1  UNL     1     -14.528  -2.424   1.003  1.00  0.00    -0.076 Cl
HETATM   31  S3  UNL     1     -11.786  -2.910   2.437  1.00  0.00    -0.077 SA
ENDBRANCH  25  26
ENDBRANCH  17  18
ENDBRANCH  16  17
ENDBRANCH   6  16
TORSDOF 6
ENDMDL
MODEL 3
REMARK VINA RESULT: -6.476129598      4.448      6.230
REMARK  6 active torsions:
REMARK  status: ('A' for Active; 'I' for Inactive)
REMARK    1  A    between atoms: C2_2  and  C3_3 
REMARK       I    between atoms: C3_3  and  N1_5 
REMARK    2  A    between atoms: N1_5  and  C4_7 
REMARK    3  A    between atoms: C6_12  and  S1_13 
REMARK    4  A    between atoms: S1_13  and  S2_14 
REMARK    5  A    between atoms: S2_14  and  C7_15 
REMARK    6  A    between atoms: C10_22  and  C11_23 
ROOT
HETATM    1  C4  UNL     1      -9.080  -4.347  -2.780  1.00  0.00     0.146 A 
HETATM    2  N2  UNL     1      -7.826  -4.653  -2.420  1.00  0.00    -0.281 N 
ATOM      3  H2  UNL     1      -7.116  -5.025  -3.050  1.00  0.00     0.189 HD
HETATM    4  N3  UNL     1      -7.639  -4.406  -1.148  1.00  0.00    -0.286 N 
HETATM    5  C5  UNL     1      -6.387  -4.627  -0.437  1.00  0.00     0.178 C 
HETATM    6  C6  UNL     1      -8.799  -3.919  -0.629  1.00  0.00     0.122 A 
HETATM    7  C15 UNL     1      -9.715  -3.881  -1.661  1.00  0.00     0.125 A 
HETATM    8  C16 UNL     1     -11.064  -3.421  -1.510  1.00  0.00     0.106 C 
HETATM    9  N6  UNL     1     -12.129  -3.056  -1.370  1.00  0.00    -0.191 NA
ENDROOT
BRANCH   1  10
HETATM   10  N1  UNL     1      -9.537  -4.490  -3.965  1.00  0.00    -0.311 N 
HETATM   11  C3  UNL     1      -9.718  -5.707  -4.649  1.00  0.00     0.222 C 
HETATM   12  O1  UNL     1      -8.812  -6.281  -5.309  1.00  0.00    -0.273 OA
ATOM     13  H1  UNL     1      -9.796  -3.639  -4.464  1.00  0.00     0.170 HD
BRANCH  11  14
HETATM   14  C2  UNL     1     -11.051  -6.359  -4.597  1.00  0.00     0.099 C 
HETATM   15  C1  UNL     1     -10.988  -7.600  -5.459  1.00  0.00     0.014 C 
ENDBRANCH  11  14
ENDBRANCH   1  10
BRANCH   6  16
HETATM   16  S1  UNL     1      -8.951  -3.459   1.071  1.00  0.00    -0.030 SA
BRANCH  16  17
HETATM   17  S2  UNL     1      -8.785  -1.344   1.142  1.00  0.00    -0.031 SA
BRANCH  17  18
HETATM   18  C7  UNL     1     -10.294  -0.681   0.524  1.00  0.00     0.109 A 
HETATM   19  N4  UNL     1     -11.535  -0.711   1.010  1.00  0.00    -0.292 N 
HETATM   20  N5  UNL     1     -12.364  -0.076   0.205  1.00  0.00    -0.303 N 
ATOM     21  H4  UNL     1     -11.806  -1.163   1.884  1.00  0.00     0.187 HD
HETATM   22  C8  UNL     1     -11.677   0.405  -0.865  1.00  0.00     0.036 A 
ATOM     23  H5  UNL     1     -13.366   0.036   0.362  1.00  0.00     0.186 HD
HETATM   24  C9  UNL     1     -12.289   1.169  -1.968  1.00  0.00     0.070 C 
HETATM   25  C10 UNL     1     -10.382   0.035  -0.679  1.00  0.00     0.040 A 
BRANCH  25  26
HETATM   26  C11 UNL     1      -9.231   0.316  -1.567  1.00  0.00     0.021 A 
HETATM   27  C12 UNL     1      -8.683  -0.374  -2.596  1.00  0.00     0.022 A 
HETATM   28  C13 UNL     1      -7.616   0.157  -3.221  1.00  0.00     0.033 A 
HETATM   29  C14 UNL     1      -7.157   1.360  -2.772  1.00  0.00     0.075 A 
HETATM   30 CL1  UNL     1      -5.785   2.303  -3.383  1.00  0.00    -0.076 Cl
HETATM   31  S3  UNL     1      -8.217   1.725  -1.496  1.00  0.00    -0.077 SA
ENDBRANCH  25  26
ENDBRANCH  17  18
ENDBRANCH  16  17
ENDBRANCH   6  16
TORSDOF 6
ENDMDL
MODEL 4
REMARK VINA RESULT: -6.451548513      2.558      3.069
REMARK  6 active torsions:
REMARK  status: ('A' for Active; 'I' for Inactive)
REMARK    1  A    between atoms: C2_2  and  C3_3 
REMARK       I    between atoms: C3_3  and  N1_5 
REMARK    2  A    between atoms: N1_5  and  C4_7 
REMARK    3  A    between atoms: C6_12  and  S1_13 
REMARK    4  A    between atoms: S1_13  and  S2_14 
REMARK    5  A    between atoms: S2_14  and  C7_15 
REMARK    6  A    between atoms: C10_22  and  C11_23 
ROOT
HETATM    1  C4  UNL     1      -8.753  -3.786  -3.243  1.00  0.00     0.146 A 
HETATM    2  N2  UNL     1      -7.444  -3.505  -3.182  1.00  0.00    -0.281 N 
ATOM      3  H2  UNL     1      -6.794  -3.587  -3.963  1.00  0.00     0.189 HD
HETATM    4  N3  UNL     1      -7.115  -3.109  -1.977  1.00  0.00    -0.286 N 
HETATM    5  C5  UNL     1      -5.769  -2.726  -1.571  1.00  0.00     0.178 C 
HETATM    6  C6  UNL     1      -8.232  -3.122  -1.200  1.00  0.00     0.122 A 
HETATM    7  C15 UNL     1      -9.272  -3.551  -2.000  1.00  0.00     0.125 A 
HETATM    8  C16 UNL     1     -10.621  -3.696  -1.540  1.00  0.00     0.106 C 
HETATM    9  N6  UNL     1     -11.683  -3.807  -1.155  1.00  0.00    -0.191 NA
ENDROOT
BRANCH   1  10
HETATM   10  N1  UNL     1      -9.344  -4.196  -4.300  1.00  0.00    -0.311 N 
HETATM   11  C3  UNL     1      -9.540  -5.537  -4.680  1.00  0.00     0.222 C 
HETATM   12  O1  UNL     1      -8.692  -6.214  -5.319  1.00  0.00    -0.273 OA
ATOM     13  H1  UNL     1      -9.711  -3.481  -4.928  1.00  0.00     0.170 HD
BRANCH  11  14
HETATM   14  C2  UNL     1     -10.817  -6.200  -4.314  1.00  0.00     0.099 C 
HETATM   15  C1  UNL     1     -11.054  -7.318  -5.305  1.00  0.00     0.014 C 
ENDBRANCH  11  14
ENDBRANCH   1  10
BRANCH   6  16
HETATM   16  S1  UNL     1      -8.200  -2.646   0.502  1.00  0.00    -0.030 SA
BRANCH  16  17
HETATM   17  S2  UNL     1      -8.314  -4.439   1.632  1.00  0.00    -0.031 SA
BRANCH  17  18
HETATM   18  C7  UNL     1      -6.670  -5.038   1.829  1.00  0.00     0.109 A 
HETATM   19  N4  UNL     1      -5.506  -4.588   1.360  1.00  0.00    -0.292 N 
HETATM   20  N5  UNL     1      -4.515  -5.359   1.762  1.00  0.00    -0.303 N 
ATOM     21  H4  UNL     1      -5.397  -3.762   0.771  1.00  0.00     0.187 HD
HETATM   22  C8  UNL     1      -5.008  -6.368   2.530  1.00  0.00     0.036 A 
ATOM     23  H5  UNL     1      -3.531  -5.220   1.534  1.00  0.00     0.186 HD
HETATM   24  C9  UNL     1      -4.181  -7.419   3.149  1.00  0.00     0.070 C 
HETATM   25  C10 UNL     1      -6.354  -6.179   2.579  1.00  0.00     0.040 A 
BRANCH  25  26
HETATM   26  C11 UNL     1      -7.352  -7.011   3.291  1.00  0.00     0.021 A 
HETATM   27  C12 UNL     1      -7.948  -8.187   2.979  1.00  0.00     0.022 A 
HETATM   28  C13 UNL     1      -8.832  -8.703   3.851  1.00  0.00     0.033 A 
HETATM   29  C14 UNL     1      -9.069  -8.002   4.997  1.00  0.00     0.075 A 
HETATM   30 CL1  UNL     1     -10.168  -8.418   6.325  1.00  0.00    -0.076 Cl
HETATM   31  S3  UNL     1      -8.059  -6.646   4.835  1.00  0.00    -0.077 SA
ENDBRANCH  25  26
ENDBRANCH  17  18
ENDBRANCH  16  17
ENDBRANCH   6  16
TORSDOF 6
ENDMDL
MODEL 5
REMARK VINA RESULT: -6.386335336      2.561      3.519
REMARK  6 active torsions:
REMARK  status: ('A' for Active; 'I' for Inactive)
REMARK    1  A    between atoms: C2_2  and  C3_3 
REMARK       I    between atoms: C3_3  and  N1_5 
REMARK    2  A    between atoms: N1_5  and  C4_7 
REMARK    3  A    between atoms: C6_12  and  S1_13 
REMARK    4  A    between atoms: S1_13  and  S2_14 
REMARK    5  A    between atoms: S2_14  and  C7_15 
REMARK    6  A    between atoms: C10_22  and  C11_23 
ROOT
HETATM    1  C4  UNL     1      -9.790  -4.099  -2.513  1.00  0.00     0.146 A 
HETATM    2  N2  UNL     1     -11.014  -4.096  -1.968  1.00  0.00    -0.281 N 
ATOM      3  H2  UNL     1     -11.874  -4.316  -2.469  1.00  0.00     0.189 HD
HETATM    4  N3  UNL     1     -10.953  -3.772  -0.700  1.00  0.00    -0.286 N 
HETATM    5  C5  UNL     1     -12.105  -3.676   0.187  1.00  0.00     0.178 C 
HETATM    6  C6  UNL     1      -9.650  -3.549  -0.375  1.00  0.00     0.122 A 
HETATM    7  C15 UNL     1      -8.911  -3.755  -1.523  1.00  0.00     0.125 A 
HETATM    8  C16 UNL     1      -7.485  -3.618  -1.586  1.00  0.00     0.106 C 
HETATM    9  N6  UNL     1      -6.357  -3.501  -1.615  1.00  0.00    -0.191 NA
ENDROOT
BRANCH   1  10
HETATM   10  N1  UNL     1      -9.556  -4.379  -3.738  1.00  0.00    -0.311 N 
HETATM   11  C3  UNL     1      -9.671  -5.645  -4.341  1.00  0.00     0.222 C 
HETATM   12  O1  UNL     1      -8.754  -6.508  -4.336  1.00  0.00    -0.273 OA
ATOM     13  H1  UNL     1      -9.257  -3.609  -4.337  1.00  0.00     0.170 HD
BRANCH  11  14
HETATM   14  C2  UNL     1     -10.941  -5.993  -5.028  1.00  0.00     0.099 C 
HETATM   15  C1  UNL     1     -10.876  -7.458  -5.398  1.00  0.00     0.014 C 
ENDBRANCH  11  14
ENDBRANCH   1  10
BRANCH   6  16
HETATM   16  S1  UNL     1      -9.151  -3.091   1.257  1.00  0.00    -0.030 SA
BRANCH  16  17
HETATM   17  S2  UNL     1      -8.786  -4.899   2.307  1.00  0.00    -0.031 SA
BRANCH  17  18
HETATM   18  C7  UNL     1      -7.068  -5.253   2.156  1.00  0.00     0.109 A 
HETATM   19  N4  UNL     1      -6.088  -4.609   1.522  1.00  0.00    -0.292 N 
HETATM   20  N5  UNL     1      -4.941  -5.242   1.678  1.00  0.00    -0.303 N 
ATOM     21  H4  UNL     1      -6.208  -3.747   0.991  1.00  0.00     0.187 HD
HETATM   22  C8  UNL     1      -5.136  -6.352   2.439  1.00  0.00     0.036 A 
ATOM     23  H5  UNL     1      -4.047  -4.944   1.288  1.00  0.00     0.186 HD
HETATM   24  C9  UNL     1      -4.068  -7.297   2.815  1.00  0.00     0.070 C 
HETATM   25  C10 UNL     1      -6.461  -6.371   2.745  1.00  0.00     0.040 A 
BRANCH  25  26
HETATM   26  C11 UNL     1      -7.180  -7.379   3.557  1.00  0.00     0.021 A 
HETATM   27  C12 UNL     1      -7.917  -8.465   3.219  1.00  0.00     0.022 A 
HETATM   28  C13 UNL     1      -8.454  -9.201   4.207  1.00  0.00     0.033 A 
HETATM   29  C14 UNL     1      -8.219  -8.802   5.491  1.00  0.00     0.075 A 
HETATM   30 CL1  UNL     1      -8.786  -9.557   6.991  1.00  0.00    -0.076 Cl
HETATM   31  S3  UNL     1      -7.259  -7.415   5.291  1.00  0.00    -0.077 SA
ENDBRANCH  25  26
ENDBRANCH  17  18
ENDBRANCH  16  17
ENDBRANCH   6  16
TORSDOF 6
ENDMDL
