MODEL 1
REMARK VINA RESULT: -6.084844715      0.000      0.000
REMARK  3 active torsions:
REMARK  status: ('A' for Active; 'I' for Inactive)
REMARK    1  A    between atoms: C2_2  and  C3_3 
REMARK    2  A    between atoms: C3_3  and  C4_4 
REMARK    3  A    between atoms: C12_15  and  O4_16 
ROOT
HETATM    1  C4  UNL     1      33.117 -25.897 -26.192  1.00  0.00     0.102 C 
HETATM    2  C5  UNL     1      33.887 -26.707 -27.187  1.00  0.00     0.050 C 
HETATM    3  O1  UNL     1      33.965 -24.804 -25.744  1.00  0.00    -0.229 OA
HETATM    4  O2  UNL     1      33.139 -24.074 -25.028  1.00  0.00    -0.231 OA
HETATM    5  C6  UNL     1      31.910 -24.029 -25.672  1.00  0.00     0.201 C 
HETATM    6  C7  UNL     1      31.441 -22.678 -25.983  1.00  0.00     0.160 C 
HETATM    7  O3  UNL     1      30.038 -22.528 -25.877  1.00  0.00    -0.383 OA
HETATM    8  C8  UNL     1      29.796 -21.161 -26.013  1.00  0.00     0.168 C 
HETATM    9  C9  UNL     1      29.871 -20.731 -27.467  1.00  0.00     0.027 C 
HETATM   10  C10 UNL     1      30.651 -21.841 -28.188  1.00  0.00     0.012 C 
HETATM   11  C11 UNL     1      31.872 -22.104 -27.295  1.00  0.00     0.046 C 
HETATM   12  C12 UNL     1      32.848 -22.959 -28.045  1.00  0.00     0.125 C 
HETATM   13  C13 UNL     1      32.538 -24.404 -28.076  1.00  0.00     0.047 C 
HETATM   14  C14 UNL     1      32.049 -25.016 -26.790  1.00  0.00     0.024 C 
HETATM   15  C15 UNL     1      30.786 -25.762 -27.097  1.00  0.00     0.021 C 
ENDROOT
BRANCH   1  16
HETATM   16  C3  UNL     1      32.802 -26.599 -24.933  1.00  0.00     0.041 C 
BRANCH  16  17
HETATM   17  C2  UNL     1      33.021 -28.076 -24.874  1.00  0.00    -0.002 C 
HETATM   18  C1  UNL     1      34.133 -28.299 -23.830  1.00  0.00     0.005 C 
ENDBRANCH  16  17
ENDBRANCH   1  16
BRANCH  12  19
HETATM   19  O4  UNL     1      34.171 -22.659 -27.655  1.00  0.00    -0.395 OA
ATOM     20  H4  UNL     1      34.649 -22.266 -28.375  1.00  0.00     0.210 HD
ENDBRANCH  12  19
TORSDOF 3
ENDMDL
MODEL 2
REMARK VINA RESULT: -5.977449781      1.904      3.172
REMARK  3 active torsions:
REMARK  status: ('A' for Active; 'I' for Inactive)
REMARK    1  A    between atoms: C2_2  and  C3_3 
REMARK    2  A    between atoms: C3_3  and  C4_4 
REMARK    3  A    between atoms: C12_15  and  O4_16 
ROOT
HETATM    1  C4  UNL     1      32.494 -26.407 -25.157  1.00  0.00     0.102 C 
HETATM    2  C5  UNL     1      31.399 -26.495 -24.141  1.00  0.00     0.050 C 
HETATM    3  O1  UNL     1      32.009 -26.990 -26.398  1.00  0.00    -0.229 OA
HETATM    4  O2  UNL     1      32.970 -26.697 -27.247  1.00  0.00    -0.231 OA
HETATM    5  C6  UNL     1      33.413 -25.406 -26.993  1.00  0.00     0.201 C 
HETATM    6  C7  UNL     1      33.323 -24.502 -28.139  1.00  0.00     0.160 C 
HETATM    7  O3  UNL     1      34.381 -23.564 -28.204  1.00  0.00    -0.383 OA
HETATM    8  C8  UNL     1      34.243 -22.928 -29.437  1.00  0.00     0.168 C 
HETATM    9  C9  UNL     1      33.138 -21.887 -29.400  1.00  0.00     0.027 C 
HETATM   10  C10 UNL     1      32.270 -22.249 -28.185  1.00  0.00     0.012 C 
HETATM   11  C11 UNL     1      32.035 -23.761 -28.310  1.00  0.00     0.046 C 
HETATM   12  C12 UNL     1      30.964 -24.168 -27.343  1.00  0.00     0.125 C 
HETATM   13  C13 UNL     1      31.399 -24.333 -25.941  1.00  0.00     0.047 C 
HETATM   14  C14 UNL     1      32.717 -25.027 -25.721  1.00  0.00     0.024 C 
HETATM   15  C15 UNL     1      33.541 -24.157 -24.820  1.00  0.00     0.021 C 
ENDROOT
BRANCH   1  16
HETATM   16  C3  UNL     1      33.684 -27.227 -24.858  1.00  0.00     0.041 C 
BRANCH  16  17
HETATM   17  C2  UNL     1      33.478 -28.656 -24.471  1.00  0.00    -0.002 C 
HETATM   18  C1  UNL     1      34.244 -28.854 -23.148  1.00  0.00     0.005 C 
ENDBRANCH  16  17
ENDBRANCH   1  16
BRANCH  12  19
HETATM   19  O4  UNL     1      30.226 -25.258 -27.853  1.00  0.00    -0.395 OA
ATOM     20  H4  UNL     1      29.308 -25.174 -27.624  1.00  0.00     0.210 HD
ENDBRANCH  12  19
TORSDOF 3
ENDMDL
MODEL 3
REMARK VINA RESULT: -5.967701138      2.065      5.414
REMARK  3 active torsions:
REMARK  status: ('A' for Active; 'I' for Inactive)
REMARK    1  A    between atoms: C2_2  and  C3_3 
REMARK    2  A    between atoms: C3_3  and  C4_4 
REMARK    3  A    between atoms: C12_15  and  O4_16 
ROOT
HETATM    1  C4  UNL     1      31.922 -24.280 -27.047  1.00  0.00     0.102 C 
HETATM    2  C5  UNL     1      32.942 -23.562 -27.874  1.00  0.00     0.050 C 
HETATM    3  O1  UNL     1      31.639 -25.557 -27.683  1.00  0.00    -0.229 OA
HETATM    4  O2  UNL     1      30.884 -26.161 -26.791  1.00  0.00    -0.231 OA
HETATM    5  C6  UNL     1      31.392 -25.900 -25.526  1.00  0.00     0.201 C 
HETATM    6  C7  UNL     1      31.734 -27.095 -24.755  1.00  0.00     0.160 C 
HETATM    7  O3  UNL     1      31.486 -26.964 -23.368  1.00  0.00    -0.383 OA
HETATM    8  C8  UNL     1      31.681 -28.237 -22.831  1.00  0.00     0.168 C 
HETATM    9  C9  UNL     1      33.158 -28.548 -22.677  1.00  0.00     0.027 C 
HETATM   10  C10 UNL     1      33.888 -27.564 -23.602  1.00  0.00     0.012 C 
HETATM   11  C11 UNL     1      33.119 -27.632 -24.929  1.00  0.00     0.046 C 
HETATM   12  C12 UNL     1      33.916 -26.934 -25.990  1.00  0.00     0.125 C 
HETATM   13  C13 UNL     1      33.822 -25.458 -25.991  1.00  0.00     0.047 C 
HETATM   14  C14 UNL     1      32.454 -24.870 -25.766  1.00  0.00     0.024 C 
HETATM   15  C15 UNL     1      32.573 -23.859 -24.665  1.00  0.00     0.021 C 
ENDROOT
BRANCH   1  16
HETATM   16  C3  UNL     1      30.594 -23.637 -27.006  1.00  0.00     0.041 C 
BRANCH  16  17
HETATM   17  C2  UNL     1      30.163 -22.832 -28.189  1.00  0.00    -0.002 C 
HETATM   18  C1  UNL     1      28.907 -23.533 -28.746  1.00  0.00     0.005 C 
ENDBRANCH  16  17
ENDBRANCH   1  16
BRANCH  12  19
HETATM   19  O4  UNL     1      33.693 -27.529 -27.250  1.00  0.00    -0.395 OA
ATOM     20  H4  UNL     1      33.609 -28.471 -27.163  1.00  0.00     0.210 HD
ENDBRANCH  12  19
TORSDOF 3
ENDMDL
MODEL 4
REMARK VINA RESULT: -5.710262354      2.216      5.258
REMARK  3 active torsions:
REMARK  status: ('A' for Active; 'I' for Inactive)
REMARK    1  A    between atoms: C2_2  and  C3_3 
REMARK    2  A    between atoms: C3_3  and  C4_4 
REMARK    3  A    between atoms: C12_15  and  O4_16 
ROOT
HETATM    1  C4  UNL     1      31.863 -20.952 -24.948  1.00  0.00     0.102 C 
HETATM    2  C5  UNL     1      31.484 -19.782 -25.802  1.00  0.00     0.050 C 
HETATM    3  O1  UNL     1      30.681 -21.776 -24.758  1.00  0.00    -0.229 OA
HETATM    4  O2  UNL     1      31.167 -22.842 -24.160  1.00  0.00    -0.231 OA
HETATM    5  C6  UNL     1      32.383 -23.167 -24.746  1.00  0.00     0.201 C 
HETATM    6  C7  UNL     1      32.447 -24.523 -25.290  1.00  0.00     0.160 C 
HETATM    7  O3  UNL     1      33.718 -25.128 -25.153  1.00  0.00    -0.383 OA
HETATM    8  C8  UNL     1      33.545 -26.457 -25.539  1.00  0.00     0.168 C 
HETATM    9  C9  UNL     1      33.492 -26.588 -27.051  1.00  0.00     0.027 C 
HETATM   10  C10 UNL     1      33.167 -25.183 -27.577  1.00  0.00     0.012 C 
HETATM   11  C11 UNL     1      31.999 -24.700 -26.706  1.00  0.00     0.046 C 
HETATM   12  C12 UNL     1      31.413 -23.464 -27.320  1.00  0.00     0.125 C 
HETATM   13  C13 UNL     1      32.151 -22.210 -27.057  1.00  0.00     0.047 C 
HETATM   14  C14 UNL     1      32.667 -22.012 -25.657  1.00  0.00     0.024 C 
HETATM   15  C15 UNL     1      34.123 -21.667 -25.757  1.00  0.00     0.021 C 
ENDROOT
BRANCH   1  16
HETATM   16  C3  UNL     1      32.246 -20.610 -23.564  1.00  0.00     0.041 C 
BRANCH  16  17
HETATM   17  C2  UNL     1      32.547 -19.181 -23.247  1.00  0.00    -0.002 C 
HETATM   18  C1  UNL     1      34.075 -19.100 -23.056  1.00  0.00     0.005 C 
ENDBRANCH  16  17
ENDBRANCH   1  16
BRANCH  12  19
HETATM   19  O4  UNL     1      30.029 -23.388 -27.054  1.00  0.00    -0.395 OA
ATOM     20  H4  UNL     1      29.645 -24.256 -27.039  1.00  0.00     0.210 HD
ENDBRANCH  12  19
TORSDOF 3
ENDMDL
MODEL 5
REMARK VINA RESULT: -5.570079421      1.387      1.745
REMARK  3 active torsions:
REMARK  status: ('A' for Active; 'I' for Inactive)
REMARK    1  A    between atoms: C2_2  and  C3_3 
REMARK    2  A    between atoms: C3_3  and  C4_4 
REMARK    3  A    between atoms: C12_15  and  O4_16 
ROOT
HETATM    1  C4  UNL     1      33.054 -26.790 -25.534  1.00  0.00     0.102 C 
HETATM    2  C5  UNL     1      32.786 -27.995 -26.380  1.00  0.00     0.050 C 
HETATM    3  O1  UNL     1      33.935 -25.902 -26.276  1.00  0.00    -0.229 OA
HETATM    4  O2  UNL     1      33.953 -24.823 -25.526  1.00  0.00    -0.231 OA
HETATM    5  C6  UNL     1      32.671 -24.592 -25.044  1.00  0.00     0.201 C 
HETATM    6  C7  UNL     1      32.126 -23.279 -25.386  1.00  0.00     0.160 C 
HETATM    7  O3  UNL     1      31.309 -22.724 -24.373  1.00  0.00    -0.383 OA
HETATM    8  C8  UNL     1      31.042 -21.417 -24.780  1.00  0.00     0.168 C 
HETATM    9  C9  UNL     1      29.970 -21.383 -25.854  1.00  0.00     0.027 C 
HETATM   10  C10 UNL     1      29.920 -22.804 -26.434  1.00  0.00     0.012 C 
HETATM   11  C11 UNL     1      31.389 -23.176 -26.684  1.00  0.00     0.046 C 
HETATM   12  C12 UNL     1      31.441 -24.422 -27.516  1.00  0.00     0.125 C 
HETATM   13  C13 UNL     1      31.227 -25.688 -26.783  1.00  0.00     0.047 C 
HETATM   14  C14 UNL     1      31.907 -25.816 -25.446  1.00  0.00     0.024 C 
HETATM   15  C15 UNL     1      30.867 -26.232 -24.449  1.00  0.00     0.021 C 
ENDROOT
BRANCH   1  16
HETATM   16  C3  UNL     1      33.825 -27.056 -24.304  1.00  0.00     0.041 C 
BRANCH  16  17
HETATM   17  C2  UNL     1      34.129 -28.477 -23.955  1.00  0.00    -0.002 C 
HETATM   18  C1  UNL     1      33.433 -28.742 -22.605  1.00  0.00     0.005 C 
ENDBRANCH  16  17
ENDBRANCH   1  16
BRANCH  12  19
HETATM   19  O4  UNL     1      32.585 -24.418 -28.342  1.00  0.00    -0.395 OA
ATOM     20  H4  UNL     1      32.658 -23.592 -28.806  1.00  0.00     0.210 HD
ENDBRANCH  12  19
TORSDOF 3
ENDMDL
