MODEL 1
REMARK VINA RESULT: -6.862669135      0.000      0.000
REMARK  2 active torsions:
REMARK  status: ('A' for Active; 'I' for Inactive)
REMARK    1  A    between atoms: C9_13  and  C10_14 
REMARK    2  A    between atoms: C10_14  and  C11_15 
ROOT
HETATM    1  C11 UNL     1      34.176 -27.637 -24.435  1.00  0.00    -0.015 C 
HETATM    2  C12 UNL     1      33.788 -28.598 -23.621  1.00  0.00     0.089 C 
HETATM    3  C13 UNL     1      32.537 -28.466 -22.906  1.00  0.00     0.087 C 
HETATM    4  N2  UNL     1      31.530 -28.376 -22.345  1.00  0.00    -0.192 NA
ENDROOT
BRANCH   1   5
HETATM    5  C10 UNL     1      33.336 -26.433 -24.616  1.00  0.00     0.041 C 
BRANCH   5   6
HETATM    6  C9  UNL     1      33.754 -25.569 -25.756  1.00  0.00     0.078 C 
HETATM    7  C4  UNL     1      33.103 -24.221 -25.635  1.00  0.00     0.021 C 
HETATM    8  C3  UNL     1      33.458 -23.435 -24.460  1.00  0.00    -0.009 C 
HETATM    9  C5  UNL     1      31.625 -24.342 -25.942  1.00  0.00     0.058 C 
HETATM   10  C14 UNL     1      33.188 -23.387 -26.927  1.00  0.00     0.170 C 
HETATM   11  C2  UNL     1      33.693 -22.137 -24.558  1.00  0.00    -0.058 C 
HETATM   12  C1  UNL     1      34.054 -21.354 -23.346  1.00  0.00     0.046 C 
HETATM   13  C15 UNL     1      33.616 -21.396 -25.848  1.00  0.00     0.146 C 
HETATM   14  O2  UNL     1      32.753 -22.112 -26.675  1.00  0.00    -0.372 OA
HETATM   15  C16 UNL     1      33.049 -20.039 -25.555  1.00  0.00     0.044 C 
HETATM   16  C6  UNL     1      32.033 -24.249 -27.421  1.00  0.00     0.093 C 
HETATM   17  C7  UNL     1      31.051 -23.577 -28.307  1.00  0.00     0.049 C 
HETATM   18  O1  UNL     1      32.416 -25.564 -27.803  1.00  0.00    -0.326 OA
HETATM   19  C8  UNL     1      33.467 -26.128 -27.093  1.00  0.00     0.118 C 
HETATM   20  N1  UNL     1      34.132 -27.091 -27.618  1.00  0.00    -0.383 N 
ATOM     21  H12 UNL     1      33.933 -27.477 -28.541  1.00  0.00     0.158 HD
ATOM     22  H11 UNL     1      34.904 -27.505 -27.097  1.00  0.00     0.158 HD
ENDBRANCH   5   6
ENDBRANCH   1   5
TORSDOF 2
ENDMDL
MODEL 2
REMARK VINA RESULT: -6.769543397      2.907      4.050
REMARK  2 active torsions:
REMARK  status: ('A' for Active; 'I' for Inactive)
REMARK    1  A    between atoms: C9_13  and  C10_14 
REMARK    2  A    between atoms: C10_14  and  C11_15 
ROOT
HETATM    1  C11 UNL     1      33.439 -26.776 -26.831  1.00  0.00    -0.015 C 
HETATM    2  C12 UNL     1      32.711 -27.495 -26.001  1.00  0.00     0.089 C 
HETATM    3  C13 UNL     1      31.922 -26.831 -24.986  1.00  0.00     0.087 C 
HETATM    4  N2  UNL     1      31.274 -26.307 -24.183  1.00  0.00    -0.192 NA
ENDROOT
BRANCH   1   5
HETATM    5  C10 UNL     1      33.446 -25.301 -26.726  1.00  0.00     0.041 C 
BRANCH   5   6
HETATM    6  C9  UNL     1      32.797 -24.609 -27.875  1.00  0.00     0.078 C 
HETATM    7  C4  UNL     1      33.703 -23.526 -28.390  1.00  0.00     0.021 C 
HETATM    8  C3  UNL     1      34.987 -23.959 -28.929  1.00  0.00    -0.009 C 
HETATM    9  C5  UNL     1      33.741 -22.382 -27.399  1.00  0.00     0.058 C 
HETATM   10  C14 UNL     1      32.992 -22.537 -29.333  1.00  0.00     0.170 C 
HETATM   11  C2  UNL     1      35.470 -23.427 -30.039  1.00  0.00    -0.058 C 
HETATM   12  C1  UNL     1      36.782 -23.883 -30.571  1.00  0.00     0.046 C 
HETATM   13  C15 UNL     1      34.754 -22.370 -30.807  1.00  0.00     0.146 C 
HETATM   14  O2  UNL     1      33.921 -21.710 -29.908  1.00  0.00    -0.372 OA
HETATM   15  C16 UNL     1      35.789 -21.427 -31.346  1.00  0.00     0.044 C 
HETATM   16  C6  UNL     1      32.439 -21.905 -28.062  1.00  0.00     0.093 C 
HETATM   17  C7  UNL     1      32.250 -20.433 -28.096  1.00  0.00     0.049 C 
HETATM   18  O1  UNL     1      31.394 -22.652 -27.453  1.00  0.00    -0.326 OA
HETATM   19  C8  UNL     1      31.470 -24.032 -27.580  1.00  0.00     0.118 C 
HETATM   20  N1  UNL     1      30.406 -24.733 -27.442  1.00  0.00    -0.383 N 
ATOM     21  H12 UNL     1      29.489 -24.334 -27.238  1.00  0.00     0.158 HD
ATOM     22  H11 UNL     1      30.462 -25.747 -27.536  1.00  0.00     0.158 HD
ENDBRANCH   5   6
ENDBRANCH   1   5
TORSDOF 2
ENDMDL
MODEL 3
REMARK VINA RESULT: -6.684288020      3.323      5.917
REMARK  2 active torsions:
REMARK  status: ('A' for Active; 'I' for Inactive)
REMARK    1  A    between atoms: C9_13  and  C10_14 
REMARK    2  A    between atoms: C10_14  and  C11_15 
ROOT
HETATM    1  C11 UNL     1      35.902 -23.781 -29.662  1.00  0.00    -0.015 C 
HETATM    2  C12 UNL     1      36.493 -23.628 -30.829  1.00  0.00     0.089 C 
HETATM    3  C13 UNL     1      35.751 -23.066 -31.937  1.00  0.00     0.087 C 
HETATM    4  N2  UNL     1      35.170 -22.601 -32.822  1.00  0.00    -0.192 NA
ENDROOT
BRANCH   1   5
HETATM    5  C10 UNL     1      34.489 -23.379 -29.487  1.00  0.00     0.041 C 
BRANCH   5   6
HETATM    6  C9  UNL     1      34.142 -22.979 -28.093  1.00  0.00     0.078 C 
HETATM    7  C4  UNL     1      33.098 -23.910 -27.546  1.00  0.00     0.021 C 
HETATM    8  C3  UNL     1      33.483 -25.309 -27.416  1.00  0.00    -0.009 C 
HETATM    9  C5  UNL     1      31.771 -23.637 -28.222  1.00  0.00     0.058 C 
HETATM   10  C14 UNL     1      32.425 -23.381 -26.264  1.00  0.00     0.170 C 
HETATM   11  C2  UNL     1      33.150 -26.008 -26.343  1.00  0.00    -0.058 C 
HETATM   12  C1  UNL     1      33.554 -27.435 -26.232  1.00  0.00     0.046 C 
HETATM   13  C15 UNL     1      32.374 -25.429 -25.210  1.00  0.00     0.146 C 
HETATM   14  O2  UNL     1      31.639 -24.365 -25.725  1.00  0.00    -0.372 OA
HETATM   15  C16 UNL     1      31.456 -26.499 -24.701  1.00  0.00     0.044 C 
HETATM   16  C6  UNL     1      31.603 -22.502 -27.198  1.00  0.00     0.093 C 
HETATM   17  C7  UNL     1      30.206 -22.232 -26.777  1.00  0.00     0.049 C 
HETATM   18  O1  UNL     1      32.318 -21.392 -27.726  1.00  0.00    -0.326 OA
HETATM   19  C8  UNL     1      33.675 -21.585 -27.948  1.00  0.00     0.118 C 
HETATM   20  N1  UNL     1      34.449 -20.566 -28.015  1.00  0.00    -0.383 N 
ATOM     21  H12 UNL     1      34.126 -19.603 -27.915  1.00  0.00     0.158 HD
ATOM     22  H11 UNL     1      35.446 -20.707 -28.179  1.00  0.00     0.158 HD
ENDBRANCH   5   6
ENDBRANCH   1   5
TORSDOF 2
ENDMDL
MODEL 4
REMARK VINA RESULT: -6.656971892      2.388      3.274
REMARK  2 active torsions:
REMARK  status: ('A' for Active; 'I' for Inactive)
REMARK    1  A    between atoms: C9_13  and  C10_14 
REMARK    2  A    between atoms: C10_14  and  C11_15 
ROOT
HETATM    1  C11 UNL     1      33.637 -26.898 -26.104  1.00  0.00    -0.015 C 
HETATM    2  C12 UNL     1      32.999 -27.704 -25.280  1.00  0.00     0.089 C 
HETATM    3  C13 UNL     1      31.981 -27.167 -24.402  1.00  0.00     0.087 C 
HETATM    4  N2  UNL     1      31.153 -26.749 -23.711  1.00  0.00    -0.192 NA
ENDROOT
BRANCH   1   5
HETATM    5  C10 UNL     1      33.314 -25.454 -26.131  1.00  0.00     0.041 C 
BRANCH   5   6
HETATM    6  C9  UNL     1      32.518 -25.035 -27.319  1.00  0.00     0.078 C 
HETATM    7  C4  UNL     1      32.951 -23.666 -27.759  1.00  0.00     0.021 C 
HETATM    8  C3  UNL     1      34.333 -23.537 -28.207  1.00  0.00    -0.009 C 
HETATM    9  C5  UNL     1      32.470 -22.636 -26.760  1.00  0.00     0.058 C 
HETATM   10  C14 UNL     1      31.968 -23.005 -28.744  1.00  0.00     0.170 C 
HETATM   11  C2  UNL     1      34.635 -22.820 -29.276  1.00  0.00    -0.058 C 
HETATM   12  C1  UNL     1      36.051 -22.702 -29.715  1.00  0.00     0.046 C 
HETATM   13  C15 UNL     1      33.609 -22.104 -30.086  1.00  0.00     0.146 C 
HETATM   14  O2  UNL     1      32.527 -21.859 -29.245  1.00  0.00    -0.372 OA
HETATM   15  C16 UNL     1      34.218 -20.812 -30.542  1.00  0.00     0.044 C 
HETATM   16  C6  UNL     1      31.130 -22.687 -27.512  1.00  0.00     0.093 C 
HETATM   17  C7  UNL     1      30.376 -21.410 -27.549  1.00  0.00     0.049 C 
HETATM   18  O1  UNL     1      30.430 -23.807 -26.985  1.00  0.00    -0.326 OA
HETATM   19  C8  UNL     1      31.055 -25.040 -27.117  1.00  0.00     0.118 C 
HETATM   20  N1  UNL     1      30.349 -26.108 -27.060  1.00  0.00    -0.383 N 
ATOM     21  H12 UNL     1      29.338 -26.111 -26.920  1.00  0.00     0.158 HD
ATOM     22  H11 UNL     1      30.808 -27.014 -27.157  1.00  0.00     0.158 HD
ENDBRANCH   5   6
ENDBRANCH   1   5
TORSDOF 2
ENDMDL
MODEL 5
REMARK VINA RESULT: -6.404231582      2.049      2.607
REMARK  2 active torsions:
REMARK  status: ('A' for Active; 'I' for Inactive)
REMARK    1  A    between atoms: C9_13  and  C10_14 
REMARK    2  A    between atoms: C10_14  and  C11_15 
ROOT
HETATM    1  C11 UNL     1      33.570 -26.109 -25.589  1.00  0.00    -0.015 C 
HETATM    2  C12 UNL     1      32.924 -27.147 -25.098  1.00  0.00     0.089 C 
HETATM    3  C13 UNL     1      31.769 -26.934 -24.252  1.00  0.00     0.087 C 
HETATM    4  N2  UNL     1      30.834 -26.773 -23.591  1.00  0.00    -0.192 NA
ENDROOT
BRANCH   1   5
HETATM    5  C10 UNL     1      33.114 -24.736 -25.278  1.00  0.00     0.041 C 
BRANCH   5   6
HETATM    6  C9  UNL     1      32.614 -23.982 -26.463  1.00  0.00     0.078 C 
HETATM    7  C4  UNL     1      32.798 -22.508 -26.238  1.00  0.00     0.021 C 
HETATM    8  C3  UNL     1      34.171 -22.043 -26.088  1.00  0.00    -0.009 C 
HETATM    9  C5  UNL     1      31.807 -22.027 -25.199  1.00  0.00     0.058 C 
HETATM   10  C14 UNL     1      32.005 -21.639 -27.233  1.00  0.00     0.170 C 
HETATM   11  C2  UNL     1      34.577 -20.929 -26.674  1.00  0.00    -0.058 C 
HETATM   12  C1  UNL     1      35.983 -20.472 -26.508  1.00  0.00     0.046 C 
HETATM   13  C15 UNL     1      33.682 -20.084 -27.514  1.00  0.00     0.146 C 
HETATM   14  O2  UNL     1      32.379 -20.329 -27.089  1.00  0.00    -0.372 OA
HETATM   15  C16 UNL     1      34.051 -18.652 -27.265  1.00  0.00     0.044 C 
HETATM   16  C6  UNL     1      30.797 -21.942 -26.356  1.00  0.00     0.093 C 
HETATM   17  C7  UNL     1      29.790 -20.859 -26.238  1.00  0.00     0.049 C 
HETATM   18  O1  UNL     1      30.280 -23.256 -26.518  1.00  0.00    -0.326 OA
HETATM   19  C8  UNL     1      31.204 -24.248 -26.816  1.00  0.00     0.118 C 
HETATM   20  N1  UNL     1      30.804 -25.330 -27.374  1.00  0.00    -0.383 N 
ATOM     21  H12 UNL     1      29.830 -25.513 -27.617  1.00  0.00     0.158 HD
ATOM     22  H11 UNL     1      31.483 -26.059 -27.593  1.00  0.00     0.158 HD
ENDBRANCH   5   6
ENDBRANCH   1   5
TORSDOF 2
ENDMDL
