MODEL 1
REMARK VINA RESULT: -8.853295971      0.000      0.000
REMARK  2 active torsions:
REMARK  status: ('A' for Active; 'I' for Inactive)
REMARK    1  A    between atoms: C2_2  and  C3_3 
REMARK    2  A    between atoms: N3_13  and  C9_14 
ROOT
HETATM    1  C1  UNL     1      32.924 -26.884 -24.813  1.00  0.00     0.139 A 
HETATM    2  C2  UNL     1      33.194 -28.157 -24.365  1.00  0.00     0.048 A 
HETATM    3  N1  UNL     1      33.032 -28.953 -25.437  1.00  0.00    -0.289 N 
ATOM      4  H1  UNL     1      33.157 -29.965 -25.452  1.00  0.00     0.188 HD
HETATM    5  N2  UNL     1      32.684 -28.203 -26.470  1.00  0.00    -0.240 N 
ATOM      6  H2  UNL     1      32.498 -28.560 -27.407  1.00  0.00     0.208 HD
HETATM    7  N3  UNL     1      32.607 -26.933 -26.125  1.00  0.00    -0.281 N 
ENDROOT
BRANCH   7   8
HETATM    8  C9  UNL     1      32.253 -25.831 -27.004  1.00  0.00     0.137 C 
HETATM    9  C10 UNL     1      33.533 -25.202 -27.461  1.00  0.00     0.035 C 
HETATM   10  C11 UNL     1      33.515 -23.689 -27.371  1.00  0.00     0.016 C 
HETATM   11  C12 UNL     1      33.805 -23.256 -25.964  1.00  0.00     0.008 C 
HETATM   12  C15 UNL     1      32.155 -23.278 -27.856  1.00  0.00     0.277 C 
HETATM   13  C13 UNL     1      32.782 -22.376 -25.350  1.00  0.00     0.031 C 
HETATM   14  C14 UNL     1      31.384 -22.589 -25.782  1.00  0.00     0.272 C 
HETATM   15  N4  UNL     1      31.219 -23.593 -26.812  1.00  0.00     0.090 N 
HETATM   16  C16 UNL     1      31.315 -24.918 -26.299  1.00  0.00     0.299 C 
ENDBRANCH   7   8
BRANCH   2  17
HETATM   17  C3  UNL     1      33.582 -28.553 -22.989  1.00  0.00     0.038 C 
HETATM   18  C4  UNL     1      32.364 -28.504 -22.097  1.00  0.00     0.011 C 
HETATM   19  C5  UNL     1      32.358 -29.624 -21.084  1.00  0.00     0.001 C 
HETATM   20  C6  UNL     1      33.748 -29.963 -20.596  1.00  0.00     0.000 C 
HETATM   21  C7  UNL     1      34.596 -30.461 -21.720  1.00  0.00     0.001 C 
HETATM   22  C8  UNL     1      34.174 -29.938 -23.070  1.00  0.00     0.011 C 
ENDBRANCH   2  17
TORSDOF 2
ENDMDL
MODEL 2
REMARK VINA RESULT: -8.658131439      1.095      1.919
REMARK  2 active torsions:
REMARK  status: ('A' for Active; 'I' for Inactive)
REMARK    1  A    between atoms: C2_2  and  C3_3 
REMARK    2  A    between atoms: N3_13  and  C9_14 
ROOT
HETATM    1  C1  UNL     1      32.071 -27.032 -24.143  1.00  0.00     0.139 A 
HETATM    2  C2  UNL     1      32.942 -28.093 -24.031  1.00  0.00     0.048 A 
HETATM    3  N1  UNL     1      33.832 -27.928 -25.026  1.00  0.00    -0.289 N 
ATOM      4  H1  UNL     1      34.619 -28.543 -25.229  1.00  0.00     0.188 HD
HETATM    5  N2  UNL     1      33.514 -26.833 -25.698  1.00  0.00    -0.240 N 
ATOM      6  H2  UNL     1      34.029 -26.480 -26.505  1.00  0.00     0.208 HD
HETATM    7  N3  UNL     1      32.443 -26.261 -25.187  1.00  0.00    -0.281 N 
ENDROOT
BRANCH   7   8
HETATM    8  C9  UNL     1      31.814 -25.042 -25.670  1.00  0.00     0.137 C 
HETATM    9  C10 UNL     1      31.492 -25.256 -27.117  1.00  0.00     0.035 C 
HETATM   10  C11 UNL     1      31.895 -24.086 -27.993  1.00  0.00     0.016 C 
HETATM   11  C12 UNL     1      33.359 -24.163 -28.309  1.00  0.00     0.008 C 
HETATM   12  C15 UNL     1      31.512 -22.859 -27.218  1.00  0.00     0.277 C 
HETATM   13  C13 UNL     1      34.148 -22.962 -27.946  1.00  0.00     0.031 C 
HETATM   14  C14 UNL     1      33.688 -22.203 -26.762  1.00  0.00     0.272 C 
HETATM   15  N4  UNL     1      32.473 -22.709 -26.159  1.00  0.00     0.090 N 
HETATM   16  C16 UNL     1      32.698 -23.882 -25.383  1.00  0.00     0.299 C 
ENDBRANCH   7   8
BRANCH   2  17
HETATM   17  C3  UNL     1      32.898 -29.178 -23.022  1.00  0.00     0.038 C 
HETATM   18  C4  UNL     1      34.165 -29.996 -23.118  1.00  0.00     0.011 C 
HETATM   19  C5  UNL     1      34.654 -30.445 -21.762  1.00  0.00     0.001 C 
HETATM   20  C6  UNL     1      33.517 -30.760 -20.817  1.00  0.00     0.000 C 
HETATM   21  C7  UNL     1      32.698 -29.539 -20.550  1.00  0.00     0.001 C 
HETATM   22  C8  UNL     1      32.740 -28.529 -21.669  1.00  0.00     0.011 C 
ENDBRANCH   2  17
TORSDOF 2
ENDMDL
MODEL 3
REMARK VINA RESULT: -8.348828436      1.080      1.194
REMARK  2 active torsions:
REMARK  status: ('A' for Active; 'I' for Inactive)
REMARK    1  A    between atoms: C2_2  and  C3_3 
REMARK    2  A    between atoms: N3_13  and  C9_14 
ROOT
HETATM    1  C1  UNL     1      33.087 -27.205 -24.958  1.00  0.00     0.139 A 
HETATM    2  C2  UNL     1      32.639 -27.680 -23.746  1.00  0.00     0.048 A 
HETATM    3  N1  UNL     1      31.374 -27.237 -23.636  1.00  0.00    -0.289 N 
ATOM      4  H1  UNL     1      30.748 -27.412 -22.849  1.00  0.00     0.188 HD
HETATM    5  N2  UNL     1      31.078 -26.536 -24.717  1.00  0.00    -0.240 N 
ATOM      6  H2  UNL     1      30.178 -26.086 -24.886  1.00  0.00     0.208 HD
HETATM    7  N3  UNL     1      32.100 -26.494 -25.547  1.00  0.00    -0.281 N 
ENDROOT
BRANCH   7   8
HETATM    8  C9  UNL     1      32.130 -25.815 -26.832  1.00  0.00     0.137 C 
HETATM    9  C10 UNL     1      33.548 -25.401 -27.080  1.00  0.00     0.035 C 
HETATM   10  C11 UNL     1      33.672 -23.969 -27.561  1.00  0.00     0.016 C 
HETATM   11  C12 UNL     1      33.601 -23.029 -26.395  1.00  0.00     0.008 C 
HETATM   12  C15 UNL     1      32.556 -23.784 -28.548  1.00  0.00     0.277 C 
HETATM   13  C13 UNL     1      32.551 -21.987 -26.484  1.00  0.00     0.031 C 
HETATM   14  C14 UNL     1      31.315 -22.357 -27.207  1.00  0.00     0.272 C 
HETATM   15  N4  UNL     1      31.336 -23.680 -27.795  1.00  0.00     0.090 N 
HETATM   16  C16 UNL     1      31.138 -24.707 -26.828  1.00  0.00     0.299 C 
ENDBRANCH   7   8
BRANCH   2  17
HETATM   17  C3  UNL     1      33.401 -28.506 -22.777  1.00  0.00     0.038 C 
HETATM   18  C4  UNL     1      32.680 -28.502 -21.449  1.00  0.00     0.011 C 
HETATM   19  C5  UNL     1      32.758 -29.843 -20.759  1.00  0.00     0.001 C 
HETATM   20  C6  UNL     1      34.080 -30.536 -21.000  1.00  0.00     0.000 C 
HETATM   21  C7  UNL     1      34.263 -30.836 -22.452  1.00  0.00     0.001 C 
HETATM   22  C8  UNL     1      33.515 -29.892 -23.360  1.00  0.00     0.011 C 
ENDBRANCH   2  17
TORSDOF 2
ENDMDL
MODEL 4
REMARK VINA RESULT: -8.321882307      1.227      2.018
REMARK  2 active torsions:
REMARK  status: ('A' for Active; 'I' for Inactive)
REMARK    1  A    between atoms: C2_2  and  C3_3 
REMARK    2  A    between atoms: N3_13  and  C9_14 
ROOT
HETATM    1  C1  UNL     1      33.245 -27.453 -24.494  1.00  0.00     0.139 A 
HETATM    2  C2  UNL     1      32.374 -27.953 -23.552  1.00  0.00     0.048 A 
HETATM    3  N1  UNL     1      31.296 -27.150 -23.603  1.00  0.00    -0.289 N 
ATOM      4  H1  UNL     1      30.458 -27.242 -23.029  1.00  0.00     0.188 HD
HETATM    5  N2  UNL     1      31.506 -26.221 -24.520  1.00  0.00    -0.240 N 
ATOM      6  H2  UNL     1      30.843 -25.483 -24.758  1.00  0.00     0.208 HD
HETATM    7  N3  UNL     1      32.686 -26.374 -25.085  1.00  0.00    -0.281 N 
ENDROOT
BRANCH   7   8
HETATM    8  C9  UNL     1      33.246 -25.536 -26.133  1.00  0.00     0.137 C 
HETATM    9  C10 UNL     1      33.687 -24.258 -25.488  1.00  0.00     0.035 C 
HETATM   10  C11 UNL     1      33.253 -23.025 -26.256  1.00  0.00     0.016 C 
HETATM   11  C12 UNL     1      31.826 -22.696 -25.933  1.00  0.00     0.008 C 
HETATM   12  C15 UNL     1      33.478 -23.359 -27.702  1.00  0.00     0.277 C 
HETATM   13  C13 UNL     1      30.918 -22.604 -27.100  1.00  0.00     0.031 C 
HETATM   14  C14 UNL     1      31.229 -23.482 -28.249  1.00  0.00     0.272 C 
HETATM   15  N4  UNL     1      32.435 -24.268 -28.095  1.00  0.00     0.090 N 
HETATM   16  C16 UNL     1      32.252 -25.382 -27.227  1.00  0.00     0.299 C 
ENDBRANCH   7   8
BRANCH   2  17
HETATM   17  C3  UNL     1      32.591 -29.130 -22.676  1.00  0.00     0.038 C 
HETATM   18  C4  UNL     1      33.750 -29.938 -23.210  1.00  0.00     0.011 C 
HETATM   19  C5  UNL     1      34.597 -30.516 -22.100  1.00  0.00     0.001 C 
HETATM   20  C6  UNL     1      33.772 -30.915 -20.897  1.00  0.00     0.000 C 
HETATM   21  C7  UNL     1      33.104 -29.722 -20.296  1.00  0.00     0.001 C 
HETATM   22  C8  UNL     1      32.852 -28.611 -21.284  1.00  0.00     0.011 C 
ENDBRANCH   2  17
TORSDOF 2
ENDMDL
MODEL 5
REMARK VINA RESULT: -7.954980067      0.959      1.971
REMARK  2 active torsions:
REMARK  status: ('A' for Active; 'I' for Inactive)
REMARK    1  A    between atoms: C2_2  and  C3_3 
REMARK    2  A    between atoms: N3_13  and  C9_14 
ROOT
HETATM    1  C1  UNL     1      33.518 -27.146 -24.423  1.00  0.00     0.139 A 
HETATM    2  C2  UNL     1      33.105 -28.459 -24.386  1.00  0.00     0.048 A 
HETATM    3  N1  UNL     1      32.838 -28.783 -25.664  1.00  0.00    -0.289 N 
ATOM      4  H1  UNL     1      32.508 -29.691 -25.991  1.00  0.00     0.188 HD
HETATM    5  N2  UNL     1      33.075 -27.728 -26.425  1.00  0.00    -0.240 N 
ATOM      6  H2  UNL     1      32.951 -27.706 -27.437  1.00  0.00     0.208 HD
HETATM    7  N3  UNL     1      33.491 -26.709 -25.701  1.00  0.00    -0.281 N 
ENDROOT
BRANCH   7   8
HETATM    8  C9  UNL     1      33.845 -25.392 -26.205  1.00  0.00     0.137 C 
HETATM    9  C10 UNL     1      33.445 -24.397 -25.160  1.00  0.00     0.035 C 
HETATM   10  C11 UNL     1      32.703 -23.204 -25.730  1.00  0.00     0.016 C 
HETATM   11  C12 UNL     1      31.262 -23.554 -25.948  1.00  0.00     0.008 C 
HETATM   12  C15 UNL     1      33.432 -22.850 -26.994  1.00  0.00     0.277 C 
HETATM   13  C13 UNL     1      30.762 -23.347 -27.327  1.00  0.00     0.031 C 
HETATM   14  C14 UNL     1      31.741 -23.541 -28.420  1.00  0.00     0.272 C 
HETATM   15  N4  UNL     1      33.085 -23.842 -27.975  1.00  0.00     0.090 N 
HETATM   16  C16 UNL     1      33.225 -25.191 -27.541  1.00  0.00     0.299 C 
ENDBRANCH   7   8
BRANCH   2  17
HETATM   17  C3  UNL     1      32.986 -29.321 -23.185  1.00  0.00     0.038 C 
HETATM   18  C4  UNL     1      34.250 -30.136 -23.033  1.00  0.00     0.011 C 
HETATM   19  C5  UNL     1      34.645 -30.302 -21.585  1.00  0.00     0.001 C 
HETATM   20  C6  UNL     1      33.446 -30.427 -20.673  1.00  0.00     0.000 C 
HETATM   21  C7  UNL     1      32.622 -29.182 -20.710  1.00  0.00     0.001 C 
HETATM   22  C8  UNL     1      32.746 -28.416 -22.003  1.00  0.00     0.011 C 
ENDBRANCH   2  17
TORSDOF 2
ENDMDL
