MODEL 1
REMARK VINA RESULT: -7.082574166      0.000      0.000
REMARK  2 active torsions:
REMARK  status: ('A' for Active; 'I' for Inactive)
REMARK    1  A    between atoms: C2_2  and  O1_3 
REMARK    2  A    between atoms: O1_3  and  C3_4 
ROOT
HETATM    1  C3  UNL     1      33.232 -26.600 -25.364  1.00  0.00     0.260 C 
HETATM    2  C4  UNL     1      33.199 -26.624 -26.896  1.00  0.00     0.068 C 
HETATM    3  C5  UNL     1      33.542 -25.209 -27.219  1.00  0.00     0.029 C 
HETATM    4  C6  UNL     1      32.487 -24.490 -28.031  1.00  0.00     0.026 C 
HETATM    5  C7  UNL     1      31.132 -24.536 -27.453  1.00  0.00     0.009 C 
HETATM    6  C8  UNL     1      30.761 -23.397 -26.558  1.00  0.00     0.008 C 
HETATM    7  C9  UNL     1      31.661 -23.198 -25.392  1.00  0.00     0.018 C 
HETATM    8  C10 UNL     1      31.349 -21.815 -24.806  1.00  0.00     0.013 C 
HETATM    9  C11 UNL     1      33.095 -23.105 -25.918  1.00  0.00     0.088 C 
HETATM   10  C12 UNL     1      33.903 -22.272 -24.910  1.00  0.00     0.049 C 
HETATM   11  O2  UNL     1      33.076 -22.415 -27.074  1.00  0.00    -0.367 OA
HETATM   12  C13 UNL     1      33.027 -23.096 -28.243  1.00  0.00     0.059 C 
HETATM   13  C14 UNL     1      32.267 -22.426 -29.351  1.00  0.00     0.046 C 
HETATM   14  C15 UNL     1      34.474 -23.229 -28.745  1.00  0.00     0.046 C 
HETATM   15  C16 UNL     1      33.664 -24.472 -25.918  1.00  0.00     0.164 C 
HETATM   16  O3  UNL     1      32.975 -25.282 -25.018  1.00  0.00    -0.353 OA
ENDROOT
BRANCH   1  17
HETATM   17  O1  UNL     1      32.270 -27.475 -24.931  1.00  0.00    -0.362 OA
BRANCH  17  18
HETATM   18  C2  UNL     1      32.670 -28.041 -23.737  1.00  0.00     0.166 C 
HETATM   19  C1  UNL     1      34.099 -28.529 -23.768  1.00  0.00     0.033 C 
ENDBRANCH  17  18
ENDBRANCH   1  17
TORSDOF 2
ENDMDL
MODEL 2
REMARK VINA RESULT: -6.562911080      1.289      2.669
REMARK  2 active torsions:
REMARK  status: ('A' for Active; 'I' for Inactive)
REMARK    1  A    between atoms: C2_2  and  O1_3 
REMARK    2  A    between atoms: O1_3  and  C3_4 
ROOT
HETATM    1  C3  UNL     1      33.253 -26.742 -26.864  1.00  0.00     0.260 C 
HETATM    2  C4  UNL     1      31.833 -26.493 -26.344  1.00  0.00     0.068 C 
HETATM    3  C5  UNL     1      31.474 -25.236 -27.061  1.00  0.00     0.029 C 
HETATM    4  C6  UNL     1      31.122 -24.084 -26.145  1.00  0.00     0.026 C 
HETATM    5  C7  UNL     1      32.139 -23.781 -25.123  1.00  0.00     0.009 C 
HETATM    6  C8  UNL     1      33.159 -22.752 -25.496  1.00  0.00     0.008 C 
HETATM    7  C9  UNL     1      33.938 -23.059 -26.723  1.00  0.00     0.018 C 
HETATM    8  C10 UNL     1      34.659 -21.771 -27.139  1.00  0.00     0.013 C 
HETATM    9  C11 UNL     1      32.943 -23.354 -27.848  1.00  0.00     0.088 C 
HETATM   10  C12 UNL     1      33.637 -23.015 -29.177  1.00  0.00     0.049 C 
HETATM   11  O2  UNL     1      31.902 -22.511 -27.721  1.00  0.00    -0.367 OA
HETATM   12  C13 UNL     1      30.796 -22.929 -27.062  1.00  0.00     0.059 C 
HETATM   13  C14 UNL     1      30.061 -21.870 -26.294  1.00  0.00     0.046 C 
HETATM   14  C15 UNL     1      29.809 -23.442 -28.122  1.00  0.00     0.046 C 
HETATM   15  C16 UNL     1      32.680 -24.811 -27.846  1.00  0.00     0.164 C 
HETATM   16  O3  UNL     1      33.727 -25.490 -27.229  1.00  0.00    -0.353 OA
ENDROOT
BRANCH   1  17
HETATM   17  O1  UNL     1      33.959 -27.313 -25.836  1.00  0.00    -0.362 OA
BRANCH  17  18
HETATM   18  C2  UNL     1      33.078 -27.858 -24.924  1.00  0.00     0.166 C 
HETATM   19  C1  UNL     1      33.770 -28.652 -23.842  1.00  0.00     0.033 C 
ENDBRANCH  17  18
ENDBRANCH   1  17
TORSDOF 2
ENDMDL
MODEL 3
REMARK VINA RESULT: -6.358238801      1.224      2.034
REMARK  2 active torsions:
REMARK  status: ('A' for Active; 'I' for Inactive)
REMARK    1  A    between atoms: C2_2  and  O1_3 
REMARK    2  A    between atoms: O1_3  and  C3_4 
ROOT
HETATM    1  C3  UNL     1      32.211 -25.821 -24.889  1.00  0.00     0.260 C 
HETATM    2  C4  UNL     1      33.571 -25.513 -25.524  1.00  0.00     0.068 C 
HETATM    3  C5  UNL     1      33.478 -24.037 -25.716  1.00  0.00     0.029 C 
HETATM    4  C6  UNL     1      33.634 -23.593 -27.155  1.00  0.00     0.026 C 
HETATM    5  C7  UNL     1      32.725 -24.260 -28.104  1.00  0.00     0.009 C 
HETATM    6  C8  UNL     1      31.426 -23.567 -28.367  1.00  0.00     0.008 C 
HETATM    7  C9  UNL     1      30.594 -23.317 -27.162  1.00  0.00     0.018 C 
HETATM    8  C10 UNL     1      29.504 -22.314 -27.560  1.00  0.00     0.013 C 
HETATM    9  C11 UNL     1      31.465 -22.591 -26.135  1.00  0.00     0.088 C 
HETATM   10  C12 UNL     1      30.527 -21.767 -25.237  1.00  0.00     0.049 C 
HETATM   11  O2  UNL     1      32.250 -21.717 -26.791  1.00  0.00    -0.367 OA
HETATM   12  C13 UNL     1      33.508 -22.088 -27.125  1.00  0.00     0.059 C 
HETATM   13  C14 UNL     1      34.033 -21.514 -28.408  1.00  0.00     0.046 C 
HETATM   14  C15 UNL     1      34.439 -21.566 -26.018  1.00  0.00     0.046 C 
HETATM   15  C16 UNL     1      32.105 -23.617 -25.281  1.00  0.00     0.164 C 
HETATM   16  O3  UNL     1      31.374 -24.801 -25.318  1.00  0.00    -0.353 OA
ENDROOT
BRANCH   1  17
HETATM   17  O1  UNL     1      31.834 -27.061 -25.336  1.00  0.00    -0.362 OA
BRANCH  17  18
HETATM   18  C2  UNL     1      32.957 -27.843 -25.515  1.00  0.00     0.166 C 
HETATM   19  C1  UNL     1      33.329 -28.627 -24.280  1.00  0.00     0.033 C 
ENDBRANCH  17  18
ENDBRANCH   1  17
TORSDOF 2
ENDMDL
MODEL 4
REMARK VINA RESULT: -6.300578882      0.936      1.008
REMARK  2 active torsions:
REMARK  status: ('A' for Active; 'I' for Inactive)
REMARK    1  A    between atoms: C2_2  and  O1_3 
REMARK    2  A    between atoms: O1_3  and  C3_4 
ROOT
HETATM    1  C3  UNL     1      33.606 -25.637 -25.665  1.00  0.00     0.260 C 
HETATM    2  C4  UNL     1      33.354 -25.832 -27.164  1.00  0.00     0.068 C 
HETATM    3  C5  UNL     1      33.436 -24.429 -27.662  1.00  0.00     0.029 C 
HETATM    4  C6  UNL     1      32.181 -23.947 -28.355  1.00  0.00     0.026 C 
HETATM    5  C7  UNL     1      30.945 -24.106 -27.568  1.00  0.00     0.009 C 
HETATM    6  C8  UNL     1      30.546 -22.934 -26.729  1.00  0.00     0.008 C 
HETATM    7  C9  UNL     1      31.567 -22.493 -25.744  1.00  0.00     0.018 C 
HETATM    8  C10 UNL     1      31.144 -21.107 -25.239  1.00  0.00     0.013 C 
HETATM    9  C11 UNL     1      32.880 -22.272 -26.497  1.00  0.00     0.088 C 
HETATM   10  C12 UNL     1      33.695 -21.234 -25.708  1.00  0.00     0.049 C 
HETATM   11  O2  UNL     1      32.593 -21.721 -27.691  1.00  0.00    -0.367 OA
HETATM   12  C13 UNL     1      32.475 -22.526 -28.773  1.00  0.00     0.059 C 
HETATM   13  C14 UNL     1      31.473 -22.086 -29.801  1.00  0.00     0.046 C 
HETATM   14  C15 UNL     1      33.837 -22.524 -29.485  1.00  0.00     0.046 C 
HETATM   15  C16 UNL     1      33.636 -23.544 -26.467  1.00  0.00     0.164 C 
HETATM   16  O3  UNL     1      33.212 -24.333 -25.401  1.00  0.00    -0.353 OA
ENDROOT
BRANCH   1  17
HETATM   17  O1  UNL     1      32.855 -26.577 -25.009  1.00  0.00    -0.362 OA
BRANCH  17  18
HETATM   18  C2  UNL     1      33.258 -27.838 -25.399  1.00  0.00     0.166 C 
HETATM   19  C1  UNL     1      33.699 -28.699 -24.240  1.00  0.00     0.033 C 
ENDBRANCH  17  18
ENDBRANCH   1  17
TORSDOF 2
ENDMDL
MODEL 5
REMARK VINA RESULT: -6.009882874      0.981      1.051
REMARK  2 active torsions:
REMARK  status: ('A' for Active; 'I' for Inactive)
REMARK    1  A    between atoms: C2_2  and  O1_3 
REMARK    2  A    between atoms: O1_3  and  C3_4 
ROOT
HETATM    1  C3  UNL     1      32.171 -25.891 -25.303  1.00  0.00     0.260 C 
HETATM    2  C4  UNL     1      32.199 -26.051 -26.827  1.00  0.00     0.068 C 
HETATM    3  C5  UNL     1      32.805 -24.755 -27.247  1.00  0.00     0.029 C 
HETATM    4  C6  UNL     1      31.932 -23.940 -28.177  1.00  0.00     0.026 C 
HETATM    5  C7  UNL     1      30.567 -23.694 -27.678  1.00  0.00     0.009 C 
HETATM    6  C8  UNL     1      30.369 -22.429 -26.904  1.00  0.00     0.008 C 
HETATM    7  C9  UNL     1      31.240 -22.283 -25.709  1.00  0.00     0.018 C 
HETATM    8  C10 UNL     1      31.156 -20.819 -25.260  1.00  0.00     0.013 C 
HETATM    9  C11 UNL     1      32.688 -22.493 -26.156  1.00  0.00     0.088 C 
HETATM   10  C12 UNL     1      33.589 -21.724 -25.176  1.00  0.00     0.049 C 
HETATM   11  O2  UNL     1      32.843 -21.921 -27.364  1.00  0.00    -0.367 OA
HETATM   12  C13 UNL     1      32.723 -22.688 -28.473  1.00  0.00     0.059 C 
HETATM   13  C14 UNL     1      32.144 -22.001 -29.676  1.00  0.00     0.046 C 
HETATM   14  C15 UNL     1      34.142 -23.119 -28.877  1.00  0.00     0.046 C 
HETATM   15  C16 UNL     1      33.001 -23.932 -26.008  1.00  0.00     0.164 C 
HETATM   16  O3  UNL     1      32.141 -24.522 -25.085  1.00  0.00    -0.353 OA
ENDROOT
BRANCH   1  17
HETATM   17  O1  UNL     1      31.050 -26.540 -24.855  1.00  0.00    -0.362 OA
BRANCH  17  18
HETATM   18  C2  UNL     1      31.309 -27.104 -23.623  1.00  0.00     0.166 C 
HETATM   19  C1  UNL     1      32.617 -27.858 -23.586  1.00  0.00     0.033 C 
ENDBRANCH  17  18
ENDBRANCH   1  17
TORSDOF 2
ENDMDL
