MODEL 1
REMARK VINA RESULT: -8.450840496      0.000      0.000
REMARK  13 active torsions:
REMARK  status: ('A' for Active; 'I' for Inactive)
REMARK    1  A    between atoms: C3_8  and  C4_9 
REMARK    2  A    between atoms: C4_9  and  C5_10 
REMARK    3  A    between atoms: C4_9  and  N4_14 
REMARK    4  A    between atoms: C5_10  and  C6_11 
REMARK    5  A    between atoms: C6_11  and  O1_12 
REMARK    6  A    between atoms: N6_18  and  C8_20 
REMARK    7  A    between atoms: C9_23  and  N8_24 
REMARK    8  A    between atoms: C12_36  and  C13_37 
REMARK    9  A    between atoms: C13_37  and  N12_38 
REMARK   10  A    between atoms: C13_37  and  C14_42 
REMARK   11  A    between atoms: C14_42  and  O2_43 
REMARK   12  A    between atoms: C14_42  and  C15_45 
REMARK   13  A    between atoms: C15_45  and  O3_46 
ROOT
HETATM    1  N4  UNL     1      12.257   8.308 -30.525  1.00  0.00    -0.262 N 
HETATM    2  N5  UNL     1      11.272   7.452 -30.744  1.00  0.00    -0.280 N 
ATOM      3  H5  UNL     1      11.105   6.618 -30.181  1.00  0.00     0.189 HD
HETATM    4  C7  UNL     1      10.530   7.808 -31.779  1.00  0.00     0.151 A 
HETATM    5  N6  UNL     1       9.492   7.247 -32.296  1.00  0.00    -0.173 N 
ATOM      6  H6  UNL     1       9.048   7.676 -33.108  1.00  0.00     0.186 HD
HETATM    7  C11 UNL     1      11.072   8.998 -32.286  1.00  0.00     0.080 A 
HETATM    8  C12 UNL     1      10.741   9.833 -33.332  1.00  0.00     0.061 A 
HETATM    9  N13 UNL     1      11.502  10.926 -33.531  1.00  0.00    -0.353 N 
ATOM     10  H13 UNL     1      11.275  11.559 -34.298  1.00  0.00     0.166 HD
HETATM   11  C16 UNL     1      12.549  11.200 -32.746  1.00  0.00     0.182 A 
HETATM   12  N14 UNL     1      12.863  10.385 -31.734  1.00  0.00    -0.337 N 
ATOM     13  H14 UNL     1      13.666  10.618 -31.150  1.00  0.00     0.168 HD
HETATM   14  C17 UNL     1      12.167   9.273 -31.454  1.00  0.00     0.140 A 
ENDROOT
BRANCH   5  15
HETATM   15  C8  UNL     1       8.950   6.048 -31.766  1.00  0.00     0.713 A 
HETATM   16  N7  UNL     1       9.532   5.316 -30.799  1.00  0.00    -0.021 N 
HETATM   17  C9  UNL     1       9.002   4.186 -30.308  1.00  0.00     0.705 A 
ATOM     18  H7  UNL     1      10.423   5.637 -30.420  1.00  0.00     0.203 HD
HETATM   19  N9  UNL     1       7.836   3.732 -30.778  1.00  0.00    -0.022 N 
HETATM   20  C10 UNL     1       7.216   4.428 -31.744  1.00  0.00     0.705 A 
ATOM     21  H9  UNL     1       7.426   2.874 -30.410  1.00  0.00     0.203 HD
HETATM   22  N10 UNL     1       6.089   3.980 -32.190  1.00  0.00    -0.234 N 
HETATM   23  N11 UNL     1       7.760   5.557 -32.225  1.00  0.00    -0.021 N 
ATOM     24 2H10 UNL     1       5.675   3.122 -31.824  1.00  0.00     0.174 HD
ATOM     25 1H10 UNL     1       5.617   4.509 -32.924  1.00  0.00     0.174 HD
ATOM     26  H11 UNL     1       7.269   6.067 -32.959  1.00  0.00     0.203 HD
BRANCH  17  27
HETATM   27  N8  UNL     1       9.611   3.506 -29.367  1.00  0.00    -0.234 N 
ATOM     28  H82 UNL     1      10.332   3.971 -28.816  1.00  0.00     0.174 HD
ATOM     29  H81 UNL     1       9.371   2.532 -29.183  1.00  0.00     0.174 HD
ENDBRANCH  17  27
ENDBRANCH   5  15
BRANCH   1  30
HETATM   30  C4  UNL     1      13.267   8.243 -29.477  1.00  0.00     0.181 C 
BRANCH  30  31
HETATM   31  C3  UNL     1      14.600   8.459 -30.061  1.00  0.00     0.124 A 
HETATM   32  N1  UNL     1      15.363   7.689 -30.847  1.00  0.00    -0.333 N 
HETATM   33  C1  UNL     1      15.028   6.362 -31.306  1.00  0.00     0.158 C 
HETATM   34  C2  UNL     1      16.497   8.343 -31.129  1.00  0.00     0.200 A 
HETATM   35  N2  UNL     1      16.440   9.535 -30.512  1.00  0.00    -0.295 N 
HETATM   36  N3  UNL     1      15.298   9.605 -29.869  1.00  0.00    -0.286 N 
ATOM     37  H2  UNL     1      17.158  10.259 -30.539  1.00  0.00     0.187 HD
ATOM     38  H3  UNL     1      14.984  10.399 -29.311  1.00  0.00     0.188 HD
ENDBRANCH  30  31
BRANCH  30  39
HETATM   39  C5  UNL     1      12.915   9.202 -28.370  1.00  0.00     0.061 C 
BRANCH  39  40
HETATM   40  C6  UNL     1      11.441   9.125 -28.035  1.00  0.00     0.166 C 
BRANCH  40  41
HETATM   41  O1  UNL     1      11.047   7.823 -27.781  1.00  0.00    -0.401 OA
ATOM     42  H1  UNL     1      10.230   7.615 -28.219  1.00  0.00     0.209 HD
ENDBRANCH  40  41
ENDBRANCH  39  40
ENDBRANCH  30  39
ENDBRANCH   1  30
BRANCH   8  43
HETATM   43  C13 UNL     1       9.595   9.495 -34.189  1.00  0.00     0.264 C 
BRANCH  43  44
HETATM   44  N12 UNL     1       9.845  10.019 -35.538  1.00  0.00    -0.067 N 
ATOM     45 3H12 UNL     1       9.111  10.653 -35.852  1.00  0.00     0.275 HD
ATOM     46 2H12 UNL     1      10.622  10.679 -35.562  1.00  0.00     0.275 HD
ATOM     47 1H12 UNL     1       9.981   9.232 -36.173  1.00  0.00     0.275 HD
ENDBRANCH  43  44
BRANCH  43  48
HETATM   48  C14 UNL     1       8.322  10.203 -33.757  1.00  0.00     0.178 C 
BRANCH  48  49
HETATM   49  O2  UNL     1       8.398  10.826 -32.544  1.00  0.00    -0.391 OA
ATOM     50  H2  UNL     1       8.504  10.241 -31.803  1.00  0.00     0.210 HD
ENDBRANCH  48  49
BRANCH  48  51
HETATM   51  C15 UNL     1       7.129   9.273 -33.758  1.00  0.00     0.198 C 
BRANCH  51  52
HETATM   52  O3  UNL     1       6.816   9.052 -32.395  1.00  0.00    -0.398 OA
ATOM     53  H3  UNL     1       6.233   8.302 -32.384  1.00  0.00     0.209 HD
ENDBRANCH  51  52
ENDBRANCH  48  51
ENDBRANCH  43  48
ENDBRANCH   8  43
TORSDOF 13
ENDMDL
MODEL 2
REMARK VINA RESULT: -8.143667190      0.507      1.698
REMARK  13 active torsions:
REMARK  status: ('A' for Active; 'I' for Inactive)
REMARK    1  A    between atoms: C3_8  and  C4_9 
REMARK    2  A    between atoms: C4_9  and  C5_10 
REMARK    3  A    between atoms: C4_9  and  N4_14 
REMARK    4  A    between atoms: C5_10  and  C6_11 
REMARK    5  A    between atoms: C6_11  and  O1_12 
REMARK    6  A    between atoms: N6_18  and  C8_20 
REMARK    7  A    between atoms: C9_23  and  N8_24 
REMARK    8  A    between atoms: C12_36  and  C13_37 
REMARK    9  A    between atoms: C13_37  and  N12_38 
REMARK   10  A    between atoms: C13_37  and  C14_42 
REMARK   11  A    between atoms: C14_42  and  O2_43 
REMARK   12  A    between atoms: C14_42  and  C15_45 
REMARK   13  A    between atoms: C15_45  and  O3_46 
ROOT
HETATM    1  N4  UNL     1      12.217   8.082 -30.685  1.00  0.00    -0.262 N 
HETATM    2  N5  UNL     1      11.192   7.268 -30.875  1.00  0.00    -0.280 N 
ATOM      3  H5  UNL     1      11.012   6.435 -30.316  1.00  0.00     0.189 HD
HETATM    4  C7  UNL     1      10.427   7.667 -31.878  1.00  0.00     0.151 A 
HETATM    5  N6  UNL     1       9.348   7.154 -32.361  1.00  0.00    -0.173 N 
ATOM      6  H6  UNL     1       8.892   7.611 -33.151  1.00  0.00     0.186 HD
HETATM    7  C11 UNL     1      10.996   8.841 -32.391  1.00  0.00     0.080 A 
HETATM    8  C12 UNL     1      10.660   9.702 -33.414  1.00  0.00     0.061 A 
HETATM    9  N13 UNL     1      11.456  10.766 -33.629  1.00  0.00    -0.353 N 
ATOM     10  H13 UNL     1      11.226  11.418 -34.380  1.00  0.00     0.166 HD
HETATM   11  C16 UNL     1      12.542  10.989 -32.880  1.00  0.00     0.182 A 
HETATM   12  N14 UNL     1      12.861  10.149 -31.891  1.00  0.00    -0.337 N 
ATOM     13  H14 UNL     1      13.693  10.342 -31.335  1.00  0.00     0.168 HD
HETATM   14  C17 UNL     1      12.131   9.061 -31.598  1.00  0.00     0.140 A 
ENDROOT
BRANCH   5  15
HETATM   15  C8  UNL     1       8.779   5.970 -31.825  1.00  0.00     0.713 A 
HETATM   16  N7  UNL     1       7.605   5.447 -32.222  1.00  0.00    -0.021 N 
HETATM   17  C9  UNL     1       7.085   4.325 -31.705  1.00  0.00     0.705 A 
ATOM     18  H7  UNL     1       7.084   5.929 -32.954  1.00  0.00     0.203 HD
HETATM   19  N9  UNL     1       7.736   3.663 -30.744  1.00  0.00    -0.022 N 
HETATM   20  C10 UNL     1       8.913   4.146 -30.313  1.00  0.00     0.705 A 
ATOM     21  H9  UNL     1       7.347   2.809 -30.345  1.00  0.00     0.203 HD
HETATM   22  N10 UNL     1       9.534   3.497 -29.384  1.00  0.00    -0.234 N 
HETATM   23  N11 UNL     1       9.420   5.272 -30.841  1.00  0.00    -0.021 N 
ATOM     24 2H10 UNL     1       9.149   2.642 -28.983  1.00  0.00     0.174 HD
ATOM     25 1H10 UNL     1      10.429   3.864 -29.057  1.00  0.00     0.174 HD
ATOM     26  H11 UNL     1      10.315   5.617 -30.497  1.00  0.00     0.203 HD
BRANCH  17  27
HETATM   27  N8  UNL     1       5.934   3.857 -32.124  1.00  0.00    -0.234 N 
ATOM     28  H82 UNL     1       5.205   4.517 -32.391  1.00  0.00     0.174 HD
ATOM     29  H81 UNL     1       5.766   2.852 -32.186  1.00  0.00     0.174 HD
ENDBRANCH  17  27
ENDBRANCH   5  15
BRANCH   1  30
HETATM   30  C4  UNL     1      13.262   7.963 -29.676  1.00  0.00     0.181 C 
BRANCH  30  31
HETATM   31  C3  UNL     1      14.579   7.932 -30.331  1.00  0.00     0.124 A 
HETATM   32  N1  UNL     1      15.639   8.745 -30.240  1.00  0.00    -0.333 N 
HETATM   33  C1  UNL     1      15.716   9.941 -29.435  1.00  0.00     0.158 C 
HETATM   34  C2  UNL     1      16.616   8.278 -31.028  1.00  0.00     0.200 A 
HETATM   35  N2  UNL     1      16.160   7.160 -31.617  1.00  0.00    -0.295 N 
HETATM   36  N3  UNL     1      14.934   6.952 -31.198  1.00  0.00    -0.286 N 
ATOM     37  H2  UNL     1      16.676   6.576 -32.275  1.00  0.00     0.187 HD
ATOM     38  H3  UNL     1      14.339   6.173 -31.480  1.00  0.00     0.188 HD
ENDBRANCH  30  31
BRANCH  30  39
HETATM   39  C5  UNL     1      13.108   9.055 -28.650  1.00  0.00     0.061 C 
BRANCH  39  40
HETATM   40  C6  UNL     1      11.670   9.167 -28.191  1.00  0.00     0.166 C 
BRANCH  40  41
HETATM   41  O1  UNL     1      11.146   7.929 -27.862  1.00  0.00    -0.401 OA
ATOM     42  H1  UNL     1      11.637   7.225 -28.269  1.00  0.00     0.209 HD
ENDBRANCH  40  41
ENDBRANCH  39  40
ENDBRANCH  30  39
ENDBRANCH   1  30
BRANCH   8  43
HETATM   43  C13 UNL     1       9.470   9.420 -34.231  1.00  0.00     0.264 C 
BRANCH  43  44
HETATM   44  N12 UNL     1       9.706   9.917 -35.592  1.00  0.00    -0.067 N 
ATOM     45 3H12 UNL     1       8.901   9.779 -36.203  1.00  0.00     0.275 HD
ATOM     46 2H12 UNL     1       9.743  10.935 -35.636  1.00  0.00     0.275 HD
ATOM     47 1H12 UNL     1      10.553   9.480 -35.957  1.00  0.00     0.275 HD
ENDBRANCH  43  44
BRANCH  43  48
HETATM   48  C14 UNL     1       8.253  10.203 -33.767  1.00  0.00     0.178 C 
BRANCH  48  49
HETATM   49  O2  UNL     1       8.386  10.794 -32.543  1.00  0.00    -0.391 OA
ATOM     50  H2  UNL     1       8.132  10.247 -31.809  1.00  0.00     0.210 HD
ENDBRANCH  48  49
BRANCH  48  51
HETATM   51  C15 UNL     1       7.001   9.355 -33.770  1.00  0.00     0.198 C 
BRANCH  51  52
HETATM   52  O3  UNL     1       6.754   9.034 -32.414  1.00  0.00    -0.398 OA
ATOM     53  H3  UNL     1       7.440   8.424 -32.166  1.00  0.00     0.209 HD
ENDBRANCH  51  52
ENDBRANCH  48  51
ENDBRANCH  43  48
ENDBRANCH   8  43
TORSDOF 13
ENDMDL
MODEL 3
REMARK VINA RESULT: -7.446051215      1.903      5.918
REMARK  13 active torsions:
REMARK  status: ('A' for Active; 'I' for Inactive)
REMARK    1  A    between atoms: C3_8  and  C4_9 
REMARK    2  A    between atoms: C4_9  and  C5_10 
REMARK    3  A    between atoms: C4_9  and  N4_14 
REMARK    4  A    between atoms: C5_10  and  C6_11 
REMARK    5  A    between atoms: C6_11  and  O1_12 
REMARK    6  A    between atoms: N6_18  and  C8_20 
REMARK    7  A    between atoms: C9_23  and  N8_24 
REMARK    8  A    between atoms: C12_36  and  C13_37 
REMARK    9  A    between atoms: C13_37  and  N12_38 
REMARK   10  A    between atoms: C13_37  and  C14_42 
REMARK   11  A    between atoms: C14_42  and  O2_43 
REMARK   12  A    between atoms: C14_42  and  C15_45 
REMARK   13  A    between atoms: C15_45  and  O3_46 
ROOT
HETATM    1  N4  UNL     1       9.741   9.478 -33.349  1.00  0.00    -0.262 N 
HETATM    2  N5  UNL     1       9.436   8.346 -32.736  1.00  0.00    -0.280 N 
ATOM      3  H5  UNL     1       8.587   7.810 -32.915  1.00  0.00     0.189 HD
HETATM    4  C7  UNL     1      10.365   7.993 -31.863  1.00  0.00     0.151 A 
HETATM    5  N6  UNL     1      10.435   6.967 -31.087  1.00  0.00    -0.173 N 
ATOM      6  H6  UNL     1      11.243   6.865 -30.472  1.00  0.00     0.186 HD
HETATM    7  C11 UNL     1      11.365   8.974 -31.904  1.00  0.00     0.080 A 
HETATM    8  C12 UNL     1      12.561   9.154 -31.241  1.00  0.00     0.061 A 
HETATM    9  N13 UNL     1      13.293  10.242 -31.545  1.00  0.00    -0.353 N 
ATOM     10  H13 UNL     1      14.182  10.393 -31.068  1.00  0.00     0.166 HD
HETATM   11  C16 UNL     1      12.881  11.128 -32.458  1.00  0.00     0.182 A 
HETATM   12  N14 UNL     1      11.721  10.947 -33.095  1.00  0.00    -0.337 N 
ATOM     13  H14 UNL     1      11.431  11.638 -33.787  1.00  0.00     0.168 HD
HETATM   14  C17 UNL     1      10.921   9.895 -32.863  1.00  0.00     0.140 A 
ENDROOT
BRANCH   5  15
HETATM   15  C8  UNL     1       9.419   5.977 -31.064  1.00  0.00     0.713 A 
HETATM   16  N7  UNL     1       8.469   5.845 -32.005  1.00  0.00    -0.021 N 
HETATM   17  C9  UNL     1       7.518   4.900 -31.968  1.00  0.00     0.705 A 
ATOM     18  H7  UNL     1       8.471   6.499 -32.790  1.00  0.00     0.203 HD
HETATM   19  N9  UNL     1       7.480   4.025 -30.959  1.00  0.00    -0.022 N 
HETATM   20  C10 UNL     1       8.408   4.116 -29.993  1.00  0.00     0.705 A 
ATOM     21  H9  UNL     1       6.761   3.304 -30.923  1.00  0.00     0.203 HD
HETATM   22  N10 UNL     1       8.363   3.264 -29.022  1.00  0.00    -0.234 N 
HETATM   23  N11 UNL     1       9.353   5.069 -30.045  1.00  0.00    -0.021 N 
ATOM     24 2H10 UNL     1       7.645   2.540 -28.982  1.00  0.00     0.174 HD
ATOM     25 1H10 UNL     1       9.068   3.333 -28.288  1.00  0.00     0.174 HD
ATOM     26  H11 UNL     1      10.047   5.116 -29.299  1.00  0.00     0.203 HD
BRANCH  17  27
HETATM   27  N8  UNL     1       6.611   4.815 -32.910  1.00  0.00    -0.234 N 
ATOM     28  H82 UNL     1       6.905   4.902 -33.883  1.00  0.00     0.174 HD
ATOM     29  H81 UNL     1       5.628   4.663 -32.683  1.00  0.00     0.174 HD
ENDBRANCH  17  27
ENDBRANCH   5  15
BRANCH   1  30
HETATM   30  C4  UNL     1       8.961  10.168 -34.368  1.00  0.00     0.181 C 
BRANCH  30  31
HETATM   31  C3  UNL     1       9.568   9.945 -35.690  1.00  0.00     0.124 A 
HETATM   32  N1  UNL     1       9.578  10.690 -36.802  1.00  0.00    -0.333 N 
HETATM   33  C1  UNL     1       8.920  11.963 -36.969  1.00  0.00     0.158 C 
HETATM   34  C2  UNL     1      10.289  10.056 -37.744  1.00  0.00     0.200 A 
HETATM   35  N2  UNL     1      10.726   8.902 -37.213  1.00  0.00    -0.295 N 
HETATM   36  N3  UNL     1      10.292   8.835 -35.976  1.00  0.00    -0.286 N 
ATOM     37  H2  UNL     1      11.296   8.202 -37.687  1.00  0.00     0.187 HD
ATOM     38  H3  UNL     1      10.472   8.067 -35.329  1.00  0.00     0.188 HD
ENDBRANCH  30  31
BRANCH  30  39
HETATM   39  C5  UNL     1       7.517   9.752 -34.273  1.00  0.00     0.061 C 
BRANCH  39  40
HETATM   40  C6  UNL     1       7.212   8.629 -35.241  1.00  0.00     0.166 C 
BRANCH  40  41
HETATM   41  O1  UNL     1       7.532   7.395 -34.700  1.00  0.00    -0.401 OA
ATOM     42  H1  UNL     1       8.388   7.408 -34.289  1.00  0.00     0.209 HD
ENDBRANCH  40  41
ENDBRANCH  39  40
ENDBRANCH  30  39
ENDBRANCH   1  30
BRANCH   8  43
HETATM   43  C13 UNL     1      12.978   8.170 -30.230  1.00  0.00     0.264 C 
BRANCH  43  44
HETATM   44  N12 UNL     1      13.027   8.834 -28.921  1.00  0.00    -0.067 N 
ATOM     45 3H12 UNL     1      12.117   9.193 -28.631  1.00  0.00     0.275 HD
ATOM     46 2H12 UNL     1      13.170   8.177 -28.155  1.00  0.00     0.275 HD
ATOM     47 1H12 UNL     1      13.742   9.561 -28.951  1.00  0.00     0.275 HD
ENDBRANCH  43  44
BRANCH  43  48
HETATM   48  C14 UNL     1      14.403   7.690 -30.444  1.00  0.00     0.178 C 
BRANCH  48  49
HETATM   49  O2  UNL     1      14.530   6.341 -30.622  1.00  0.00    -0.391 OA
ATOM     50  H2  UNL     1      13.848   5.821 -30.213  1.00  0.00     0.210 HD
ENDBRANCH  48  49
BRANCH  48  51
HETATM   51  C15 UNL     1      15.321   8.126 -29.325  1.00  0.00     0.198 C 
BRANCH  51  52
HETATM   52  O3  UNL     1      15.761   9.425 -29.676  1.00  0.00    -0.398 OA
ATOM     53  H3  UNL     1      16.437   9.298 -30.331  1.00  0.00     0.209 HD
ENDBRANCH  51  52
ENDBRANCH  48  51
ENDBRANCH  43  48
ENDBRANCH   8  43
TORSDOF 13
ENDMDL
MODEL 4
REMARK VINA RESULT: -7.400018827      1.914      5.784
REMARK  13 active torsions:
REMARK  status: ('A' for Active; 'I' for Inactive)
REMARK    1  A    between atoms: C3_8  and  C4_9 
REMARK    2  A    between atoms: C4_9  and  C5_10 
REMARK    3  A    between atoms: C4_9  and  N4_14 
REMARK    4  A    between atoms: C5_10  and  C6_11 
REMARK    5  A    between atoms: C6_11  and  O1_12 
REMARK    6  A    between atoms: N6_18  and  C8_20 
REMARK    7  A    between atoms: C9_23  and  N8_24 
REMARK    8  A    between atoms: C12_36  and  C13_37 
REMARK    9  A    between atoms: C13_37  and  N12_38 
REMARK   10  A    between atoms: C13_37  and  C14_42 
REMARK   11  A    between atoms: C14_42  and  O2_43 
REMARK   12  A    between atoms: C14_42  and  C15_45 
REMARK   13  A    between atoms: C15_45  and  O3_46 
ROOT
HETATM    1  N4  UNL     1       9.743   9.464 -33.315  1.00  0.00    -0.262 N 
HETATM    2  N5  UNL     1       9.450   8.334 -32.694  1.00  0.00    -0.280 N 
ATOM      3  H5  UNL     1       8.602   7.794 -32.861  1.00  0.00     0.189 HD
HETATM    4  C7  UNL     1      10.390   7.989 -31.829  1.00  0.00     0.151 A 
HETATM    5  N6  UNL     1      10.473   6.968 -31.048  1.00  0.00    -0.173 N 
ATOM      6  H6  UNL     1      11.288   6.872 -30.442  1.00  0.00     0.186 HD
HETATM    7  C11 UNL     1      11.385   8.975 -31.886  1.00  0.00     0.080 A 
HETATM    8  C12 UNL     1      12.588   9.163 -31.237  1.00  0.00     0.061 A 
HETATM    9  N13 UNL     1      13.312  10.252 -31.554  1.00  0.00    -0.353 N 
ATOM     10  H13 UNL     1      14.205  10.410 -31.088  1.00  0.00     0.166 HD
HETATM   11  C16 UNL     1      12.886  11.132 -32.467  1.00  0.00     0.182 A 
HETATM   12  N14 UNL     1      11.719  10.943 -33.091  1.00  0.00    -0.337 N 
ATOM     13  H14 UNL     1      11.418  11.629 -33.783  1.00  0.00     0.168 HD
HETATM   14  C17 UNL     1      10.926   9.889 -32.845  1.00  0.00     0.140 A 
ENDROOT
BRANCH   5  15
HETATM   15  C8  UNL     1       9.462   5.974 -31.009  1.00  0.00     0.713 A 
HETATM   16  N7  UNL     1       9.326   5.070 -30.023  1.00  0.00    -0.021 N 
HETATM   17  C9  UNL     1       8.361   4.140 -30.002  1.00  0.00     0.705 A 
ATOM     18  H7  UNL     1       9.993   5.093 -29.251  1.00  0.00     0.203 HD
HETATM   19  N9  UNL     1       7.468   4.075 -30.994  1.00  0.00    -0.022 N 
HETATM   20  C10 UNL     1       7.561   4.957 -32.003  1.00  0.00     0.705 A 
ATOM     21  H9  UNL     1       6.730   3.371 -30.986  1.00  0.00     0.203 HD
HETATM   22  N10 UNL     1       6.692   4.887 -32.957  1.00  0.00    -0.234 N 
HETATM   23  N11 UNL     1       8.534   5.882 -32.008  1.00  0.00    -0.021 N 
ATOM     24 2H10 UNL     1       5.953   4.184 -32.952  1.00  0.00     0.174 HD
ATOM     25 1H10 UNL     1       6.763   5.557 -33.722  1.00  0.00     0.174 HD
ATOM     26  H11 UNL     1       8.583   6.540 -32.786  1.00  0.00     0.203 HD
BRANCH  17  27
HETATM   27  N8  UNL     1       8.273   3.277 -29.019  1.00  0.00    -0.234 N 
ATOM     28  H82 UNL     1       8.195   3.629 -28.064  1.00  0.00     0.174 HD
ATOM     29  H81 UNL     1       8.279   2.272 -29.197  1.00  0.00     0.174 HD
ENDBRANCH  17  27
ENDBRANCH   5  15
BRANCH   1  30
HETATM   30  C4  UNL     1       8.949  10.146 -34.330  1.00  0.00     0.181 C 
BRANCH  30  31
HETATM   31  C3  UNL     1       9.550   9.930 -35.655  1.00  0.00     0.124 A 
HETATM   32  N1  UNL     1       9.543  10.674 -36.768  1.00  0.00    -0.333 N 
HETATM   33  C1  UNL     1       8.867  11.939 -36.931  1.00  0.00     0.158 C 
HETATM   34  C2  UNL     1      10.256  10.049 -37.715  1.00  0.00     0.200 A 
HETATM   35  N2  UNL     1      10.712   8.901 -37.185  1.00  0.00    -0.295 N 
HETATM   36  N3  UNL     1      10.287   8.830 -35.945  1.00  0.00    -0.286 N 
ATOM     37  H2  UNL     1      11.287   8.208 -37.663  1.00  0.00     0.187 HD
ATOM     38  H3  UNL     1      10.481   8.064 -35.299  1.00  0.00     0.188 HD
ENDBRANCH  30  31
BRANCH  30  39
HETATM   39  C5  UNL     1       7.510   9.714 -34.226  1.00  0.00     0.061 C 
BRANCH  39  40
HETATM   40  C6  UNL     1       7.205   8.605 -35.209  1.00  0.00     0.166 C 
BRANCH  40  41
HETATM   41  O1  UNL     1       7.570   7.368 -34.706  1.00  0.00    -0.401 OA
ATOM     42  H1  UNL     1       7.884   6.792 -35.394  1.00  0.00     0.209 HD
ENDBRANCH  40  41
ENDBRANCH  39  40
ENDBRANCH  30  39
ENDBRANCH   1  30
BRANCH   8  43
HETATM   43  C13 UNL     1      13.020   8.186 -30.226  1.00  0.00     0.264 C 
BRANCH  43  44
HETATM   44  N12 UNL     1      13.106   8.864 -28.926  1.00  0.00    -0.067 N 
ATOM     45 3H12 UNL     1      13.867   9.541 -28.888  1.00  0.00     0.275 HD
ATOM     46 2H12 UNL     1      12.333   9.511 -28.771  1.00  0.00     0.275 HD
ATOM     47 1H12 UNL     1      13.174   8.156 -28.194  1.00  0.00     0.275 HD
ENDBRANCH  43  44
BRANCH  43  48
HETATM   48  C14 UNL     1      14.435   7.691 -30.468  1.00  0.00     0.178 C 
BRANCH  48  49
HETATM   49  O2  UNL     1      14.547   6.338 -30.625  1.00  0.00    -0.391 OA
ATOM     50  H2  UNL     1      13.720   5.878 -30.702  1.00  0.00     0.210 HD
ENDBRANCH  48  49
BRANCH  48  51
HETATM   51  C15 UNL     1      15.386   8.140 -29.382  1.00  0.00     0.198 C 
BRANCH  51  52
HETATM   52  O3  UNL     1      15.828   9.427 -29.769  1.00  0.00    -0.398 OA
ATOM     53  H3  UNL     1      16.775   9.369 -29.818  1.00  0.00     0.209 HD
ENDBRANCH  51  52
ENDBRANCH  48  51
ENDBRANCH  43  48
ENDBRANCH   8  43
TORSDOF 13
ENDMDL
MODEL 5
REMARK VINA RESULT: -7.188114085      2.159      6.344
REMARK  13 active torsions:
REMARK  status: ('A' for Active; 'I' for Inactive)
REMARK    1  A    between atoms: C3_8  and  C4_9 
REMARK    2  A    between atoms: C4_9  and  C5_10 
REMARK    3  A    between atoms: C4_9  and  N4_14 
REMARK    4  A    between atoms: C5_10  and  C6_11 
REMARK    5  A    between atoms: C6_11  and  O1_12 
REMARK    6  A    between atoms: N6_18  and  C8_20 
REMARK    7  A    between atoms: C9_23  and  N8_24 
REMARK    8  A    between atoms: C12_36  and  C13_37 
REMARK    9  A    between atoms: C13_37  and  N12_38 
REMARK   10  A    between atoms: C13_37  and  C14_42 
REMARK   11  A    between atoms: C14_42  and  O2_43 
REMARK   12  A    between atoms: C14_42  and  C15_45 
REMARK   13  A    between atoms: C15_45  and  O3_46 
ROOT
HETATM    1  N4  UNL     1       7.983   9.379 -33.982  1.00  0.00    -0.262 N 
HETATM    2  N5  UNL     1       8.126   8.278 -33.262  1.00  0.00    -0.280 N 
ATOM      3  H5  UNL     1       7.421   7.544 -33.196  1.00  0.00     0.189 HD
HETATM    4  C7  UNL     1       9.292   8.245 -32.639  1.00  0.00     0.151 A 
HETATM    5  N6  UNL     1       9.799   7.351 -31.862  1.00  0.00    -0.173 N 
ATOM      6  H6  UNL     1      10.728   7.505 -31.469  1.00  0.00     0.186 HD
HETATM    7  C11 UNL     1       9.974   9.422 -32.977  1.00  0.00     0.080 A 
HETATM    8  C12 UNL     1      11.208   9.943 -32.648  1.00  0.00     0.061 A 
HETATM    9  N13 UNL     1      11.550  11.134 -33.176  1.00  0.00    -0.353 N 
ATOM     10  H13 UNL     1      12.459  11.538 -32.947  1.00  0.00     0.166 HD
HETATM   11  C16 UNL     1      10.725  11.799 -33.992  1.00  0.00     0.182 A 
HETATM   12  N14 UNL     1       9.531  11.287 -34.305  1.00  0.00    -0.337 N 
ATOM     13  H14 UNL     1       8.922  11.814 -34.930  1.00  0.00     0.168 HD
HETATM   14  C17 UNL     1       9.099  10.108 -33.831  1.00  0.00     0.140 A 
ENDROOT
BRANCH   5  15
HETATM   15  C8  UNL     1       9.099   6.160 -31.538  1.00  0.00     0.713 A 
HETATM   16  N7  UNL     1       7.971   5.755 -32.146  1.00  0.00    -0.021 N 
HETATM   17  C9  UNL     1       7.326   4.623 -31.827  1.00  0.00     0.705 A 
ATOM     18  H7  UNL     1       7.585   6.339 -32.888  1.00  0.00     0.203 HD
HETATM   19  N9  UNL     1       7.798   3.830 -30.861  1.00  0.00    -0.022 N 
HETATM   20  C10 UNL     1       8.923   4.192 -30.224  1.00  0.00     0.705 A 
ATOM     21  H9  UNL     1       7.314   2.968 -30.613  1.00  0.00     0.203 HD
HETATM   22  N10 UNL     1       9.371   3.417 -29.291  1.00  0.00    -0.234 N 
HETATM   23  N11 UNL     1       9.556   5.329 -30.555  1.00  0.00    -0.021 N 
ATOM     24 2H10 UNL     1       8.890   2.553 -29.040  1.00  0.00     0.174 HD
ATOM     25 1H10 UNL     1      10.226   3.691 -28.807  1.00  0.00     0.174 HD
ATOM     26  H11 UNL     1      10.409   5.581 -30.055  1.00  0.00     0.203 HD
BRANCH  17  27
HETATM   27  N8  UNL     1       6.226   4.273 -32.449  1.00  0.00    -0.234 N 
ATOM     28  H82 UNL     1       6.268   3.517 -33.131  1.00  0.00     0.174 HD
ATOM     29  H81 UNL     1       5.341   4.743 -32.257  1.00  0.00     0.174 HD
ENDBRANCH  17  27
ENDBRANCH   5  15
BRANCH   1  30
HETATM   30  C4  UNL     1       6.836   9.757 -34.799  1.00  0.00     0.181 C 
BRANCH  30  31
HETATM   31  C3  UNL     1       7.264   9.942 -36.194  1.00  0.00     0.124 A 
HETATM   32  N1  UNL     1       7.018  10.915 -37.080  1.00  0.00    -0.333 N 
HETATM   33  C1  UNL     1       6.190  12.075 -36.847  1.00  0.00     0.158 C 
HETATM   34  C2  UNL     1       7.654  10.634 -38.225  1.00  0.00     0.200 A 
HETATM   35  N2  UNL     1       8.304   9.471 -38.051  1.00  0.00    -0.295 N 
HETATM   36  N3  UNL     1       8.069   9.054 -36.828  1.00  0.00    -0.286 N 
ATOM     37  H2  UNL     1       8.879   8.996 -38.746  1.00  0.00     0.187 HD
ATOM     38  H3  UNL     1       8.436   8.196 -36.418  1.00  0.00     0.188 HD
ENDBRANCH  30  31
BRANCH  30  39
HETATM   39  C5  UNL     1       5.729   8.752 -34.619  1.00  0.00     0.061 C 
BRANCH  39  40
HETATM   40  C6  UNL     1       4.828   9.140 -33.467  1.00  0.00     0.166 C 
BRANCH  40  41
HETATM   41  O1  UNL     1       5.472   8.994 -32.250  1.00  0.00    -0.401 OA
ATOM     42  H1  UNL     1       5.858   8.130 -32.163  1.00  0.00     0.209 HD
ENDBRANCH  40  41
ENDBRANCH  39  40
ENDBRANCH  30  39
ENDBRANCH   1  30
BRANCH   8  43
HETATM   43  C13 UNL     1      12.085   9.196 -31.734  1.00  0.00     0.264 C 
BRANCH  43  44
HETATM   44  N12 UNL     1      12.445  10.070 -30.610  1.00  0.00    -0.067 N 
ATOM     45 3H12 UNL     1      13.011  10.867 -30.901  1.00  0.00     0.275 HD
ATOM     46 2H12 UNL     1      11.646  10.589 -30.247  1.00  0.00     0.275 HD
ATOM     47 1H12 UNL     1      12.902   9.506 -29.892  1.00  0.00     0.275 HD
ENDBRANCH  43  44
BRANCH  43  48
HETATM   48  C14 UNL     1      13.422   8.853 -32.367  1.00  0.00     0.178 C 
BRANCH  48  49
HETATM   49  O2  UNL     1      13.337   8.245 -33.588  1.00  0.00    -0.391 OA
ATOM     50  H2  UNL     1      12.721   7.524 -33.629  1.00  0.00     0.210 HD
ENDBRANCH  48  49
BRANCH  48  51
HETATM   51  C15 UNL     1      14.279   8.005 -31.454  1.00  0.00     0.198 C 
BRANCH  51  52
HETATM   52  O3  UNL     1      13.375   7.212 -30.709  1.00  0.00    -0.398 OA
ATOM     53  H3  UNL     1      13.126   6.498 -31.284  1.00  0.00     0.209 HD
ENDBRANCH  51  52
ENDBRANCH  48  51
ENDBRANCH  43  48
ENDBRANCH   8  43
TORSDOF 13
ENDMDL
