MODEL 1
REMARK VINA RESULT: -5.882158188      0.000      0.000
REMARK  0 active torsions:
REMARK  status: ('A' for Active; 'I' for Inactive)
ROOT
HETATM    1  C1  UNL     1      -4.629   5.056 -30.467  1.00  0.00     0.005 C 
HETATM    2  C2  UNL     1      -5.974   4.678 -31.094  1.00  0.00     0.005 C 
HETATM    3  C3  UNL     1      -6.961   5.204 -30.052  1.00  0.00    -0.014 C 
HETATM    4  C4  UNL     1      -6.739   4.405 -28.805  1.00  0.00     0.005 C 
HETATM    5  C5  UNL     1      -5.445   4.951 -28.179  1.00  0.00     0.005 C 
HETATM    6  C6  UNL     1      -4.950   5.881 -29.244  1.00  0.00    -0.014 C 
HETATM    7  C7  UNL     1      -6.276   6.518 -29.696  1.00  0.00     0.009 C 
ENDROOT
TORSDOF 0
ENDMDL
MODEL 2
REMARK VINA RESULT: -5.865902657      0.072      2.487
REMARK  0 active torsions:
REMARK  status: ('A' for Active; 'I' for Inactive)
ROOT
HETATM    1  C1  UNL     1      -6.743   4.395 -28.777  1.00  0.00     0.005 C 
HETATM    2  C2  UNL     1      -5.427   4.935 -28.211  1.00  0.00     0.005 C 
HETATM    3  C3  UNL     1      -4.968   5.870 -29.329  1.00  0.00    -0.014 C 
HETATM    4  C4  UNL     1      -4.694   5.013 -30.526  1.00  0.00     0.005 C 
HETATM    5  C5  UNL     1      -6.069   4.638 -31.100  1.00  0.00     0.005 C 
HETATM    6  C6  UNL     1      -7.001   5.163 -30.051  1.00  0.00    -0.014 C 
HETATM    7  C7  UNL     1      -6.308   6.492 -29.703  1.00  0.00     0.009 C 
ENDROOT
TORSDOF 0
ENDMDL
MODEL 3
REMARK VINA RESULT: -5.832038883      0.747      1.405
REMARK  0 active torsions:
REMARK  status: ('A' for Active; 'I' for Inactive)
ROOT
HETATM    1  C1  UNL     1      -4.567   5.281 -29.195  1.00  0.00     0.005 C 
HETATM    2  C2  UNL     1      -4.511   5.197 -30.723  1.00  0.00     0.005 C 
HETATM    3  C3  UNL     1      -5.965   5.477 -31.103  1.00  0.00    -0.014 C 
HETATM    4  C4  UNL     1      -6.780   4.344 -30.560  1.00  0.00     0.005 C 
HETATM    5  C5  UNL     1      -6.894   4.593 -29.048  1.00  0.00     0.005 C 
HETATM    6  C6  UNL     1      -5.960   5.748 -28.848  1.00  0.00    -0.014 C 
HETATM    7  C7  UNL     1      -6.278   6.582 -30.102  1.00  0.00     0.009 C 
ENDROOT
TORSDOF 0
ENDMDL
MODEL 4
REMARK VINA RESULT: -5.830438768      0.742      2.102
REMARK  0 active torsions:
REMARK  status: ('A' for Active; 'I' for Inactive)
ROOT
HETATM    1  C1  UNL     1      -6.769   4.324 -30.522  1.00  0.00     0.005 C 
HETATM    2  C2  UNL     1      -6.872   4.590 -29.017  1.00  0.00     0.005 C 
HETATM    3  C3  UNL     1      -5.926   5.778 -28.847  1.00  0.00    -0.014 C 
HETATM    4  C4  UNL     1      -4.551   5.290 -29.185  1.00  0.00     0.005 C 
HETATM    5  C5  UNL     1      -4.505   5.189 -30.718  1.00  0.00     0.005 C 
HETATM    6  C6  UNL     1      -5.933   5.445 -31.093  1.00  0.00    -0.014 C 
HETATM    7  C7  UNL     1      -6.284   6.568 -30.100  1.00  0.00     0.009 C 
ENDROOT
TORSDOF 0
ENDMDL
MODEL 5
REMARK VINA RESULT: -5.489166936      0.877      2.329
REMARK  0 active torsions:
REMARK  status: ('A' for Active; 'I' for Inactive)
ROOT
HETATM    1  C1  UNL     1      -6.183   6.819 -29.842  1.00  0.00     0.005 C 
HETATM    2  C2  UNL     1      -5.513   6.072 -28.685  1.00  0.00     0.005 C 
HETATM    3  C3  UNL     1      -5.243   4.705 -29.313  1.00  0.00    -0.014 C 
HETATM    4  C4  UNL     1      -6.577   4.094 -29.609  1.00  0.00     0.005 C 
HETATM    5  C5  UNL     1      -7.102   4.813 -30.861  1.00  0.00     0.005 C 
HETATM    6  C6  UNL     1      -6.095   5.907 -31.041  1.00  0.00    -0.014 C 
HETATM    7  C7  UNL     1      -4.799   5.149 -30.702  1.00  0.00     0.009 C 
ENDROOT
TORSDOF 0
ENDMDL
