MODEL 1
REMARK VINA RESULT: -6.155110817      0.000      0.000
REMARK  0 active torsions:
REMARK  status: ('A' for Active; 'I' for Inactive)
ROOT
HETATM    1  C1  UNL     1      -7.283   4.329 -29.242  1.00  0.00     0.001 C 
HETATM    2  C2  UNL     1      -6.823   4.206 -30.675  1.00  0.00     0.010 C 
HETATM    3  C3  UNL     1      -5.882   5.383 -30.864  1.00  0.00    -0.031 A 
HETATM    4  C4  UNL     1      -4.389   5.137 -30.556  1.00  0.00     0.020 A 
HETATM    5  C5  UNL     1      -5.400   5.703 -29.507  1.00  0.00    -0.031 A 
HETATM    6  C6  UNL     1      -5.987   4.695 -28.543  1.00  0.00     0.010 C 
HETATM    7  C7  UNL     1      -6.305   6.711 -30.166  1.00  0.00     0.020 A 
ENDROOT
TORSDOF 0
ENDMDL
MODEL 2
REMARK VINA RESULT: -6.031408411      0.624      2.124
REMARK  0 active torsions:
REMARK  status: ('A' for Active; 'I' for Inactive)
ROOT
HETATM    1  C1  UNL     1      -7.002   3.735 -30.785  1.00  0.00     0.001 C 
HETATM    2  C2  UNL     1      -6.774   4.255 -29.386  1.00  0.00     0.010 C 
HETATM    3  C3  UNL     1      -5.748   5.360 -29.564  1.00  0.00    -0.031 A 
HETATM    4  C4  UNL     1      -6.294   6.784 -29.808  1.00  0.00     0.020 A 
HETATM    5  C5  UNL     1      -5.910   5.804 -30.962  1.00  0.00    -0.031 A 
HETATM    6  C6  UNL     1      -7.052   5.027 -31.579  1.00  0.00     0.010 C 
HETATM    7  C7  UNL     1      -4.630   5.087 -30.616  1.00  0.00     0.020 A 
ENDROOT
TORSDOF 0
ENDMDL
MODEL 3
REMARK VINA RESULT: -5.852413354      0.730      1.945
REMARK  0 active torsions:
REMARK  status: ('A' for Active; 'I' for Inactive)
ROOT
HETATM    1  C1  UNL     1      -4.927   5.508 -28.607  1.00  0.00     0.001 C 
HETATM    2  C2  UNL     1      -6.298   4.877 -28.649  1.00  0.00     0.010 C 
HETATM    3  C3  UNL     1      -6.827   5.233 -30.027  1.00  0.00    -0.031 A 
HETATM    4  C4  UNL     1      -6.532   4.231 -31.166  1.00  0.00     0.020 A 
HETATM    5  C5  UNL     1      -5.622   5.460 -30.847  1.00  0.00    -0.031 A 
HETATM    6  C6  UNL     1      -4.405   5.180 -29.992  1.00  0.00     0.010 C 
HETATM    7  C7  UNL     1      -6.478   6.662 -30.542  1.00  0.00     0.020 A 
ENDROOT
TORSDOF 0
ENDMDL
MODEL 4
REMARK VINA RESULT: -5.744784437      0.907      2.423
REMARK  0 active torsions:
REMARK  status: ('A' for Active; 'I' for Inactive)
ROOT
HETATM    1  C1  UNL     1      -5.119   5.769 -29.592  1.00  0.00     0.001 C 
HETATM    2  C2  UNL     1      -4.945   4.871 -30.794  1.00  0.00     0.010 C 
HETATM    3  C3  UNL     1      -6.305   4.219 -30.969  1.00  0.00    -0.031 A 
HETATM    4  C4  UNL     1      -7.313   4.946 -31.886  1.00  0.00     0.020 A 
HETATM    5  C5  UNL     1      -7.256   5.154 -30.339  1.00  0.00    -0.031 A 
HETATM    6  C6  UNL     1      -6.486   6.366 -29.861  1.00  0.00     0.010 C 
HETATM    7  C7  UNL     1      -7.046   3.829 -29.655  1.00  0.00     0.020 A 
ENDROOT
TORSDOF 0
ENDMDL
MODEL 5
REMARK VINA RESULT: -5.630435389      0.789      2.238
REMARK  0 active torsions:
REMARK  status: ('A' for Active; 'I' for Inactive)
ROOT
HETATM    1  C1  UNL     1      -5.733   4.272 -27.868  1.00  0.00     0.001 C 
HETATM    2  C2  UNL     1      -5.223   5.694 -27.864  1.00  0.00     0.010 C 
HETATM    3  C3  UNL     1      -5.142   6.062 -29.334  1.00  0.00    -0.031 A 
HETATM    4  C4  UNL     1      -6.398   6.707 -29.962  1.00  0.00     0.020 A 
HETATM    5  C5  UNL     1      -6.112   5.172 -30.001  1.00  0.00    -0.031 A 
HETATM    6  C6  UNL     1      -6.802   4.342 -28.941  1.00  0.00     0.010 C 
HETATM    7  C7  UNL     1      -4.653   4.933 -30.292  1.00  0.00     0.020 A 
ENDROOT
TORSDOF 0
ENDMDL
