MODEL 1
REMARK VINA RESULT: -6.357341790      0.000      0.000
REMARK  0 active torsions:
REMARK  status: ('A' for Active; 'I' for Inactive)
ROOT
HETATM    1  C1  UNL     1      -6.376   3.851 -27.858  1.00  0.00     0.001 C 
HETATM    2  C2  UNL     1      -5.701   4.958 -27.037  1.00  0.00     0.001 C 
HETATM    3  C3  UNL     1      -5.199   5.900 -28.120  1.00  0.00     0.009 C 
HETATM    4  C4  UNL     1      -5.942   5.551 -29.364  1.00  0.00    -0.040 A 
HETATM    5  C5  UNL     1      -7.109   4.737 -28.878  1.00  0.00     0.009 C 
HETATM    6  C6  UNL     1      -5.234   4.978 -30.557  1.00  0.00     0.010 A 
HETATM    7  C7  UNL     1      -5.925   6.315 -30.585  1.00  0.00     0.010 A 
ENDROOT
TORSDOF 0
ENDMDL
MODEL 2
REMARK VINA RESULT: -6.316030648      1.551      1.966
REMARK  0 active torsions:
REMARK  status: ('A' for Active; 'I' for Inactive)
ROOT
HETATM    1  C1  UNL     1      -6.195   4.671 -28.481  1.00  0.00     0.001 C 
HETATM    2  C2  UNL     1      -5.327   5.813 -29.025  1.00  0.00     0.001 C 
HETATM    3  C3  UNL     1      -5.584   5.727 -30.521  1.00  0.00     0.009 C 
HETATM    4  C4  UNL     1      -6.821   4.914 -30.693  1.00  0.00    -0.040 A 
HETATM    5  C5  UNL     1      -7.453   4.916 -29.329  1.00  0.00     0.009 C 
HETATM    6  C6  UNL     1      -6.783   3.572 -31.363  1.00  0.00     0.010 A 
HETATM    7  C7  UNL     1      -7.539   4.743 -31.930  1.00  0.00     0.010 A 
ENDROOT
TORSDOF 0
ENDMDL
MODEL 3
REMARK VINA RESULT: -6.077685133      0.961      2.966
REMARK  0 active torsions:
REMARK  status: ('A' for Active; 'I' for Inactive)
ROOT
HETATM    1  C1  UNL     1      -5.551   4.875 -31.093  1.00  0.00     0.001 C 
HETATM    2  C2  UNL     1      -6.222   6.255 -31.127  1.00  0.00     0.001 C 
HETATM    3  C3  UNL     1      -6.268   6.625 -29.652  1.00  0.00     0.009 C 
HETATM    4  C4  UNL     1      -5.300   5.728 -28.959  1.00  0.00    -0.040 A 
HETATM    5  C5  UNL     1      -4.447   5.182 -30.070  1.00  0.00     0.009 C 
HETATM    6  C6  UNL     1      -5.763   4.704 -27.965  1.00  0.00     0.010 A 
HETATM    7  C7  UNL     1      -4.878   5.861 -27.588  1.00  0.00     0.010 A 
ENDROOT
TORSDOF 0
ENDMDL
MODEL 4
REMARK VINA RESULT: -6.040714084      1.357      2.719
REMARK  0 active torsions:
REMARK  status: ('A' for Active; 'I' for Inactive)
ROOT
HETATM    1  C1  UNL     1      -6.884   4.304 -31.704  1.00  0.00     0.001 C 
HETATM    2  C2  UNL     1      -7.668   3.614 -30.580  1.00  0.00     0.001 C 
HETATM    3  C3  UNL     1      -6.927   4.082 -29.337  1.00  0.00     0.009 C 
HETATM    4  C4  UNL     1      -6.119   5.266 -29.746  1.00  0.00    -0.040 A 
HETATM    5  C5  UNL     1      -6.724   5.688 -31.056  1.00  0.00     0.009 C 
HETATM    6  C6  UNL     1      -4.620   5.227 -29.733  1.00  0.00     0.010 A 
HETATM    7  C7  UNL     1      -5.416   6.144 -28.845  1.00  0.00     0.010 A 
ENDROOT
TORSDOF 0
ENDMDL
MODEL 5
REMARK VINA RESULT: -6.034217745      0.643      1.782
REMARK  0 active torsions:
REMARK  status: ('A' for Active; 'I' for Inactive)
ROOT
HETATM    1  C1  UNL     1      -5.946   5.071 -26.971  1.00  0.00     0.001 C 
HETATM    2  C2  UNL     1      -6.692   3.839 -27.500  1.00  0.00     0.001 C 
HETATM    3  C3  UNL     1      -6.733   4.107 -28.997  1.00  0.00     0.009 C 
HETATM    4  C4  UNL     1      -5.706   5.152 -29.269  1.00  0.00    -0.040 A 
HETATM    5  C5  UNL     1      -4.843   5.147 -28.038  1.00  0.00     0.009 C 
HETATM    6  C6  UNL     1      -6.095   6.518 -29.754  1.00  0.00     0.010 A 
HETATM    7  C7  UNL     1      -5.269   5.568 -30.577  1.00  0.00     0.010 A 
ENDROOT
TORSDOF 0
ENDMDL
