MODEL 1
REMARK VINA RESULT: -4.558258775      0.000      0.000
REMARK  0 active torsions:
REMARK  status: ('A' for Active; 'I' for Inactive)
ROOT
HETATM    1  C1  UNL     1      -5.422   5.140 -28.153  1.00  0.00     0.036 C 
HETATM    2  C2  UNL     1      -6.611   4.411 -28.766  1.00  0.00     0.273 C 
HETATM    3  N1  UNL     1      -7.008   5.195 -29.935  1.00  0.00     0.088 N 
HETATM    4  C3  UNL     1      -6.164   4.697 -31.034  1.00  0.00     0.273 C 
HETATM    5  C4  UNL     1      -4.753   4.939 -30.479  1.00  0.00     0.036 C 
HETATM    6  C5  UNL     1      -4.960   5.915 -29.382  1.00  0.00     0.017 C 
HETATM    7  C6  UNL     1      -6.336   6.497 -29.751  1.00  0.00     0.277 C 
ENDROOT
TORSDOF 0
ENDMDL
MODEL 2
REMARK VINA RESULT: -4.544001298      1.034      2.304
REMARK  0 active torsions:
REMARK  status: ('A' for Active; 'I' for Inactive)
ROOT
HETATM    1  C1  UNL     1      -7.015   4.770 -30.909  1.00  0.00     0.036 C 
HETATM    2  C2  UNL     1      -6.632   4.224 -29.541  1.00  0.00     0.273 C 
HETATM    3  N1  UNL     1      -5.268   4.685 -29.287  1.00  0.00     0.088 N 
HETATM    4  C3  UNL     1      -5.421   6.021 -28.686  1.00  0.00     0.273 C 
HETATM    5  C4  UNL     1      -6.217   6.761 -29.770  1.00  0.00     0.036 C 
HETATM    6  C5  UNL     1      -6.030   5.932 -30.985  1.00  0.00     0.017 C 
HETATM    7  C6  UNL     1      -4.776   5.124 -30.609  1.00  0.00     0.277 C 
ENDROOT
TORSDOF 0
ENDMDL
MODEL 3
REMARK VINA RESULT: -4.429310489      1.042      1.700
REMARK  0 active torsions:
REMARK  status: ('A' for Active; 'I' for Inactive)
ROOT
HETATM    1  C1  UNL     1      -7.227   4.883 -29.472  1.00  0.00     0.036 C 
HETATM    2  C2  UNL     1      -6.569   4.098 -30.599  1.00  0.00     0.273 C 
HETATM    3  N1  UNL     1      -5.755   5.060 -31.341  1.00  0.00     0.088 N 
HETATM    4  C3  UNL     1      -4.461   5.090 -30.637  1.00  0.00     0.273 C 
HETATM    5  C4  UNL     1      -4.888   5.488 -29.217  1.00  0.00     0.036 C 
HETATM    6  C5  UNL     1      -6.249   6.051 -29.394  1.00  0.00     0.017 C 
HETATM    7  C6  UNL     1      -6.247   6.380 -30.897  1.00  0.00     0.277 C 
ENDROOT
TORSDOF 0
ENDMDL
MODEL 4
REMARK VINA RESULT: -4.426615359      0.879      1.881
REMARK  0 active torsions:
REMARK  status: ('A' for Active; 'I' for Inactive)
ROOT
HETATM    1  C1  UNL     1      -4.469   5.210 -30.544  1.00  0.00     0.036 C 
HETATM    2  C2  UNL     1      -4.898   5.115 -29.086  1.00  0.00     0.273 C 
HETATM    3  N1  UNL     1      -6.209   5.756 -29.006  1.00  0.00     0.088 N 
HETATM    4  C3  UNL     1      -7.175   4.692 -29.337  1.00  0.00     0.273 C 
HETATM    5  C4  UNL     1      -6.695   4.257 -30.728  1.00  0.00     0.036 C 
HETATM    6  C5  UNL     1      -5.842   5.381 -31.184  1.00  0.00     0.017 C 
HETATM    7  C6  UNL     1      -6.325   6.518 -30.267  1.00  0.00     0.277 C 
ENDROOT
TORSDOF 0
ENDMDL
MODEL 5
REMARK VINA RESULT: -4.357813989      1.001      2.434
REMARK  0 active torsions:
REMARK  status: ('A' for Active; 'I' for Inactive)
ROOT
HETATM    1  C1  UNL     1      -6.088   4.677 -31.105  1.00  0.00     0.036 C 
HETATM    2  C2  UNL     1      -4.736   4.972 -30.467  1.00  0.00     0.273 C 
HETATM    3  N1  UNL     1      -4.984   5.986 -29.443  1.00  0.00     0.088 N 
HETATM    4  C3  UNL     1      -5.362   5.227 -28.238  1.00  0.00     0.273 C 
HETATM    5  C4  UNL     1      -6.575   4.432 -28.738  1.00  0.00     0.036 C 
HETATM    6  C5  UNL     1      -6.992   5.144 -29.970  1.00  0.00     0.017 C 
HETATM    7  C6  UNL     1      -6.325   6.516 -29.765  1.00  0.00     0.277 C 
ENDROOT
TORSDOF 0
ENDMDL
