MODEL 1
REMARK VINA RESULT: -6.075098922      0.000      0.000
REMARK  1 active torsions:
REMARK  status: ('A' for Active; 'I' for Inactive)
REMARK    1  A    between atoms: O1_1  and  C1_3 
ROOT
HETATM    1  C1  UNL     1      -6.653   4.249 -28.362  1.00  0.00     0.118 C 
HETATM    2  C2  UNL     1      -7.619   4.543 -29.473  1.00  0.00     0.032 C 
HETATM    3  C3  UNL     1      -6.793   4.790 -30.713  1.00  0.00     0.002 C 
HETATM    4  C4  UNL     1      -5.887   5.979 -30.404  1.00  0.00     0.000 C 
HETATM    5  C5  UNL     1      -4.852   5.462 -29.412  1.00  0.00     0.002 C 
HETATM    6  C6  UNL     1      -5.608   5.282 -28.091  1.00  0.00     0.032 C 
ENDROOT
BRANCH   1   7
HETATM    7  O1  UNL     1      -6.752   3.084 -27.652  1.00  0.00    -0.396 OA
ATOM      8  H1  UNL     1      -6.084   2.414 -27.735  1.00  0.00     0.210 HD
ENDBRANCH   1   7
TORSDOF 1
ENDMDL
MODEL 2
REMARK VINA RESULT: -5.944667157      1.158      1.956
REMARK  1 active torsions:
REMARK  status: ('A' for Active; 'I' for Inactive)
REMARK    1  A    between atoms: O1_1  and  C1_3 
ROOT
HETATM    1  C1  UNL     1      -7.057   4.191 -28.999  1.00  0.00     0.118 C 
HETATM    2  C2  UNL     1      -6.638   5.405 -29.775  1.00  0.00     0.032 C 
HETATM    3  C3  UNL     1      -5.167   5.612 -29.498  1.00  0.00     0.002 C 
HETATM    4  C4  UNL     1      -5.031   5.812 -27.991  1.00  0.00     0.000 C 
HETATM    5  C5  UNL     1      -5.300   4.448 -27.367  1.00  0.00     0.002 C 
HETATM    6  C6  UNL     1      -6.807   4.216 -27.526  1.00  0.00     0.032 C 
ENDROOT
BRANCH   1   7
HETATM    7  O1  UNL     1      -7.639   3.130 -29.638  1.00  0.00    -0.396 OA
ATOM      8  H1  UNL     1      -8.387   2.689 -29.253  1.00  0.00     0.210 HD
ENDBRANCH   1   7
TORSDOF 1
ENDMDL
MODEL 3
REMARK VINA RESULT: -5.879490294      1.059      1.376
REMARK  1 active torsions:
REMARK  status: ('A' for Active; 'I' for Inactive)
REMARK    1  A    between atoms: O1_1  and  C1_3 
ROOT
HETATM    1  C1  UNL     1      -5.671   4.650 -27.889  1.00  0.00     0.118 C 
HETATM    2  C2  UNL     1      -7.059   4.161 -28.178  1.00  0.00     0.032 C 
HETATM    3  C3  UNL     1      -7.129   3.905 -29.666  1.00  0.00     0.002 C 
HETATM    4  C4  UNL     1      -6.831   5.235 -30.351  1.00  0.00     0.000 C 
HETATM    5  C5  UNL     1      -5.345   5.492 -30.126  1.00  0.00     0.002 C 
HETATM    6  C6  UNL     1      -5.214   5.857 -28.643  1.00  0.00     0.032 C 
ENDROOT
BRANCH   1   7
HETATM    7  O1  UNL     1      -4.887   4.003 -26.973  1.00  0.00    -0.396 OA
ATOM      8  H1  UNL     1      -4.331   4.498 -26.382  1.00  0.00     0.210 HD
ENDBRANCH   1   7
TORSDOF 1
ENDMDL
MODEL 4
REMARK VINA RESULT: -5.800839273      0.904      2.068
REMARK  1 active torsions:
REMARK  status: ('A' for Active; 'I' for Inactive)
REMARK    1  A    between atoms: O1_1  and  C1_3 
ROOT
HETATM    1  C1  UNL     1      -6.462   4.263 -27.877  1.00  0.00     0.118 C 
HETATM    2  C2  UNL     1      -5.196   5.003 -28.193  1.00  0.00     0.032 C 
HETATM    3  C3  UNL     1      -5.551   6.055 -29.218  1.00  0.00     0.002 C 
HETATM    4  C4  UNL     1      -6.105   5.313 -30.430  1.00  0.00     0.000 C 
HETATM    5  C5  UNL     1      -7.471   4.788 -30.005  1.00  0.00     0.002 C 
HETATM    6  C6  UNL     1      -7.181   3.640 -29.030  1.00  0.00     0.032 C 
ENDROOT
BRANCH   1   7
HETATM    7  O1  UNL     1      -6.910   4.179 -26.587  1.00  0.00    -0.396 OA
ATOM      8  H1  UNL     1      -6.403   4.556 -25.878  1.00  0.00     0.210 HD
ENDBRANCH   1   7
TORSDOF 1
ENDMDL
MODEL 5
REMARK VINA RESULT: -5.769849113      1.946      3.126
REMARK  1 active torsions:
REMARK  status: ('A' for Active; 'I' for Inactive)
REMARK    1  A    between atoms: O1_1  and  C1_3 
ROOT
HETATM    1  C1  UNL     1      -5.182   5.275 -30.349  1.00  0.00     0.118 C 
HETATM    2  C2  UNL     1      -5.422   5.743 -28.944  1.00  0.00     0.032 C 
HETATM    3  C3  UNL     1      -6.199   4.650 -28.248  1.00  0.00     0.002 C 
HETATM    4  C4  UNL     1      -7.498   4.474 -29.028  1.00  0.00     0.000 C 
HETATM    5  C5  UNL     1      -7.103   3.816 -30.345  1.00  0.00     0.002 C 
HETATM    6  C6  UNL     1      -6.390   4.909 -31.150  1.00  0.00     0.032 C 
ENDROOT
BRANCH   1   7
HETATM    7  O1  UNL     1      -3.909   5.199 -30.844  1.00  0.00    -0.396 OA
ATOM      8  H1  UNL     1      -3.588   4.388 -31.221  1.00  0.00     0.210 HD
ENDBRANCH   1   7
TORSDOF 1
ENDMDL
