MODEL 1
REMARK VINA RESULT: -8.197166369      0.000      0.000
REMARK  3 active torsions:
REMARK  status: ('A' for Active; 'I' for Inactive)
REMARK    1  A    between atoms: C2_2  and  C3_3 
REMARK    2  A    between atoms: C6_6  and  C7_7 
REMARK    3  A    between atoms: C11_12  and  O1_13 
ROOT
HETATM    1  C7  UNL     1     -16.719   7.229  -8.629  1.00  0.00    -0.001 C 
HETATM    2  C8  UNL     1     -16.031   8.335  -8.034  1.00  0.00     0.025 A 
HETATM    3  C9  UNL     1     -14.645   8.525  -8.006  1.00  0.00     0.027 A 
HETATM    4 BR1  UNL     1     -13.502   7.239  -8.791  1.00  0.00    -0.050 Br
HETATM    5  C10 UNL     1     -14.095   9.655  -7.432  1.00  0.00     0.056 A 
HETATM    6  C11 UNL     1     -14.850  10.643  -6.866  1.00  0.00     0.072 A 
HETATM    7  C13 UNL     1     -16.206  10.471  -6.887  1.00  0.00     0.075 A 
HETATM    8  C14 UNL     1     -16.828   9.343  -7.454  1.00  0.00     0.092 A 
HETATM    9  O2  UNL     1     -18.216   9.301  -7.400  1.00  0.00    -0.296 OA
HETATM   10  C15 UNL     1     -18.827   8.172  -7.959  1.00  0.00     0.140 C 
HETATM   11  N1  UNL     1     -19.976   8.149  -8.507  1.00  0.00    -0.382 N 
ATOM     12  H11 UNL     1     -20.421   7.327  -8.914  1.00  0.00     0.158 HD
ATOM     13  H12 UNL     1     -20.511   9.017  -8.554  1.00  0.00     0.158 HD
HETATM   14  C16 UNL     1     -18.037   6.891  -7.889  1.00  0.00     0.202 C 
HETATM   15  C17 UNL     1     -18.726   5.920  -8.727  1.00  0.00     0.077 C 
HETATM   16  N2  UNL     1     -19.264   5.139  -9.389  1.00  0.00    -0.196 NA
ENDROOT
BRANCH   1  17
HETATM   17  C6  UNL     1     -16.103   5.984  -9.033  1.00  0.00     0.014 A 
HETATM   18  C5  UNL     1     -15.780   4.890  -8.250  1.00  0.00     0.020 A 
HETATM   19  C4  UNL     1     -15.303   3.818  -8.863  1.00  0.00     0.016 A 
HETATM   20  C3  UNL     1     -15.158   3.855 -10.223  1.00  0.00    -0.017 A 
HETATM   21  S1  UNL     1     -15.708   5.426 -10.593  1.00  0.00    -0.094 SA
BRANCH  20  22
HETATM   22  C2  UNL     1     -14.641   2.768 -11.131  1.00  0.00     0.041 C 
HETATM   23  C1  UNL     1     -13.834   3.425 -12.208  1.00  0.00     0.010 C 
ENDBRANCH  20  22
ENDBRANCH   1  17
BRANCH   6  24
HETATM   24  O1  UNL     1     -14.294  11.756  -6.303  1.00  0.00    -0.356 OA
HETATM   25  C12 UNL     1     -13.182  12.448  -6.777  1.00  0.00     0.210 C 
ENDBRANCH   6  24
TORSDOF 3
ENDMDL
MODEL 2
REMARK VINA RESULT: -7.902552449      3.011      4.240
REMARK  3 active torsions:
REMARK  status: ('A' for Active; 'I' for Inactive)
REMARK    1  A    between atoms: C2_2  and  C3_3 
REMARK    2  A    between atoms: C6_6  and  C7_7 
REMARK    3  A    between atoms: C11_12  and  O1_13 
ROOT
HETATM    1  C7  UNL     1     -16.635   8.090  -7.960  1.00  0.00    -0.001 C 
HETATM    2  C8  UNL     1     -17.419   8.852  -8.885  1.00  0.00     0.025 A 
HETATM    3  C9  UNL     1     -18.187   8.336  -9.936  1.00  0.00     0.027 A 
HETATM    4 BR1  UNL     1     -18.234   6.470 -10.240  1.00  0.00    -0.050 Br
HETATM    5  C10 UNL     1     -18.934   9.170 -10.744  1.00  0.00     0.056 A 
HETATM    6  C11 UNL     1     -18.976  10.526 -10.577  1.00  0.00     0.072 A 
HETATM    7  C13 UNL     1     -18.231  11.043  -9.554  1.00  0.00     0.075 A 
HETATM    8  C14 UNL     1     -17.448  10.249  -8.697  1.00  0.00     0.092 A 
HETATM    9  O2  UNL     1     -16.739  10.912  -7.702  1.00  0.00    -0.296 OA
HETATM   10  C15 UNL     1     -15.956  10.116  -6.859  1.00  0.00     0.140 C 
HETATM   11  N1  UNL     1     -15.695  10.368  -5.638  1.00  0.00    -0.382 N 
ATOM     12  H11 UNL     1     -15.124   9.788  -5.023  1.00  0.00     0.158 HD
ATOM     13  H12 UNL     1     -16.080  11.216  -5.222  1.00  0.00     0.158 HD
HETATM   14  C16 UNL     1     -15.386   8.865  -7.473  1.00  0.00     0.202 C 
HETATM   15  C17 UNL     1     -14.826   8.073  -6.387  1.00  0.00     0.077 C 
HETATM   16  N2  UNL     1     -14.377   7.436  -5.533  1.00  0.00    -0.196 NA
ENDROOT
BRANCH   1  17
HETATM   17  C6  UNL     1     -16.262   6.702  -8.130  1.00  0.00     0.014 A 
HETATM   18  C5  UNL     1     -16.822   5.584  -7.539  1.00  0.00     0.020 A 
HETATM   19  C4  UNL     1     -16.370   4.399  -7.921  1.00  0.00     0.016 A 
HETATM   20  C3  UNL     1     -15.384   4.352  -8.868  1.00  0.00    -0.017 A 
HETATM   21  S1  UNL     1     -15.126   6.007  -9.191  1.00  0.00    -0.094 SA
BRANCH  20  22
HETATM   22  C2  UNL     1     -14.718   3.133  -9.456  1.00  0.00     0.041 C 
HETATM   23  C1  UNL     1     -14.457   3.416 -10.903  1.00  0.00     0.010 C 
ENDBRANCH  20  22
ENDBRANCH   1  17
BRANCH   6  24
HETATM   24  O1  UNL     1     -19.720  11.339 -11.383  1.00  0.00    -0.356 OA
HETATM   25  C12 UNL     1     -20.357  10.965 -12.564  1.00  0.00     0.210 C 
ENDBRANCH   6  24
TORSDOF 3
ENDMDL
MODEL 3
REMARK VINA RESULT: -7.694768289      3.408      5.359
REMARK  3 active torsions:
REMARK  status: ('A' for Active; 'I' for Inactive)
REMARK    1  A    between atoms: C2_2  and  C3_3 
REMARK    2  A    between atoms: C6_6  and  C7_7 
REMARK    3  A    between atoms: C11_12  and  O1_13 
ROOT
HETATM    1  C7  UNL     1     -15.157   6.286  -9.418  1.00  0.00    -0.001 C 
HETATM    2  C8  UNL     1     -14.000   7.000  -9.870  1.00  0.00     0.025 A 
HETATM    3  C9  UNL     1     -13.693   8.336  -9.588  1.00  0.00     0.027 A 
HETATM    4 BR1  UNL     1     -14.872   9.370  -8.530  1.00  0.00    -0.050 Br
HETATM    5  C10 UNL     1     -12.525   8.908 -10.052  1.00  0.00     0.056 A 
HETATM    6  C11 UNL     1     -11.608   8.225 -10.800  1.00  0.00     0.072 A 
HETATM    7  C13 UNL     1     -11.895   6.919 -11.083  1.00  0.00     0.075 A 
HETATM    8  C14 UNL     1     -13.067   6.277 -10.642  1.00  0.00     0.092 A 
HETATM    9  O2  UNL     1     -13.228   4.946 -11.008  1.00  0.00    -0.296 OA
HETATM   10  C15 UNL     1     -14.400   4.318 -10.574  1.00  0.00     0.140 C 
HETATM   11  N1  UNL     1     -14.516   3.079 -10.299  1.00  0.00    -0.382 N 
ATOM     12  H11 UNL     1     -15.370   2.621  -9.982  1.00  0.00     0.158 HD
ATOM     13  H12 UNL     1     -13.697   2.479 -10.398  1.00  0.00     0.158 HD
HETATM   14  C16 UNL     1     -15.610   5.204 -10.428  1.00  0.00     0.202 C 
HETATM   15  C17 UNL     1     -16.630   4.423  -9.743  1.00  0.00     0.077 C 
HETATM   16  N2  UNL     1     -17.449   3.813  -9.200  1.00  0.00    -0.196 NA
ENDROOT
BRANCH   1  17
HETATM   17  C6  UNL     1     -16.341   6.893  -8.852  1.00  0.00     0.014 A 
HETATM   18  C5  UNL     1     -16.725   6.954  -7.524  1.00  0.00     0.020 A 
HETATM   19  C4  UNL     1     -17.815   7.648  -7.233  1.00  0.00     0.016 A 
HETATM   20  C3  UNL     1     -18.490   8.260  -8.253  1.00  0.00    -0.017 A 
HETATM   21  S1  UNL     1     -17.549   7.825  -9.608  1.00  0.00    -0.094 SA
BRANCH  20  22
HETATM   22  C2  UNL     1     -19.741   9.097  -8.169  1.00  0.00     0.041 C 
HETATM   23  C1  UNL     1     -19.390  10.480  -8.623  1.00  0.00     0.010 C 
ENDBRANCH  20  22
ENDBRANCH   1  17
BRANCH   6  24
HETATM   24  O1  UNL     1     -10.456   8.803 -11.252  1.00  0.00    -0.356 OA
HETATM   25  C12 UNL     1     -10.304  10.129 -11.650  1.00  0.00     0.210 C 
ENDBRANCH   6  24
TORSDOF 3
ENDMDL
MODEL 4
REMARK VINA RESULT: -7.631909395      3.496      5.756
REMARK  3 active torsions:
REMARK  status: ('A' for Active; 'I' for Inactive)
REMARK    1  A    between atoms: C2_2  and  C3_3 
REMARK    2  A    between atoms: C6_6  and  C7_7 
REMARK    3  A    between atoms: C11_12  and  O1_13 
ROOT
HETATM    1  C7  UNL     1     -14.409   8.490  -7.616  1.00  0.00    -0.001 C 
HETATM    2  C8  UNL     1     -15.319   7.384  -7.610  1.00  0.00     0.025 A 
HETATM    3  C9  UNL     1     -15.325   6.316  -8.514  1.00  0.00     0.027 A 
HETATM    4 BR1  UNL     1     -14.055   6.261  -9.915  1.00  0.00    -0.050 Br
HETATM    5  C10 UNL     1     -16.233   5.283  -8.386  1.00  0.00     0.056 A 
HETATM    6  C11 UNL     1     -17.166   5.233  -7.389  1.00  0.00     0.072 A 
HETATM    7  C13 UNL     1     -17.171   6.270  -6.498  1.00  0.00     0.075 A 
HETATM    8  C14 UNL     1     -16.275   7.352  -6.574  1.00  0.00     0.092 A 
HETATM    9  O2  UNL     1     -16.399   8.337  -5.601  1.00  0.00    -0.296 OA
HETATM   10  C15 UNL     1     -15.510   9.414  -5.688  1.00  0.00     0.140 C 
HETATM   11  N1  UNL     1     -15.065  10.086  -4.702  1.00  0.00    -0.382 N 
ATOM     12  H11 UNL     1     -14.417  10.871  -4.765  1.00  0.00     0.158 HD
ATOM     13  H12 UNL     1     -15.370   9.833  -3.762  1.00  0.00     0.158 HD
HETATM   14  C16 UNL     1     -15.059   9.787  -7.076  1.00  0.00     0.202 C 
HETATM   15  C17 UNL     1     -13.972  10.745  -6.928  1.00  0.00     0.077 C 
HETATM   16  N2  UNL     1     -13.108  11.506  -6.823  1.00  0.00    -0.196 NA
ENDROOT
BRANCH   1  17
HETATM   17  C6  UNL     1     -13.542   8.849  -8.717  1.00  0.00     0.014 A 
HETATM   18  C5  UNL     1     -12.165   8.743  -8.797  1.00  0.00     0.020 A 
HETATM   19  C4  UNL     1     -11.593   9.051  -9.951  1.00  0.00     0.016 A 
HETATM   20  C3  UNL     1     -12.391   9.453 -10.987  1.00  0.00    -0.017 A 
HETATM   21  S1  UNL     1     -13.944   9.381 -10.284  1.00  0.00    -0.094 SA
BRANCH  20  22
HETATM   22  C2  UNL     1     -11.975   9.850 -12.381  1.00  0.00     0.041 C 
HETATM   23  C1  UNL     1     -10.516  10.185 -12.337  1.00  0.00     0.010 C 
ENDBRANCH  20  22
ENDBRANCH   1  17
BRANCH   6  24
HETATM   24  O1  UNL     1     -18.058   4.205  -7.273  1.00  0.00    -0.356 OA
HETATM   25  C12 UNL     1     -19.040   3.862  -8.198  1.00  0.00     0.210 C 
ENDBRANCH   6  24
TORSDOF 3
ENDMDL
MODEL 5
REMARK VINA RESULT: -7.594177532      2.951      6.322
REMARK  3 active torsions:
REMARK  status: ('A' for Active; 'I' for Inactive)
REMARK    1  A    between atoms: C2_2  and  C3_3 
REMARK    2  A    between atoms: C6_6  and  C7_7 
REMARK    3  A    between atoms: C11_12  and  O1_13 
ROOT
HETATM    1  C7  UNL     1     -15.447   6.357  -8.666  1.00  0.00    -0.001 C 
HETATM    2  C8  UNL     1     -14.886   5.565  -9.719  1.00  0.00     0.025 A 
HETATM    3  C9  UNL     1     -13.745   5.879 -10.468  1.00  0.00     0.027 A 
HETATM    4 BR1  UNL     1     -12.809   7.487 -10.128  1.00  0.00    -0.050 Br
HETATM    5  C10 UNL     1     -13.275   5.017 -11.439  1.00  0.00     0.056 A 
HETATM    6  C11 UNL     1     -13.877   3.824 -11.729  1.00  0.00     0.072 A 
HETATM    7  C13 UNL     1     -14.992   3.505 -11.005  1.00  0.00     0.075 A 
HETATM    8  C14 UNL     1     -15.522   4.340 -10.005  1.00  0.00     0.092 A 
HETATM    9  O2  UNL     1     -16.664   3.888  -9.352  1.00  0.00    -0.296 OA
HETATM   10  C15 UNL     1     -17.190   4.728  -8.364  1.00  0.00     0.140 C 
HETATM   11  N1  UNL     1     -17.816   4.342  -7.324  1.00  0.00    -0.382 N 
ATOM     12  H11 UNL     1     -18.200   4.954  -6.604  1.00  0.00     0.158 HD
ATOM     13  H12 UNL     1     -17.955   3.342  -7.182  1.00  0.00     0.158 HD
HETATM   14  C16 UNL     1     -16.986   6.206  -8.575  1.00  0.00     0.202 C 
HETATM   15  C17 UNL     1     -17.378   6.870  -7.341  1.00  0.00     0.077 C 
HETATM   16  N2  UNL     1     -17.688   7.410  -6.366  1.00  0.00    -0.196 NA
ENDROOT
BRANCH   1  17
HETATM   17  C6  UNL     1     -15.118   7.739  -8.396  1.00  0.00     0.014 A 
HETATM   18  C5  UNL     1     -15.603   8.876  -9.018  1.00  0.00     0.020 A 
HETATM   19  C4  UNL     1     -15.223  10.048  -8.534  1.00  0.00     0.016 A 
HETATM   20  C3  UNL     1     -14.379  10.066  -7.457  1.00  0.00    -0.017 A 
HETATM   21  S1  UNL     1     -14.150   8.402  -7.162  1.00  0.00    -0.094 SA
BRANCH  20  22
HETATM   22  C2  UNL     1     -13.816  11.266  -6.738  1.00  0.00     0.041 C 
HETATM   23  C1  UNL     1     -14.912  11.845  -5.899  1.00  0.00     0.010 C 
ENDBRANCH  20  22
ENDBRANCH   1  17
BRANCH   6  24
HETATM   24  O1  UNL     1     -13.401   2.980 -12.691  1.00  0.00    -0.356 OA
HETATM   25  C12 UNL     1     -12.644   3.345 -13.802  1.00  0.00     0.210 C 
ENDBRANCH   6  24
TORSDOF 3
ENDMDL
