MODEL 1
REMARK VINA RESULT: -8.256009140      0.000      0.000
REMARK  4 active torsions:
REMARK  status: ('A' for Active; 'I' for Inactive)
REMARK    1  A    between atoms: N1_6  and  C6_7 
REMARK    2  A    between atoms: C6_7  and  C7_8 
REMARK    3  A    between atoms: C9_13  and  O1_14 
REMARK    4  A    between atoms: O1_14  and  O2_15 
ROOT
HETATM    1  C7  UNL     1     -15.312   9.073 -10.225  1.00  0.00     0.108 C 
HETATM    2  N2  UNL     1     -14.590   9.981  -9.371  1.00  0.00    -0.375 N 
ATOM      3  H2  UNL     1     -13.963  10.704  -9.723  1.00  0.00     0.160 HD
HETATM    4  C8  UNL     1     -14.816   9.788  -8.128  1.00  0.00     0.115 C 
HETATM    5 CL1  UNL     1     -14.008  10.823  -6.963  1.00  0.00    -0.066 Cl
HETATM    6  C9  UNL     1     -15.771   8.685  -7.936  1.00  0.00     0.158 C 
HETATM    7  C10 UNL     1     -15.732   8.008  -9.290  1.00  0.00     0.055 C 
HETATM    8  C11 UNL     1     -16.944   7.260  -9.676  1.00  0.00     0.011 C 
HETATM    9  C12 UNL     1     -17.937   6.898  -8.642  1.00  0.00     0.005 C 
HETATM   10  C13 UNL     1     -17.412   6.138  -7.484  1.00  0.00    -0.014 C 
HETATM   11  C14 UNL     1     -16.748   4.873  -7.992  1.00  0.00     0.010 C 
HETATM   12  C15 UNL     1     -16.579   6.811  -6.492  1.00  0.00    -0.003 C 
HETATM   13  C16 UNL     1     -17.266   7.679  -5.483  1.00  0.00     0.006 C 
HETATM   14  C17 UNL     1     -16.167   8.617  -4.974  1.00  0.00     0.005 C 
HETATM   15  C18 UNL     1     -14.902   8.088  -5.614  1.00  0.00    -0.011 C 
HETATM   16  C19 UNL     1     -14.432   6.834  -4.855  1.00  0.00     0.010 C 
HETATM   17  C20 UNL     1     -15.419   7.642  -6.948  1.00  0.00     0.039 C 
ENDROOT
BRANCH   1  18
HETATM   18  C6  UNL     1     -14.397   8.718 -11.345  1.00  0.00     0.154 C 
BRANCH  18  19
HETATM   19  N1  UNL     1     -13.017   8.997 -11.210  1.00  0.00    -0.352 N 
HETATM   20  C4  UNL     1     -12.363   9.983 -11.874  1.00  0.00     0.008 A 
HETATM   21  C3  UNL     1     -11.049  10.013 -11.475  1.00  0.00     0.033 A 
HETATM   22  C5  UNL     1     -12.934  10.925 -12.897  1.00  0.00     0.068 C 
HETATM   23  C2  UNL     1     -10.885   9.027 -10.546  1.00  0.00    -0.038 A 
HETATM   24  C1  UNL     1      -9.660   8.641  -9.806  1.00  0.00     0.050 C 
HETATM   25  C21 UNL     1     -12.123   8.418 -10.405  1.00  0.00     0.014 A 
HETATM   26  C22 UNL     1     -12.343   7.285  -9.443  1.00  0.00     0.069 C 
ENDBRANCH  18  19
ENDBRANCH   1  18
BRANCH   6  27
HETATM   27  O1  UNL     1     -16.979   9.331  -7.660  1.00  0.00    -0.224 OA
BRANCH  27  28
HETATM   28  O2  UNL     1     -16.919  10.624  -7.855  1.00  0.00    -0.249 OA
ATOM     29  H2  UNL     1     -16.052  10.980  -7.701  1.00  0.00     0.253 HD
ENDBRANCH  27  28
ENDBRANCH   6  27
TORSDOF 4
ENDMDL
MODEL 2
REMARK VINA RESULT: -8.026584650      1.345      2.254
REMARK  4 active torsions:
REMARK  status: ('A' for Active; 'I' for Inactive)
REMARK    1  A    between atoms: N1_6  and  C6_7 
REMARK    2  A    between atoms: C6_7  and  C7_8 
REMARK    3  A    between atoms: C9_13  and  O1_14 
REMARK    4  A    between atoms: O1_14  and  O2_15 
ROOT
HETATM    1  C7  UNL     1     -14.695   9.538 -10.083  1.00  0.00     0.108 C 
HETATM    2  N2  UNL     1     -13.929   9.386  -8.873  1.00  0.00    -0.375 N 
ATOM      3  H2  UNL     1     -12.943   9.635  -8.797  1.00  0.00     0.160 HD
HETATM    4  C8  UNL     1     -14.612   8.908  -7.904  1.00  0.00     0.115 C 
HETATM    5 CL1  UNL     1     -13.812   8.668  -6.359  1.00  0.00    -0.066 Cl
HETATM    6  C9  UNL     1     -16.002   8.661  -8.315  1.00  0.00     0.158 C 
HETATM    7  C10 UNL     1     -15.885   8.700  -9.824  1.00  0.00     0.055 C 
HETATM    8  C11 UNL     1     -17.107   9.080 -10.560  1.00  0.00     0.011 C 
HETATM    9  C12 UNL     1     -18.415   9.037  -9.872  1.00  0.00     0.005 C 
HETATM   10  C13 UNL     1     -18.772   7.741  -9.249  1.00  0.00    -0.014 C 
HETATM   11  C14 UNL     1     -18.741   6.664 -10.315  1.00  0.00     0.010 C 
HETATM   12  C15 UNL     1     -18.085   7.307  -8.037  1.00  0.00    -0.003 C 
HETATM   13  C16 UNL     1     -18.502   7.930  -6.741  1.00  0.00     0.006 C 
HETATM   14  C17 UNL     1     -17.311   7.702  -5.805  1.00  0.00     0.005 C 
HETATM   15  C18 UNL     1     -16.380   6.813  -6.600  1.00  0.00    -0.011 C 
HETATM   16  C19 UNL     1     -16.908   5.367  -6.572  1.00  0.00     0.010 C 
HETATM   17  C20 UNL     1     -16.588   7.344  -7.986  1.00  0.00     0.039 C 
ENDROOT
BRANCH   1  18
HETATM   18  C6  UNL     1     -13.794   9.170 -11.210  1.00  0.00     0.154 C 
BRANCH  18  19
HETATM   19  N1  UNL     1     -12.575   8.516 -10.920  1.00  0.00    -0.352 N 
HETATM   20  C4  UNL     1     -12.449   7.182 -10.706  1.00  0.00     0.008 A 
HETATM   21  C3  UNL     1     -11.128   6.871 -10.502  1.00  0.00     0.033 A 
HETATM   22  C5  UNL     1     -13.549   6.157 -10.684  1.00  0.00     0.068 C 
HETATM   23  C2  UNL     1     -10.419   8.034 -10.591  1.00  0.00    -0.038 A 
HETATM   24  C1  UNL     1      -8.959   8.247 -10.449  1.00  0.00     0.050 C 
HETATM   25  C21 UNL     1     -11.345   9.032 -10.851  1.00  0.00     0.014 A 
HETATM   26  C22 UNL     1     -10.934  10.466 -11.035  1.00  0.00     0.069 C 
ENDBRANCH  18  19
ENDBRANCH   1  18
BRANCH   6  27
HETATM   27  O1  UNL     1     -16.709   9.738  -7.775  1.00  0.00    -0.224 OA
BRANCH  27  28
HETATM   28  O2  UNL     1     -15.932  10.734  -7.432  1.00  0.00    -0.249 OA
ATOM     29  H2  UNL     1     -16.363  11.359  -6.861  1.00  0.00     0.253 HD
ENDBRANCH  27  28
ENDBRANCH   6  27
TORSDOF 4
ENDMDL
MODEL 3
REMARK VINA RESULT: -7.913860376      2.322      3.865
REMARK  4 active torsions:
REMARK  status: ('A' for Active; 'I' for Inactive)
REMARK    1  A    between atoms: N1_6  and  C6_7 
REMARK    2  A    between atoms: C6_7  and  C7_8 
REMARK    3  A    between atoms: C9_13  and  O1_14 
REMARK    4  A    between atoms: O1_14  and  O2_15 
ROOT
HETATM    1  C7  UNL     1     -13.433   6.558  -9.900  1.00  0.00     0.108 C 
HETATM    2  N2  UNL     1     -14.638   5.983 -10.440  1.00  0.00    -0.375 N 
ATOM      3  H2  UNL     1     -14.652   5.369 -11.255  1.00  0.00     0.160 HD
HETATM    4  C8  UNL     1     -15.689   6.323  -9.796  1.00  0.00     0.115 C 
HETATM    5 CL1  UNL     1     -17.237   5.696 -10.338  1.00  0.00    -0.066 Cl
HETATM    6  C9  UNL     1     -15.348   7.203  -8.668  1.00  0.00     0.158 C 
HETATM    7  C10 UNL     1     -13.946   7.641  -9.035  1.00  0.00     0.055 C 
HETATM    8  C11 UNL     1     -13.073   8.030  -7.911  1.00  0.00     0.011 C 
HETATM    9  C12 UNL     1     -13.672   8.328  -6.592  1.00  0.00     0.005 C 
HETATM   10  C13 UNL     1     -14.730   9.364  -6.586  1.00  0.00    -0.014 C 
HETATM   11  C14 UNL     1     -14.163  10.644  -7.169  1.00  0.00     0.010 C 
HETATM   12  C15 UNL     1     -16.043   9.063  -7.149  1.00  0.00    -0.003 C 
HETATM   13  C16 UNL     1     -16.982   8.243  -6.320  1.00  0.00     0.006 C 
HETATM   14  C17 UNL     1     -17.980   7.666  -7.329  1.00  0.00     0.005 C 
HETATM   15  C18 UNL     1     -17.626   8.349  -8.632  1.00  0.00    -0.011 C 
HETATM   16  C19 UNL     1     -18.186   9.783  -8.626  1.00  0.00     0.010 C 
HETATM   17  C20 UNL     1     -16.135   8.446  -8.510  1.00  0.00     0.039 C 
ENDROOT
BRANCH   1  18
HETATM   18  C6  UNL     1     -12.571   6.917 -11.059  1.00  0.00     0.154 C 
BRANCH  18  19
HETATM   19  N1  UNL     1     -11.866   8.143 -11.028  1.00  0.00    -0.352 N 
HETATM   20  C4  UNL     1     -10.674   8.328 -10.407  1.00  0.00     0.008 A 
HETATM   21  C3  UNL     1     -10.244   9.616 -10.612  1.00  0.00     0.033 A 
HETATM   22  C5  UNL     1      -9.899   7.319  -9.605  1.00  0.00     0.068 C 
HETATM   23  C2  UNL     1     -11.187  10.242 -11.374  1.00  0.00    -0.038 A 
HETATM   24  C1  UNL     1     -11.204  11.637 -11.874  1.00  0.00     0.050 C 
HETATM   25  C21 UNL     1     -12.177   9.301 -11.615  1.00  0.00     0.014 A 
HETATM   26  C22 UNL     1     -13.388   9.619 -12.446  1.00  0.00     0.069 C 
ENDBRANCH  18  19
ENDBRANCH   1  18
BRANCH   6  27
HETATM   27  O1  UNL     1     -15.405   6.361  -7.555  1.00  0.00    -0.224 OA
BRANCH  27  28
HETATM   28  O2  UNL     1     -15.597   5.107  -7.877  1.00  0.00    -0.249 OA
ATOM     29  H2  UNL     1     -14.847   4.557  -7.684  1.00  0.00     0.253 HD
ENDBRANCH  27  28
ENDBRANCH   6  27
TORSDOF 4
ENDMDL
MODEL 4
REMARK VINA RESULT: -7.656116819      2.280      5.997
REMARK  4 active torsions:
REMARK  status: ('A' for Active; 'I' for Inactive)
REMARK    1  A    between atoms: N1_6  and  C6_7 
REMARK    2  A    between atoms: C6_7  and  C7_8 
REMARK    3  A    between atoms: C9_13  and  O1_14 
REMARK    4  A    between atoms: O1_14  and  O2_15 
ROOT
HETATM    1  C7  UNL     1     -15.329   8.102  -8.311  1.00  0.00     0.108 C 
HETATM    2  N2  UNL     1     -14.734   9.294  -7.765  1.00  0.00    -0.375 N 
ATOM      3  H2  UNL     1     -15.225   9.931  -7.137  1.00  0.00     0.160 HD
HETATM    4  C8  UNL     1     -13.528   9.473  -8.148  1.00  0.00     0.115 C 
HETATM    5 CL1  UNL     1     -12.667  10.887  -7.561  1.00  0.00    -0.066 Cl
HETATM    6  C9  UNL     1     -13.095   8.384  -9.038  1.00  0.00     0.158 C 
HETATM    7  C10 UNL     1     -14.420   7.762  -9.425  1.00  0.00     0.055 C 
HETATM    8  C11 UNL     1     -14.380   6.337  -9.806  1.00  0.00     0.011 C 
HETATM    9  C12 UNL     1     -13.086   5.709 -10.146  1.00  0.00     0.005 C 
HETATM   10  C13 UNL     1     -12.308   6.378 -11.215  1.00  0.00    -0.014 C 
HETATM   11  C14 UNL     1     -13.162   6.452 -12.466  1.00  0.00     0.010 C 
HETATM   12  C15 UNL     1     -11.653   7.654 -10.945  1.00  0.00    -0.003 C 
HETATM   13  C16 UNL     1     -10.373   7.627 -10.169  1.00  0.00     0.006 C 
HETATM   14  C17 UNL     1     -10.236   9.046  -9.606  1.00  0.00     0.005 C 
HETATM   15  C18 UNL     1     -11.368   9.812 -10.254  1.00  0.00    -0.011 C 
HETATM   16  C19 UNL     1     -10.986  10.158 -11.705  1.00  0.00     0.010 C 
HETATM   17  C20 UNL     1     -12.435   8.761 -10.307  1.00  0.00     0.039 C 
ENDROOT
BRANCH   1  18
HETATM   18  C6  UNL     1     -16.747   8.434  -8.622  1.00  0.00     0.154 C 
BRANCH  18  19
HETATM   19  N1  UNL     1     -17.662   7.377  -8.837  1.00  0.00    -0.352 N 
HETATM   20  C4  UNL     1     -18.589   7.351  -9.827  1.00  0.00     0.008 A 
HETATM   21  C3  UNL     1     -19.276   6.163  -9.783  1.00  0.00     0.033 A 
HETATM   22  C5  UNL     1     -18.867   8.426 -10.842  1.00  0.00     0.068 C 
HETATM   23  C2  UNL     1     -18.765   5.437  -8.747  1.00  0.00    -0.038 A 
HETATM   24  C1  UNL     1     -19.155   4.088  -8.274  1.00  0.00     0.050 C 
HETATM   25  C21 UNL     1     -17.767   6.218  -8.183  1.00  0.00     0.014 A 
HETATM   26  C22 UNL     1     -16.954   5.740  -7.013  1.00  0.00     0.069 C 
ENDBRANCH  18  19
ENDBRANCH   1  18
BRANCH   6  27
HETATM   27  O1  UNL     1     -12.307   7.573  -8.218  1.00  0.00    -0.224 OA
BRANCH  27  28
HETATM   28  O2  UNL     1     -12.612   7.684  -6.949  1.00  0.00    -0.249 OA
ATOM     29  H2  UNL     1     -12.739   6.844  -6.525  1.00  0.00     0.253 HD
ENDBRANCH  27  28
ENDBRANCH   6  27
TORSDOF 4
ENDMDL
MODEL 5
REMARK VINA RESULT: -7.555768009      2.197      2.837
REMARK  4 active torsions:
REMARK  status: ('A' for Active; 'I' for Inactive)
REMARK    1  A    between atoms: N1_6  and  C6_7 
REMARK    2  A    between atoms: C6_7  and  C7_8 
REMARK    3  A    between atoms: C9_13  and  O1_14 
REMARK    4  A    between atoms: O1_14  and  O2_15 
ROOT
HETATM    1  C7  UNL     1     -15.211   9.238 -10.440  1.00  0.00     0.108 C 
HETATM    2  N2  UNL     1     -16.308  10.171 -10.449  1.00  0.00    -0.375 N 
ATOM      3  H2  UNL     1     -16.227  11.130 -10.787  1.00  0.00     0.160 HD
HETATM    4  C8  UNL     1     -17.393   9.675  -9.990  1.00  0.00     0.115 C 
HETATM    5 CL1  UNL     1     -18.821  10.696  -9.941  1.00  0.00    -0.066 Cl
HETATM    6  C9  UNL     1     -17.199   8.272  -9.593  1.00  0.00     0.158 C 
HETATM    7  C10 UNL     1     -15.689   8.180  -9.525  1.00  0.00     0.055 C 
HETATM    8  C11 UNL     1     -15.111   6.840  -9.740  1.00  0.00     0.011 C 
HETATM    9  C12 UNL     1     -15.978   5.647  -9.638  1.00  0.00     0.005 C 
HETATM   10  C13 UNL     1     -16.728   5.504  -8.368  1.00  0.00    -0.014 C 
HETATM   11  C14 UNL     1     -15.740   5.494  -7.218  1.00  0.00     0.010 C 
HETATM   12  C15 UNL     1     -17.857   6.386  -8.090  1.00  0.00    -0.003 C 
HETATM   13  C16 UNL     1     -19.155   6.089  -8.773  1.00  0.00     0.006 C 
HETATM   14  C17 UNL     1     -19.926   7.413  -8.722  1.00  0.00     0.005 C 
HETATM   15  C18 UNL     1     -19.066   8.309  -7.858  1.00  0.00    -0.011 C 
HETATM   16  C19 UNL     1     -19.262   7.931  -6.378  1.00  0.00     0.010 C 
HETATM   17  C20 UNL     1     -17.692   7.865  -8.259  1.00  0.00     0.039 C 
ENDROOT
BRANCH   1  18
HETATM   18  C6  UNL     1     -13.994  10.010 -10.065  1.00  0.00     0.154 C 
BRANCH  18  19
HETATM   19  N1  UNL     1     -12.724   9.458 -10.354  1.00  0.00    -0.352 N 
HETATM   20  C4  UNL     1     -12.071   9.608 -11.534  1.00  0.00     0.008 A 
HETATM   21  C3  UNL     1     -10.846   8.992 -11.463  1.00  0.00     0.033 A 
HETATM   22  C5  UNL     1     -12.563  10.324 -12.761  1.00  0.00     0.068 C 
HETATM   23  C2  UNL     1     -10.736   8.450 -10.216  1.00  0.00    -0.038 A 
HETATM   24  C1  UNL     1      -9.612   7.681  -9.631  1.00  0.00     0.050 C 
HETATM   25  C21 UNL     1     -11.915   8.758  -9.555  1.00  0.00     0.014 A 
HETATM   26  C22 UNL     1     -12.159   8.339  -8.132  1.00  0.00     0.069 C 
ENDBRANCH  18  19
ENDBRANCH   1  18
BRANCH   6  27
HETATM   27  O1  UNL     1     -17.763   7.544 -10.643  1.00  0.00    -0.224 OA
BRANCH  27  28
HETATM   28  O2  UNL     1     -18.390   8.303 -11.507  1.00  0.00    -0.249 OA
ATOM     29  H2  UNL     1     -19.233   8.605 -11.189  1.00  0.00     0.253 HD
ENDBRANCH  27  28
ENDBRANCH   6  27
TORSDOF 4
ENDMDL
