MODEL 1
REMARK VINA RESULT: -8.739284481      0.000      0.000
REMARK  6 active torsions:
REMARK  status: ('A' for Active; 'I' for Inactive)
REMARK    1  A    between atoms: N1_11  and  O1_13 
REMARK    2  A    between atoms: O1_13  and  C11_14 
REMARK    3  A    between atoms: C11_14  and  C12_16 
REMARK    4  A    between atoms: C12_16  and  C13_17 
REMARK    5  A    between atoms: C17_22  and  C18_23 
REMARK    6  A    between atoms: C20_26  and  O4_27 
ROOT
HETATM    1  C1  UNL     1     -17.458   7.514  -5.494  1.00  0.00     0.017 C 
HETATM    2  C2  UNL     1     -16.443   7.937  -6.533  1.00  0.00    -0.020 C 
HETATM    3  C3  UNL     1     -17.038   8.762  -7.585  1.00  0.00     0.024 C 
HETATM    4  C4  UNL     1     -18.556   8.619  -7.691  1.00  0.00     0.014 C 
HETATM    5  C5  UNL     1     -18.760   9.690  -8.785  1.00  0.00     0.028 C 
HETATM    6  C6  UNL     1     -17.869  10.762  -8.215  1.00  0.00    -0.023 C 
HETATM    7  C7  UNL     1     -16.882  10.203  -7.524  1.00  0.00    -0.078 C 
HETATM    8  C8  UNL     1     -15.871  11.117  -6.865  1.00  0.00     0.040 C 
HETATM    9  C9  UNL     1     -14.524  10.589  -7.306  1.00  0.00     0.059 C 
HETATM   10  C10 UNL     1     -14.326   9.269  -6.678  1.00  0.00     0.016 C 
HETATM   11  N1  UNL     1     -13.181   8.737  -6.943  1.00  0.00    -0.266 N 
ATOM     12  H1  UNL     1     -12.974   7.822  -6.542  1.00  0.00     0.194 HD
HETATM   13  C14 UNL     1     -15.235   8.510  -5.821  1.00  0.00     0.043 C 
HETATM   14  C15 UNL     1     -14.545   7.288  -5.210  1.00  0.00     0.012 C 
HETATM   15  C16 UNL     1     -15.052   6.098  -5.983  1.00  0.00     0.011 C 
HETATM   16  C17 UNL     1     -15.781   6.695  -7.140  1.00  0.00     0.030 C 
ENDROOT
BRANCH  11  17
HETATM   17  O1  UNL     1     -12.234   9.322  -7.724  1.00  0.00    -0.200 OA
BRANCH  17  18
HETATM   18  C11 UNL     1     -11.797   8.830  -8.938  1.00  0.00     0.282 C 
HETATM   19  O2  UNL     1     -10.802   8.064  -8.941  1.00  0.00    -0.263 OA
BRANCH  18  20
HETATM   20  C12 UNL     1     -12.489   9.203 -10.209  1.00  0.00     0.128 C 
BRANCH  20  21
HETATM   21  C13 UNL     1     -13.770   8.410 -10.329  1.00  0.00     0.124 C 
HETATM   22 CL1  UNL     1     -15.121   9.520 -10.609  1.00  0.00    -0.130 Cl
ENDBRANCH  20  21
ENDBRANCH  18  20
ENDBRANCH  17  18
ENDBRANCH  11  17
BRANCH  16  23
HETATM   23  C18 UNL     1     -16.699   5.783  -7.802  1.00  0.00    -0.026 A 
HETATM   24  C19 UNL     1     -16.868   5.634  -9.150  1.00  0.00     0.152 A 
HETATM   25  O3  UNL     1     -17.767   4.711  -9.334  1.00  0.00    -0.300 OA
HETATM   26  C20 UNL     1     -18.226   4.216  -8.227  1.00  0.00     0.183 A 
HETATM   27  C21 UNL     1     -17.553   4.891  -7.203  1.00  0.00     0.073 A 
BRANCH  26  28
HETATM   28  O4  UNL     1     -19.180   3.231  -8.147  1.00  0.00    -0.341 OA
ATOM     29  H4  UNL     1     -20.063   3.358  -7.822  1.00  0.00     0.220 HD
ENDBRANCH  26  28
ENDBRANCH  16  23
TORSDOF 6
ENDMDL
MODEL 2
REMARK VINA RESULT: -8.434388760      2.740      6.765
REMARK  6 active torsions:
REMARK  status: ('A' for Active; 'I' for Inactive)
REMARK    1  A    between atoms: N1_11  and  O1_13 
REMARK    2  A    between atoms: O1_13  and  C11_14 
REMARK    3  A    between atoms: C11_14  and  C12_16 
REMARK    4  A    between atoms: C12_16  and  C13_17 
REMARK    5  A    between atoms: C17_22  and  C18_23 
REMARK    6  A    between atoms: C20_26  and  O4_27 
ROOT
HETATM    1  C1  UNL     1     -12.200   7.466  -8.884  1.00  0.00     0.017 C 
HETATM    2  C2  UNL     1     -13.587   7.403  -9.483  1.00  0.00    -0.020 C 
HETATM    3  C3  UNL     1     -13.678   6.429 -10.570  1.00  0.00     0.024 C 
HETATM    4  C4  UNL     1     -12.324   6.061 -11.178  1.00  0.00     0.014 C 
HETATM    5  C5  UNL     1     -12.853   4.983 -12.150  1.00  0.00     0.028 C 
HETATM    6  C6  UNL     1     -13.780   4.266 -11.204  1.00  0.00    -0.023 C 
HETATM    7  C7  UNL     1     -14.244   5.121 -10.299  1.00  0.00    -0.078 C 
HETATM    8  C8  UNL     1     -15.197   4.592  -9.249  1.00  0.00     0.040 C 
HETATM    9  C9  UNL     1     -16.378   5.537  -9.286  1.00  0.00     0.059 C 
HETATM   10  C10 UNL     1     -15.928   6.848  -8.783  1.00  0.00     0.016 C 
HETATM   11  N1  UNL     1     -16.867   7.729  -8.721  1.00  0.00    -0.266 N 
ATOM     12  H1  UNL     1     -16.629   8.661  -8.381  1.00  0.00     0.194 HD
HETATM   13  C14 UNL     1     -14.591   7.262  -8.358  1.00  0.00     0.043 C 
HETATM   14  C15 UNL     1     -14.613   8.644  -7.699  1.00  0.00     0.012 C 
HETATM   15  C16 UNL     1     -14.059   9.600  -8.724  1.00  0.00     0.011 C 
HETATM   16  C17 UNL     1     -13.996   8.795  -9.980  1.00  0.00     0.030 C 
ENDROOT
BRANCH  11  17
HETATM   17  O1  UNL     1     -18.157   7.491  -9.081  1.00  0.00    -0.200 OA
BRANCH  17  18
HETATM   18  C11 UNL     1     -19.250   8.195  -8.614  1.00  0.00     0.282 C 
HETATM   19  O2  UNL     1     -20.268   7.544  -8.274  1.00  0.00    -0.263 OA
BRANCH  18  20
HETATM   20  C12 UNL     1     -19.218   9.686  -8.522  1.00  0.00     0.128 C 
BRANCH  20  21
HETATM   21  C13 UNL     1     -19.115  10.269  -9.912  1.00  0.00     0.124 C 
HETATM   22 CL1  UNL     1     -18.860  12.017  -9.794  1.00  0.00    -0.130 Cl
ENDBRANCH  20  21
ENDBRANCH  18  20
ENDBRANCH  17  18
ENDBRANCH  11  17
BRANCH  16  23
HETATM   23  C18 UNL     1     -13.125   9.351 -11.003  1.00  0.00    -0.026 A 
HETATM   24  C19 UNL     1     -13.488   9.720 -12.268  1.00  0.00     0.152 A 
HETATM   25  O3  UNL     1     -12.427  10.185 -12.861  1.00  0.00    -0.300 OA
HETATM   26  C20 UNL     1     -11.370  10.165 -12.109  1.00  0.00     0.183 A 
HETATM   27  C21 UNL     1     -11.786   9.627 -10.886  1.00  0.00     0.073 A 
BRANCH  26  28
HETATM   28  O4  UNL     1     -10.127  10.600 -12.497  1.00  0.00    -0.341 OA
ATOM     29  H4  UNL     1      -9.709  11.394 -12.184  1.00  0.00     0.220 HD
ENDBRANCH  26  28
ENDBRANCH  16  23
TORSDOF 6
ENDMDL
MODEL 3
REMARK VINA RESULT: -8.404588540      1.125      1.265
REMARK  6 active torsions:
REMARK  status: ('A' for Active; 'I' for Inactive)
REMARK    1  A    between atoms: N1_11  and  O1_13 
REMARK    2  A    between atoms: O1_13  and  C11_14 
REMARK    3  A    between atoms: C11_14  and  C12_16 
REMARK    4  A    between atoms: C12_16  and  C13_17 
REMARK    5  A    between atoms: C17_22  and  C18_23 
REMARK    6  A    between atoms: C20_26  and  O4_27 
ROOT
HETATM    1  C1  UNL     1     -17.402   7.440  -5.517  1.00  0.00     0.017 C 
HETATM    2  C2  UNL     1     -16.414   7.854  -6.584  1.00  0.00    -0.020 C 
HETATM    3  C3  UNL     1     -17.028   8.689  -7.615  1.00  0.00     0.024 C 
HETATM    4  C4  UNL     1     -18.551   8.566  -7.677  1.00  0.00     0.014 C 
HETATM    5  C5  UNL     1     -18.773   9.643  -8.762  1.00  0.00     0.028 C 
HETATM    6  C6  UNL     1     -17.852  10.702  -8.215  1.00  0.00    -0.023 C 
HETATM    7  C7  UNL     1     -16.852  10.128  -7.555  1.00  0.00    -0.078 C 
HETATM    8  C8  UNL     1     -15.812  11.028  -6.924  1.00  0.00     0.040 C 
HETATM    9  C9  UNL     1     -14.485  10.484  -7.405  1.00  0.00     0.059 C 
HETATM   10  C10 UNL     1     -14.285   9.159  -6.788  1.00  0.00     0.016 C 
HETATM   11  N1  UNL     1     -13.155   8.614  -7.088  1.00  0.00    -0.266 N 
ATOM     12  H1  UNL     1     -12.947   7.695  -6.696  1.00  0.00     0.194 HD
HETATM   13  C14 UNL     1     -15.178   8.409  -5.906  1.00  0.00     0.043 C 
HETATM   14  C15 UNL     1     -14.486   7.177  -5.319  1.00  0.00     0.012 C 
HETATM   15  C16 UNL     1     -15.030   5.995  -6.081  1.00  0.00     0.011 C 
HETATM   16  C17 UNL     1     -15.785   6.605  -7.214  1.00  0.00     0.030 C 
ENDROOT
BRANCH  11  17
HETATM   17  O1  UNL     1     -12.224   9.189  -7.895  1.00  0.00    -0.200 OA
BRANCH  17  18
HETATM   18  C11 UNL     1     -11.918   8.768  -9.174  1.00  0.00     0.282 C 
HETATM   19  O2  UNL     1     -12.859   8.382  -9.909  1.00  0.00    -0.263 OA
BRANCH  18  20
HETATM   20  C12 UNL     1     -10.505   8.771  -9.663  1.00  0.00     0.128 C 
BRANCH  20  21
HETATM   21  C13 UNL     1     -10.499   8.960 -11.163  1.00  0.00     0.124 C 
HETATM   22 CL1  UNL     1     -10.740  10.674 -11.536  1.00  0.00    -0.130 Cl
ENDBRANCH  20  21
ENDBRANCH  18  20
ENDBRANCH  17  18
ENDBRANCH  11  17
BRANCH  16  23
HETATM   23  C18 UNL     1     -16.735   5.707  -7.852  1.00  0.00    -0.026 A 
HETATM   24  C19 UNL     1     -16.927   5.546  -9.195  1.00  0.00     0.152 A 
HETATM   25  O3  UNL     1     -17.849   4.642  -9.354  1.00  0.00    -0.300 OA
HETATM   26  C20 UNL     1     -18.303   4.172  -8.235  1.00  0.00     0.183 A 
HETATM   27  C21 UNL     1     -17.600   4.843  -7.229  1.00  0.00     0.073 A 
BRANCH  26  28
HETATM   28  O4  UNL     1     -19.278   3.209  -8.128  1.00  0.00    -0.341 OA
ATOM     29  H4  UNL     1     -20.077   3.189  -8.642  1.00  0.00     0.220 HD
ENDBRANCH  26  28
ENDBRANCH  16  23
TORSDOF 6
ENDMDL
MODEL 4
REMARK VINA RESULT: -8.025539619      2.847      6.809
REMARK  6 active torsions:
REMARK  status: ('A' for Active; 'I' for Inactive)
REMARK    1  A    between atoms: N1_11  and  O1_13 
REMARK    2  A    between atoms: O1_13  and  C11_14 
REMARK    3  A    between atoms: C11_14  and  C12_16 
REMARK    4  A    between atoms: C12_16  and  C13_17 
REMARK    5  A    between atoms: C17_22  and  C18_23 
REMARK    6  A    between atoms: C20_26  and  O4_27 
ROOT
HETATM    1  C1  UNL     1     -12.908   7.272  -8.289  1.00  0.00     0.017 C 
HETATM    2  C2  UNL     1     -13.941   7.405  -9.385  1.00  0.00    -0.020 C 
HETATM    3  C3  UNL     1     -13.687   6.493 -10.500  1.00  0.00     0.024 C 
HETATM    4  C4  UNL     1     -12.246   5.983 -10.559  1.00  0.00     0.014 C 
HETATM    5  C5  UNL     1     -12.448   5.018 -11.748  1.00  0.00     0.028 C 
HETATM    6  C6  UNL     1     -13.741   4.386 -11.305  1.00  0.00    -0.023 C 
HETATM    7  C7  UNL     1     -14.440   5.256 -10.584  1.00  0.00    -0.078 C 
HETATM    8  C8  UNL     1     -15.780   4.809 -10.040  1.00  0.00     0.040 C 
HETATM    9  C9  UNL     1     -16.748   5.894 -10.455  1.00  0.00     0.059 C 
HETATM   10  C10 UNL     1     -16.409   7.119  -9.706  1.00  0.00     0.016 C 
HETATM   11  N1  UNL     1     -17.204   8.107  -9.942  1.00  0.00    -0.266 N 
ATOM     12  H1  UNL     1     -17.030   8.988  -9.458  1.00  0.00     0.194 HD
HETATM   13  C14 UNL     1     -15.319   7.347  -8.759  1.00  0.00     0.043 C 
HETATM   14  C15 UNL     1     -15.464   8.693  -8.046  1.00  0.00     0.012 C 
HETATM   15  C16 UNL     1     -14.457   9.612  -8.688  1.00  0.00     0.011 C 
HETATM   16  C17 UNL     1     -13.978   8.856  -9.882  1.00  0.00     0.030 C 
ENDROOT
BRANCH  11  17
HETATM   17  O1  UNL     1     -18.260   8.045 -10.797  1.00  0.00    -0.200 OA
BRANCH  17  18
HETATM   18  C11 UNL     1     -18.906   9.141 -11.334  1.00  0.00     0.282 C 
HETATM   19  O2  UNL     1     -18.829   9.321 -12.574  1.00  0.00    -0.263 OA
BRANCH  18  20
HETATM   20  C12 UNL     1     -19.672  10.082 -10.461  1.00  0.00     0.128 C 
BRANCH  20  21
HETATM   21  C13 UNL     1     -18.779  11.237 -10.071  1.00  0.00     0.124 C 
HETATM   22 CL1  UNL     1     -18.383  11.112  -8.350  1.00  0.00    -0.130 Cl
ENDBRANCH  20  21
ENDBRANCH  18  20
ENDBRANCH  17  18
ENDBRANCH  11  17
BRANCH  16  23
HETATM   23  C18 UNL     1     -12.722   9.338 -10.432  1.00  0.00    -0.026 A 
HETATM   24  C19 UNL     1     -11.561   9.552  -9.743  1.00  0.00     0.152 A 
HETATM   25  O3  UNL     1     -10.669   9.966 -10.596  1.00  0.00    -0.300 OA
HETATM   26  C20 UNL     1     -11.122  10.054 -11.808  1.00  0.00     0.183 A 
HETATM   27  C21 UNL     1     -12.460   9.652 -11.742  1.00  0.00     0.073 A 
BRANCH  26  28
HETATM   28  O4  UNL     1     -10.383  10.464 -12.891  1.00  0.00    -0.341 OA
ATOM     29  H4  UNL     1      -9.438  10.401 -12.957  1.00  0.00     0.220 HD
ENDBRANCH  26  28
ENDBRANCH  16  23
TORSDOF 6
ENDMDL
MODEL 5
REMARK VINA RESULT: -8.002308119      2.637      6.239
REMARK  6 active torsions:
REMARK  status: ('A' for Active; 'I' for Inactive)
REMARK    1  A    between atoms: N1_11  and  O1_13 
REMARK    2  A    between atoms: O1_13  and  C11_14 
REMARK    3  A    between atoms: C11_14  and  C12_16 
REMARK    4  A    between atoms: C12_16  and  C13_17 
REMARK    5  A    between atoms: C17_22  and  C18_23 
REMARK    6  A    between atoms: C20_26  and  O4_27 
ROOT
HETATM    1  C1  UNL     1     -11.934   7.444  -8.671  1.00  0.00     0.017 C 
HETATM    2  C2  UNL     1     -13.389   7.753  -8.944  1.00  0.00    -0.020 C 
HETATM    3  C3  UNL     1     -13.975   6.839  -9.924  1.00  0.00     0.024 C 
HETATM    4  C4  UNL     1     -12.938   6.124 -10.793  1.00  0.00     0.014 C 
HETATM    5  C5  UNL     1     -13.936   5.227 -11.558  1.00  0.00     0.028 C 
HETATM    6  C6  UNL     1     -14.775   4.781 -10.390  1.00  0.00    -0.023 C 
HETATM    7  C7  UNL     1     -14.783   5.727  -9.458  1.00  0.00    -0.078 C 
HETATM    8  C8  UNL     1     -15.575   5.470  -8.194  1.00  0.00     0.040 C 
HETATM    9  C9  UNL     1     -16.447   6.695  -8.026  1.00  0.00     0.059 C 
HETATM   10  C10 UNL     1     -15.570   7.839  -7.714  1.00  0.00     0.016 C 
HETATM   11  N1  UNL     1     -16.210   8.938  -7.499  1.00  0.00    -0.266 N 
ATOM     12  H1  UNL     1     -15.667   9.773  -7.276  1.00  0.00     0.194 HD
HETATM   13  C14 UNL     1     -14.111   7.883  -7.619  1.00  0.00     0.043 C 
HETATM   14  C15 UNL     1     -13.623   9.220  -7.056  1.00  0.00     0.012 C 
HETATM   15  C16 UNL     1     -13.091   9.995  -8.233  1.00  0.00     0.011 C 
HETATM   16  C17 UNL     1     -13.526   9.204  -9.421  1.00  0.00     0.030 C 
ENDROOT
BRANCH  11  17
HETATM   17  O1  UNL     1     -17.564   9.052  -7.551  1.00  0.00    -0.200 OA
BRANCH  17  18
HETATM   18  C11 UNL     1     -18.249  10.028  -8.248  1.00  0.00     0.282 C 
HETATM   19  O2  UNL     1     -18.001  11.228  -7.978  1.00  0.00    -0.263 OA
BRANCH  18  20
HETATM   20  C12 UNL     1     -19.255   9.661  -9.290  1.00  0.00     0.128 C 
BRANCH  20  21
HETATM   21  C13 UNL     1     -18.696   8.554 -10.154  1.00  0.00     0.124 C 
HETATM   22 CL1  UNL     1     -17.155   9.078 -10.850  1.00  0.00    -0.130 Cl
ENDBRANCH  20  21
ENDBRANCH  18  20
ENDBRANCH  17  18
ENDBRANCH  11  17
BRANCH  16  23
HETATM   23  C18 UNL     1     -12.799   9.509 -10.642  1.00  0.00    -0.026 A 
HETATM   24  C19 UNL     1     -13.308   9.528 -11.910  1.00  0.00     0.152 A 
HETATM   25  O3  UNL     1     -12.343   9.862 -12.717  1.00  0.00    -0.300 OA
HETATM   26  C20 UNL     1     -11.218  10.074 -12.108  1.00  0.00     0.183 A 
HETATM   27  C21 UNL     1     -11.474   9.854 -10.750  1.00  0.00     0.073 A 
BRANCH  26  28
HETATM   28  O4  UNL     1     -10.049  10.439 -12.730  1.00  0.00    -0.341 OA
ATOM     29  H4  UNL     1      -9.451   9.836 -13.155  1.00  0.00     0.220 HD
ENDBRANCH  26  28
ENDBRANCH  16  23
TORSDOF 6
ENDMDL
