MODEL 1
REMARK VINA RESULT: -8.453965198      0.000      0.000
REMARK  4 active torsions:
REMARK  status: ('A' for Active; 'I' for Inactive)
REMARK    1  A    between atoms: C2_2  and  C4_4 
REMARK    2  A    between atoms: N1_7  and  C7_8 
REMARK    3  A    between atoms: C10_11  and  N2_12 
REMARK    4  A    between atoms: N2_12  and  C11_14 
ROOT
HETATM    1  C4  UNL     1      13.532  -3.809 -21.401  1.00  0.00     0.018 A 
HETATM    2  C5  UNL     1      14.912  -3.542 -21.611  1.00  0.00    -0.017 A 
HETATM    3  C6  UNL     1      15.216  -3.912 -22.888  1.00  0.00     0.021 A 
HETATM    4  N1  UNL     1      14.147  -4.396 -23.491  1.00  0.00    -0.331 N 
HETATM    5  C10 UNL     1      13.075  -4.344 -22.597  1.00  0.00     0.115 A 
HETATM    6  C15 UNL     1      16.612  -3.688 -23.457  1.00  0.00     0.058 C 
HETATM    7  C16 UNL     1      17.552  -3.994 -22.317  1.00  0.00     0.013 C 
HETATM    8  C17 UNL     1      17.300  -2.902 -21.303  1.00  0.00     0.017 C 
HETATM    9  C18 UNL     1      15.940  -3.081 -20.650  1.00  0.00     0.027 C 
HETATM   10  C19 UNL     1      16.203  -4.180 -19.594  1.00  0.00     0.010 C 
HETATM   11  C20 UNL     1      16.889  -3.489 -18.461  1.00  0.00     0.002 C 
HETATM   12  C21 UNL     1      18.055  -2.653 -18.903  1.00  0.00     0.026 C 
HETATM   13  C22 UNL     1      18.441  -2.878 -20.345  1.00  0.00     0.037 C 
HETATM   14  C23 UNL     1      19.360  -4.064 -20.396  1.00  0.00     0.033 C 
HETATM   15 CL1  UNL     1      19.446  -1.444 -20.773  1.00  0.00    -0.119 Cl
ENDROOT
BRANCH   5  16
HETATM   16  N2  UNL     1      11.819  -4.767 -23.050  1.00  0.00    -0.371 N 
ATOM     17  H2  UNL     1      11.863  -5.690 -23.483  1.00  0.00     0.161 HD
BRANCH  16  18
HETATM   18  C11 UNL     1      10.510  -4.248 -23.064  1.00  0.00     0.083 A 
HETATM   19  C12 UNL     1      10.504  -2.687 -22.961  1.00  0.00     0.025 A 
HETATM   20  C13 UNL     1       9.667  -2.778 -21.743  1.00  0.00     0.004 A 
HETATM   21  C14 UNL     1       9.698  -4.255 -21.797  1.00  0.00     0.025 A 
ENDBRANCH  16  18
ENDBRANCH   5  16
BRANCH   1  22
HETATM   22  C2  UNL     1      12.766  -3.375 -20.227  1.00  0.00    -0.073 C 
HETATM   23  C1  UNL     1      12.476  -4.290 -19.116  1.00  0.00     0.044 C 
HETATM   24  C3  UNL     1      12.728  -1.902 -19.905  1.00  0.00     0.044 C 
ENDBRANCH   1  22
BRANCH   4  25
HETATM   25  C7  UNL     1      14.150  -4.918 -24.831  1.00  0.00     0.091 A 
HETATM   26  C8  UNL     1      14.676  -4.165 -25.996  1.00  0.00     0.028 A 
HETATM   27  C9  UNL     1      13.186  -4.212 -25.802  1.00  0.00     0.028 A 
ENDBRANCH   4  25
TORSDOF 4
ENDMDL
MODEL 2
REMARK VINA RESULT: -8.270295421      2.121      4.000
REMARK  4 active torsions:
REMARK  status: ('A' for Active; 'I' for Inactive)
REMARK    1  A    between atoms: C2_2  and  C4_4 
REMARK    2  A    between atoms: N1_7  and  C7_8 
REMARK    3  A    between atoms: C10_11  and  N2_12 
REMARK    4  A    between atoms: N2_12  and  C11_14 
ROOT
HETATM    1  C4  UNL     1      13.536  -2.676 -20.655  1.00  0.00     0.018 A 
HETATM    2  C5  UNL     1      14.808  -3.112 -20.192  1.00  0.00    -0.017 A 
HETATM    3  C6  UNL     1      14.596  -4.021 -19.198  1.00  0.00     0.021 A 
HETATM    4  N1  UNL     1      13.303  -4.184 -18.993  1.00  0.00    -0.331 N 
HETATM    5  C10 UNL     1      12.609  -3.365 -19.886  1.00  0.00     0.115 A 
HETATM    6  C15 UNL     1      15.764  -4.739 -18.532  1.00  0.00     0.058 C 
HETATM    7  C16 UNL     1      16.847  -3.695 -18.411  1.00  0.00     0.013 C 
HETATM    8  C17 UNL     1      17.257  -3.393 -19.834  1.00  0.00     0.017 C 
HETATM    9  C18 UNL     1      16.160  -2.631 -20.557  1.00  0.00     0.027 C 
HETATM   10  C19 UNL     1      16.355  -1.181 -20.057  1.00  0.00     0.010 C 
HETATM   11  C20 UNL     1      17.520  -0.647 -20.824  1.00  0.00     0.002 C 
HETATM   12  C21 UNL     1      18.711  -1.561 -20.794  1.00  0.00     0.026 C 
HETATM   13  C22 UNL     1      18.572  -2.694 -19.805  1.00  0.00     0.037 C 
HETATM   14  C23 UNL     1      19.013  -2.189 -18.462  1.00  0.00     0.033 C 
HETATM   15 CL1  UNL     1      19.810  -3.899 -20.320  1.00  0.00    -0.119 Cl
ENDROOT
BRANCH   5  16
HETATM   16  N2  UNL     1      11.209  -3.417 -19.876  1.00  0.00    -0.371 N 
ATOM     17  H2  UNL     1      10.822  -3.024 -19.018  1.00  0.00     0.161 HD
BRANCH  16  18
HETATM   18  C11 UNL     1      10.198  -3.871 -20.744  1.00  0.00     0.083 A 
HETATM   19  C12 UNL     1      10.724  -4.974 -21.722  1.00  0.00     0.025 A 
HETATM   20  C13 UNL     1      10.316  -4.136 -22.873  1.00  0.00     0.004 A 
HETATM   21  C14 UNL     1       9.854  -3.063 -21.967  1.00  0.00     0.025 A 
ENDBRANCH  16  18
ENDBRANCH   5  16
BRANCH   1  22
HETATM   22  C2  UNL     1      13.321  -1.848 -21.848  1.00  0.00    -0.073 C 
HETATM   23  C1  UNL     1      13.343  -2.424 -23.198  1.00  0.00     0.044 C 
HETATM   24  C3  UNL     1      12.570  -0.550 -21.689  1.00  0.00     0.044 C 
ENDBRANCH   1  22
BRANCH   4  25
HETATM   25  C7  UNL     1      12.754  -5.040 -17.976  1.00  0.00     0.091 A 
HETATM   26  C8  UNL     1      11.441  -4.796 -17.332  1.00  0.00     0.028 A 
HETATM   27  C9  UNL     1      12.681  -4.410 -16.573  1.00  0.00     0.028 A 
ENDBRANCH   4  25
TORSDOF 4
ENDMDL
MODEL 3
REMARK VINA RESULT: -8.002525709      2.533      5.491
REMARK  4 active torsions:
REMARK  status: ('A' for Active; 'I' for Inactive)
REMARK    1  A    between atoms: C2_2  and  C4_4 
REMARK    2  A    between atoms: N1_7  and  C7_8 
REMARK    3  A    between atoms: C10_11  and  N2_12 
REMARK    4  A    between atoms: N2_12  and  C11_14 
ROOT
HETATM    1  C4  UNL     1      13.879  -3.893 -22.037  1.00  0.00     0.018 A 
HETATM    2  C5  UNL     1      13.918  -3.987 -20.619  1.00  0.00    -0.017 A 
HETATM    3  C6  UNL     1      15.226  -4.082 -20.246  1.00  0.00     0.021 A 
HETATM    4  N1  UNL     1      16.008  -4.066 -21.308  1.00  0.00    -0.331 N 
HETATM    5  C10 UNL     1      15.205  -3.945 -22.445  1.00  0.00     0.115 A 
HETATM    6  C15 UNL     1      15.619  -4.126 -18.774  1.00  0.00     0.058 C 
HETATM    7  C16 UNL     1      14.560  -4.973 -18.112  1.00  0.00     0.013 C 
HETATM    8  C17 UNL     1      13.291  -4.158 -18.214  1.00  0.00     0.017 C 
HETATM    9  C18 UNL     1      12.803  -4.105 -19.652  1.00  0.00     0.027 C 
HETATM   10  C19 UNL     1      12.095  -5.468 -19.830  1.00  0.00     0.010 C 
HETATM   11  C20 UNL     1      10.771  -5.322 -19.154  1.00  0.00     0.002 C 
HETATM   12  C21 UNL     1      10.880  -4.769 -17.762  1.00  0.00     0.026 C 
HETATM   13  C22 UNL     1      12.299  -4.711 -17.250  1.00  0.00     0.037 C 
HETATM   14  C23 UNL     1      12.633  -6.054 -16.669  1.00  0.00     0.033 C 
HETATM   15 CL1  UNL     1      12.232  -3.564 -15.861  1.00  0.00    -0.119 Cl
ENDROOT
BRANCH   5  16
HETATM   16  N2  UNL     1      15.837  -3.858 -23.692  1.00  0.00    -0.371 N 
ATOM     17  H2  UNL     1      16.724  -4.362 -23.702  1.00  0.00     0.161 HD
BRANCH  16  18
HETATM   18  C11 UNL     1      15.565  -3.255 -24.935  1.00  0.00     0.083 A 
HETATM   19  C12 UNL     1      14.746  -4.202 -25.873  1.00  0.00     0.025 A 
HETATM   20  C13 UNL     1      15.818  -4.108 -26.891  1.00  0.00     0.004 A 
HETATM   21  C14 UNL     1      16.627  -3.248 -26.002  1.00  0.00     0.025 A 
ENDBRANCH  16  18
ENDBRANCH   5  16
BRANCH   1  22
HETATM   22  C2  UNL     1      12.679  -3.579 -22.822  1.00  0.00    -0.073 C 
HETATM   23  C1  UNL     1      12.442  -2.234 -23.359  1.00  0.00     0.044 C 
HETATM   24  C3  UNL     1      11.966  -4.711 -23.517  1.00  0.00     0.044 C 
ENDBRANCH   1  22
BRANCH   4  25
HETATM   25  C7  UNL     1      17.439  -4.200 -21.253  1.00  0.00     0.091 A 
HETATM   26  C8  UNL     1      18.218  -4.998 -22.230  1.00  0.00     0.028 A 
HETATM   27  C9  UNL     1      17.941  -5.609 -20.884  1.00  0.00     0.028 A 
ENDBRANCH   4  25
TORSDOF 4
ENDMDL
MODEL 4
REMARK VINA RESULT: -7.584142131      2.472      5.082
REMARK  4 active torsions:
REMARK  status: ('A' for Active; 'I' for Inactive)
REMARK    1  A    between atoms: C2_2  and  C4_4 
REMARK    2  A    between atoms: N1_7  and  C7_8 
REMARK    3  A    between atoms: C10_11  and  N2_12 
REMARK    4  A    between atoms: N2_12  and  C11_14 
ROOT
HETATM    1  C4  UNL     1      15.140  -4.070 -21.485  1.00  0.00     0.018 A 
HETATM    2  C5  UNL     1      14.195  -4.188 -20.430  1.00  0.00    -0.017 A 
HETATM    3  C6  UNL     1      12.958  -3.944 -20.953  1.00  0.00     0.021 A 
HETATM    4  N1  UNL     1      13.051  -3.675 -22.241  1.00  0.00    -0.331 N 
HETATM    5  C10 UNL     1      14.396  -3.747 -22.611  1.00  0.00     0.115 A 
HETATM    6  C15 UNL     1      11.707  -4.062 -20.091  1.00  0.00     0.058 C 
HETATM    7  C16 UNL     1      12.104  -3.504 -18.746  1.00  0.00     0.013 C 
HETATM    8  C17 UNL     1      13.118  -4.485 -18.203  1.00  0.00     0.017 C 
HETATM    9  C18 UNL     1      14.420  -4.396 -18.981  1.00  0.00     0.027 C 
HETATM   10  C19 UNL     1      15.105  -3.151 -18.372  1.00  0.00     0.010 C 
HETATM   11  C20 UNL     1      15.673  -3.606 -17.067  1.00  0.00     0.002 C 
HETATM   12  C21 UNL     1      14.676  -4.340 -16.217  1.00  0.00     0.026 C 
HETATM   13  C22 UNL     1      13.262  -4.249 -16.739  1.00  0.00     0.037 C 
HETATM   14  C23 UNL     1      12.662  -2.974 -16.222  1.00  0.00     0.033 C 
HETATM   15 CL1  UNL     1      12.387  -5.589 -15.910  1.00  0.00    -0.119 Cl
ENDROOT
BRANCH   5  16
HETATM   16  N2  UNL     1      14.720  -3.543 -23.958  1.00  0.00    -0.371 N 
ATOM     17  H2  UNL     1      14.400  -2.632 -24.290  1.00  0.00     0.161 HD
BRANCH  16  18
HETATM   18  C11 UNL     1      15.372  -4.268 -24.974  1.00  0.00     0.083 A 
HETATM   19  C12 UNL     1      16.581  -3.473 -25.569  1.00  0.00     0.025 A 
HETATM   20  C13 UNL     1      15.968  -3.565 -26.914  1.00  0.00     0.004 A 
HETATM   21  C14 UNL     1      14.795  -4.277 -26.364  1.00  0.00     0.025 A 
ENDBRANCH  16  18
ENDBRANCH   5  16
BRANCH   1  22
HETATM   22  C2  UNL     1      16.554  -4.447 -21.385  1.00  0.00    -0.073 C 
HETATM   23  C1  UNL     1      17.046  -5.731 -21.900  1.00  0.00     0.044 C 
HETATM   24  C3  UNL     1      17.578  -3.348 -21.247  1.00  0.00     0.044 C 
ENDBRANCH   1  22
BRANCH   4  25
HETATM   25  C7  UNL     1      11.928  -3.325 -23.069  1.00  0.00     0.091 A 
HETATM   26  C8  UNL     1      10.612  -4.002 -22.981  1.00  0.00     0.028 A 
HETATM   27  C9  UNL     1      11.532  -4.395 -24.104  1.00  0.00     0.028 A 
ENDBRANCH   4  25
TORSDOF 4
ENDMDL
MODEL 5
REMARK VINA RESULT: -7.516516808      2.286      5.364
REMARK  4 active torsions:
REMARK  status: ('A' for Active; 'I' for Inactive)
REMARK    1  A    between atoms: C2_2  and  C4_4 
REMARK    2  A    between atoms: N1_7  and  C7_8 
REMARK    3  A    between atoms: C10_11  and  N2_12 
REMARK    4  A    between atoms: N2_12  and  C11_14 
ROOT
HETATM    1  C4  UNL     1      13.697  -3.241 -22.330  1.00  0.00     0.018 A 
HETATM    2  C5  UNL     1      13.791  -2.321 -21.251  1.00  0.00    -0.017 A 
HETATM    3  C6  UNL     1      15.070  -2.368 -20.778  1.00  0.00     0.021 A 
HETATM    4  N1  UNL     1      15.780  -3.245 -21.461  1.00  0.00    -0.331 N 
HETATM    5  C10 UNL     1      14.959  -3.808 -22.442  1.00  0.00     0.115 A 
HETATM    6  C15 UNL     1      15.524  -1.442 -19.656  1.00  0.00     0.058 C 
HETATM    7  C16 UNL     1      14.349  -1.367 -18.711  1.00  0.00     0.013 C 
HETATM    8  C17 UNL     1      13.274  -0.641 -19.486  1.00  0.00     0.017 C 
HETATM    9  C18 UNL     1      12.730  -1.520 -20.600  1.00  0.00     0.027 C 
HETATM   10  C19 UNL     1      11.747  -2.454 -19.858  1.00  0.00     0.010 C 
HETATM   11  C20 UNL     1      10.520  -1.635 -19.621  1.00  0.00     0.002 C 
HETATM   12  C21 UNL     1      10.816  -0.300 -19.000  1.00  0.00     0.026 C 
HETATM   13  C22 UNL     1      12.242  -0.165 -18.522  1.00  0.00     0.037 C 
HETATM   14  C23 UNL     1      12.321  -0.747 -17.141  1.00  0.00     0.033 C 
HETATM   15 CL1  UNL     1      12.489   1.611 -18.335  1.00  0.00    -0.119 Cl
ENDROOT
BRANCH   5  16
HETATM   16  N2  UNL     1      15.527  -4.737 -23.323  1.00  0.00    -0.371 N 
ATOM     17  H2  UNL     1      15.859  -5.568 -22.833  1.00  0.00     0.161 HD
BRANCH  16  18
HETATM   18  C11 UNL     1      15.760  -4.821 -24.709  1.00  0.00     0.083 A 
HETATM   19  C12 UNL     1      16.503  -3.555 -25.250  1.00  0.00     0.025 A 
HETATM   20  C13 UNL     1      15.389  -3.315 -26.195  1.00  0.00     0.004 A 
HETATM   21  C14 UNL     1      14.650  -4.481 -25.667  1.00  0.00     0.025 A 
ENDBRANCH  16  18
ENDBRANCH   5  16
BRANCH   1  22
HETATM   22  C2  UNL     1      12.548  -3.351 -23.236  1.00  0.00    -0.073 C 
HETATM   23  C1  UNL     1      11.549  -4.416 -23.085  1.00  0.00     0.044 C 
HETATM   24  C3  UNL     1      12.098  -2.113 -23.970  1.00  0.00     0.044 C 
ENDBRANCH   1  22
BRANCH   4  25
HETATM   25  C7  UNL     1      17.152  -3.564 -21.174  1.00  0.00     0.091 A 
HETATM   26  C8  UNL     1      17.760  -4.882 -21.477  1.00  0.00     0.028 A 
HETATM   27  C9  UNL     1      17.353  -4.604 -20.056  1.00  0.00     0.028 A 
ENDBRANCH   4  25
TORSDOF 4
ENDMDL
