MODEL 1
REMARK VINA RESULT: -9.228547589      0.000      0.000
REMARK  5 active torsions:
REMARK  status: ('A' for Active; 'I' for Inactive)
REMARK    1  A    between atoms: N1_2  and  C1_4 
REMARK    2  A    between atoms: C6_9  and  N2_10 
REMARK    3  A    between atoms: N2_10  and  C7_12 
REMARK    4  A    between atoms: C7_12  and  C8_14 
REMARK    5  A    between atoms: C8_14  and  C9_15 
ROOT
HETATM    1  C8  UNL     1      12.996  -3.929 -21.587  1.00  0.00     0.052 C 
HETATM    2  C15 UNL     1      11.704  -3.038 -21.536  1.00  0.00     0.052 C 
HETATM    3  C16 UNL     1      10.878  -3.283 -20.291  1.00  0.00    -0.029 C 
HETATM    4  C17 UNL     1      10.386  -4.581 -19.911  1.00  0.00    -0.030 C 
HETATM    5  C18 UNL     1      11.159  -5.523 -19.003  1.00  0.00     0.038 C 
HETATM    6  C19 UNL     1      12.562  -5.877 -19.610  1.00  0.00     0.084 C 
HETATM    7  C20 UNL     1      12.828  -4.912 -20.590  1.00  0.00    -0.169 C 
ENDROOT
BRANCH   1   8
HETATM    8  C7  UNL     1      14.108  -2.920 -21.223  1.00  0.00     0.199 C 
HETATM    9 CL1  UNL     1      13.553  -1.290 -21.019  1.00  0.00    -0.101 Cl
BRANCH   8  10
HETATM   10  N2  UNL     1      15.014  -3.447 -20.252  1.00  0.00    -0.369 N 
ATOM     11  H2  UNL     1      14.756  -3.472 -19.266  1.00  0.00     0.161 HD
BRANCH  10  12
HETATM   12  C6  UNL     1      16.268  -3.932 -20.674  1.00  0.00     0.062 A 
HETATM   13  C1  UNL     1      17.438  -3.332 -20.315  1.00  0.00     0.129 A 
HETATM   14  C2  UNL     1      18.681  -3.892 -20.712  1.00  0.00     0.038 A 
HETATM   15  C3  UNL     1      18.762  -5.029 -21.456  1.00  0.00     0.003 A 
HETATM   16  C4  UNL     1      17.591  -5.636 -21.821  1.00  0.00     0.002 A 
HETATM   17  C5  UNL     1      16.385  -5.100 -21.439  1.00  0.00     0.032 A 
BRANCH  13  18
HETATM   18  N1  UNL     1      17.502  -2.146 -19.552  1.00  0.00    -0.113 N 
HETATM   19  O1  UNL     1      18.363  -2.032 -18.623  1.00  0.00    -0.532 OA
HETATM   20  O2  UNL     1      16.696  -1.086 -19.733  1.00  0.00    -0.532 OA
ENDBRANCH  13  18
ENDBRANCH  10  12
ENDBRANCH   8  10
ENDBRANCH   1   8
BRANCH   1  21
HETATM   21  C9  UNL     1      13.090  -4.342 -23.035  1.00  0.00     0.009 C 
HETATM   22  C10 UNL     1      14.069  -3.449 -23.760  1.00  0.00     0.006 C 
HETATM   23  C11 UNL     1      14.412  -3.881 -25.141  1.00  0.00     0.000 C 
HETATM   24  C12 UNL     1      13.255  -4.404 -25.938  1.00  0.00     0.000 C 
HETATM   25  C13 UNL     1      12.254  -5.152 -25.144  1.00  0.00     0.000 C 
HETATM   26  C14 UNL     1      11.865  -4.432 -23.832  1.00  0.00     0.006 C 
ENDBRANCH   1  21
TORSDOF 5
ENDMDL
MODEL 2
REMARK VINA RESULT: -8.978350687      3.265      5.897
REMARK  5 active torsions:
REMARK  status: ('A' for Active; 'I' for Inactive)
REMARK    1  A    between atoms: N1_2  and  C1_4 
REMARK    2  A    between atoms: C6_9  and  N2_10 
REMARK    3  A    between atoms: N2_10  and  C7_12 
REMARK    4  A    between atoms: C7_12  and  C8_14 
REMARK    5  A    between atoms: C8_14  and  C9_15 
ROOT
HETATM    1  C8  UNL     1      14.682  -2.970 -20.215  1.00  0.00     0.052 C 
HETATM    2  C15 UNL     1      14.248  -3.173 -18.720  1.00  0.00     0.052 C 
HETATM    3  C16 UNL     1      13.159  -2.211 -18.295  1.00  0.00    -0.029 C 
HETATM    4  C17 UNL     1      13.281  -0.781 -18.399  1.00  0.00    -0.030 C 
HETATM    5  C18 UNL     1      12.828  -0.002 -19.623  1.00  0.00     0.038 C 
HETATM    6  C19 UNL     1      13.578  -0.483 -20.916  1.00  0.00     0.084 C 
HETATM    7  C20 UNL     1      14.127  -1.737 -20.615  1.00  0.00    -0.169 C 
ENDROOT
BRANCH   1   8
HETATM    8  C7  UNL     1      14.005  -4.165 -20.922  1.00  0.00     0.199 C 
HETATM    9 CL1  UNL     1      13.765  -5.550 -19.907  1.00  0.00    -0.101 Cl
BRANCH   8  10
HETATM   10  N2  UNL     1      12.925  -3.750 -21.760  1.00  0.00    -0.369 N 
ATOM     11  H2  UNL     1      12.156  -3.202 -21.376  1.00  0.00     0.161 HD
BRANCH  10  12
HETATM   12  C6  UNL     1      12.935  -4.109 -23.122  1.00  0.00     0.062 A 
HETATM   13  C1  UNL     1      11.787  -4.289 -23.836  1.00  0.00     0.129 A 
HETATM   14  C2  UNL     1      11.846  -4.588 -25.222  1.00  0.00     0.038 A 
HETATM   15  C3  UNL     1      13.026  -4.711 -25.891  1.00  0.00     0.003 A 
HETATM   16  C4  UNL     1      14.182  -4.534 -25.180  1.00  0.00     0.002 A 
HETATM   17  C5  UNL     1      14.132  -4.242 -23.838  1.00  0.00     0.032 A 
BRANCH  13  18
HETATM   18  N1  UNL     1      10.498  -4.198 -23.270  1.00  0.00    -0.113 N 
HETATM   19  O1  UNL     1       9.522  -3.784 -23.972  1.00  0.00    -0.532 OA
HETATM   20  O2  UNL     1      10.204  -4.526 -22.000  1.00  0.00    -0.532 OA
ENDBRANCH  13  18
ENDBRANCH  10  12
ENDBRANCH   8  10
ENDBRANCH   1   8
BRANCH   1  21
HETATM   21  C9  UNL     1      16.182  -3.137 -20.178  1.00  0.00     0.009 C 
HETATM   22  C10 UNL     1      16.820  -1.902 -19.587  1.00  0.00     0.006 C 
HETATM   23  C11 UNL     1      18.275  -2.022 -19.301  1.00  0.00     0.000 C 
HETATM   24  C12 UNL     1      19.059  -2.756 -20.346  1.00  0.00     0.000 C 
HETATM   25  C13 UNL     1      18.327  -3.870 -20.991  1.00  0.00     0.000 C 
HETATM   26  C14 UNL     1      16.891  -3.483 -21.412  1.00  0.00     0.006 C 
ENDBRANCH   1  21
TORSDOF 5
ENDMDL
MODEL 3
REMARK VINA RESULT: -8.976354911      1.620      2.286
REMARK  5 active torsions:
REMARK  status: ('A' for Active; 'I' for Inactive)
REMARK    1  A    between atoms: N1_2  and  C1_4 
REMARK    2  A    between atoms: C6_9  and  N2_10 
REMARK    3  A    between atoms: N2_10  and  C7_12 
REMARK    4  A    between atoms: C7_12  and  C8_14 
REMARK    5  A    between atoms: C8_14  and  C9_15 
ROOT
HETATM    1  C8  UNL     1      13.092  -3.403 -21.611  1.00  0.00     0.052 C 
HETATM    2  C15 UNL     1      11.622  -2.859 -21.510  1.00  0.00     0.052 C 
HETATM    3  C16 UNL     1      10.855  -3.469 -20.357  1.00  0.00    -0.029 C 
HETATM    4  C17 UNL     1      10.682  -4.887 -20.182  1.00  0.00    -0.030 C 
HETATM    5  C18 UNL     1      11.641  -5.741 -19.369  1.00  0.00     0.038 C 
HETATM    6  C19 UNL     1      13.101  -5.663 -19.941  1.00  0.00     0.084 C 
HETATM    7  C20 UNL     1      13.146  -4.531 -20.766  1.00  0.00    -0.169 C 
ENDROOT
BRANCH   1   8
HETATM    8  C7  UNL     1      13.920  -2.224 -21.054  1.00  0.00     0.199 C 
HETATM    9 CL1  UNL     1      13.019  -0.758 -20.842  1.00  0.00    -0.101 Cl
BRANCH   8  10
HETATM   10  N2  UNL     1      14.795  -2.633 -20.001  1.00  0.00    -0.369 N 
ATOM     11  H2  UNL     1      14.420  -3.072 -19.160  1.00  0.00     0.161 HD
BRANCH  10  12
HETATM   12  C6  UNL     1      16.181  -2.421 -20.137  1.00  0.00     0.062 A 
HETATM   13  C1  UNL     1      17.074  -3.451 -20.166  1.00  0.00     0.129 A 
HETATM   14  C2  UNL     1      18.456  -3.193 -20.369  1.00  0.00     0.038 A 
HETATM   15  C3  UNL     1      18.945  -1.934 -20.537  1.00  0.00     0.003 A 
HETATM   16  C4  UNL     1      18.054  -0.896 -20.507  1.00  0.00     0.002 A 
HETATM   17  C5  UNL     1      16.715  -1.138 -20.313  1.00  0.00     0.032 A 
BRANCH  13  18
HETATM   18  N1  UNL     1      16.708  -4.803 -19.999  1.00  0.00    -0.113 N 
HETATM   19  O1  UNL     1      16.277  -5.212 -18.875  1.00  0.00    -0.532 OA
HETATM   20  O2  UNL     1      16.781  -5.732 -20.968  1.00  0.00    -0.532 OA
ENDBRANCH  13  18
ENDBRANCH  10  12
ENDBRANCH   8  10
ENDBRANCH   1   8
BRANCH   1  21
HETATM   21  C9  UNL     1      13.312  -3.570 -23.094  1.00  0.00     0.009 C 
HETATM   22  C10 UNL     1      12.341  -4.588 -23.644  1.00  0.00     0.006 C 
HETATM   23  C11 UNL     1      12.310  -4.691 -25.128  1.00  0.00     0.000 C 
HETATM   24  C12 UNL     1      13.653  -4.611 -25.788  1.00  0.00     0.000 C 
HETATM   25  C13 UNL     1      14.611  -3.702 -25.118  1.00  0.00     0.000 C 
HETATM   26  C14 UNL     1      14.653  -3.894 -23.584  1.00  0.00     0.006 C 
ENDBRANCH   1  21
TORSDOF 5
ENDMDL
MODEL 4
REMARK VINA RESULT: -8.959967809      2.612      5.253
REMARK  5 active torsions:
REMARK  status: ('A' for Active; 'I' for Inactive)
REMARK    1  A    between atoms: N1_2  and  C1_4 
REMARK    2  A    between atoms: C6_9  and  N2_10 
REMARK    3  A    between atoms: N2_10  and  C7_12 
REMARK    4  A    between atoms: C7_12  and  C8_14 
REMARK    5  A    between atoms: C8_14  and  C9_15 
ROOT
HETATM    1  C8  UNL     1      15.849  -3.819 -21.581  1.00  0.00     0.052 C 
HETATM    2  C15 UNL     1      16.408  -5.284 -21.487  1.00  0.00     0.052 C 
HETATM    3  C16 UNL     1      17.700  -5.363 -20.701  1.00  0.00    -0.029 C 
HETATM    4  C17 UNL     1      18.872  -4.594 -21.025  1.00  0.00    -0.030 C 
HETATM    5  C18 UNL     1      19.152  -3.224 -20.428  1.00  0.00     0.038 C 
HETATM    6  C19 UNL     1      18.001  -2.210 -20.761  1.00  0.00     0.084 C 
HETATM    7  C20 UNL     1      16.896  -2.977 -21.155  1.00  0.00    -0.169 C 
ENDROOT
BRANCH   1   8
HETATM    8  C7  UNL     1      14.680  -3.846 -20.571  1.00  0.00     0.199 C 
HETATM    9 CL1  UNL     1      14.194  -5.438 -20.085  1.00  0.00    -0.101 Cl
BRANCH   8  10
HETATM   10  N2  UNL     1      14.825  -2.849 -19.558  1.00  0.00    -0.369 N 
ATOM     11  H2  UNL     1      15.523  -2.958 -18.822  1.00  0.00     0.161 HD
BRANCH  10  12
HETATM   12  C6  UNL     1      13.991  -1.714 -19.587  1.00  0.00     0.062 A 
HETATM   13  C1  UNL     1      13.154  -1.400 -18.558  1.00  0.00     0.129 A 
HETATM   14  C2  UNL     1      12.378  -0.212 -18.604  1.00  0.00     0.038 A 
HETATM   15  C3  UNL     1      12.429   0.651 -19.656  1.00  0.00     0.003 A 
HETATM   16  C4  UNL     1      13.266   0.341 -20.693  1.00  0.00     0.002 A 
HETATM   17  C5  UNL     1      14.022  -0.807 -20.655  1.00  0.00     0.032 A 
BRANCH  13  18
HETATM   18  N1  UNL     1      12.996  -2.205 -17.410  1.00  0.00    -0.113 N 
HETATM   19  O1  UNL     1      12.676  -1.675 -16.299  1.00  0.00    -0.532 OA
HETATM   20  O2  UNL     1      13.162  -3.539 -17.393  1.00  0.00    -0.532 OA
ENDBRANCH  13  18
ENDBRANCH  10  12
ENDBRANCH   8  10
ENDBRANCH   1   8
BRANCH   1  21
HETATM   21  C9  UNL     1      15.340  -3.721 -22.999  1.00  0.00     0.009 C 
HETATM   22  C10 UNL     1      13.831  -3.795 -23.007  1.00  0.00     0.006 C 
HETATM   23  C11 UNL     1      13.194  -3.498 -24.318  1.00  0.00     0.000 C 
HETATM   24  C12 UNL     1      13.907  -4.074 -25.504  1.00  0.00     0.000 C 
HETATM   25  C13 UNL     1      15.382  -4.105 -25.376  1.00  0.00     0.000 C 
HETATM   26  C14 UNL     1      15.857  -4.646 -24.008  1.00  0.00     0.006 C 
ENDBRANCH   1  21
TORSDOF 5
ENDMDL
MODEL 5
REMARK VINA RESULT: -8.941927693      2.424      5.579
REMARK  5 active torsions:
REMARK  status: ('A' for Active; 'I' for Inactive)
REMARK    1  A    between atoms: N1_2  and  C1_4 
REMARK    2  A    between atoms: C6_9  and  N2_10 
REMARK    3  A    between atoms: N2_10  and  C7_12 
REMARK    4  A    between atoms: C7_12  and  C8_14 
REMARK    5  A    between atoms: C8_14  and  C9_15 
ROOT
HETATM    1  C8  UNL     1      15.900  -3.991 -21.893  1.00  0.00     0.052 C 
HETATM    2  C15 UNL     1      16.624  -5.384 -21.899  1.00  0.00     0.052 C 
HETATM    3  C16 UNL     1      17.853  -5.404 -21.014  1.00  0.00    -0.029 C 
HETATM    4  C17 UNL     1      18.944  -4.477 -21.154  1.00  0.00    -0.030 C 
HETATM    5  C18 UNL     1      19.010  -3.160 -20.398  1.00  0.00     0.038 C 
HETATM    6  C19 UNL     1      17.772  -2.251 -20.727  1.00  0.00     0.084 C 
HETATM    7  C20 UNL     1      16.802  -3.089 -21.292  1.00  0.00    -0.169 C 
ENDROOT
BRANCH   1   8
HETATM    8  C7  UNL     1      14.670  -4.262 -20.998  1.00  0.00     0.199 C 
HETATM    9 CL1  UNL     1      15.046  -5.000 -19.475  1.00  0.00    -0.101 Cl
BRANCH   8  10
HETATM   10  N2  UNL     1      13.750  -3.169 -21.006  1.00  0.00    -0.369 N 
ATOM     11  H2  UNL     1      14.058  -2.234 -20.739  1.00  0.00     0.161 HD
BRANCH  10  12
HETATM   12  C6  UNL     1      12.413  -3.398 -21.387  1.00  0.00     0.062 A 
HETATM   13  C1  UNL     1      11.771  -2.611 -22.296  1.00  0.00     0.129 A 
HETATM   14  C2  UNL     1      10.444  -2.918 -22.697  1.00  0.00     0.038 A 
HETATM   15  C3  UNL     1       9.763  -3.987 -22.201  1.00  0.00     0.003 A 
HETATM   16  C4  UNL     1      10.401  -4.780 -21.286  1.00  0.00     0.002 A 
HETATM   17  C5  UNL     1      11.686  -4.490 -20.895  1.00  0.00     0.032 A 
BRANCH  13  18
HETATM   18  N1  UNL     1      12.354  -1.469 -22.886  1.00  0.00    -0.113 N 
HETATM   19  O1  UNL     1      12.601  -1.452 -24.133  1.00  0.00    -0.532 OA
HETATM   20  O2  UNL     1      12.682  -0.354 -22.212  1.00  0.00    -0.532 OA
ENDBRANCH  13  18
ENDBRANCH  10  12
ENDBRANCH   8  10
ENDBRANCH   1   8
BRANCH   1  21
HETATM   21  C9  UNL     1      15.492  -3.793 -23.332  1.00  0.00     0.009 C 
HETATM   22  C10 UNL     1      14.450  -4.818 -23.714  1.00  0.00     0.006 C 
HETATM   23  C11 UNL     1      13.810  -4.601 -25.039  1.00  0.00     0.000 C 
HETATM   24  C12 UNL     1      14.747  -4.153 -26.120  1.00  0.00     0.000 C 
HETATM   25  C13 UNL     1      15.834  -3.261 -25.656  1.00  0.00     0.000 C 
HETATM   26  C14 UNL     1      16.525  -3.770 -24.370  1.00  0.00     0.006 C 
ENDBRANCH   1  21
TORSDOF 5
ENDMDL
