MODEL 1
REMARK VINA RESULT: -9.032787101      0.000      0.000
REMARK  4 active torsions:
REMARK  status: ('A' for Active; 'I' for Inactive)
REMARK    1  A    between atoms: C2_2  and  C3_3 
REMARK    2  A    between atoms: C4_4  and  N1_5 
REMARK    3  A    between atoms: N1_5  and  C5_7 
REMARK    4  A    between atoms: N2_19  and  C16_20 
ROOT
HETATM    1  C3  UNL     1      12.526  -3.199 -21.587  1.00  0.00     0.007 C 
HETATM    2  C4  UNL     1      12.082  -4.591 -21.999  1.00  0.00     0.131 C 
HETATM    3  C12 UNL     1      10.627  -4.866 -21.751  1.00  0.00     0.011 C 
HETATM    4  C13 UNL     1      10.299  -5.345 -20.365  1.00  0.00     0.012 C 
HETATM    5  C14 UNL     1       9.734  -3.719 -22.083  1.00  0.00     0.026 C 
HETATM    6  C15 UNL     1      10.497  -2.537 -22.590  1.00  0.00     0.123 C 
HETATM    7  N2  UNL     1      11.645  -2.170 -21.822  1.00  0.00    -0.381 N 
ENDROOT
BRANCH   2   8
HETATM    8  N1  UNL     1      12.396  -4.938 -23.357  1.00  0.00    -0.379 N 
ATOM      9  H1  UNL     1      11.712  -5.535 -23.819  1.00  0.00     0.160 HD
BRANCH   8  10
HETATM   10  C5  UNL     1      13.493  -4.583 -24.138  1.00  0.00     0.034 A 
HETATM   11  C6  UNL     1      14.722  -4.362 -23.581  1.00  0.00     0.033 A 
HETATM   12  C7  UNL     1      15.815  -4.053 -24.396  1.00  0.00     0.044 A 
HETATM   13  C8  UNL     1      15.695  -3.964 -25.764  1.00  0.00     0.117 A 
HETATM   14  F1  UNL     1      16.751  -3.664 -26.571  1.00  0.00    -0.206 F 
HETATM   15  C9  UNL     1      14.456  -4.188 -26.326  1.00  0.00     0.051 A 
HETATM   16  C10 UNL     1      13.383  -4.492 -25.503  1.00  0.00    -0.033 A 
HETATM   17  C11 UNL     1      12.065  -4.722 -26.149  1.00  0.00     0.050 C 
ENDBRANCH   8  10
ENDBRANCH   2   8
BRANCH   1  18
HETATM   18  C2  UNL     1      13.476  -3.215 -20.455  1.00  0.00     0.050 C 
HETATM   19  C1  UNL     1      13.977  -4.489 -19.913  1.00  0.00     0.011 C 
ENDBRANCH   1  18
BRANCH   7  20
HETATM   20  C16 UNL     1      11.545  -0.982 -21.122  1.00  0.00     0.084 C 
HETATM   21  C17 UNL     1      12.424   0.146 -21.538  1.00  0.00     0.025 C 
HETATM   22  C18 UNL     1      13.241   0.795 -20.456  1.00  0.00     0.002 C 
HETATM   23  C19 UNL     1      12.391   1.718 -19.637  1.00  0.00     0.000 C 
HETATM   24  C20 UNL     1      12.331   1.205 -18.214  1.00  0.00     0.000 C 
HETATM   25  C21 UNL     1      11.044   0.519 -17.872  1.00  0.00     0.000 C 
HETATM   26  C22 UNL     1      10.459  -0.232 -19.047  1.00  0.00     0.002 C 
HETATM   27  C23 UNL     1      11.505  -1.154 -19.611  1.00  0.00     0.025 C 
ENDBRANCH   7  20
TORSDOF 4
ENDMDL
MODEL 2
REMARK VINA RESULT: -8.919103661      3.607      6.556
REMARK  4 active torsions:
REMARK  status: ('A' for Active; 'I' for Inactive)
REMARK    1  A    between atoms: C2_2  and  C3_3 
REMARK    2  A    between atoms: C4_4  and  N1_5 
REMARK    3  A    between atoms: N1_5  and  C5_7 
REMARK    4  A    between atoms: N2_19  and  C16_20 
ROOT
HETATM    1  C3  UNL     1      13.695  -2.162 -20.805  1.00  0.00     0.007 C 
HETATM    2  C4  UNL     1      12.221  -2.105 -21.164  1.00  0.00     0.131 C 
HETATM    3  C12 UNL     1      11.891  -2.736 -22.486  1.00  0.00     0.011 C 
HETATM    4  C13 UNL     1      12.053  -1.834 -23.678  1.00  0.00     0.012 C 
HETATM    5  C14 UNL     1      12.626  -4.007 -22.746  1.00  0.00     0.026 C 
HETATM    6  C15 UNL     1      13.542  -4.369 -21.621  1.00  0.00     0.123 C 
HETATM    7  N2  UNL     1      14.372  -3.312 -21.137  1.00  0.00    -0.381 N 
ENDROOT
BRANCH   2   8
HETATM    8  N1  UNL     1      11.343  -2.639 -20.161  1.00  0.00    -0.379 N 
ATOM      9  H1  UNL     1      10.365  -2.367 -20.255  1.00  0.00     0.160 HD
BRANCH   8  10
HETATM   10  C5  UNL     1      11.623  -3.471 -19.080  1.00  0.00     0.034 A 
HETATM   11  C6  UNL     1      12.395  -3.044 -18.036  1.00  0.00     0.033 A 
HETATM   12  C7  UNL     1      12.621  -3.885 -16.942  1.00  0.00     0.044 A 
HETATM   13  C8  UNL     1      12.080  -5.149 -16.878  1.00  0.00     0.117 A 
HETATM   14  F1  UNL     1      12.291  -5.979 -15.818  1.00  0.00    -0.206 F 
HETATM   15  C9  UNL     1      11.300  -5.578 -17.929  1.00  0.00     0.051 A 
HETATM   16  C10 UNL     1      11.087  -4.732 -19.007  1.00  0.00    -0.033 A 
HETATM   17  C11 UNL     1      10.245  -5.236 -20.121  1.00  0.00     0.050 C 
ENDBRANCH   8  10
ENDBRANCH   2   8
BRANCH   1  18
HETATM   18  C2  UNL     1      14.326  -0.827 -20.769  1.00  0.00     0.050 C 
HETATM   19  C1  UNL     1      13.504   0.394 -20.834  1.00  0.00     0.011 C 
ENDBRANCH   1  18
BRANCH   7  20
HETATM   20  C16 UNL     1      15.722  -3.435 -21.410  1.00  0.00     0.084 C 
HETATM   21  C17 UNL     1      16.179  -4.665 -22.115  1.00  0.00     0.025 C 
HETATM   22  C18 UNL     1      17.310  -5.423 -21.478  1.00  0.00     0.002 C 
HETATM   23  C19 UNL     1      18.617  -4.743 -21.752  1.00  0.00     0.000 C 
HETATM   24  C20 UNL     1      19.217  -4.276 -20.442  1.00  0.00     0.000 C 
HETATM   25  C21 UNL     1      19.068  -2.805 -20.200  1.00  0.00     0.000 C 
HETATM   26  C22 UNL     1      17.778  -2.253 -20.762  1.00  0.00     0.002 C 
HETATM   27  C23 UNL     1      16.627  -3.070 -20.243  1.00  0.00     0.025 C 
ENDBRANCH   7  20
TORSDOF 4
ENDMDL
MODEL 3
REMARK VINA RESULT: -8.760931027      3.490      7.035
REMARK  4 active torsions:
REMARK  status: ('A' for Active; 'I' for Inactive)
REMARK    1  A    between atoms: C2_2  and  C3_3 
REMARK    2  A    between atoms: C4_4  and  N1_5 
REMARK    3  A    between atoms: N1_5  and  C5_7 
REMARK    4  A    between atoms: N2_19  and  C16_20 
ROOT
HETATM    1  C3  UNL     1      13.330  -2.583 -20.885  1.00  0.00     0.007 C 
HETATM    2  C4  UNL     1      11.947  -3.022 -20.437  1.00  0.00     0.131 C 
HETATM    3  C12 UNL     1      11.802  -4.507 -20.274  1.00  0.00     0.011 C 
HETATM    4  C13 UNL     1      11.455  -5.253 -21.532  1.00  0.00     0.012 C 
HETATM    5  C14 UNL     1      12.983  -5.161 -19.641  1.00  0.00     0.026 C 
HETATM    6  C15 UNL     1      14.062  -4.179 -19.312  1.00  0.00     0.123 C 
HETATM    7  N2  UNL     1      14.400  -3.263 -20.354  1.00  0.00    -0.381 N 
ENDROOT
BRANCH   2   8
HETATM    8  N1  UNL     1      11.475  -2.374 -19.246  1.00  0.00    -0.379 N 
ATOM      9  H1  UNL     1      10.756  -2.883 -18.733  1.00  0.00     0.160 HD
BRANCH   8  10
HETATM   10  C5  UNL     1      11.849  -1.156 -18.684  1.00  0.00     0.034 A 
HETATM   11  C6  UNL     1      11.589   0.029 -19.316  1.00  0.00     0.033 A 
HETATM   12  C7  UNL     1      11.933   1.239 -18.705  1.00  0.00     0.044 A 
HETATM   13  C8  UNL     1      12.534   1.279 -17.467  1.00  0.00     0.117 A 
HETATM   14  F1  UNL     1      12.875   2.451 -16.860  1.00  0.00    -0.206 F 
HETATM   15  C9  UNL     1      12.794   0.085 -16.830  1.00  0.00     0.051 A 
HETATM   16  C10 UNL     1      12.447  -1.105 -17.449  1.00  0.00    -0.033 A 
HETATM   17  C11 UNL     1      12.749  -2.369 -16.730  1.00  0.00     0.050 C 
ENDBRANCH   8  10
ENDBRANCH   2   8
BRANCH   1  18
HETATM   18  C2  UNL     1      13.331  -1.993 -22.240  1.00  0.00     0.050 C 
HETATM   19  C1  UNL     1      12.076  -1.537 -22.861  1.00  0.00     0.011 C 
ENDBRANCH   1  18
BRANCH   7  20
HETATM   20  C16 UNL     1      15.643  -3.445 -20.933  1.00  0.00     0.084 C 
HETATM   21  C17 UNL     1      15.846  -4.655 -21.779  1.00  0.00     0.025 C 
HETATM   22  C18 UNL     1      17.037  -5.510 -21.451  1.00  0.00     0.002 C 
HETATM   23  C19 UNL     1      18.293  -4.890 -21.984  1.00  0.00     0.000 C 
HETATM   24  C20 UNL     1      19.201  -4.535 -20.825  1.00  0.00     0.000 C 
HETATM   25  C21 UNL     1      19.211  -3.075 -20.489  1.00  0.00     0.000 C 
HETATM   26  C22 UNL     1      17.868  -2.420 -20.717  1.00  0.00     0.002 C 
HETATM   27  C23 UNL     1      16.809  -3.201 -19.987  1.00  0.00     0.025 C 
ENDBRANCH   7  20
TORSDOF 4
ENDMDL
MODEL 4
REMARK VINA RESULT: -8.694538683      1.753      2.816
REMARK  4 active torsions:
REMARK  status: ('A' for Active; 'I' for Inactive)
REMARK    1  A    between atoms: C2_2  and  C3_3 
REMARK    2  A    between atoms: C4_4  and  N1_5 
REMARK    3  A    between atoms: N1_5  and  C5_7 
REMARK    4  A    between atoms: N2_19  and  C16_20 
ROOT
HETATM    1  C3  UNL     1      14.387  -2.463 -20.315  1.00  0.00     0.007 C 
HETATM    2  C4  UNL     1      14.996  -3.853 -20.290  1.00  0.00     0.131 C 
HETATM    3  C12 UNL     1      14.666  -4.642 -19.056  1.00  0.00     0.011 C 
HETATM    4  C13 UNL     1      15.574  -4.397 -17.884  1.00  0.00     0.012 C 
HETATM    5  C14 UNL     1      13.253  -4.488 -18.605  1.00  0.00     0.026 C 
HETATM    6  C15 UNL     1      12.475  -3.568 -19.491  1.00  0.00     0.123 C 
HETATM    7  N2  UNL     1      13.115  -2.332 -19.810  1.00  0.00    -0.381 N 
ENDROOT
BRANCH   2   8
HETATM    8  N1  UNL     1      14.701  -4.652 -21.446  1.00  0.00    -0.379 N 
ATOM      9  H1  UNL     1      14.307  -5.571 -21.247  1.00  0.00     0.160 HD
BRANCH   8  10
HETATM   10  C5  UNL     1      14.870  -4.364 -22.798  1.00  0.00     0.034 A 
HETATM   11  C6  UNL     1      16.113  -4.171 -23.334  1.00  0.00     0.033 A 
HETATM   12  C7  UNL     1      16.256  -3.930 -24.704  1.00  0.00     0.044 A 
HETATM   13  C8  UNL     1      15.168  -3.881 -25.547  1.00  0.00     0.117 A 
HETATM   14  F1  UNL     1      15.292  -3.647 -26.884  1.00  0.00    -0.206 F 
HETATM   15  C9  UNL     1      13.916  -4.078 -25.007  1.00  0.00     0.051 A 
HETATM   16  C10 UNL     1      13.792  -4.315 -23.646  1.00  0.00    -0.033 A 
HETATM   17  C11 UNL     1      12.424  -4.516 -23.105  1.00  0.00     0.050 C 
ENDBRANCH   8  10
ENDBRANCH   2   8
BRANCH   1  18
HETATM   18  C2  UNL     1      15.404  -1.392 -20.248  1.00  0.00     0.050 C 
HETATM   19  C1  UNL     1      16.839  -1.722 -20.219  1.00  0.00     0.011 C 
ENDBRANCH   1  18
BRANCH   7  20
HETATM   20  C16 UNL     1      12.556  -1.202 -19.242  1.00  0.00     0.084 C 
HETATM   21  C17 UNL     1      12.238  -0.057 -20.141  1.00  0.00     0.025 C 
HETATM   22  C18 UNL     1      12.777   1.286 -19.735  1.00  0.00     0.002 C 
HETATM   23  C19 UNL     1      11.946   1.876 -18.638  1.00  0.00     0.000 C 
HETATM   24  C20 UNL     1      12.797   2.021 -17.394  1.00  0.00     0.000 C 
HETATM   25  C21 UNL     1      12.533   0.973 -16.356  1.00  0.00     0.000 C 
HETATM   26  C22 UNL     1      12.175  -0.364 -16.961  1.00  0.00     0.002 C 
HETATM   27  C23 UNL     1      13.235  -0.753 -17.957  1.00  0.00     0.025 C 
ENDBRANCH   7  20
TORSDOF 4
ENDMDL
MODEL 5
REMARK VINA RESULT: -8.693555905      2.797      5.050
REMARK  4 active torsions:
REMARK  status: ('A' for Active; 'I' for Inactive)
REMARK    1  A    between atoms: C2_2  and  C3_3 
REMARK    2  A    between atoms: C4_4  and  N1_5 
REMARK    3  A    between atoms: N1_5  and  C5_7 
REMARK    4  A    between atoms: N2_19  and  C16_20 
ROOT
HETATM    1  C3  UNL     1      13.348  -3.022 -20.225  1.00  0.00     0.007 C 
HETATM    2  C4  UNL     1      12.084  -2.183 -20.274  1.00  0.00     0.131 C 
HETATM    3  C12 UNL     1      12.270  -0.773 -19.794  1.00  0.00     0.011 C 
HETATM    4  C13 UNL     1      12.144  -0.587 -18.308  1.00  0.00     0.012 C 
HETATM    5  C14 UNL     1      13.545  -0.146 -20.247  1.00  0.00     0.026 C 
HETATM    6  C15 UNL     1      14.364  -1.076 -21.084  1.00  0.00     0.123 C 
HETATM    7  N2  UNL     1      14.524  -2.396 -20.562  1.00  0.00    -0.381 N 
ENDROOT
BRANCH   2   8
HETATM    8  N1  UNL     1      11.437  -2.157 -21.556  1.00  0.00    -0.379 N 
ATOM      9  H1  UNL     1      10.691  -1.468 -21.649  1.00  0.00     0.160 HD
BRANCH   8  10
HETATM   10  C5  UNL     1      11.672  -2.928 -22.691  1.00  0.00     0.034 A 
HETATM   11  C6  UNL     1      12.557  -2.527 -23.653  1.00  0.00     0.033 A 
HETATM   12  C7  UNL     1      12.808  -3.345 -24.759  1.00  0.00     0.044 A 
HETATM   13  C8  UNL     1      12.183  -4.562 -24.915  1.00  0.00     0.117 A 
HETATM   14  F1  UNL     1      12.418  -5.369 -25.988  1.00  0.00    -0.206 F 
HETATM   15  C9  UNL     1      11.292  -4.966 -23.945  1.00  0.00     0.051 A 
HETATM   16  C10 UNL     1      11.055  -4.143 -22.855  1.00  0.00    -0.033 A 
HETATM   17  C11 UNL     1      10.083  -4.615 -21.835  1.00  0.00     0.050 C 
ENDBRANCH   8  10
ENDBRANCH   2   8
BRANCH   1  18
HETATM   18  C2  UNL     1      13.264  -4.124 -19.244  1.00  0.00     0.050 C 
HETATM   19  C1  UNL     1      13.308  -5.528 -19.687  1.00  0.00     0.011 C 
ENDBRANCH   1  18
BRANCH   7  20
HETATM   20  C16 UNL     1      15.796  -2.717 -20.123  1.00  0.00     0.084 C 
HETATM   21  C17 UNL     1      16.644  -1.617 -19.584  1.00  0.00     0.025 C 
HETATM   22  C18 UNL     1      18.019  -1.480 -20.174  1.00  0.00     0.002 C 
HETATM   23  C19 UNL     1      18.942  -2.513 -19.602  1.00  0.00     0.000 C 
HETATM   24  C20 UNL     1      19.401  -3.437 -20.710  1.00  0.00     0.000 C 
HETATM   25  C21 UNL     1      18.713  -4.768 -20.712  1.00  0.00     0.000 C 
HETATM   26  C22 UNL     1      17.275  -4.677 -20.253  1.00  0.00     0.002 C 
HETATM   27  C23 UNL     1      16.566  -3.629 -21.066  1.00  0.00     0.025 C 
ENDBRANCH   7  20
TORSDOF 4
ENDMDL
