MODEL 1
REMARK VINA RESULT: -8.449289689      0.000      0.000
REMARK  5 active torsions:
REMARK  status: ('A' for Active; 'I' for Inactive)
REMARK    1  A    between atoms: C4_4  and  C5_5 
REMARK    2  A    between atoms: C9_9  and  C10_10 
REMARK    3  A    between atoms: C10_10  and  C11_11 
REMARK    4  A    between atoms: C11_11  and  N1_12 
REMARK    5  A    between atoms: C15_17  and  O1_19 
ROOT
HETATM    1  C1  UNL     1      13.359  -1.634 -21.163  1.00  0.00     0.014 C 
HETATM    2  C2  UNL     1      14.555  -2.178 -20.996  1.00  0.00    -0.085 C 
HETATM    3  C3  UNL     1      14.813  -3.326 -21.916  1.00  0.00     0.039 C 
HETATM    4  C4  UNL     1      16.262  -3.655 -21.943  1.00  0.00    -0.005 C 
HETATM    5  C7  UNL     1      16.888  -3.938 -20.631  1.00  0.00     0.014 C 
HETATM    6  C8  UNL     1      15.966  -4.444 -19.570  1.00  0.00     0.016 C 
HETATM    7  C9  UNL     1      16.038  -3.463 -18.448  1.00  0.00    -0.036 C 
HETATM    8  C18 UNL     1      15.140  -2.264 -18.660  1.00  0.00     0.018 C 
HETATM    9  C19 UNL     1      15.375  -1.548 -19.948  1.00  0.00     0.016 C 
HETATM   10  C20 UNL     1      16.841  -1.451 -20.307  1.00  0.00     0.035 C 
HETATM   11  C21 UNL     1      17.586  -2.716 -20.036  1.00  0.00     0.042 C 
HETATM   12 CL1  UNL     1      19.252  -2.572 -20.555  1.00  0.00    -0.119 Cl
HETATM   13  C22 UNL     1      17.472  -2.985 -18.529  1.00  0.00     0.035 C 
ENDROOT
BRANCH   7  14
HETATM   14  C10 UNL     1      15.722  -4.016 -17.095  1.00  0.00     0.029 C 
BRANCH  14  15
HETATM   15  C11 UNL     1      14.301  -3.849 -16.657  1.00  0.00     0.120 C 
BRANCH  15  16
HETATM   16  N1  UNL     1      13.596  -5.038 -17.045  1.00  0.00    -0.396 N 
HETATM   17  C12 UNL     1      12.705  -5.015 -17.951  1.00  0.00    -0.015 C 
HETATM   18  C13 UNL     1      11.935  -6.199 -18.406  1.00  0.00     0.055 C 
HETATM   19  C17 UNL     1      12.219  -3.866 -18.754  1.00  0.00     0.089 C 
HETATM   20  C14 UNL     1      10.553  -5.613 -18.622  1.00  0.00     0.043 C 
HETATM   21  C15 UNL     1      10.904  -4.323 -19.358  1.00  0.00     0.059 C 
HETATM   22  C16 UNL     1      11.063  -4.673 -20.815  1.00  0.00     0.046 C 
ATOM     23  H1  UNL     1      13.814  -5.920 -16.583  1.00  0.00     0.159 HD
BRANCH  21  24
HETATM   24  O1  UNL     1       9.888  -3.378 -19.158  1.00  0.00    -0.390 OA
ATOM     25  H1  UNL     1       9.445  -3.557 -18.338  1.00  0.00     0.210 HD
ENDBRANCH  21  24
ENDBRANCH  15  16
ENDBRANCH  14  15
ENDBRANCH   7  14
BRANCH   4  26
HETATM   26  C5  UNL     1      16.515  -4.776 -22.959  1.00  0.00     0.001 C 
HETATM   27  C6  UNL     1      15.535  -4.604 -24.108  1.00  0.00     0.005 C 
ENDBRANCH   4  26
TORSDOF 5
ENDMDL
MODEL 2
REMARK VINA RESULT: -8.440318537      3.456      6.357
REMARK  5 active torsions:
REMARK  status: ('A' for Active; 'I' for Inactive)
REMARK    1  A    between atoms: C4_4  and  C5_5 
REMARK    2  A    between atoms: C9_9  and  C10_10 
REMARK    3  A    between atoms: C10_10  and  C11_11 
REMARK    4  A    between atoms: C11_11  and  N1_12 
REMARK    5  A    between atoms: C15_17  and  O1_19 
ROOT
HETATM    1  C1  UNL     1      13.390  -0.179 -21.058  1.00  0.00     0.014 C 
HETATM    2  C2  UNL     1      12.895  -1.407 -21.040  1.00  0.00    -0.085 C 
HETATM    3  C3  UNL     1      13.023  -2.074 -19.710  1.00  0.00     0.039 C 
HETATM    4  C4  UNL     1      12.149  -3.273 -19.643  1.00  0.00    -0.005 C 
HETATM    5  C7  UNL     1      12.346  -4.282 -20.709  1.00  0.00     0.014 C 
HETATM    6  C8  UNL     1      13.705  -4.310 -21.329  1.00  0.00     0.016 C 
HETATM    7  C9  UNL     1      13.509  -4.040 -22.783  1.00  0.00    -0.036 C 
HETATM    8  C18 UNL     1      13.394  -2.564 -23.094  1.00  0.00     0.018 C 
HETATM    9  C19 UNL     1      12.329  -1.861 -22.322  1.00  0.00     0.016 C 
HETATM   10  C20 UNL     1      11.073  -2.687 -22.166  1.00  0.00     0.035 C 
HETATM   11  C21 UNL     1      11.359  -4.121 -21.863  1.00  0.00     0.042 C 
HETATM   12 CL1  UNL     1       9.870  -5.005 -21.605  1.00  0.00    -0.119 Cl
HETATM   13  C22 UNL     1      12.161  -4.674 -23.050  1.00  0.00     0.035 C 
ENDROOT
BRANCH   7  14
HETATM   14  C10 UNL     1      14.563  -4.599 -23.684  1.00  0.00     0.029 C 
BRANCH  14  15
HETATM   15  C11 UNL     1      15.888  -3.906 -23.619  1.00  0.00     0.120 C 
BRANCH  15  16
HETATM   16  N1  UNL     1      16.734  -4.689 -22.763  1.00  0.00    -0.396 N 
HETATM   17  C12 UNL     1      17.343  -4.171 -21.776  1.00  0.00    -0.015 C 
HETATM   18  C13 UNL     1      18.232  -4.913 -20.848  1.00  0.00     0.055 C 
HETATM   19  C17 UNL     1      17.332  -2.763 -21.307  1.00  0.00     0.089 C 
HETATM   20  C14 UNL     1      19.341  -3.910 -20.602  1.00  0.00     0.043 C 
HETATM   21  C15 UNL     1      18.527  -2.637 -20.379  1.00  0.00     0.059 C 
HETATM   22  C16 UNL     1      18.100  -2.630 -18.935  1.00  0.00     0.046 C 
ATOM     23  H1  UNL     1      16.849  -5.685 -22.952  1.00  0.00     0.159 HD
BRANCH  21  24
HETATM   24  O1  UNL     1      19.310  -1.519 -20.696  1.00  0.00    -0.390 OA
ATOM     25  H1  UNL     1      19.181  -1.289 -21.608  1.00  0.00     0.210 HD
ENDBRANCH  21  24
ENDBRANCH  15  16
ENDBRANCH  14  15
ENDBRANCH   7  14
BRANCH   4  26
HETATM   26  C5  UNL     1      12.229  -3.890 -18.240  1.00  0.00     0.001 C 
HETATM   27  C6  UNL     1      11.119  -4.921 -18.113  1.00  0.00     0.005 C 
ENDBRANCH   4  26
TORSDOF 5
ENDMDL
MODEL 3
REMARK VINA RESULT: -8.187806026      3.596      6.274
REMARK  5 active torsions:
REMARK  status: ('A' for Active; 'I' for Inactive)
REMARK    1  A    between atoms: C4_4  and  C5_5 
REMARK    2  A    between atoms: C9_9  and  C10_10 
REMARK    3  A    between atoms: C10_10  and  C11_11 
REMARK    4  A    between atoms: C11_11  and  N1_12 
REMARK    5  A    between atoms: C15_17  and  O1_19 
ROOT
HETATM    1  C1  UNL     1      14.399  -3.459 -17.859  1.00  0.00     0.014 C 
HETATM    2  C2  UNL     1      13.769  -2.427 -18.400  1.00  0.00    -0.085 C 
HETATM    3  C3  UNL     1      13.037  -1.595 -17.399  1.00  0.00     0.039 C 
HETATM    4  C4  UNL     1      12.664  -0.282 -17.987  1.00  0.00    -0.005 C 
HETATM    5  C7  UNL     1      11.878  -0.331 -19.242  1.00  0.00     0.014 C 
HETATM    6  C8  UNL     1      11.062  -1.565 -19.445  1.00  0.00     0.016 C 
HETATM    7  C9  UNL     1      11.547  -2.186 -20.712  1.00  0.00    -0.036 C 
HETATM    8  C18 UNL     1      12.784  -3.033 -20.514  1.00  0.00     0.018 C 
HETATM    9  C19 UNL     1      13.916  -2.313 -19.861  1.00  0.00     0.016 C 
HETATM   10  C20 UNL     1      14.062  -0.888 -20.342  1.00  0.00     0.035 C 
HETATM   11  C21 UNL     1      12.750  -0.191 -20.488  1.00  0.00     0.042 C 
HETATM   12 CL1  UNL     1      12.988   1.479 -20.960  1.00  0.00    -0.119 Cl
HETATM   13  C22 UNL     1      11.943  -0.976 -21.533  1.00  0.00     0.035 C 
ENDROOT
BRANCH   7  14
HETATM   14  C10 UNL     1      10.546  -3.030 -21.434  1.00  0.00     0.029 C 
BRANCH  14  15
HETATM   15  C11 UNL     1      10.412  -2.745 -22.897  1.00  0.00     0.120 C 
BRANCH  15  16
HETATM   16  N1  UNL     1      10.780  -3.943 -23.598  1.00  0.00    -0.396 N 
HETATM   17  C12 UNL     1      11.967  -4.134 -24.010  1.00  0.00    -0.015 C 
HETATM   18  C13 UNL     1      12.423  -5.343 -24.738  1.00  0.00     0.055 C 
HETATM   19  C17 UNL     1      13.153  -3.251 -23.882  1.00  0.00     0.089 C 
HETATM   20  C14 UNL     1      13.375  -4.755 -25.762  1.00  0.00     0.043 C 
HETATM   21  C15 UNL     1      14.158  -3.777 -24.891  1.00  0.00     0.059 C 
HETATM   22  C16 UNL     1      15.252  -4.560 -24.215  1.00  0.00     0.046 C 
ATOM     23  H1  UNL     1      10.073  -4.658 -23.768  1.00  0.00     0.159 HD
BRANCH  21  24
HETATM   24  O1  UNL     1      14.673  -2.747 -25.690  1.00  0.00    -0.390 OA
ATOM     25  H1  UNL     1      13.982  -2.394 -26.238  1.00  0.00     0.210 HD
ENDBRANCH  21  24
ENDBRANCH  15  16
ENDBRANCH  14  15
ENDBRANCH   7  14
BRANCH   4  26
HETATM   26  C5  UNL     1      11.992   0.589 -16.917  1.00  0.00     0.001 C 
HETATM   27  C6  UNL     1      12.734   1.914 -16.852  1.00  0.00     0.005 C 
ENDBRANCH   4  26
TORSDOF 5
ENDMDL
MODEL 4
REMARK VINA RESULT: -8.064450251      3.158      5.371
REMARK  5 active torsions:
REMARK  status: ('A' for Active; 'I' for Inactive)
REMARK    1  A    between atoms: C4_4  and  C5_5 
REMARK    2  A    between atoms: C9_9  and  C10_10 
REMARK    3  A    between atoms: C10_10  and  C11_11 
REMARK    4  A    between atoms: C11_11  and  N1_12 
REMARK    5  A    between atoms: C15_17  and  O1_19 
ROOT
HETATM    1  C1  UNL     1      14.034  -0.503 -20.708  1.00  0.00     0.014 C 
HETATM    2  C2  UNL     1      13.808  -1.629 -20.048  1.00  0.00    -0.085 C 
HETATM    3  C3  UNL     1      14.935  -2.604 -20.145  1.00  0.00     0.039 C 
HETATM    4  C4  UNL     1      14.793  -3.666 -19.116  1.00  0.00    -0.005 C 
HETATM    5  C7  UNL     1      13.511  -4.408 -19.120  1.00  0.00     0.014 C 
HETATM    6  C8  UNL     1      12.796  -4.456 -20.431  1.00  0.00     0.016 C 
HETATM    7  C9  UNL     1      11.463  -3.824 -20.205  1.00  0.00    -0.036 C 
HETATM    8  C18 UNL     1      11.510  -2.314 -20.282  1.00  0.00     0.018 C 
HETATM    9  C19 UNL     1      12.505  -1.689 -19.363  1.00  0.00     0.016 C 
HETATM   10  C20 UNL     1      12.566  -2.366 -18.013  1.00  0.00     0.035 C 
HETATM   11  C21 UNL     1      12.507  -3.854 -18.111  1.00  0.00     0.042 C 
HETATM   12 CL1  UNL     1      12.672  -4.583 -16.527  1.00  0.00    -0.119 Cl
HETATM   13  C22 UNL     1      11.165  -4.204 -18.770  1.00  0.00     0.035 C 
ENDROOT
BRANCH   7  14
HETATM   14  C10 UNL     1      10.377  -4.279 -21.127  1.00  0.00     0.029 C 
BRANCH  14  15
HETATM   15  C11 UNL     1      10.243  -3.487 -22.390  1.00  0.00     0.120 C 
BRANCH  15  16
HETATM   16  N1  UNL     1      10.561  -4.368 -23.478  1.00  0.00    -0.396 N 
HETATM   17  C12 UNL     1      11.716  -4.378 -24.008  1.00  0.00    -0.015 C 
HETATM   18  C13 UNL     1      12.120  -5.258 -25.132  1.00  0.00     0.055 C 
HETATM   19  C17 UNL     1      12.906  -3.561 -23.668  1.00  0.00     0.089 C 
HETATM   20  C14 UNL     1      12.996  -4.335 -25.957  1.00  0.00     0.043 C 
HETATM   21  C15 UNL     1      13.838  -3.689 -24.860  1.00  0.00     0.059 C 
HETATM   22  C16 UNL     1      14.979  -4.626 -24.565  1.00  0.00     0.046 C 
ATOM     23  H1  UNL     1       9.845  -5.001 -23.833  1.00  0.00     0.159 HD
BRANCH  21  24
HETATM   24  O1  UNL     1      14.293  -2.436 -25.295  1.00  0.00    -0.390 OA
ATOM     25  H1  UNL     1      15.035  -2.166 -24.766  1.00  0.00     0.210 HD
ENDBRANCH  21  24
ENDBRANCH  15  16
ENDBRANCH  14  15
ENDBRANCH   7  14
BRANCH   4  26
HETATM   26  C5  UNL     1      16.005  -4.605 -19.176  1.00  0.00     0.001 C 
HETATM   27  C6  UNL     1      16.569  -4.559 -20.586  1.00  0.00     0.005 C 
ENDBRANCH   4  26
TORSDOF 5
ENDMDL
MODEL 5
REMARK VINA RESULT: -8.061793338      3.332      6.229
REMARK  5 active torsions:
REMARK  status: ('A' for Active; 'I' for Inactive)
REMARK    1  A    between atoms: C4_4  and  C5_5 
REMARK    2  A    between atoms: C9_9  and  C10_10 
REMARK    3  A    between atoms: C10_10  and  C11_11 
REMARK    4  A    between atoms: C11_11  and  N1_12 
REMARK    5  A    between atoms: C15_17  and  O1_19 
ROOT
HETATM    1  C1  UNL     1       9.505  -3.510 -23.268  1.00  0.00     0.014 C 
HETATM    2  C2  UNL     1      10.555  -3.151 -22.544  1.00  0.00    -0.085 C 
HETATM    3  C3  UNL     1      10.825  -1.683 -22.588  1.00  0.00     0.039 C 
HETATM    4  C4  UNL     1      11.759  -1.294 -21.500  1.00  0.00    -0.005 C 
HETATM    5  C7  UNL     1      13.049  -2.022 -21.460  1.00  0.00     0.014 C 
HETATM    6  C8  UNL     1      13.518  -2.577 -22.764  1.00  0.00     0.016 C 
HETATM    7  C9  UNL     1      13.642  -4.052 -22.572  1.00  0.00    -0.036 C 
HETATM    8  C18 UNL     1      12.324  -4.776 -22.735  1.00  0.00     0.018 C 
HETATM    9  C19 UNL     1      11.234  -4.261 -21.855  1.00  0.00     0.016 C 
HETATM   10  C20 UNL     1      11.718  -3.902 -20.469  1.00  0.00     0.035 C 
HETATM   11  C21 UNL     1      13.033  -3.194 -20.481  1.00  0.00     0.042 C 
HETATM   12 CL1  UNL     1      13.496  -2.726 -18.859  1.00  0.00    -0.119 Cl
HETATM   13  C22 UNL     1      14.048  -4.155 -21.117  1.00  0.00     0.035 C 
ENDROOT
BRANCH   7  14
HETATM   14  C10 UNL     1      14.631  -4.732 -23.464  1.00  0.00     0.029 C 
BRANCH  14  15
HETATM   15  C11 UNL     1      15.966  -4.062 -23.558  1.00  0.00     0.120 C 
BRANCH  15  16
HETATM   16  N1  UNL     1      16.865  -4.788 -22.707  1.00  0.00    -0.396 N 
HETATM   17  C12 UNL     1      17.465  -4.224 -21.739  1.00  0.00    -0.015 C 
HETATM   18  C13 UNL     1      18.407  -4.906 -20.817  1.00  0.00     0.055 C 
HETATM   19  C17 UNL     1      17.393  -2.811 -21.292  1.00  0.00     0.089 C 
HETATM   20  C14 UNL     1      19.469  -3.845 -20.607  1.00  0.00     0.043 C 
HETATM   21  C15 UNL     1      18.597  -2.611 -20.389  1.00  0.00     0.059 C 
HETATM   22  C16 UNL     1      18.196  -2.601 -18.938  1.00  0.00     0.046 C 
ATOM     23  H1  UNL     1      17.026  -5.780 -22.882  1.00  0.00     0.159 HD
BRANCH  21  24
HETATM   24  O1  UNL     1      19.317  -1.460 -20.738  1.00  0.00    -0.390 OA
ATOM     25  H1  UNL     1      18.713  -0.751 -20.922  1.00  0.00     0.210 HD
ENDBRANCH  21  24
ENDBRANCH  15  16
ENDBRANCH  14  15
ENDBRANCH   7  14
BRANCH   4  26
HETATM   26  C5  UNL     1      11.953   0.228 -21.509  1.00  0.00     0.001 C 
HETATM   27  C6  UNL     1      13.163   0.555 -20.650  1.00  0.00     0.005 C 
ENDBRANCH   4  26
TORSDOF 5
ENDMDL
