MODEL 1
REMARK VINA RESULT: -6.884143416      0.000      0.000
REMARK  5 active torsions:
REMARK  status: ('A' for Active; 'I' for Inactive)
REMARK    1  A    between atoms: C4_5  and  C6_7 
REMARK    2  A    between atoms: C9_10  and  O1_11 
REMARK    3  A    between atoms: O1_11  and  C10_12 
REMARK    4  A    between atoms: C15_17  and  C17_19 
REMARK    5  A    between atoms: C19_23  and  O2_24 
ROOT
HETATM    1  C6  UNL     1       5.745  -9.763 -18.312  1.00  0.00     0.027 A 
HETATM    2  C7  UNL     1       6.035  -8.643 -19.045  1.00  0.00     0.016 A 
HETATM    3  C8  UNL     1       5.011  -7.820 -19.496  1.00  0.00     0.041 A 
HETATM    4  C9  UNL     1       3.685  -8.077 -19.240  1.00  0.00     0.110 A 
HETATM    5  C18 UNL     1       3.400  -9.226 -18.488  1.00  0.00     0.183 A 
HETATM    6  F1  UNL     1       2.100  -9.524 -18.208  1.00  0.00    -0.200 F 
HETATM    7  C19 UNL     1       4.431 -10.044 -18.040  1.00  0.00     0.117 A 
ENDROOT
BRANCH   4   8
HETATM    8  O1  UNL     1       2.618  -7.317 -19.648  1.00  0.00    -0.342 OA
BRANCH   8   9
HETATM    9  C10 UNL     1       2.221  -6.080 -19.180  1.00  0.00     0.138 C 
HETATM   10  C11 UNL     1       2.104  -5.041 -20.293  1.00  0.00     0.033 C 
HETATM   11  C12 UNL     1       2.161  -3.690 -19.643  1.00  0.00     0.002 C 
HETATM   12  C13 UNL     1       1.128  -3.646 -18.545  1.00  0.00     0.001 C 
HETATM   13  C14 UNL     1       0.147  -4.793 -18.642  1.00  0.00     0.013 C 
HETATM   14  C15 UNL     1       0.826  -6.131 -18.563  1.00  0.00    -0.005 C 
HETATM   15  C16 UNL     1       0.018  -7.100 -19.427  1.00  0.00     0.019 C 
BRANCH  14  16
HETATM   16  C17 UNL     1       0.810  -6.623 -17.154  1.00  0.00     0.126 C 
HETATM   17 CL1  UNL     1       2.413  -6.650 -16.400  1.00  0.00    -0.130 Cl
ENDBRANCH  14  16
ENDBRANCH   8   9
ENDBRANCH   4   8
BRANCH   7  18
HETATM   18  O2  UNL     1       4.169 -11.185 -17.295  1.00  0.00    -0.357 OA
ATOM     19  H2  UNL     1       4.321 -11.135 -16.359  1.00  0.00     0.217 HD
ENDBRANCH   7  18
BRANCH   1  20
HETATM   20  C4  UNL     1       6.812 -10.628 -17.837  1.00  0.00     0.234 C 
HETATM   21  S1  UNL     1       8.434  -9.763 -17.952  1.00  0.00    -0.121 SA
HETATM   22  C3  UNL     1       8.730  -9.691 -16.157  1.00  0.00     0.112 C 
HETATM   23  C2  UNL     1       7.384 -10.062 -15.636  1.00  0.00     0.230 C 
HETATM   24  C1  UNL     1       6.582  -8.841 -15.346  1.00  0.00     0.043 C 
HETATM   25  N1  UNL     1       6.750 -11.013 -16.479  1.00  0.00     0.113 N 
HETATM   26  C20 UNL     1       7.161 -12.337 -16.152  1.00  0.00     0.312 C 
HETATM   27  C5  UNL     1       6.940 -11.788 -18.816  1.00  0.00     0.067 C 
ENDBRANCH   1  20
TORSDOF 5
ENDMDL
MODEL 2
REMARK VINA RESULT: -6.667104912      3.687      5.114
REMARK  5 active torsions:
REMARK  status: ('A' for Active; 'I' for Inactive)
REMARK    1  A    between atoms: C4_5  and  C6_7 
REMARK    2  A    between atoms: C9_10  and  O1_11 
REMARK    3  A    between atoms: O1_11  and  C10_12 
REMARK    4  A    between atoms: C15_17  and  C17_19 
REMARK    5  A    between atoms: C19_23  and  O2_24 
ROOT
HETATM    1  C6  UNL     1       4.060 -11.400 -16.932  1.00  0.00     0.027 A 
HETATM    2  C7  UNL     1       5.322 -11.453 -17.462  1.00  0.00     0.016 A 
HETATM    3  C8  UNL     1       5.780 -10.426 -18.278  1.00  0.00     0.041 A 
HETATM    4  C9  UNL     1       5.013  -9.328 -18.589  1.00  0.00     0.110 A 
HETATM    5  C18 UNL     1       3.723  -9.284 -18.040  1.00  0.00     0.183 A 
HETATM    6  F1  UNL     1       2.924  -8.217 -18.321  1.00  0.00    -0.200 F 
HETATM    7  C19 UNL     1       3.273 -10.316 -17.225  1.00  0.00     0.117 A 
ENDROOT
BRANCH   4   8
HETATM    8  O1  UNL     1       5.390  -8.275 -19.383  1.00  0.00    -0.342 OA
BRANCH   8   9
HETATM    9  C10 UNL     1       5.584  -8.262 -20.750  1.00  0.00     0.138 C 
HETATM   10  C11 UNL     1       4.963  -7.039 -21.421  1.00  0.00     0.033 C 
HETATM   11  C12 UNL     1       4.800  -7.368 -22.875  1.00  0.00     0.002 C 
HETATM   12  C13 UNL     1       6.128  -7.847 -23.406  1.00  0.00     0.001 C 
HETATM   13  C14 UNL     1       7.264  -7.542 -22.456  1.00  0.00     0.013 C 
HETATM   14  C15 UNL     1       7.065  -8.177 -21.109  1.00  0.00    -0.005 C 
HETATM   15  C16 UNL     1       7.698  -7.247 -20.072  1.00  0.00     0.019 C 
BRANCH  14  16
HETATM   16  C17 UNL     1       7.770  -9.492 -21.062  1.00  0.00     0.126 C 
HETATM   17 CL1  UNL     1       8.879  -9.647 -19.689  1.00  0.00    -0.130 Cl
ENDBRANCH  14  16
ENDBRANCH   8   9
ENDBRANCH   4   8
BRANCH   7  18
HETATM   18  O2  UNL     1       2.001 -10.291 -16.673  1.00  0.00    -0.357 OA
ATOM     19  H2  UNL     1       1.797  -9.571 -16.088  1.00  0.00     0.217 HD
ENDBRANCH   7  18
BRANCH   1  20
HETATM   20  C4  UNL     1       3.575 -12.472 -16.079  1.00  0.00     0.234 C 
HETATM   21  S1  UNL     1       4.990 -13.435 -15.397  1.00  0.00    -0.121 SA
HETATM   22  C3  UNL     1       4.714 -12.960 -13.661  1.00  0.00     0.112 C 
HETATM   23  C2  UNL     1       3.742 -11.842 -13.827  1.00  0.00     0.230 C 
HETATM   24  C1  UNL     1       4.452 -10.534 -13.859  1.00  0.00     0.043 C 
HETATM   25  N1  UNL     1       2.867 -12.080 -14.920  1.00  0.00     0.113 N 
HETATM   26  C20 UNL     1       1.762 -12.886 -14.522  1.00  0.00     0.312 C 
HETATM   27  C5  UNL     1       2.838 -13.471 -16.961  1.00  0.00     0.067 C 
ENDBRANCH   1  20
TORSDOF 5
ENDMDL
MODEL 3
REMARK VINA RESULT: -6.457349048      2.198      3.249
REMARK  5 active torsions:
REMARK  status: ('A' for Active; 'I' for Inactive)
REMARK    1  A    between atoms: C4_5  and  C6_7 
REMARK    2  A    between atoms: C9_10  and  O1_11 
REMARK    3  A    between atoms: O1_11  and  C10_12 
REMARK    4  A    between atoms: C15_17  and  C17_19 
REMARK    5  A    between atoms: C19_23  and  O2_24 
ROOT
HETATM    1  C6  UNL     1       6.305  -8.948 -18.020  1.00  0.00     0.027 A 
HETATM    2  C7  UNL     1       5.544  -8.721 -16.904  1.00  0.00     0.016 A 
HETATM    3  C8  UNL     1       4.576  -7.724 -16.911  1.00  0.00     0.041 A 
HETATM    4  C9  UNL     1       4.335  -6.931 -18.008  1.00  0.00     0.110 A 
HETATM    5  C18 UNL     1       5.121  -7.174 -19.144  1.00  0.00     0.183 A 
HETATM    6  F1  UNL     1       4.921  -6.413 -20.257  1.00  0.00    -0.200 F 
HETATM    7  C19 UNL     1       6.087  -8.173 -19.129  1.00  0.00     0.117 A 
ENDROOT
BRANCH   4   8
HETATM    8  O1  UNL     1       3.402  -5.930 -18.095  1.00  0.00    -0.342 OA
BRANCH   8   9
HETATM    9  C10 UNL     1       2.088  -6.020 -18.510  1.00  0.00     0.138 C 
HETATM   10  C11 UNL     1       1.118  -6.216 -17.348  1.00  0.00     0.033 C 
HETATM   11  C12 UNL     1      -0.149  -6.780 -17.921  1.00  0.00     0.002 C 
HETATM   12  C13 UNL     1      -0.597  -5.890 -19.052  1.00  0.00     0.001 C 
HETATM   13  C14 UNL     1       0.130  -4.565 -19.055  1.00  0.00     0.013 C 
HETATM   14  C15 UNL     1       1.618  -4.732 -19.180  1.00  0.00    -0.005 C 
HETATM   15  C16 UNL     1       2.270  -3.589 -18.400  1.00  0.00     0.019 C 
BRANCH  14  16
HETATM   16  C17 UNL     1       2.020  -4.620 -20.613  1.00  0.00     0.126 C 
HETATM   17 CL1  UNL     1       2.327  -6.186 -21.383  1.00  0.00    -0.130 Cl
ENDBRANCH  14  16
ENDBRANCH   8   9
ENDBRANCH   4   8
BRANCH   7  18
HETATM   18  O2  UNL     1       6.873  -8.427 -20.243  1.00  0.00    -0.357 OA
ATOM     19  H2  UNL     1       6.956  -9.333 -20.516  1.00  0.00     0.217 HD
ENDBRANCH   7  18
BRANCH   1  20
HETATM   20  C4  UNL     1       7.319  -9.989 -18.018  1.00  0.00     0.234 C 
HETATM   21  S1  UNL     1       7.124 -11.070 -16.538  1.00  0.00    -0.121 SA
HETATM   22  C3  UNL     1       6.675 -12.570 -17.466  1.00  0.00     0.112 C 
HETATM   23  C2  UNL     1       6.408 -11.997 -18.815  1.00  0.00     0.230 C 
HETATM   24  C1  UNL     1       4.958 -11.706 -18.982  1.00  0.00     0.043 C 
HETATM   25  N1  UNL     1       7.277 -10.907 -19.092  1.00  0.00     0.113 N 
HETATM   26  C20 UNL     1       8.521 -11.367 -19.612  1.00  0.00     0.312 C 
HETATM   27  C5  UNL     1       8.673  -9.321 -17.813  1.00  0.00     0.067 C 
ENDBRANCH   1  20
TORSDOF 5
ENDMDL
MODEL 4
REMARK VINA RESULT: -6.450780979      2.142      2.847
REMARK  5 active torsions:
REMARK  status: ('A' for Active; 'I' for Inactive)
REMARK    1  A    between atoms: C4_5  and  C6_7 
REMARK    2  A    between atoms: C9_10  and  O1_11 
REMARK    3  A    between atoms: O1_11  and  C10_12 
REMARK    4  A    between atoms: C15_17  and  C17_19 
REMARK    5  A    between atoms: C19_23  and  O2_24 
ROOT
HETATM    1  C6  UNL     1       5.260  -9.334 -16.945  1.00  0.00     0.027 A 
HETATM    2  C7  UNL     1       4.429  -8.465 -16.290  1.00  0.00     0.016 A 
HETATM    3  C8  UNL     1       3.988  -7.309 -16.923  1.00  0.00     0.041 A 
HETATM    4  C9  UNL     1       4.352  -6.982 -18.208  1.00  0.00     0.110 A 
HETATM    5  C18 UNL     1       5.203  -7.881 -18.869  1.00  0.00     0.183 A 
HETATM    6  F1  UNL     1       5.593  -7.601 -20.144  1.00  0.00    -0.200 F 
HETATM    7  C19 UNL     1       5.639  -9.034 -18.228  1.00  0.00     0.117 A 
ENDROOT
BRANCH   4   8
HETATM    8  O1  UNL     1       3.962  -5.865 -18.902  1.00  0.00    -0.342 OA
BRANCH   8   9
HETATM    9  C10 UNL     1       2.771  -5.173 -18.808  1.00  0.00     0.138 C 
HETATM   10  C11 UNL     1       2.913  -3.705 -19.201  1.00  0.00     0.033 C 
HETATM   11  C12 UNL     1       1.745  -2.974 -18.607  1.00  0.00     0.002 C 
HETATM   12  C13 UNL     1       0.480  -3.682 -19.022  1.00  0.00     0.001 C 
HETATM   13  C14 UNL     1       0.721  -4.666 -20.145  1.00  0.00     0.013 C 
HETATM   14  C15 UNL     1       1.722  -5.722 -19.771  1.00  0.00    -0.005 C 
HETATM   15  C16 UNL     1       2.477  -6.102 -21.045  1.00  0.00     0.019 C 
BRANCH  14  16
HETATM   16  C17 UNL     1       1.013  -6.931 -19.259  1.00  0.00     0.126 C 
HETATM   17 CL1  UNL     1       0.487  -6.779 -17.575  1.00  0.00    -0.130 Cl
ENDBRANCH  14  16
ENDBRANCH   8   9
ENDBRANCH   4   8
BRANCH   7  18
HETATM   18  O2  UNL     1       6.481  -9.934 -18.865  1.00  0.00    -0.357 OA
ATOM     19  H2  UNL     1       6.789  -9.699 -19.732  1.00  0.00     0.217 HD
ENDBRANCH   7  18
BRANCH   1  20
HETATM   20  C4  UNL     1       5.724 -10.544 -16.288  1.00  0.00     0.234 C 
HETATM   21  S1  UNL     1       4.744 -10.857 -14.759  1.00  0.00    -0.121 SA
HETATM   22  C3  UNL     1       3.966 -12.392 -15.353  1.00  0.00     0.112 C 
HETATM   23  C2  UNL     1       4.301 -12.333 -16.804  1.00  0.00     0.230 C 
HETATM   24  C1  UNL     1       3.188 -11.712 -17.572  1.00  0.00     0.043 C 
HETATM   25  N1  UNL     1       5.578 -11.748 -17.013  1.00  0.00     0.113 N 
HETATM   26  C20 UNL     1       6.612 -12.720 -16.887  1.00  0.00     0.312 C 
HETATM   27  C5  UNL     1       7.136 -10.283 -15.776  1.00  0.00     0.067 C 
ENDBRANCH   1  20
TORSDOF 5
ENDMDL
MODEL 5
REMARK VINA RESULT: -6.350770473      3.624      5.049
REMARK  5 active torsions:
REMARK  status: ('A' for Active; 'I' for Inactive)
REMARK    1  A    between atoms: C4_5  and  C6_7 
REMARK    2  A    between atoms: C9_10  and  O1_11 
REMARK    3  A    between atoms: O1_11  and  C10_12 
REMARK    4  A    between atoms: C15_17  and  C17_19 
REMARK    5  A    between atoms: C19_23  and  O2_24 
ROOT
HETATM    1  C6  UNL     1       4.516  -8.268 -16.432  1.00  0.00     0.027 A 
HETATM    2  C7  UNL     1       3.743  -8.645 -17.497  1.00  0.00     0.016 A 
HETATM    3  C8  UNL     1       4.054  -8.202 -18.777  1.00  0.00     0.041 A 
HETATM    4  C9  UNL     1       5.127  -7.383 -19.038  1.00  0.00     0.110 A 
HETATM    5  C18 UNL     1       5.912  -7.003 -17.938  1.00  0.00     0.183 A 
HETATM    6  F1  UNL     1       6.986  -6.191 -18.145  1.00  0.00    -0.200 F 
HETATM    7  C19 UNL     1       5.593  -7.451 -16.662  1.00  0.00     0.117 A 
ENDROOT
BRANCH   4   8
HETATM    8  O1  UNL     1       5.501  -6.903 -20.267  1.00  0.00    -0.342 OA
BRANCH   8   9
HETATM    9  C10 UNL     1       4.953  -7.195 -21.501  1.00  0.00     0.138 C 
HETATM   10  C11 UNL     1       4.359  -5.966 -22.185  1.00  0.00     0.033 C 
HETATM   11  C12 UNL     1       3.396  -6.461 -23.224  1.00  0.00     0.002 C 
HETATM   12  C13 UNL     1       4.112  -7.460 -24.097  1.00  0.00     0.001 C 
HETATM   13  C14 UNL     1       5.610  -7.416 -23.902  1.00  0.00     0.013 C 
HETATM   14  C15 UNL     1       6.008  -7.699 -22.481  1.00  0.00    -0.005 C 
HETATM   15  C16 UNL     1       7.273  -6.889 -22.195  1.00  0.00     0.019 C 
BRANCH  14  16
HETATM   16  C17 UNL     1       6.327  -9.149 -22.325  1.00  0.00     0.126 C 
HETATM   17 CL1  UNL     1       5.053 -10.066 -21.503  1.00  0.00    -0.130 Cl
ENDBRANCH  14  16
ENDBRANCH   8   9
ENDBRANCH   4   8
BRANCH   7  18
HETATM   18  O2  UNL     1       6.357  -7.087 -15.563  1.00  0.00    -0.357 OA
ATOM     19  H2  UNL     1       6.721  -7.790 -15.037  1.00  0.00     0.217 HD
ENDBRANCH   7  18
BRANCH   1  20
HETATM   20  C4  UNL     1       4.195  -8.728 -15.091  1.00  0.00     0.234 C 
HETATM   21  S1  UNL     1       3.021 -10.146 -15.165  1.00  0.00    -0.121 SA
HETATM   22  C3  UNL     1       4.179 -11.376 -14.486  1.00  0.00     0.112 C 
HETATM   23  C2  UNL     1       5.464 -10.628 -14.569  1.00  0.00     0.230 C 
HETATM   24  C1  UNL     1       6.178 -10.955 -15.834  1.00  0.00     0.043 C 
HETATM   25  N1  UNL     1       5.269  -9.241 -14.330  1.00  0.00     0.113 N 
HETATM   26  C20 UNL     1       5.279  -8.960 -12.933  1.00  0.00     0.312 C 
HETATM   27  C5  UNL     1       3.402  -7.626 -14.398  1.00  0.00     0.067 C 
ENDBRANCH   1  20
TORSDOF 5
ENDMDL
