MODEL 1
REMARK VINA RESULT: -9.500465566      0.000      0.000
REMARK  3 active torsions:
REMARK  status: ('A' for Active; 'I' for Inactive)
REMARK    1  A    between atoms: C6_11  and  C7_12 
REMARK    2  A    between atoms: C16_22  and  C17_23 
REMARK    3  A    between atoms: C20_26  and  C21_27 
ROOT
HETATM    1  N1  UNL     1       6.822 -12.983 -16.549  1.00  0.00    -0.196 NA
HETATM    2  C1  UNL     1       6.685 -11.859 -16.315  1.00  0.00     0.073 C 
HETATM    3  C2  UNL     1       6.519 -10.400 -16.028  1.00  0.00     0.180 A 
HETATM    4  C3  UNL     1       6.935  -9.682 -17.222  1.00  0.00     0.136 A 
HETATM    5  N2  UNL     1       8.115  -9.967 -17.737  1.00  0.00    -0.382 N 
ATOM      6  H21 UNL     1       8.406  -9.463 -18.575  1.00  0.00     0.158 HD
ATOM      7  H22 UNL     1       8.692 -10.678 -17.286  1.00  0.00     0.158 HD
HETATM    8  O1  UNL     1       6.166  -8.736 -17.824  1.00  0.00    -0.296 OA
HETATM    9  C4  UNL     1       4.920  -8.430 -17.319  1.00  0.00     0.085 A 
HETATM   10  C5  UNL     1       4.168  -7.447 -17.980  1.00  0.00     0.050 A 
HETATM   11  C6  UNL     1       2.921  -7.089 -17.538  1.00  0.00    -0.023 A 
HETATM   12  C13 UNL     1       2.428  -7.727 -16.421  1.00  0.00     0.013 A 
HETATM   13  C14 UNL     1       3.166  -8.693 -15.773  1.00  0.00     0.011 A 
HETATM   14  C15 UNL     1       4.443  -9.075 -16.205  1.00  0.00    -0.014 A 
HETATM   15  C16 UNL     1       5.179 -10.111 -15.462  1.00  0.00     0.080 A 
ENDROOT
BRANCH  15  16
HETATM   16  C17 UNL     1       5.238  -9.805 -13.994  1.00  0.00    -0.048 A 
HETATM   17  C18 UNL     1       5.931  -8.711 -13.524  1.00  0.00     0.008 A 
HETATM   18  C19 UNL     1       6.002  -8.406 -12.177  1.00  0.00     0.009 A 
HETATM   19  C20 UNL     1       5.377  -9.193 -11.235  1.00  0.00    -0.044 A 
HETATM   20  C22 UNL     1       4.681 -10.291 -11.693  1.00  0.00     0.009 A 
HETATM   21  C23 UNL     1       4.614 -10.592 -13.052  1.00  0.00     0.008 A 
BRANCH  19  22
HETATM   22  C21 UNL     1       5.448  -8.872  -9.771  1.00  0.00     0.153 C 
HETATM   23 CL1  UNL     1       6.312  -7.358  -9.480  1.00  0.00    -0.126 Cl
ENDBRANCH  19  22
ENDBRANCH  15  16
BRANCH  11  24
HETATM   24  C7  UNL     1       2.127  -6.056 -18.231  1.00  0.00    -0.026 A 
HETATM   25  C8  UNL     1       0.786  -5.866 -17.973  1.00  0.00     0.015 A 
HETATM   26  C9  UNL     1       0.081  -4.876 -18.655  1.00  0.00     0.043 A 
HETATM   27  C10 UNL     1       0.690  -4.067 -19.591  1.00  0.00     0.116 A 
HETATM   28  F1  UNL     1      -0.020  -3.111 -20.238  1.00  0.00    -0.206 F 
HETATM   29  C11 UNL     1       2.025  -4.249 -19.852  1.00  0.00     0.043 A 
HETATM   30  C12 UNL     1       2.725  -5.241 -19.168  1.00  0.00     0.015 A 
ENDBRANCH  11  24
TORSDOF 3
ENDMDL
MODEL 2
REMARK VINA RESULT: -9.440444143      0.075      1.262
REMARK  3 active torsions:
REMARK  status: ('A' for Active; 'I' for Inactive)
REMARK    1  A    between atoms: C6_11  and  C7_12 
REMARK    2  A    between atoms: C16_22  and  C17_23 
REMARK    3  A    between atoms: C20_26  and  C21_27 
ROOT
HETATM    1  N1  UNL     1       6.703 -13.071 -16.499  1.00  0.00    -0.196 NA
HETATM    2  C1  UNL     1       6.604 -11.939 -16.288  1.00  0.00     0.073 C 
HETATM    3  C2  UNL     1       6.488 -10.469 -16.031  1.00  0.00     0.180 A 
HETATM    4  C3  UNL     1       6.917  -9.790 -17.242  1.00  0.00     0.136 A 
HETATM    5  N2  UNL     1       8.083 -10.124 -17.760  1.00  0.00    -0.382 N 
ATOM      6  H21 UNL     1       8.384  -9.648 -18.610  1.00  0.00     0.158 HD
ATOM      7  H22 UNL     1       8.641 -10.844 -17.298  1.00  0.00     0.158 HD
HETATM    8  O1  UNL     1       6.175  -8.832 -17.858  1.00  0.00    -0.296 OA
HETATM    9  C4  UNL     1       4.943  -8.476 -17.351  1.00  0.00     0.085 A 
HETATM   10  C5  UNL     1       4.218  -7.483 -18.027  1.00  0.00     0.050 A 
HETATM   11  C6  UNL     1       2.987  -7.076 -17.582  1.00  0.00    -0.023 A 
HETATM   12  C13 UNL     1       2.482  -7.674 -16.449  1.00  0.00     0.013 A 
HETATM   13  C14 UNL     1       3.194  -8.649 -15.786  1.00  0.00     0.011 A 
HETATM   14  C15 UNL     1       4.454  -9.081 -16.220  1.00  0.00    -0.014 A 
HETATM   15  C16 UNL     1       5.163 -10.126 -15.461  1.00  0.00     0.080 A 
ENDROOT
BRANCH  15  16
HETATM   16  C17 UNL     1       5.244  -9.791 -14.000  1.00  0.00    -0.048 A 
HETATM   17  C18 UNL     1       4.614 -10.571 -13.056  1.00  0.00     0.008 A 
HETATM   18  C19 UNL     1       4.671 -10.284 -11.704  1.00  0.00     0.009 A 
HETATM   19  C20 UNL     1       5.369  -9.192 -11.237  1.00  0.00    -0.044 A 
HETATM   20  C22 UNL     1       6.004  -8.404 -12.173  1.00  0.00     0.009 A 
HETATM   21  C23 UNL     1       5.941  -8.698 -13.533  1.00  0.00     0.008 A 
BRANCH  19  22
HETATM   22  C21 UNL     1       5.439  -8.872  -9.774  1.00  0.00     0.153 C 
HETATM   23 CL1  UNL     1       6.313  -7.363  -9.481  1.00  0.00    -0.126 Cl
ENDBRANCH  19  22
ENDBRANCH  15  16
BRANCH  11  24
HETATM   24  C7  UNL     1       2.221  -6.031 -18.291  1.00  0.00    -0.026 A 
HETATM   25  C8  UNL     1       2.801  -5.211 -19.235  1.00  0.00     0.015 A 
HETATM   26  C9  UNL     1       2.033  -4.240 -19.876  1.00  0.00     0.043 A 
HETATM   27  C10 UNL     1       0.694  -4.072 -19.594  1.00  0.00     0.116 A 
HETATM   28  F1  UNL     1      -0.028  -3.120 -20.234  1.00  0.00    -0.206 F 
HETATM   29  C11 UNL     1       0.110  -4.886 -18.657  1.00  0.00     0.043 A 
HETATM   30  C12 UNL     1       0.882  -5.854 -18.018  1.00  0.00     0.015 A 
ENDBRANCH  11  24
TORSDOF 3
ENDMDL
MODEL 3
REMARK VINA RESULT: -9.170461877      1.292      1.889
REMARK  3 active torsions:
REMARK  status: ('A' for Active; 'I' for Inactive)
REMARK    1  A    between atoms: C6_11  and  C7_12 
REMARK    2  A    between atoms: C16_22  and  C17_23 
REMARK    3  A    between atoms: C20_26  and  C21_27 
ROOT
HETATM    1  N1  UNL     1       3.924 -13.948 -15.315  1.00  0.00    -0.196 NA
HETATM    2  C1  UNL     1       4.311 -12.869 -15.468  1.00  0.00     0.073 C 
HETATM    3  C2  UNL     1       4.818 -11.479 -15.687  1.00  0.00     0.180 A 
HETATM    4  C3  UNL     1       5.015 -11.317 -17.118  1.00  0.00     0.136 A 
HETATM    5  N2  UNL     1       5.734 -12.225 -17.751  1.00  0.00    -0.382 N 
ATOM      6  H21 UNL     1       5.872 -12.111 -18.755  1.00  0.00     0.158 HD
ATOM      7  H22 UNL     1       6.123 -13.005 -17.220  1.00  0.00     0.158 HD
HETATM    8  O1  UNL     1       4.497 -10.279 -17.826  1.00  0.00    -0.296 OA
HETATM    9  C4  UNL     1       3.726  -9.326 -17.195  1.00  0.00     0.085 A 
HETATM   10  C5  UNL     1       3.214  -8.277 -17.973  1.00  0.00     0.050 A 
HETATM   11  C6  UNL     1       2.440  -7.292 -17.417  1.00  0.00    -0.023 A 
HETATM   12  C13 UNL     1       2.179  -7.365 -16.067  1.00  0.00     0.013 A 
HETATM   13  C14 UNL     1       2.681  -8.396 -15.303  1.00  0.00     0.011 A 
HETATM   14  C15 UNL     1       3.475  -9.413 -15.848  1.00  0.00    -0.014 A 
HETATM   15  C16 UNL     1       3.983 -10.483 -14.973  1.00  0.00     0.080 A 
ENDROOT
BRANCH  15  16
HETATM   16  C17 UNL     1       4.674  -9.928 -13.762  1.00  0.00    -0.048 A 
HETATM   17  C18 UNL     1       4.466 -10.471 -12.514  1.00  0.00     0.008 A 
HETATM   18  C19 UNL     1       5.089  -9.978 -11.381  1.00  0.00     0.009 A 
HETATM   19  C20 UNL     1       5.955  -8.909 -11.453  1.00  0.00    -0.044 A 
HETATM   20  C22 UNL     1       6.170  -8.356 -12.698  1.00  0.00     0.009 A 
HETATM   21  C23 UNL     1       5.539  -8.857 -13.834  1.00  0.00     0.008 A 
BRANCH  19  22
HETATM   22  C21 UNL     1       6.636  -8.366 -10.233  1.00  0.00     0.153 C 
HETATM   23 CL1  UNL     1       5.556  -7.330  -9.293  1.00  0.00    -0.126 Cl
ENDBRANCH  19  22
ENDBRANCH  15  16
BRANCH  11  24
HETATM   24  C7  UNL     1       1.899  -6.186 -18.233  1.00  0.00    -0.026 A 
HETATM   25  C8  UNL     1       2.594  -5.654 -19.298  1.00  0.00     0.015 A 
HETATM   26  C9  UNL     1       2.039  -4.611 -20.036  1.00  0.00     0.043 A 
HETATM   27  C10 UNL     1       0.800  -4.087 -19.734  1.00  0.00     0.116 A 
HETATM   28  F1  UNL     1       0.284  -3.073 -20.470  1.00  0.00    -0.206 F 
HETATM   29  C11 UNL     1       0.102  -4.613 -18.675  1.00  0.00     0.043 A 
HETATM   30  C12 UNL     1       0.662  -5.655 -17.940  1.00  0.00     0.015 A 
ENDBRANCH  11  24
TORSDOF 3
ENDMDL
MODEL 4
REMARK VINA RESULT: -8.795335454      3.365      4.272
REMARK  3 active torsions:
REMARK  status: ('A' for Active; 'I' for Inactive)
REMARK    1  A    between atoms: C6_11  and  C7_12 
REMARK    2  A    between atoms: C16_22  and  C17_23 
REMARK    3  A    between atoms: C20_26  and  C21_27 
ROOT
HETATM    1  N1  UNL     1       1.292 -13.059 -14.104  1.00  0.00    -0.196 NA
HETATM    2  C1  UNL     1       2.338 -12.656 -14.387  1.00  0.00     0.073 C 
HETATM    3  C2  UNL     1       3.695 -12.152 -14.764  1.00  0.00     0.180 A 
HETATM    4  C3  UNL     1       4.146 -12.946 -15.895  1.00  0.00     0.136 A 
HETATM    5  N2  UNL     1       4.105 -14.260 -15.785  1.00  0.00    -0.382 N 
ATOM      6  H21 UNL     1       4.421 -14.818 -16.579  1.00  0.00     0.158 HD
ATOM      7  H22 UNL     1       3.760 -14.672 -14.917  1.00  0.00     0.158 HD
HETATM    8  O1  UNL     1       4.605 -12.398 -17.051  1.00  0.00    -0.296 OA
HETATM    9  C4  UNL     1       4.641 -11.028 -17.203  1.00  0.00     0.085 A 
HETATM   10  C5  UNL     1       5.122 -10.516 -18.417  1.00  0.00     0.050 A 
HETATM   11  C6  UNL     1       5.188  -9.165 -18.641  1.00  0.00    -0.023 A 
HETATM   12  C13 UNL     1       4.765  -8.325 -17.635  1.00  0.00     0.013 A 
HETATM   13  C14 UNL     1       4.292  -8.828 -16.443  1.00  0.00     0.011 A 
HETATM   14  C15 UNL     1       4.216 -10.204 -16.190  1.00  0.00    -0.014 A 
HETATM   15  C16 UNL     1       3.704 -10.675 -14.892  1.00  0.00     0.080 A 
ENDROOT
BRANCH  15  16
HETATM   16  C17 UNL     1       4.409 -10.011 -13.745  1.00  0.00    -0.048 A 
HETATM   17  C18 UNL     1       5.140  -8.860 -13.931  1.00  0.00     0.008 A 
HETATM   18  C19 UNL     1       5.800  -8.228 -12.891  1.00  0.00     0.009 A 
HETATM   19  C20 UNL     1       5.754  -8.731 -11.610  1.00  0.00    -0.044 A 
HETATM   20  C22 UNL     1       5.025  -9.883 -11.411  1.00  0.00     0.009 A 
HETATM   21  C23 UNL     1       4.363 -10.514 -12.463  1.00  0.00     0.008 A 
BRANCH  19  22
HETATM   22  C21 UNL     1       6.465  -8.055 -10.475  1.00  0.00     0.153 C 
HETATM   23 CL1  UNL     1       5.325  -7.400  -9.293  1.00  0.00    -0.126 Cl
ENDBRANCH  19  22
ENDBRANCH  15  16
BRANCH  11  24
HETATM   24  C7  UNL     1       5.693  -8.621 -19.918  1.00  0.00    -0.026 A 
HETATM   25  C8  UNL     1       4.995  -7.677 -20.640  1.00  0.00     0.015 A 
HETATM   26  C9  UNL     1       5.517  -7.196 -21.839  1.00  0.00     0.043 A 
HETATM   27  C10 UNL     1       6.725  -7.639 -22.334  1.00  0.00     0.116 A 
HETATM   28  F1  UNL     1       7.208  -7.153 -23.503  1.00  0.00    -0.206 F 
HETATM   29  C11 UNL     1       7.425  -8.579 -21.620  1.00  0.00     0.043 A 
HETATM   30  C12 UNL     1       6.900  -9.057 -20.422  1.00  0.00     0.015 A 
ENDBRANCH  11  24
TORSDOF 3
ENDMDL
MODEL 5
REMARK VINA RESULT: -8.242414263      2.634      3.513
REMARK  3 active torsions:
REMARK  status: ('A' for Active; 'I' for Inactive)
REMARK    1  A    between atoms: C6_11  and  C7_12 
REMARK    2  A    between atoms: C16_22  and  C17_23 
REMARK    3  A    between atoms: C20_26  and  C21_27 
ROOT
HETATM    1  N1  UNL     1       1.409 -13.462 -13.794  1.00  0.00    -0.196 NA
HETATM    2  C1  UNL     1       2.318 -12.882 -14.211  1.00  0.00     0.073 C 
HETATM    3  C2  UNL     1       3.498 -12.147 -14.765  1.00  0.00     0.180 A 
HETATM    4  C3  UNL     1       3.802 -12.740 -16.056  1.00  0.00     0.136 A 
HETATM    5  N2  UNL     1       3.946 -14.050 -16.118  1.00  0.00    -0.382 N 
ATOM      6  H21 UNL     1       4.159 -14.466 -17.024  1.00  0.00     0.158 HD
ATOM      7  H22 UNL     1       3.838 -14.599 -15.264  1.00  0.00     0.158 HD
HETATM    8  O1  UNL     1       3.945 -12.009 -17.193  1.00  0.00    -0.296 OA
HETATM    9  C4  UNL     1       3.781 -10.641 -17.164  1.00  0.00     0.085 A 
HETATM   10  C5  UNL     1       3.938  -9.936 -18.366  1.00  0.00     0.050 A 
HETATM   11  C6  UNL     1       3.791  -8.573 -18.415  1.00  0.00    -0.023 A 
HETATM   12  C13 UNL     1       3.483  -7.918 -17.245  1.00  0.00     0.013 A 
HETATM   13  C14 UNL     1       3.328  -8.610 -16.064  1.00  0.00     0.011 A 
HETATM   14  C15 UNL     1       3.474 -10.002 -15.988  1.00  0.00    -0.014 A 
HETATM   15  C16 UNL     1       3.299 -10.679 -14.692  1.00  0.00     0.080 A 
ENDROOT
BRANCH  15  16
HETATM   16  C17 UNL     1       4.136 -10.046 -13.618  1.00  0.00    -0.048 A 
HETATM   17  C18 UNL     1       4.307 -10.659 -12.397  1.00  0.00     0.008 A 
HETATM   18  C19 UNL     1       5.073 -10.098 -11.391  1.00  0.00     0.009 A 
HETATM   19  C20 UNL     1       5.703  -8.886 -11.567  1.00  0.00    -0.044 A 
HETATM   20  C22 UNL     1       5.539  -8.263 -12.786  1.00  0.00     0.009 A 
HETATM   21  C23 UNL     1       4.766  -8.834 -13.795  1.00  0.00     0.008 A 
BRANCH  19  22
HETATM   22  C21 UNL     1       6.535  -8.268 -10.484  1.00  0.00     0.153 C 
HETATM   23 CL1  UNL     1       5.532  -7.431  -9.293  1.00  0.00    -0.126 Cl
ENDBRANCH  19  22
ENDBRANCH  15  16
BRANCH  11  24
HETATM   24  C7  UNL     1       3.955  -7.828 -19.679  1.00  0.00    -0.026 A 
HETATM   25  C8  UNL     1       4.932  -8.148 -20.597  1.00  0.00     0.015 A 
HETATM   26  C9  UNL     1       5.045  -7.413 -21.776  1.00  0.00     0.043 A 
HETATM   27  C10 UNL     1       4.199  -6.362 -22.058  1.00  0.00     0.116 A 
HETATM   28  F1  UNL     1       4.331  -5.665 -23.213  1.00  0.00    -0.206 F 
HETATM   29  C11 UNL     1       3.223  -6.038 -21.149  1.00  0.00     0.043 A 
HETATM   30  C12 UNL     1       3.115  -6.775 -19.972  1.00  0.00     0.015 A 
ENDBRANCH  11  24
TORSDOF 3
ENDMDL
