MODEL 1
REMARK VINA RESULT: -8.697939382      0.000      0.000
REMARK  3 active torsions:
REMARK  status: ('A' for Active; 'I' for Inactive)
REMARK    1  A    between atoms: C4_4  and  C5_5 
REMARK    2  A    between atoms: C7_7  and  C8_9 
REMARK    3  A    between atoms: C8_9  and  O1_11 
ROOT
HETATM    1  C5  UNL     1     -12.595  50.491 -39.827  1.00  0.00     0.028 C 
HETATM    2  C6  UNL     1     -13.865  49.930 -39.320  1.00  0.00     0.056 C 
HETATM    3  C7  UNL     1     -14.760  49.991 -40.569  1.00  0.00     0.137 C 
HETATM    4  F1  UNL     1     -16.009  50.515 -40.183  1.00  0.00    -0.239 F 
HETATM    5  C10 UNL     1     -14.103  50.947 -41.525  1.00  0.00     0.006 C 
HETATM    6  C11 UNL     1     -15.140  51.858 -42.114  1.00  0.00     0.019 C 
HETATM    7  C12 UNL     1     -13.464  50.270 -42.723  1.00  0.00     0.019 C 
HETATM    8  C13 UNL     1     -13.066  51.623 -40.691  1.00  0.00     0.037 C 
HETATM    9  C14 UNL     1     -13.596  52.785 -39.899  1.00  0.00     0.019 C 
HETATM   10  C15 UNL     1     -12.543  53.840 -39.620  1.00  0.00     0.002 C 
HETATM   11  C16 UNL     1     -12.084  54.500 -40.891  1.00  0.00     0.007 C 
HETATM   12  C17 UNL     1     -11.823  53.501 -41.969  1.00  0.00     0.079 C 
HETATM   13  C18 UNL     1     -11.906  52.102 -41.487  1.00  0.00     0.137 C 
HETATM   14  O2  UNL     1     -10.954  51.366 -41.788  1.00  0.00    -0.297 OA
ENDROOT
BRANCH   1  15
HETATM   15  C4  UNL     1     -11.510  50.769 -38.908  1.00  0.00    -0.019 C 
HETATM   16  C2  UNL     1     -10.771  49.995 -38.158  1.00  0.00    -0.091 C 
HETATM   17  C1  UNL     1      -9.707  50.654 -37.305  1.00  0.00     0.042 C 
HETATM   18  C3  UNL     1     -10.841  48.522 -38.030  1.00  0.00     0.042 C 
ENDBRANCH   1  15
BRANCH   3  19
HETATM   19  C8  UNL     1     -15.055  48.638 -41.124  1.00  0.00     0.154 C 
HETATM   20  C9  UNL     1     -16.549  48.329 -41.073  1.00  0.00     0.042 C 
BRANCH  19  21
HETATM   21  O1  UNL     1     -14.434  47.599 -40.433  1.00  0.00    -0.393 OA
ATOM     22  H1  UNL     1     -13.525  47.772 -40.218  1.00  0.00     0.210 HD
ENDBRANCH  19  21
ENDBRANCH   3  19
TORSDOF 3
ENDMDL
MODEL 2
REMARK VINA RESULT: -8.373638234      1.997      4.243
REMARK  3 active torsions:
REMARK  status: ('A' for Active; 'I' for Inactive)
REMARK    1  A    between atoms: C4_4  and  C5_5 
REMARK    2  A    between atoms: C7_7  and  C8_9 
REMARK    3  A    between atoms: C8_9  and  O1_11 
ROOT
HETATM    1  C5  UNL     1     -12.428  50.209 -40.217  1.00  0.00     0.028 C 
HETATM    2  C6  UNL     1     -12.043  50.221 -38.791  1.00  0.00     0.056 C 
HETATM    3  C7  UNL     1     -12.630  48.890 -38.291  1.00  0.00     0.137 C 
HETATM    4  F1  UNL     1     -13.291  49.137 -37.073  1.00  0.00    -0.239 F 
HETATM    5  C10 UNL     1     -13.640  48.453 -39.315  1.00  0.00     0.006 C 
HETATM    6  C11 UNL     1     -14.878  47.967 -38.621  1.00  0.00     0.019 C 
HETATM    7  C12 UNL     1     -13.186  47.275 -40.156  1.00  0.00     0.019 C 
HETATM    8  C13 UNL     1     -13.825  49.663 -40.169  1.00  0.00     0.037 C 
HETATM    9  C14 UNL     1     -14.818  50.644 -39.612  1.00  0.00     0.019 C 
HETATM   10  C15 UNL     1     -15.504  51.465 -40.687  1.00  0.00     0.002 C 
HETATM   11  C16 UNL     1     -16.364  50.600 -41.567  1.00  0.00     0.007 C 
HETATM   12  C17 UNL     1     -15.658  49.348 -41.969  1.00  0.00     0.079 C 
HETATM   13  C18 UNL     1     -14.234  49.335 -41.559  1.00  0.00     0.137 C 
HETATM   14  O2  UNL     1     -13.416  49.035 -42.442  1.00  0.00    -0.297 OA
ENDROOT
BRANCH   1  15
HETATM   15  C4  UNL     1     -12.206  51.384 -41.036  1.00  0.00    -0.019 C 
HETATM   16  C2  UNL     1     -12.043  52.646 -40.738  1.00  0.00    -0.091 C 
HETATM   17  C1  UNL     1     -11.832  53.614 -41.884  1.00  0.00     0.042 C 
HETATM   18  C3  UNL     1     -12.038  53.267 -39.395  1.00  0.00     0.042 C 
ENDBRANCH   1  15
BRANCH   3  19
HETATM   19  C8  UNL     1     -11.573  47.887 -37.971  1.00  0.00     0.154 C 
HETATM   20  C9  UNL     1     -11.493  47.624 -36.469  1.00  0.00     0.042 C 
BRANCH  19  21
HETATM   21  O1  UNL     1     -10.291  48.280 -38.351  1.00  0.00    -0.393 OA
ATOM     22  H1  UNL     1     -10.018  47.934 -39.193  1.00  0.00     0.210 HD
ENDBRANCH  19  21
ENDBRANCH   3  19
TORSDOF 3
ENDMDL
MODEL 3
REMARK VINA RESULT: -8.129030055      2.183      5.024
REMARK  3 active torsions:
REMARK  status: ('A' for Active; 'I' for Inactive)
REMARK    1  A    between atoms: C4_4  and  C5_5 
REMARK    2  A    between atoms: C7_7  and  C8_9 
REMARK    3  A    between atoms: C8_9  and  O1_11 
ROOT
HETATM    1  C5  UNL     1     -12.928  49.846 -39.665  1.00  0.00     0.028 C 
HETATM    2  C6  UNL     1     -12.592  49.985 -38.233  1.00  0.00     0.056 C 
HETATM    3  C7  UNL     1     -12.447  48.517 -37.798  1.00  0.00     0.137 C 
HETATM    4  F1  UNL     1     -13.138  48.355 -36.582  1.00  0.00    -0.239 F 
HETATM    5  C10 UNL     1     -13.117  47.685 -38.855  1.00  0.00     0.006 C 
HETATM    6  C11 UNL     1     -13.954  46.624 -38.203  1.00  0.00     0.019 C 
HETATM    7  C12 UNL     1     -12.147  46.919 -39.734  1.00  0.00     0.019 C 
HETATM    8  C13 UNL     1     -13.877  48.684 -39.663  1.00  0.00     0.037 C 
HETATM    9  C14 UNL     1     -15.221  49.026 -39.085  1.00  0.00     0.019 C 
HETATM   10  C15 UNL     1     -16.227  49.449 -40.138  1.00  0.00     0.002 C 
HETATM   11  C16 UNL     1     -16.555  48.313 -41.067  1.00  0.00     0.007 C 
HETATM   12  C17 UNL     1     -15.326  47.588 -41.506  1.00  0.00     0.079 C 
HETATM   13  C18 UNL     1     -14.078  48.257 -41.072  1.00  0.00     0.137 C 
HETATM   14  O2  UNL     1     -13.222  48.436 -41.952  1.00  0.00    -0.297 OA
ENDROOT
BRANCH   1  15
HETATM   15  C4  UNL     1     -13.316  51.013 -40.433  1.00  0.00    -0.019 C 
HETATM   16  C2  UNL     1     -12.654  51.792 -41.246  1.00  0.00    -0.091 C 
HETATM   17  C1  UNL     1     -13.406  52.943 -41.881  1.00  0.00     0.042 C 
HETATM   18  C3  UNL     1     -11.230  51.693 -41.638  1.00  0.00     0.042 C 
ENDBRANCH   1  15
BRANCH   3  19
HETATM   19  C8  UNL     1     -11.033  48.150 -37.499  1.00  0.00     0.154 C 
HETATM   20  C9  UNL     1     -10.801  48.004 -35.997  1.00  0.00     0.042 C 
BRANCH  19  21
HETATM   21  O1  UNL     1     -10.103  49.094 -37.932  1.00  0.00    -0.393 OA
ATOM     22  H1  UNL     1      -9.239  48.734 -38.095  1.00  0.00     0.210 HD
ENDBRANCH  19  21
ENDBRANCH   3  19
TORSDOF 3
ENDMDL
MODEL 4
REMARK VINA RESULT: -8.105655207      2.713      5.124
REMARK  3 active torsions:
REMARK  status: ('A' for Active; 'I' for Inactive)
REMARK    1  A    between atoms: C4_4  and  C5_5 
REMARK    2  A    between atoms: C7_7  and  C8_9 
REMARK    3  A    between atoms: C8_9  and  O1_11 
ROOT
HETATM    1  C5  UNL     1     -13.821  49.421 -41.908  1.00  0.00     0.028 C 
HETATM    2  C6  UNL     1     -12.931  48.862 -42.947  1.00  0.00     0.056 C 
HETATM    3  C7  UNL     1     -13.450  47.420 -43.068  1.00  0.00     0.137 C 
HETATM    4  F1  UNL     1     -12.337  46.558 -43.082  1.00  0.00    -0.239 F 
HETATM    5  C10 UNL     1     -14.263  47.149 -41.833  1.00  0.00     0.006 C 
HETATM    6  C11 UNL     1     -13.921  45.789 -41.297  1.00  0.00     0.019 C 
HETATM    7  C12 UNL     1     -15.757  47.096 -42.084  1.00  0.00     0.019 C 
HETATM    8  C13 UNL     1     -13.924  48.289 -40.930  1.00  0.00     0.037 C 
HETATM    9  C14 UNL     1     -12.662  48.077 -40.142  1.00  0.00     0.019 C 
HETATM   10  C15 UNL     1     -12.660  48.815 -38.818  1.00  0.00     0.002 C 
HETATM   11  C16 UNL     1     -13.713  48.274 -37.891  1.00  0.00     0.007 C 
HETATM   12  C17 UNL     1     -15.015  48.072 -38.592  1.00  0.00     0.079 C 
HETATM   13  C18 UNL     1     -15.014  48.612 -39.972  1.00  0.00     0.137 C 
HETATM   14  O2  UNL     1     -15.970  49.343 -40.272  1.00  0.00    -0.297 OA
ENDROOT
BRANCH   1  15
HETATM   15  C4  UNL     1     -13.560  50.740 -41.366  1.00  0.00    -0.019 C 
HETATM   16  C2  UNL     1     -14.171  51.886 -41.507  1.00  0.00    -0.091 C 
HETATM   17  C1  UNL     1     -13.598  53.080 -40.772  1.00  0.00     0.042 C 
HETATM   18  C3  UNL     1     -15.379  52.177 -42.312  1.00  0.00     0.042 C 
ENDBRANCH   1  15
BRANCH   3  19
HETATM   19  C8  UNL     1     -14.155  47.175 -44.360  1.00  0.00     0.154 C 
HETATM   20  C9  UNL     1     -13.530  46.009 -45.122  1.00  0.00     0.042 C 
BRANCH  19  21
HETATM   21  O1  UNL     1     -14.117  48.259 -45.235  1.00  0.00    -0.393 OA
ATOM     22  H1  UNL     1     -13.242  48.485 -45.528  1.00  0.00     0.210 HD
ENDBRANCH  19  21
ENDBRANCH   3  19
TORSDOF 3
ENDMDL
MODEL 5
REMARK VINA RESULT: -7.989261130      1.885      4.484
REMARK  3 active torsions:
REMARK  status: ('A' for Active; 'I' for Inactive)
REMARK    1  A    between atoms: C4_4  and  C5_5 
REMARK    2  A    between atoms: C7_7  and  C8_9 
REMARK    3  A    between atoms: C8_9  and  O1_11 
ROOT
HETATM    1  C5  UNL     1     -12.742  50.281 -38.961  1.00  0.00     0.028 C 
HETATM    2  C6  UNL     1     -11.700  51.127 -39.578  1.00  0.00     0.056 C 
HETATM    3  C7  UNL     1     -12.502  51.893 -40.642  1.00  0.00     0.137 C 
HETATM    4  F1  UNL     1     -11.766  51.868 -41.842  1.00  0.00    -0.239 F 
HETATM    5  C10 UNL     1     -13.786  51.138 -40.841  1.00  0.00     0.006 C 
HETATM    6  C11 UNL     1     -14.083  51.033 -42.309  1.00  0.00     0.019 C 
HETATM    7  C12 UNL     1     -15.000  51.833 -40.255  1.00  0.00     0.019 C 
HETATM    8  C13 UNL     1     -13.543  49.838 -40.149  1.00  0.00     0.037 C 
HETATM    9  C14 UNL     1     -12.822  48.830 -41.000  1.00  0.00     0.019 C 
HETATM   10  C15 UNL     1     -13.154  47.398 -40.629  1.00  0.00     0.002 C 
HETATM   11  C16 UNL     1     -14.598  47.084 -40.910  1.00  0.00     0.007 C 
HETATM   12  C17 UNL     1     -15.503  48.171 -40.433  1.00  0.00     0.079 C 
HETATM   13  C18 UNL     1     -14.791  49.207 -39.648  1.00  0.00     0.137 C 
HETATM   14  O2  UNL     1     -15.300  49.508 -38.558  1.00  0.00    -0.297 OA
ENDROOT
BRANCH   1  15
HETATM   15  C4  UNL     1     -12.370  49.262 -37.999  1.00  0.00    -0.019 C 
HETATM   16  C2  UNL     1     -11.271  49.046 -37.327  1.00  0.00    -0.091 C 
HETATM   17  C1  UNL     1     -11.245  47.854 -36.392  1.00  0.00     0.042 C 
HETATM   18  C3  UNL     1     -10.017  49.833 -37.361  1.00  0.00     0.042 C 
ENDBRANCH   1  15
BRANCH   3  19
HETATM   19  C8  UNL     1     -12.659  53.338 -40.306  1.00  0.00     0.154 C 
HETATM   20  C9  UNL     1     -12.074  54.230 -41.398  1.00  0.00     0.042 C 
BRANCH  19  21
HETATM   21  O1  UNL     1     -12.013  53.715 -39.129  1.00  0.00    -0.393 OA
ATOM     22  H1  UNL     1     -12.602  53.853 -38.397  1.00  0.00     0.210 HD
ENDBRANCH  19  21
ENDBRANCH   3  19
TORSDOF 3
ENDMDL
