MODEL 1
REMARK VINA RESULT: -8.233137383      0.000      0.000
REMARK  3 active torsions:
REMARK  status: ('A' for Active; 'I' for Inactive)
REMARK    1  A    between atoms: C2_2  and  C3_3 
REMARK    2  A    between atoms: C3_3  and  C4_5 
REMARK    3  A    between atoms: C12_14  and  O2_15 
ROOT
HETATM    1  C4  UNL     1     -13.855  51.952 -40.665  1.00  0.00     0.014 C 
HETATM    2  C5  UNL     1     -13.085  52.801 -40.037  1.00  0.00     0.023 C 
HETATM    3 CL1  UNL     1     -13.379  54.505 -39.676  1.00  0.00    -0.088 Cl
HETATM    4  C6  UNL     1     -11.839  52.139 -39.637  1.00  0.00     0.057 C 
HETATM    5  C7  UNL     1     -12.088  50.677 -39.895  1.00  0.00     0.004 C 
HETATM    6  C8  UNL     1     -12.059  49.898 -38.646  1.00  0.00     0.011 C 
HETATM    7  C9  UNL     1     -13.292  49.160 -38.269  1.00  0.00    -0.010 C 
HETATM    8  C10 UNL     1     -12.959  48.066 -37.280  1.00  0.00     0.007 C 
HETATM    9  C11 UNL     1     -12.029  47.041 -37.807  1.00  0.00     0.032 C 
HETATM   10  C12 UNL     1     -12.301  46.561 -39.185  1.00  0.00     0.118 C 
HETATM   11  C13 UNL     1     -12.880  47.569 -40.117  1.00  0.00     0.036 C 
HETATM   12  C14 UNL     1     -13.847  48.504 -39.495  1.00  0.00    -0.007 C 
HETATM   13  C15 UNL     1     -14.303  49.589 -40.413  1.00  0.00     0.019 C 
HETATM   14  C16 UNL     1     -13.268  50.594 -40.771  1.00  0.00    -0.008 C 
HETATM   15  C17 UNL     1     -12.880  50.430 -42.238  1.00  0.00     0.021 C 
ENDROOT
BRANCH   1  16
HETATM   16  C3  UNL     1     -15.183  52.321 -41.205  1.00  0.00     0.157 C 
HETATM   17  O1  UNL     1     -16.079  52.653 -40.390  1.00  0.00    -0.293 OA
BRANCH  16  18
HETATM   18  C2  UNL     1     -15.510  52.321 -42.644  1.00  0.00     0.079 C 
HETATM   19  C1  UNL     1     -16.434  51.121 -42.902  1.00  0.00     0.013 C 
ENDBRANCH  16  18
ENDBRANCH   1  16
BRANCH  10  20
HETATM   20  O2  UNL     1     -13.051  45.364 -39.159  1.00  0.00    -0.396 OA
ATOM     21  H2  UNL     1     -13.849  45.477 -38.654  1.00  0.00     0.210 HD
ENDBRANCH  10  20
TORSDOF 3
ENDMDL
MODEL 2
REMARK VINA RESULT: -7.943735320      2.787      5.434
REMARK  3 active torsions:
REMARK  status: ('A' for Active; 'I' for Inactive)
REMARK    1  A    between atoms: C2_2  and  C3_3 
REMARK    2  A    between atoms: C3_3  and  C4_5 
REMARK    3  A    between atoms: C12_14  and  O2_15 
ROOT
HETATM    1  C4  UNL     1     -13.862  47.713 -40.776  1.00  0.00     0.014 C 
HETATM    2  C5  UNL     1     -14.335  47.490 -39.578  1.00  0.00     0.023 C 
HETATM    3 CL1  UNL     1     -14.333  45.987 -38.650  1.00  0.00    -0.088 Cl
HETATM    4  C6  UNL     1     -14.928  48.719 -39.041  1.00  0.00     0.057 C 
HETATM    5  C7  UNL     1     -14.505  49.795 -40.005  1.00  0.00     0.004 C 
HETATM    6  C8  UNL     1     -13.633  50.787 -39.354  1.00  0.00     0.011 C 
HETATM    7  C9  UNL     1     -12.262  50.957 -39.900  1.00  0.00    -0.010 C 
HETATM    8  C10 UNL     1     -11.695  52.291 -39.470  1.00  0.00     0.007 C 
HETATM    9  C11 UNL     1     -12.465  53.458 -39.960  1.00  0.00     0.032 C 
HETATM   10  C12 UNL     1     -12.897  53.403 -41.379  1.00  0.00     0.118 C 
HETATM   11  C13 UNL     1     -13.216  52.046 -41.904  1.00  0.00     0.036 C 
HETATM   12  C14 UNL     1     -12.342  50.964 -41.395  1.00  0.00    -0.007 C 
HETATM   13  C15 UNL     1     -12.770  49.599 -41.823  1.00  0.00     0.019 C 
HETATM   14  C16 UNL     1     -14.042  49.116 -41.225  1.00  0.00    -0.008 C 
HETATM   15  C17 UNL     1     -15.126  49.065 -42.299  1.00  0.00     0.021 C 
ENDROOT
BRANCH   1  16
HETATM   16  C3  UNL     1     -13.209  46.664 -41.590  1.00  0.00     0.157 C 
HETATM   17  O1  UNL     1     -12.032  46.338 -41.295  1.00  0.00    -0.293 OA
BRANCH  16  18
HETATM   18  C2  UNL     1     -13.862  45.981 -42.723  1.00  0.00     0.079 C 
HETATM   19  C1  UNL     1     -13.104  46.384 -43.997  1.00  0.00     0.013 C 
ENDBRANCH  16  18
ENDBRANCH   1  16
BRANCH  10  20
HETATM   20  O2  UNL     1     -11.987  54.097 -42.207  1.00  0.00    -0.396 OA
ATOM     21  H2  UNL     1     -12.336  54.946 -42.454  1.00  0.00     0.210 HD
ENDBRANCH  10  20
TORSDOF 3
ENDMDL
MODEL 3
REMARK VINA RESULT: -7.826820122      3.868      5.800
REMARK  3 active torsions:
REMARK  status: ('A' for Active; 'I' for Inactive)
REMARK    1  A    between atoms: C2_2  and  C3_3 
REMARK    2  A    between atoms: C3_3  and  C4_5 
REMARK    3  A    between atoms: C12_14  and  O2_15 
ROOT
HETATM    1  C4  UNL     1     -13.914  47.321 -43.562  1.00  0.00     0.014 C 
HETATM    2  C5  UNL     1     -12.759  46.900 -43.119  1.00  0.00     0.023 C 
HETATM    3 CL1  UNL     1     -11.532  45.946 -43.959  1.00  0.00    -0.088 Cl
HETATM    4  C6  UNL     1     -12.574  47.328 -41.729  1.00  0.00     0.057 C 
HETATM    5  C7  UNL     1     -13.694  48.304 -41.482  1.00  0.00     0.004 C 
HETATM    6  C8  UNL     1     -13.177  49.656 -41.211  1.00  0.00     0.011 C 
HETATM    7  C9  UNL     1     -13.585  50.743 -42.138  1.00  0.00    -0.010 C 
HETATM    8  C10 UNL     1     -13.393  52.088 -41.474  1.00  0.00     0.007 C 
HETATM    9  C11 UNL     1     -14.211  52.279 -40.254  1.00  0.00     0.032 C 
HETATM   10  C12 UNL     1     -15.625  51.834 -40.341  1.00  0.00     0.118 C 
HETATM   11  C13 UNL     1     -15.875  50.650 -41.209  1.00  0.00     0.036 C 
HETATM   12  C14 UNL     1     -15.046  50.593 -42.435  1.00  0.00    -0.007 C 
HETATM   13  C15 UNL     1     -15.213  49.330 -43.212  1.00  0.00     0.019 C 
HETATM   14  C16 UNL     1     -14.675  48.107 -42.561  1.00  0.00    -0.008 C 
HETATM   15  C17 UNL     1     -15.830  47.208 -42.127  1.00  0.00     0.021 C 
ENDROOT
BRANCH   1  16
HETATM   16  C3  UNL     1     -14.399  47.040 -44.932  1.00  0.00     0.157 C 
HETATM   17  O1  UNL     1     -14.432  47.992 -45.751  1.00  0.00    -0.293 OA
BRANCH  16  18
HETATM   18  C2  UNL     1     -14.844  45.709 -45.387  1.00  0.00     0.079 C 
HETATM   19  C1  UNL     1     -16.374  45.669 -45.254  1.00  0.00     0.013 C 
ENDBRANCH  16  18
ENDBRANCH   1  16
BRANCH  10  20
HETATM   20  O2  UNL     1     -16.473  52.918 -40.657  1.00  0.00    -0.396 OA
ATOM     21  H2  UNL     1     -17.125  52.660 -41.299  1.00  0.00     0.210 HD
ENDBRANCH  10  20
TORSDOF 3
ENDMDL
MODEL 4
REMARK VINA RESULT: -7.812830905      2.452      4.710
REMARK  3 active torsions:
REMARK  status: ('A' for Active; 'I' for Inactive)
REMARK    1  A    between atoms: C2_2  and  C3_3 
REMARK    2  A    between atoms: C3_3  and  C4_5 
REMARK    3  A    between atoms: C12_14  and  O2_15 
ROOT
HETATM    1  C4  UNL     1     -12.471  49.724 -38.996  1.00  0.00     0.014 C 
HETATM    2  C5  UNL     1     -12.507  50.906 -39.553  1.00  0.00     0.023 C 
HETATM    3 CL1  UNL     1     -11.542  52.337 -39.176  1.00  0.00    -0.088 Cl
HETATM    4  C6  UNL     1     -13.526  50.928 -40.606  1.00  0.00     0.057 C 
HETATM    5  C7  UNL     1     -13.925  49.486 -40.777  1.00  0.00     0.004 C 
HETATM    6  C8  UNL     1     -13.579  48.989 -42.119  1.00  0.00     0.011 C 
HETATM    7  C9  UNL     1     -12.636  47.844 -42.203  1.00  0.00    -0.010 C 
HETATM    8  C10 UNL     1     -12.767  47.164 -43.547  1.00  0.00     0.007 C 
HETATM    9  C11 UNL     1     -14.109  46.592 -43.805  1.00  0.00     0.032 C 
HETATM   10  C12 UNL     1     -14.728  45.849 -42.679  1.00  0.00     0.118 C 
HETATM   11  C13 UNL     1     -14.398  46.352 -41.316  1.00  0.00     0.036 C 
HETATM   12  C14 UNL     1     -13.009  46.841 -41.155  1.00  0.00    -0.007 C 
HETATM   13  C15 UNL     1     -12.747  47.470 -39.826  1.00  0.00     0.019 C 
HETATM   14  C16 UNL     1     -13.435  48.766 -39.591  1.00  0.00    -0.008 C 
HETATM   15  C17 UNL     1     -14.528  48.583 -38.541  1.00  0.00     0.021 C 
ENDROOT
BRANCH   1  16
HETATM   16  C3  UNL     1     -11.550  49.386 -37.888  1.00  0.00     0.157 C 
HETATM   17  O1  UNL     1     -12.030  49.297 -36.731  1.00  0.00    -0.293 OA
BRANCH  16  18
HETATM   18  C2  UNL     1     -10.105  49.147 -38.067  1.00  0.00     0.079 C 
HETATM   19  C1  UNL     1      -9.366  50.051 -37.068  1.00  0.00     0.013 C 
ENDBRANCH  16  18
ENDBRANCH   1  16
BRANCH  10  20
HETATM   20  O2  UNL     1     -14.496  44.462 -42.806  1.00  0.00    -0.396 OA
ATOM     21  H2  UNL     1     -14.133  44.105 -42.004  1.00  0.00     0.210 HD
ENDBRANCH  10  20
TORSDOF 3
ENDMDL
MODEL 5
REMARK VINA RESULT: -7.809708639      2.208      3.261
REMARK  3 active torsions:
REMARK  status: ('A' for Active; 'I' for Inactive)
REMARK    1  A    between atoms: C2_2  and  C3_3 
REMARK    2  A    between atoms: C3_3  and  C4_5 
REMARK    3  A    between atoms: C12_14  and  O2_15 
ROOT
HETATM    1  C4  UNL     1     -12.420  51.193 -40.422  1.00  0.00     0.014 C 
HETATM    2  C5  UNL     1     -12.177  51.217 -41.706  1.00  0.00     0.023 C 
HETATM    3 CL1  UNL     1     -11.113  52.299 -42.611  1.00  0.00    -0.088 Cl
HETATM    4  C6  UNL     1     -12.953  50.171 -42.378  1.00  0.00     0.057 C 
HETATM    5  C7  UNL     1     -13.510  49.334 -41.257  1.00  0.00     0.004 C 
HETATM    6  C8  UNL     1     -12.980  47.962 -41.297  1.00  0.00     0.011 C 
HETATM    7  C9  UNL     1     -12.210  47.490 -40.116  1.00  0.00    -0.010 C 
HETATM    8  C10 UNL     1     -12.166  45.979 -40.097  1.00  0.00     0.007 C 
HETATM    9  C11 UNL     1     -13.498  45.340 -39.984  1.00  0.00     0.032 C 
HETATM   10  C12 UNL     1     -14.427  45.939 -38.993  1.00  0.00     0.118 C 
HETATM   11  C13 UNL     1     -14.306  47.412 -38.806  1.00  0.00     0.036 C 
HETATM   12  C14 UNL     1     -12.922  47.935 -38.876  1.00  0.00    -0.007 C 
HETATM   13  C15 UNL     1     -12.842  49.425 -38.828  1.00  0.00     0.019 C 
HETATM   14  C16 UNL     1     -13.373  50.127 -40.025  1.00  0.00    -0.008 C 
HETATM   15  C17 UNL     1     -14.667  50.851 -39.663  1.00  0.00     0.021 C 
ENDROOT
BRANCH   1  16
HETATM   16  C3  UNL     1     -11.794  52.136 -39.469  1.00  0.00     0.157 C 
HETATM   17  O1  UNL     1     -11.171  51.656 -38.489  1.00  0.00    -0.293 OA
BRANCH  16  18
HETATM   18  C2  UNL     1     -11.860  53.604 -39.605  1.00  0.00     0.079 C 
HETATM   19  C1  UNL     1     -13.346  53.992 -39.646  1.00  0.00     0.013 C 
ENDBRANCH  16  18
ENDBRANCH   1  16
BRANCH  10  20
HETATM   20  O2  UNL     1     -14.373  45.238 -37.768  1.00  0.00    -0.396 OA
ATOM     21  H2  UNL     1     -14.433  45.838 -37.033  1.00  0.00     0.210 HD
ENDBRANCH  10  20
TORSDOF 3
ENDMDL
