MODEL 1
REMARK VINA RESULT: -8.696132182      0.000      0.000
REMARK  2 active torsions:
REMARK  status: ('A' for Active; 'I' for Inactive)
REMARK    1  A    between atoms: C6_8  and  N2_9 
REMARK    2  A    between atoms: C11_14  and  C12_15 
ROOT
HETATM    1  N2  UNL     1     -14.085  50.002 -40.521  1.00  0.00    -0.376 N 
HETATM    2  C7  UNL     1     -14.825  49.068 -41.334  1.00  0.00     0.123 C 
HETATM    3  C8  UNL     1     -14.050  48.358 -42.394  1.00  0.00     0.020 C 
HETATM    4  C9  UNL     1     -13.406  49.376 -43.295  1.00  0.00     0.007 C 
HETATM    5  C10 UNL     1     -12.529  50.244 -42.388  1.00  0.00     0.053 C 
HETATM    6  C11 UNL     1     -13.383  50.881 -41.324  1.00  0.00    -0.011 C 
ENDROOT
BRANCH   1   7
HETATM    7  C6  UNL     1     -13.810  49.495 -39.291  1.00  0.00     0.138 C 
HETATM    8  C4  UNL     1     -12.457  49.550 -38.685  1.00  0.00     0.010 A 
HETATM    9  C3  UNL     1     -11.910  48.256 -38.630  1.00  0.00     0.109 A 
HETATM   10  C5  UNL     1     -11.668  50.537 -38.171  1.00  0.00     0.014 A 
HETATM   11  N1  UNL     1     -10.698  48.020 -38.109  1.00  0.00    -0.352 N 
HETATM   12  N3  UNL     1     -12.879  47.350 -39.194  1.00  0.00    -0.373 N 
HETATM   13  C2  UNL     1      -9.917  48.992 -37.602  1.00  0.00     0.089 A 
ATOM     14  H1  UNL     1     -10.352  47.060 -38.095  1.00  0.00     0.166 HD
HETATM   15  C1  UNL     1     -10.423  50.280 -37.638  1.00  0.00     0.018 A 
HETATM   16  C18 UNL     1     -14.143  48.061 -38.942  1.00  0.00     0.151 C 
ATOM     17  H3  UNL     1     -12.728  46.450 -39.648  1.00  0.00     0.161 HD
ENDBRANCH   1   7
BRANCH   6  18
HETATM   18  C12 UNL     1     -12.817  52.164 -40.879  1.00  0.00     0.031 C 
HETATM   19  C13 UNL     1     -12.354  53.045 -42.065  1.00  0.00     0.010 C 
HETATM   20  C14 UNL     1     -11.944  54.376 -41.485  1.00  0.00     0.001 C 
HETATM   21  C15 UNL     1     -11.814  54.386 -39.998  1.00  0.00     0.000 C 
HETATM   22  C16 UNL     1     -13.169  54.105 -39.425  1.00  0.00     0.001 C 
HETATM   23  C17 UNL     1     -13.884  53.070 -40.245  1.00  0.00     0.010 C 
ENDBRANCH   6  18
TORSDOF 2
ENDMDL
MODEL 2
REMARK VINA RESULT: -8.529372531      1.899      4.961
REMARK  2 active torsions:
REMARK  status: ('A' for Active; 'I' for Inactive)
REMARK    1  A    between atoms: C6_8  and  N2_9 
REMARK    2  A    between atoms: C11_14  and  C12_15 
ROOT
HETATM    1  N2  UNL     1     -13.039  48.301 -40.428  1.00  0.00    -0.376 N 
HETATM    2  C7  UNL     1     -14.105  47.366 -40.694  1.00  0.00     0.123 C 
HETATM    3  C8  UNL     1     -15.365  47.566 -39.921  1.00  0.00     0.020 C 
HETATM    4  C9  UNL     1     -15.049  47.530 -38.450  1.00  0.00     0.007 C 
HETATM    5  C10 UNL     1     -14.018  48.638 -38.216  1.00  0.00     0.053 C 
HETATM    6  C11 UNL     1     -12.804  48.382 -39.068  1.00  0.00    -0.011 C 
ENDROOT
BRANCH   1   7
HETATM    7  C6  UNL     1     -12.918  49.225 -41.416  1.00  0.00     0.138 C 
HETATM    8  C4  UNL     1     -13.810  50.406 -41.522  1.00  0.00     0.010 A 
HETATM    9  C3  UNL     1     -14.651  50.266 -42.640  1.00  0.00     0.109 A 
HETATM   10  C5  UNL     1     -13.970  51.562 -40.814  1.00  0.00     0.014 A 
HETATM   11  N1  UNL     1     -15.545  51.207 -42.976  1.00  0.00    -0.352 N 
HETATM   12  N3  UNL     1     -14.332  49.010 -43.269  1.00  0.00    -0.373 N 
HETATM   13  C2  UNL     1     -15.707  52.347 -42.279  1.00  0.00     0.089 A 
ATOM     14  H1  UNL     1     -16.129  51.051 -43.798  1.00  0.00     0.166 HD
HETATM   15  C1  UNL     1     -14.894  52.520 -41.171  1.00  0.00     0.018 A 
HETATM   16  C18 UNL     1     -12.927  48.819 -42.874  1.00  0.00     0.151 C 
ATOM     17  H3  UNL     1     -14.926  48.409 -43.841  1.00  0.00     0.161 HD
ENDBRANCH   1   7
BRANCH   6  18
HETATM   18  C12 UNL     1     -11.589  48.938 -38.453  1.00  0.00     0.031 C 
HETATM   19  C13 UNL     1     -11.543  50.484 -38.536  1.00  0.00     0.010 C 
HETATM   20  C14 UNL     1     -10.338  50.927 -37.742  1.00  0.00     0.001 C 
HETATM   21  C15 UNL     1      -9.406  49.822 -37.371  1.00  0.00     0.000 C 
HETATM   22  C16 UNL     1     -10.151  48.886 -36.470  1.00  0.00     0.001 C 
HETATM   23  C17 UNL     1     -11.570  48.729 -36.931  1.00  0.00     0.010 C 
ENDBRANCH   6  18
TORSDOF 2
ENDMDL
MODEL 3
REMARK VINA RESULT: -8.486954952      1.777      2.343
REMARK  2 active torsions:
REMARK  status: ('A' for Active; 'I' for Inactive)
REMARK    1  A    between atoms: C6_8  and  N2_9 
REMARK    2  A    between atoms: C11_14  and  C12_15 
ROOT
HETATM    1  N2  UNL     1     -14.707  47.965 -41.301  1.00  0.00    -0.376 N 
HETATM    2  C7  UNL     1     -15.759  47.412 -42.119  1.00  0.00     0.123 C 
HETATM    3  C8  UNL     1     -15.346  46.872 -43.448  1.00  0.00     0.020 C 
HETATM    4  C9  UNL     1     -14.652  47.957 -44.225  1.00  0.00     0.007 C 
HETATM    5  C10 UNL     1     -13.467  48.399 -43.361  1.00  0.00     0.053 C 
HETATM    6  C11 UNL     1     -13.971  48.883 -42.027  1.00  0.00    -0.011 C 
ENDROOT
BRANCH   1   7
HETATM    7  C6  UNL     1     -14.351  47.122 -40.297  1.00  0.00     0.138 C 
HETATM    8  C4  UNL     1     -13.598  47.573 -39.101  1.00  0.00     0.010 A 
HETATM    9  C3  UNL     1     -12.295  47.047 -39.135  1.00  0.00     0.109 A 
HETATM   10  C5  UNL     1     -13.888  48.338 -38.009  1.00  0.00     0.014 A 
HETATM   11  N1  UNL     1     -11.408  47.286 -38.159  1.00  0.00    -0.352 N 
HETATM   12  N3  UNL     1     -12.175  46.260 -40.336  1.00  0.00    -0.373 N 
HETATM   13  C2  UNL     1     -11.691  48.041 -37.081  1.00  0.00     0.089 A 
ATOM     14  H1  UNL     1     -10.477  46.877 -38.236  1.00  0.00     0.166 HD
HETATM   15  C1  UNL     1     -12.966  48.577 -37.013  1.00  0.00     0.018 A 
HETATM   16  C18 UNL     1     -13.570  45.857 -40.577  1.00  0.00     0.151 C 
ATOM     17  H3  UNL     1     -11.340  46.039 -40.879  1.00  0.00     0.161 HD
ENDBRANCH   1   7
BRANCH   6  18
HETATM   18  C12 UNL     1     -13.071  49.892 -41.447  1.00  0.00     0.031 C 
HETATM   19  C13 UNL     1     -12.339  50.719 -42.532  1.00  0.00     0.010 C 
HETATM   20  C14 UNL     1     -11.576  51.804 -41.812  1.00  0.00     0.001 C 
HETATM   21  C15 UNL     1     -11.492  51.619 -40.334  1.00  0.00     0.000 C 
HETATM   22  C16 UNL     1     -12.886  51.686 -39.789  1.00  0.00     0.001 C 
HETATM   23  C17 UNL     1     -13.846  50.997 -40.715  1.00  0.00     0.010 C 
ENDBRANCH   6  18
TORSDOF 2
ENDMDL
MODEL 4
REMARK VINA RESULT: -8.360642231      1.630      4.813
REMARK  2 active torsions:
REMARK  status: ('A' for Active; 'I' for Inactive)
REMARK    1  A    between atoms: C6_8  and  N2_9 
REMARK    2  A    between atoms: C11_14  and  C12_15 
ROOT
HETATM    1  N2  UNL     1     -13.774  49.225 -40.977  1.00  0.00    -0.376 N 
HETATM    2  C7  UNL     1     -14.801  48.680 -41.832  1.00  0.00     0.123 C 
HETATM    3  C8  UNL     1     -16.210  48.909 -41.398  1.00  0.00     0.020 C 
HETATM    4  C9  UNL     1     -16.393  48.353 -40.011  1.00  0.00     0.007 C 
HETATM    5  C10 UNL     1     -15.368  49.076 -39.132  1.00  0.00     0.053 C 
HETATM    6  C11 UNL     1     -13.984  48.830 -39.669  1.00  0.00    -0.011 C 
ENDROOT
BRANCH   1   7
HETATM    7  C6  UNL     1     -13.231  50.356 -41.497  1.00  0.00     0.138 C 
HETATM    8  C4  UNL     1     -12.808  51.502 -40.654  1.00  0.00     0.010 A 
HETATM    9  C3  UNL     1     -13.671  52.591 -40.866  1.00  0.00     0.109 A 
HETATM   10  C5  UNL     1     -11.791  51.728 -39.772  1.00  0.00     0.014 A 
HETATM   11  N1  UNL     1     -13.500  53.763 -40.240  1.00  0.00    -0.352 N 
HETATM   12  N3  UNL     1     -14.660  52.180 -41.830  1.00  0.00    -0.373 N 
HETATM   13  C2  UNL     1     -12.499  53.989 -39.368  1.00  0.00     0.089 A 
ATOM     14  H1  UNL     1     -14.157  54.519 -40.433  1.00  0.00     0.166 HD
HETATM   15  C1  UNL     1     -11.628  52.939 -39.134  1.00  0.00     0.018 A 
HETATM   16  C18 UNL     1     -13.940  51.139 -42.581  1.00  0.00     0.151 C 
ATOM     17  H3  UNL     1     -15.612  52.523 -41.960  1.00  0.00     0.161 HD
ENDBRANCH   1   7
BRANCH   6  18
HETATM   18  C12 UNL     1     -12.975  48.884 -38.599  1.00  0.00     0.031 C 
HETATM   19  C13 UNL     1     -13.478  48.237 -37.285  1.00  0.00     0.010 C 
HETATM   20  C14 UNL     1     -12.308  48.222 -36.332  1.00  0.00     0.001 C 
HETATM   21  C15 UNL     1     -11.147  49.051 -36.770  1.00  0.00     0.000 C 
HETATM   22  C16 UNL     1     -10.626  48.461 -38.045  1.00  0.00     0.001 C 
HETATM   23  C17 UNL     1     -11.761  47.997 -38.911  1.00  0.00     0.010 C 
ENDBRANCH   6  18
TORSDOF 2
ENDMDL
MODEL 5
REMARK VINA RESULT: -8.351221358      1.831      5.052
REMARK  2 active torsions:
REMARK  status: ('A' for Active; 'I' for Inactive)
REMARK    1  A    between atoms: C6_8  and  N2_9 
REMARK    2  A    between atoms: C11_14  and  C12_15 
ROOT
HETATM    1  N2  UNL     1     -14.215  50.480 -39.910  1.00  0.00    -0.376 N 
HETATM    2  C7  UNL     1     -14.607  51.845 -40.160  1.00  0.00     0.123 C 
HETATM    3  C8  UNL     1     -13.571  52.726 -40.776  1.00  0.00     0.020 C 
HETATM    4  C9  UNL     1     -12.347  52.729 -39.901  1.00  0.00     0.007 C 
HETATM    5  C10 UNL     1     -11.906  51.267 -39.793  1.00  0.00     0.053 C 
HETATM    6  C11 UNL     1     -13.025  50.447 -39.208  1.00  0.00    -0.011 C 
ENDROOT
BRANCH   1   7
HETATM    7  C6  UNL     1     -14.741  49.626 -40.827  1.00  0.00     0.138 C 
HETATM    8  C4  UNL     1     -13.920  48.625 -41.553  1.00  0.00     0.010 A 
HETATM    9  C3  UNL     1     -13.814  48.991 -42.906  1.00  0.00     0.109 A 
HETATM   10  C5  UNL     1     -13.290  47.464 -41.212  1.00  0.00     0.014 A 
HETATM   11  N1  UNL     1     -13.139  48.244 -43.791  1.00  0.00    -0.352 N 
HETATM   12  N3  UNL     1     -14.547  50.219 -43.083  1.00  0.00    -0.373 N 
HETATM   13  C2  UNL     1     -12.515  47.099 -43.459  1.00  0.00     0.089 A 
ATOM     14  H1  UNL     1     -13.096  48.559 -44.760  1.00  0.00     0.166 HD
HETATM   15  C1  UNL     1     -12.598  46.706 -42.133  1.00  0.00     0.018 A 
HETATM   16  C18 UNL     1     -15.544  50.138 -42.003  1.00  0.00     0.151 C 
ATOM     17  H3  UNL     1     -14.411  50.953 -43.777  1.00  0.00     0.161 HD
ENDBRANCH   1   7
BRANCH   6  18
HETATM   18  C12 UNL     1     -12.509  49.280 -38.475  1.00  0.00     0.031 C 
HETATM   19  C13 UNL     1     -11.501  49.679 -37.369  1.00  0.00     0.010 C 
HETATM   20  C14 UNL     1     -11.173  48.421 -36.604  1.00  0.00     0.001 C 
HETATM   21  C15 UNL     1     -11.637  47.163 -37.260  1.00  0.00     0.000 C 
HETATM   22  C16 UNL     1     -13.133  47.211 -37.320  1.00  0.00     0.001 C 
HETATM   23  C17 UNL     1     -13.603  48.601 -37.637  1.00  0.00     0.010 C 
ENDBRANCH   6  18
TORSDOF 2
ENDMDL
