MODEL 1
REMARK VINA RESULT: -7.777338655      0.000      0.000
REMARK  6 active torsions:
REMARK  status: ('A' for Active; 'I' for Inactive)
REMARK    1  A    between atoms: O1_2  and  C2_3 
REMARK    2  A    between atoms: C2_3  and  C3_5 
REMARK    3  A    between atoms: C3_5  and  N1_6 
REMARK    4  A    between atoms: C7_10  and  N2_11 
REMARK       I    between atoms: N2_11  and  C8_13 
REMARK    5  A    between atoms: C8_13  and  C9_15 
REMARK    6  A    between atoms: C15_21  and  C16_22 
ROOT
HETATM    1  N2  UNL     1      -7.754  19.362   6.616  1.00  0.00    -0.332 N 
ATOM      2  H2  UNL     1      -8.408  18.736   7.086  1.00  0.00     0.164 HD
HETATM    3  C8  UNL     1      -6.432  18.894   6.401  1.00  0.00     0.228 C 
HETATM    4  O3  UNL     1      -5.651  19.719   5.808  1.00  0.00    -0.273 OA
ENDROOT
BRANCH   3   5
HETATM    5  C9  UNL     1      -5.932  17.631   6.782  1.00  0.00     0.046 C 
HETATM    6  C10 UNL     1      -4.426  17.612   7.135  1.00  0.00     0.025 C 
HETATM    7  C11 UNL     1      -4.484  16.154   7.651  1.00  0.00    -0.004 C 
HETATM    8  C12 UNL     1      -5.443  16.502   8.816  1.00  0.00     0.011 C 
HETATM    9  C15 UNL     1      -5.311  15.488   6.619  1.00  0.00    -0.032 C 
HETATM   10  C13 UNL     1      -6.601  16.848   7.849  1.00  0.00     0.004 C 
HETATM   11  C14 UNL     1      -6.688  15.396   7.313  1.00  0.00     0.016 C 
HETATM   12  C19 UNL     1      -5.777  16.595   5.643  1.00  0.00     0.030 C 
BRANCH   9  13
HETATM   13  C16 UNL     1      -4.845  14.282   6.001  1.00  0.00    -0.014 C 
HETATM   14  C17 UNL     1      -3.730  14.416   5.007  1.00  0.00     0.010 C 
HETATM   15  C18 UNL     1      -5.997  13.588   5.279  1.00  0.00     0.010 C 
ENDBRANCH   9  13
ENDBRANCH   3   5
BRANCH   1  16
HETATM   16  C7  UNL     1      -8.231  20.641   6.222  1.00  0.00     0.292 C 
HETATM   17  N1  UNL     1      -9.527  21.070   6.660  1.00  0.00    -0.041 N 
HETATM   18  C4  UNL     1     -10.061  20.551   7.870  1.00  0.00     0.275 C 
HETATM   19  C5  UNL     1      -8.962  22.396   6.845  1.00  0.00     0.244 C 
HETATM   20  C6  UNL     1      -7.599  21.748   7.002  1.00  0.00     0.083 C 
BRANCH  17  21
HETATM   21  C3  UNL     1     -10.520  21.143   5.592  1.00  0.00     0.350 C 
BRANCH  21  22
HETATM   22  C2  UNL     1     -11.311  19.883   5.593  1.00  0.00     0.284 C 
HETATM   23  O2  UNL     1     -12.536  19.898   5.806  1.00  0.00    -0.263 OA
BRANCH  22  24
HETATM   24  O1  UNL     1     -10.721  18.644   5.358  1.00  0.00    -0.325 OA
HETATM   25  C1  UNL     1     -11.327  17.439   5.724  1.00  0.00     0.213 C 
ENDBRANCH  22  24
ENDBRANCH  21  22
ENDBRANCH  17  21
ENDBRANCH   1  16
TORSDOF 6
ENDMDL
MODEL 2
REMARK VINA RESULT: -7.630533039      2.202      6.821
REMARK  6 active torsions:
REMARK  status: ('A' for Active; 'I' for Inactive)
REMARK    1  A    between atoms: O1_2  and  C2_3 
REMARK    2  A    between atoms: C2_3  and  C3_5 
REMARK    3  A    between atoms: C3_5  and  N1_6 
REMARK    4  A    between atoms: C7_10  and  N2_11 
REMARK       I    between atoms: N2_11  and  C8_13 
REMARK    5  A    between atoms: C8_13  and  C9_15 
REMARK    6  A    between atoms: C15_21  and  C16_22 
ROOT
HETATM    1  N2  UNL     1      -7.284  17.284   6.019  1.00  0.00    -0.332 N 
ATOM      2  H2  UNL     1      -7.976  16.536   5.983  1.00  0.00     0.164 HD
HETATM    3  C8  UNL     1      -7.759  18.621   6.059  1.00  0.00     0.228 C 
HETATM    4  O3  UNL     1      -6.850  19.522   6.103  1.00  0.00    -0.273 OA
ENDROOT
BRANCH   3   5
HETATM    5  C9  UNL     1      -9.114  19.015   6.054  1.00  0.00     0.046 C 
HETATM    6  C10 UNL     1      -9.650  19.501   7.421  1.00  0.00     0.025 C 
HETATM    7  C11 UNL     1     -10.993  19.975   6.815  1.00  0.00    -0.004 C 
HETATM    8  C12 UNL     1     -10.324  21.057   5.932  1.00  0.00     0.011 C 
HETATM    9  C15 UNL     1     -11.341  18.858   5.908  1.00  0.00    -0.032 C 
HETATM   10  C13 UNL     1      -9.608  19.998   5.060  1.00  0.00     0.004 C 
HETATM   11  C14 UNL     1     -10.944  19.422   4.527  1.00  0.00     0.016 C 
HETATM   12  C19 UNL     1     -10.150  17.870   5.947  1.00  0.00     0.030 C 
BRANCH   9  13
HETATM   13  C16 UNL     1     -12.639  18.256   5.985  1.00  0.00    -0.014 C 
HETATM   14  C17 UNL     1     -12.750  16.824   5.552  1.00  0.00     0.010 C 
HETATM   15  C18 UNL     1     -13.632  19.049   5.139  1.00  0.00     0.010 C 
ENDBRANCH   9  13
ENDBRANCH   3   5
BRANCH   1  16
HETATM   16  C7  UNL     1      -5.912  16.915   6.025  1.00  0.00     0.292 C 
HETATM   17  N1  UNL     1      -5.358  16.303   7.198  1.00  0.00    -0.041 N 
HETATM   18  C4  UNL     1      -6.205  15.566   8.067  1.00  0.00     0.275 C 
HETATM   19  C5  UNL     1      -4.602  15.432   6.314  1.00  0.00     0.244 C 
HETATM   20  C6  UNL     1      -5.657  15.664   5.250  1.00  0.00     0.083 C 
BRANCH  17  21
HETATM   21  C3  UNL     1      -4.413  17.152   7.919  1.00  0.00     0.350 C 
BRANCH  21  22
HETATM   22  C2  UNL     1      -3.507  17.797   6.932  1.00  0.00     0.284 C 
HETATM   23  O2  UNL     1      -2.545  17.176   6.446  1.00  0.00    -0.263 OA
BRANCH  22  24
HETATM   24  O1  UNL     1      -3.691  19.112   6.512  1.00  0.00    -0.325 OA
HETATM   25  C1  UNL     1      -3.687  20.194   7.397  1.00  0.00     0.213 C 
ENDBRANCH  22  24
ENDBRANCH  21  22
ENDBRANCH  17  21
ENDBRANCH   1  16
TORSDOF 6
ENDMDL
MODEL 3
REMARK VINA RESULT: -7.606922037      2.215      6.886
REMARK  6 active torsions:
REMARK  status: ('A' for Active; 'I' for Inactive)
REMARK    1  A    between atoms: O1_2  and  C2_3 
REMARK    2  A    between atoms: C2_3  and  C3_5 
REMARK    3  A    between atoms: C3_5  and  N1_6 
REMARK    4  A    between atoms: C7_10  and  N2_11 
REMARK       I    between atoms: N2_11  and  C8_13 
REMARK    5  A    between atoms: C8_13  and  C9_15 
REMARK    6  A    between atoms: C15_21  and  C16_22 
ROOT
HETATM    1  N2  UNL     1      -7.177  17.258   5.973  1.00  0.00    -0.332 N 
ATOM      2  H2  UNL     1      -7.881  16.536   5.817  1.00  0.00     0.164 HD
HETATM    3  C8  UNL     1      -7.629  18.590   6.160  1.00  0.00     0.228 C 
HETATM    4  O3  UNL     1      -6.705  19.457   6.350  1.00  0.00    -0.273 OA
ENDROOT
BRANCH   3   5
HETATM    5  C9  UNL     1      -8.974  19.013   6.149  1.00  0.00     0.046 C 
HETATM    6  C10 UNL     1      -9.523  19.453   7.528  1.00  0.00     0.025 C 
HETATM    7  C11 UNL     1     -10.845  19.981   6.922  1.00  0.00    -0.004 C 
HETATM    8  C12 UNL     1     -10.139  21.085   6.096  1.00  0.00     0.011 C 
HETATM    9  C15 UNL     1     -11.201  18.911   5.962  1.00  0.00    -0.032 C 
HETATM   10  C13 UNL     1      -9.430  20.048   5.191  1.00  0.00     0.004 C 
HETATM   11  C14 UNL     1     -10.769  19.525   4.613  1.00  0.00     0.016 C 
HETATM   12  C19 UNL     1     -10.033  17.897   5.978  1.00  0.00     0.030 C 
BRANCH   9  13
HETATM   13  C16 UNL     1     -12.513  18.335   5.993  1.00  0.00    -0.014 C 
HETATM   14  C17 UNL     1     -12.630  16.893   5.598  1.00  0.00     0.010 C 
HETATM   15  C18 UNL     1     -13.447  19.119   5.075  1.00  0.00     0.010 C 
ENDBRANCH   9  13
ENDBRANCH   3   5
BRANCH   1  16
HETATM   16  C7  UNL     1      -5.813  16.858   5.988  1.00  0.00     0.292 C 
HETATM   17  N1  UNL     1      -5.276  16.248   7.169  1.00  0.00    -0.041 N 
HETATM   18  C4  UNL     1      -6.142  15.541   8.044  1.00  0.00     0.275 C 
HETATM   19  C5  UNL     1      -4.537  15.350   6.298  1.00  0.00     0.244 C 
HETATM   20  C6  UNL     1      -5.584  15.593   5.228  1.00  0.00     0.083 C 
BRANCH  17  21
HETATM   21  C3  UNL     1      -4.314  17.084   7.882  1.00  0.00     0.350 C 
BRANCH  21  22
HETATM   22  C2  UNL     1      -3.358  17.655   6.897  1.00  0.00     0.284 C 
HETATM   23  O2  UNL     1      -3.522  18.798   6.435  1.00  0.00    -0.263 OA
BRANCH  22  24
HETATM   24  O1  UNL     1      -2.248  16.942   6.450  1.00  0.00    -0.325 OA
HETATM   25  C1  UNL     1      -1.512  17.320   5.324  1.00  0.00     0.213 C 
ENDBRANCH  22  24
ENDBRANCH  21  22
ENDBRANCH  17  21
ENDBRANCH   1  16
TORSDOF 6
ENDMDL
MODEL 4
REMARK VINA RESULT: -7.599495041      1.118      1.417
REMARK  6 active torsions:
REMARK  status: ('A' for Active; 'I' for Inactive)
REMARK    1  A    between atoms: O1_2  and  C2_3 
REMARK    2  A    between atoms: C2_3  and  C3_5 
REMARK    3  A    between atoms: C3_5  and  N1_6 
REMARK    4  A    between atoms: C7_10  and  N2_11 
REMARK       I    between atoms: N2_11  and  C8_13 
REMARK    5  A    between atoms: C8_13  and  C9_15 
REMARK    6  A    between atoms: C15_21  and  C16_22 
ROOT
HETATM    1  N2  UNL     1      -8.318  18.430   5.999  1.00  0.00    -0.332 N 
ATOM      2  H2  UNL     1      -8.829  17.636   6.384  1.00  0.00     0.164 HD
HETATM    3  C8  UNL     1      -6.900  18.392   6.057  1.00  0.00     0.228 C 
HETATM    4  O3  UNL     1      -6.307  19.414   5.561  1.00  0.00    -0.273 OA
ENDROOT
BRANCH   3   5
HETATM    5  C9  UNL     1      -6.125  17.348   6.603  1.00  0.00     0.046 C 
HETATM    6  C10 UNL     1      -4.669  17.739   6.951  1.00  0.00     0.025 C 
HETATM    7  C11 UNL     1      -4.392  16.392   7.659  1.00  0.00    -0.004 C 
HETATM    8  C12 UNL     1      -5.441  16.649   8.769  1.00  0.00     0.011 C 
HETATM    9  C15 UNL     1      -5.005  15.416   6.730  1.00  0.00    -0.032 C 
HETATM   10  C13 UNL     1      -6.618  16.575   7.768  1.00  0.00     0.004 C 
HETATM   11  C14 UNL     1      -6.340  15.087   7.433  1.00  0.00     0.016 C 
HETATM   12  C19 UNL     1      -5.692  16.239   5.614  1.00  0.00     0.030 C 
BRANCH   9  13
HETATM   13  C16 UNL     1      -4.245  14.288   6.278  1.00  0.00    -0.014 C 
HETATM   14  C17 UNL     1      -4.896  13.391   5.268  1.00  0.00     0.010 C 
HETATM   15  C18 UNL     1      -3.864  13.408   7.467  1.00  0.00     0.010 C 
ENDBRANCH   9  13
ENDBRANCH   3   5
BRANCH   1  16
HETATM   16  C7  UNL     1      -9.075  19.496   5.442  1.00  0.00     0.292 C 
HETATM   17  N1  UNL     1     -10.433  19.684   5.863  1.00  0.00    -0.041 N 
HETATM   18  C4  UNL     1     -10.830  19.245   7.154  1.00  0.00     0.275 C 
HETATM   19  C5  UNL     1     -10.183  21.115   5.833  1.00  0.00     0.244 C 
HETATM   20  C6  UNL     1      -8.708  20.820   6.030  1.00  0.00     0.083 C 
BRANCH  17  21
HETATM   21  C3  UNL     1     -11.420  19.372   4.833  1.00  0.00     0.350 C 
BRANCH  21  22
HETATM   22  C2  UNL     1     -12.701  19.015   5.497  1.00  0.00     0.284 C 
HETATM   23  O2  UNL     1     -13.458  19.895   5.942  1.00  0.00    -0.263 OA
BRANCH  22  24
HETATM   24  O1  UNL     1     -13.108  17.691   5.650  1.00  0.00    -0.325 OA
HETATM   25  C1  UNL     1     -12.210  16.620   5.635  1.00  0.00     0.213 C 
ENDBRANCH  22  24
ENDBRANCH  21  22
ENDBRANCH  17  21
ENDBRANCH   1  16
TORSDOF 6
ENDMDL
MODEL 5
REMARK VINA RESULT: -7.406085493      0.961      1.619
REMARK  6 active torsions:
REMARK  status: ('A' for Active; 'I' for Inactive)
REMARK    1  A    between atoms: O1_2  and  C2_3 
REMARK    2  A    between atoms: C2_3  and  C3_5 
REMARK    3  A    between atoms: C3_5  and  N1_6 
REMARK    4  A    between atoms: C7_10  and  N2_11 
REMARK       I    between atoms: N2_11  and  C8_13 
REMARK    5  A    between atoms: C8_13  and  C9_15 
REMARK    6  A    between atoms: C15_21  and  C16_22 
ROOT
HETATM    1  N2  UNL     1      -7.605  19.272   6.510  1.00  0.00    -0.332 N 
ATOM      2  H2  UNL     1      -8.319  18.609   6.812  1.00  0.00     0.164 HD
HETATM    3  C8  UNL     1      -6.270  18.802   6.409  1.00  0.00     0.228 C 
HETATM    4  O3  UNL     1      -5.412  19.674   6.027  1.00  0.00    -0.273 OA
ENDROOT
BRANCH   3   5
HETATM    5  C9  UNL     1      -5.834  17.490   6.691  1.00  0.00     0.046 C 
HETATM    6  C10 UNL     1      -5.978  17.067   8.173  1.00  0.00     0.025 C 
HETATM    7  C11 UNL     1      -5.596  15.598   7.872  1.00  0.00    -0.004 C 
HETATM    8  C12 UNL     1      -6.838  15.355   6.979  1.00  0.00     0.011 C 
HETATM    9  C15 UNL     1      -4.448  15.753   6.950  1.00  0.00    -0.032 C 
HETATM   10  C13 UNL     1      -6.338  16.343   5.898  1.00  0.00     0.004 C 
HETATM   11  C14 UNL     1      -5.094  15.478   5.574  1.00  0.00     0.016 C 
HETATM   12  C19 UNL     1      -4.302  17.270   6.678  1.00  0.00     0.030 C 
BRANCH   9  13
HETATM   13  C16 UNL     1      -3.224  15.058   7.213  1.00  0.00    -0.014 C 
HETATM   14  C17 UNL     1      -2.277  14.888   6.061  1.00  0.00     0.010 C 
HETATM   15  C18 UNL     1      -3.524  13.658   7.745  1.00  0.00     0.010 C 
ENDBRANCH   9  13
ENDBRANCH   3   5
BRANCH   1  16
HETATM   16  C7  UNL     1      -8.017  20.601   6.220  1.00  0.00     0.292 C 
HETATM   17  N1  UNL     1      -9.287  21.060   6.702  1.00  0.00    -0.041 N 
HETATM   18  C4  UNL     1      -9.841  20.478   7.872  1.00  0.00     0.275 C 
HETATM   19  C5  UNL     1      -8.652  22.337   6.983  1.00  0.00     0.244 C 
HETATM   20  C6  UNL     1      -7.325  21.610   7.077  1.00  0.00     0.083 C 
BRANCH  17  21
HETATM   21  C3  UNL     1     -10.280  21.266   5.651  1.00  0.00     0.350 C 
BRANCH  21  22
HETATM   22  C2  UNL     1     -11.047  20.006   5.469  1.00  0.00     0.284 C 
HETATM   23  O2  UNL     1     -10.507  18.993   4.991  1.00  0.00    -0.263 OA
BRANCH  22  24
HETATM   24  O1  UNL     1     -12.390  19.903   5.823  1.00  0.00    -0.325 OA
HETATM   25  C1  UNL     1     -13.170  18.788   5.505  1.00  0.00     0.213 C 
ENDBRANCH  22  24
ENDBRANCH  21  22
ENDBRANCH  17  21
ENDBRANCH   1  16
TORSDOF 6
ENDMDL
