MODEL 1
REMARK VINA RESULT: -7.909678604      0.000      0.000
REMARK  7 active torsions:
REMARK  status: ('A' for Active; 'I' for Inactive)
REMARK    1  A    between atoms: N1_6  and  C6_7 
REMARK    2  A    between atoms: C6_7  and  O1_8 
REMARK    3  A    between atoms: C6_7  and  C7_10 
REMARK       I    between atoms: N2_14  and  C11_15 
REMARK    4  A    between atoms: C11_15  and  C12_17 
REMARK    5  A    between atoms: C12_17  and  C13_18 
REMARK    6  A    between atoms: C13_18  and  C14_19 
REMARK    7  A    between atoms: C14_19  and  C15_20 
ROOT
HETATM    1  C7  UNL     1      -4.250  14.377   7.045  1.00  0.00     0.161 C 
HETATM    2  C8  UNL     1      -2.822  14.732   6.643  1.00  0.00     0.035 C 
HETATM    3  C9  UNL     1      -2.921  16.214   6.362  1.00  0.00     0.022 C 
HETATM    4  C10 UNL     1      -3.932  16.644   7.426  1.00  0.00     0.127 C 
HETATM    5  N2  UNL     1      -4.939  15.604   7.224  1.00  0.00    -0.340 N 
HETATM    6  C11 UNL     1      -6.330  15.819   7.187  1.00  0.00     0.220 C 
HETATM    7  O2  UNL     1      -7.112  14.838   6.963  1.00  0.00    -0.273 OA
ENDROOT
BRANCH   1   8
HETATM    8  C6  UNL     1      -4.286  13.396   8.121  1.00  0.00     0.137 C 
BRANCH   8   9
HETATM    9  N1  UNL     1      -3.720  12.125   8.206  1.00  0.00    -0.359 N 
HETATM   10  C2  UNL     1      -3.613  11.420   9.512  1.00  0.00     0.082 C 
HETATM   11  C1  UNL     1      -2.217  11.444  10.044  1.00  0.00     0.032 C 
HETATM   12  C3  UNL     1      -4.089  10.046   9.110  1.00  0.00     0.026 C 
HETATM   13  C4  UNL     1      -3.265   9.814   7.871  1.00  0.00     0.022 C 
HETATM   14  C5  UNL     1      -3.152  11.201   7.262  1.00  0.00     0.125 C 
ENDBRANCH   8   9
BRANCH   8  15
HETATM   15  O1  UNL     1      -4.958  13.772   9.180  1.00  0.00    -0.348 OA
ATOM     16  H1  UNL     1      -5.553  14.499   9.039  1.00  0.00     0.219 HD
ENDBRANCH   8  15
ENDBRANCH   1   8
BRANCH   6  17
HETATM   17  C12 UNL     1      -6.944  17.155   7.398  1.00  0.00     0.103 C 
BRANCH  17  18
HETATM   18  C13 UNL     1      -7.306  17.766   6.082  1.00  0.00     0.010 C 
BRANCH  18  19
HETATM   19  C14 UNL     1      -6.886  19.218   6.059  1.00  0.00     0.005 C 
BRANCH  19  20
HETATM   20  C15 UNL     1      -8.031  20.131   5.709  1.00  0.00    -0.014 C 
HETATM   21  C16 UNL     1      -9.301  19.325   5.510  1.00  0.00     0.004 C 
HETATM   22  C17 UNL     1     -10.469  20.228   5.273  1.00  0.00     0.000 C 
HETATM   23  C18 UNL     1     -10.631  21.269   6.336  1.00  0.00     0.000 C 
HETATM   24  C19 UNL     1      -9.592  21.064   7.443  1.00  0.00     0.000 C 
HETATM   25  C20 UNL     1      -8.221  21.137   6.802  1.00  0.00     0.004 C 
ENDBRANCH  19  20
ENDBRANCH  18  19
ENDBRANCH  17  18
ENDBRANCH   6  17
TORSDOF 7
ENDMDL
MODEL 2
REMARK VINA RESULT: -7.873350550      0.622      1.187
REMARK  7 active torsions:
REMARK  status: ('A' for Active; 'I' for Inactive)
REMARK    1  A    between atoms: N1_6  and  C6_7 
REMARK    2  A    between atoms: C6_7  and  O1_8 
REMARK    3  A    between atoms: C6_7  and  C7_10 
REMARK       I    between atoms: N2_14  and  C11_15 
REMARK    4  A    between atoms: C11_15  and  C12_17 
REMARK    5  A    between atoms: C12_17  and  C13_18 
REMARK    6  A    between atoms: C13_18  and  C14_19 
REMARK    7  A    between atoms: C14_19  and  C15_20 
ROOT
HETATM    1  C7  UNL     1      -4.262  14.448   7.022  1.00  0.00     0.161 C 
HETATM    2  C8  UNL     1      -2.839  14.841   6.639  1.00  0.00     0.035 C 
HETATM    3  C9  UNL     1      -2.969  16.325   6.380  1.00  0.00     0.022 C 
HETATM    4  C10 UNL     1      -4.000  16.715   7.441  1.00  0.00     0.127 C 
HETATM    5  N2  UNL     1      -4.981  15.656   7.213  1.00  0.00    -0.340 N 
HETATM    6  C11 UNL     1      -6.376  15.840   7.165  1.00  0.00     0.220 C 
HETATM    7  O2  UNL     1      -7.133  14.845   6.918  1.00  0.00    -0.273 OA
ENDROOT
BRANCH   1   8
HETATM    8  C6  UNL     1      -4.286  13.449   8.081  1.00  0.00     0.137 C 
BRANCH   8   9
HETATM    9  N1  UNL     1      -3.705  12.184   8.145  1.00  0.00    -0.359 N 
HETATM   10  C2  UNL     1      -3.668  11.422   9.424  1.00  0.00     0.082 C 
HETATM   11  C1  UNL     1      -2.309  11.442  10.043  1.00  0.00     0.032 C 
HETATM   12  C3  UNL     1      -4.094  10.062   8.932  1.00  0.00     0.026 C 
HETATM   13  C4  UNL     1      -3.190   9.897   7.739  1.00  0.00     0.022 C 
HETATM   14  C5  UNL     1      -3.063  11.312   7.200  1.00  0.00     0.125 C 
ENDBRANCH   8   9
BRANCH   8  15
HETATM   15  O1  UNL     1      -4.963  13.800   9.146  1.00  0.00    -0.348 OA
ATOM     16  H1  UNL     1      -4.491  14.356   9.754  1.00  0.00     0.219 HD
ENDBRANCH   8  15
ENDBRANCH   1   8
BRANCH   6  17
HETATM   17  C12 UNL     1      -7.022  17.158   7.391  1.00  0.00     0.103 C 
BRANCH  17  18
HETATM   18  C13 UNL     1      -7.277  17.835   6.082  1.00  0.00     0.010 C 
BRANCH  18  19
HETATM   19  C14 UNL     1      -8.695  18.356   6.043  1.00  0.00     0.005 C 
BRANCH  19  20
HETATM   20  C15 UNL     1      -8.844  19.643   6.810  1.00  0.00    -0.014 C 
HETATM   21  C16 UNL     1      -7.833  20.664   6.323  1.00  0.00     0.004 C 
HETATM   22  C17 UNL     1      -8.044  21.981   6.999  1.00  0.00     0.000 C 
HETATM   23  C18 UNL     1      -9.447  22.485   6.875  1.00  0.00     0.000 C 
HETATM   24  C19 UNL     1     -10.276  21.541   5.998  1.00  0.00     0.000 C 
HETATM   25  C20 UNL     1     -10.236  20.169   6.638  1.00  0.00     0.004 C 
ENDBRANCH  19  20
ENDBRANCH  18  19
ENDBRANCH  17  18
ENDBRANCH   6  17
TORSDOF 7
ENDMDL
MODEL 3
REMARK VINA RESULT: -7.821371694      2.048      3.531
REMARK  7 active torsions:
REMARK  status: ('A' for Active; 'I' for Inactive)
REMARK    1  A    between atoms: N1_6  and  C6_7 
REMARK    2  A    between atoms: C6_7  and  O1_8 
REMARK    3  A    between atoms: C6_7  and  C7_10 
REMARK       I    between atoms: N2_14  and  C11_15 
REMARK    4  A    between atoms: C11_15  and  C12_17 
REMARK    5  A    between atoms: C12_17  and  C13_18 
REMARK    6  A    between atoms: C13_18  and  C14_19 
REMARK    7  A    between atoms: C14_19  and  C15_20 
ROOT
HETATM    1  C7  UNL     1      -4.430  17.500   6.707  1.00  0.00     0.161 C 
HETATM    2  C8  UNL     1      -2.964  17.895   6.855  1.00  0.00     0.035 C 
HETATM    3  C9  UNL     1      -2.997  19.381   6.581  1.00  0.00     0.022 C 
HETATM    4  C10 UNL     1      -4.337  19.763   7.214  1.00  0.00     0.127 C 
HETATM    5  N2  UNL     1      -5.172  18.708   6.644  1.00  0.00    -0.340 N 
HETATM    6  C11 UNL     1      -6.461  18.895   6.109  1.00  0.00     0.220 C 
HETATM    7  O2  UNL     1      -7.080  17.904   5.601  1.00  0.00    -0.273 OA
ENDROOT
BRANCH   1   8
HETATM    8  C6  UNL     1      -4.825  16.492   7.681  1.00  0.00     0.137 C 
BRANCH   8   9
HETATM    9  N1  UNL     1      -4.680  15.106   7.657  1.00  0.00    -0.359 N 
HETATM   10  C2  UNL     1      -4.507  14.376   6.371  1.00  0.00     0.082 C 
HETATM   11  C1  UNL     1      -5.758  13.672   5.959  1.00  0.00     0.032 C 
HETATM   12  C3  UNL     1      -3.379  13.447   6.745  1.00  0.00     0.026 C 
HETATM   13  C4  UNL     1      -3.889  12.897   8.052  1.00  0.00     0.022 C 
HETATM   14  C5  UNL     1      -4.642  14.071   8.654  1.00  0.00     0.125 C 
ENDBRANCH   8   9
BRANCH   8  15
HETATM   15  O1  UNL     1      -5.409  16.967   8.752  1.00  0.00    -0.348 OA
ATOM     16  H1  UNL     1      -6.347  16.823   8.792  1.00  0.00     0.219 HD
ENDBRANCH   8  15
ENDBRANCH   1   8
BRANCH   6  17
HETATM   17  C12 UNL     1      -7.147  20.212   6.106  1.00  0.00     0.103 C 
BRANCH  17  18
HETATM   18  C13 UNL     1      -8.530  20.069   6.658  1.00  0.00     0.010 C 
BRANCH  18  19
HETATM   19  C14 UNL     1      -9.545  20.428   5.597  1.00  0.00     0.005 C 
BRANCH  19  20
HETATM   20  C15 UNL     1     -10.371  19.239   5.182  1.00  0.00    -0.014 C 
HETATM   21  C16 UNL     1     -10.513  18.269   6.341  1.00  0.00     0.004 C 
HETATM   22  C17 UNL     1     -11.422  17.140   5.978  1.00  0.00     0.000 C 
HETATM   23  C18 UNL     1     -12.753  17.599   5.471  1.00  0.00     0.000 C 
HETATM   24  C19 UNL     1     -12.854  19.126   5.549  1.00  0.00     0.000 C 
HETATM   25  C20 UNL     1     -11.720  19.702   4.726  1.00  0.00     0.004 C 
ENDBRANCH  19  20
ENDBRANCH  18  19
ENDBRANCH  17  18
ENDBRANCH   6  17
TORSDOF 7
ENDMDL
MODEL 4
REMARK VINA RESULT: -7.748474083      3.068      4.149
REMARK  7 active torsions:
REMARK  status: ('A' for Active; 'I' for Inactive)
REMARK    1  A    between atoms: N1_6  and  C6_7 
REMARK    2  A    between atoms: C6_7  and  O1_8 
REMARK    3  A    between atoms: C6_7  and  C7_10 
REMARK       I    between atoms: N2_14  and  C11_15 
REMARK    4  A    between atoms: C11_15  and  C12_17 
REMARK    5  A    between atoms: C12_17  and  C13_18 
REMARK    6  A    between atoms: C13_18  and  C14_19 
REMARK    7  A    between atoms: C14_19  and  C15_20 
ROOT
HETATM    1  C7  UNL     1      -4.749  17.239   7.474  1.00  0.00     0.161 C 
HETATM    2  C8  UNL     1      -5.352  15.985   8.098  1.00  0.00     0.035 C 
HETATM    3  C9  UNL     1      -6.830  16.167   7.835  1.00  0.00     0.022 C 
HETATM    4  C10 UNL     1      -6.798  16.839   6.460  1.00  0.00     0.127 C 
HETATM    5  N2  UNL     1      -5.783  17.857   6.722  1.00  0.00    -0.340 N 
HETATM    6  C11 UNL     1      -5.860  19.202   6.317  1.00  0.00     0.220 C 
HETATM    7  O2  UNL     1      -4.929  20.010   6.639  1.00  0.00    -0.273 OA
ENDROOT
BRANCH   1   8
HETATM    8  C6  UNL     1      -3.479  16.965   6.817  1.00  0.00     0.137 C 
BRANCH   8   9
HETATM    9  N1  UNL     1      -2.972  15.779   6.288  1.00  0.00    -0.359 N 
HETATM   10  C2  UNL     1      -3.461  15.250   4.986  1.00  0.00     0.082 C 
HETATM   11  C1  UNL     1      -4.388  14.093   5.169  1.00  0.00     0.032 C 
HETATM   12  C3  UNL     1      -2.148  14.883   4.341  1.00  0.00     0.026 C 
HETATM   13  C4  UNL     1      -1.491  14.114   5.456  1.00  0.00     0.022 C 
HETATM   14  C5  UNL     1      -1.984  14.821   6.706  1.00  0.00     0.125 C 
ENDBRANCH   8   9
BRANCH   8  15
HETATM   15  O1  UNL     1      -2.688  18.002   6.704  1.00  0.00    -0.348 OA
ATOM     16  H1  UNL     1      -3.123  18.845   6.759  1.00  0.00     0.219 HD
ENDBRANCH   8  15
ENDBRANCH   1   8
BRANCH   6  17
HETATM   17  C12 UNL     1      -6.992  19.739   5.520  1.00  0.00     0.103 C 
BRANCH  17  18
HETATM   18  C13 UNL     1      -8.038  20.302   6.429  1.00  0.00     0.010 C 
BRANCH  18  19
HETATM   19  C14 UNL     1      -9.299  20.584   5.646  1.00  0.00     0.005 C 
BRANCH  19  20
HETATM   20  C15 UNL     1     -10.041  19.321   5.298  1.00  0.00    -0.014 C 
HETATM   21  C16 UNL     1     -10.325  18.517   6.554  1.00  0.00     0.004 C 
HETATM   22  C17 UNL     1     -11.158  17.317   6.236  1.00  0.00     0.000 C 
HETATM   23  C18 UNL     1     -12.414  17.654   5.497  1.00  0.00     0.000 C 
HETATM   24  C19 UNL     1     -12.549  19.172   5.343  1.00  0.00     0.000 C 
HETATM   25  C20 UNL     1     -11.323  19.669   4.605  1.00  0.00     0.004 C 
ENDBRANCH  19  20
ENDBRANCH  18  19
ENDBRANCH  17  18
ENDBRANCH   6  17
TORSDOF 7
ENDMDL
MODEL 5
REMARK VINA RESULT: -7.692021755      1.983      3.412
REMARK  7 active torsions:
REMARK  status: ('A' for Active; 'I' for Inactive)
REMARK    1  A    between atoms: N1_6  and  C6_7 
REMARK    2  A    between atoms: C6_7  and  O1_8 
REMARK    3  A    between atoms: C6_7  and  C7_10 
REMARK       I    between atoms: N2_14  and  C11_15 
REMARK    4  A    between atoms: C11_15  and  C12_17 
REMARK    5  A    between atoms: C12_17  and  C13_18 
REMARK    6  A    between atoms: C13_18  and  C14_19 
REMARK    7  A    between atoms: C14_19  and  C15_20 
ROOT
HETATM    1  C7  UNL     1      -4.353  17.490   6.715  1.00  0.00     0.161 C 
HETATM    2  C8  UNL     1      -2.866  17.774   6.900  1.00  0.00     0.035 C 
HETATM    3  C9  UNL     1      -2.787  19.266   6.673  1.00  0.00     0.022 C 
HETATM    4  C10 UNL     1      -4.108  19.725   7.295  1.00  0.00     0.127 C 
HETATM    5  N2  UNL     1      -5.006  18.750   6.678  1.00  0.00    -0.340 N 
HETATM    6  C11 UNL     1      -6.267  19.045   6.128  1.00  0.00     0.220 C 
HETATM    7  O2  UNL     1      -6.946  18.118   5.578  1.00  0.00    -0.273 OA
ENDROOT
BRANCH   1   8
HETATM    8  C6  UNL     1      -4.838  16.484   7.650  1.00  0.00     0.137 C 
BRANCH   8   9
HETATM    9  N1  UNL     1      -4.709  15.096   7.632  1.00  0.00    -0.359 N 
HETATM   10  C2  UNL     1      -4.561  14.358   6.348  1.00  0.00     0.082 C 
HETATM   11  C1  UNL     1      -5.825  13.667   5.955  1.00  0.00     0.032 C 
HETATM   12  C3  UNL     1      -3.440  13.417   6.713  1.00  0.00     0.026 C 
HETATM   13  C4  UNL     1      -3.940  12.881   8.029  1.00  0.00     0.022 C 
HETATM   14  C5  UNL     1      -4.671  14.066   8.634  1.00  0.00     0.125 C 
ENDBRANCH   8   9
BRANCH   8  15
HETATM   15  O1  UNL     1      -5.500  16.963   8.673  1.00  0.00    -0.348 OA
ATOM     16  H1  UNL     1      -5.723  16.325   9.340  1.00  0.00     0.219 HD
ENDBRANCH   8  15
ENDBRANCH   1   8
BRANCH   6  17
HETATM   17  C12 UNL     1      -6.858  20.408   6.154  1.00  0.00     0.103 C 
BRANCH  17  18
HETATM   18  C13 UNL     1      -8.136  20.397   6.931  1.00  0.00     0.010 C 
BRANCH  18  19
HETATM   19  C14 UNL     1      -9.239  21.025   6.110  1.00  0.00     0.005 C 
BRANCH  19  20
HETATM   20  C15 UNL     1     -10.532  20.261   6.224  1.00  0.00    -0.014 C 
HETATM   21  C16 UNL     1     -11.120  20.019   4.846  1.00  0.00     0.004 C 
HETATM   22  C17 UNL     1     -12.344  19.166   4.936  1.00  0.00     0.000 C 
HETATM   23  C18 UNL     1     -12.113  17.885   5.674  1.00  0.00     0.000 C 
HETATM   24  C19 UNL     1     -10.637  17.755   6.065  1.00  0.00     0.000 C 
HETATM   25  C20 UNL     1     -10.282  18.956   6.917  1.00  0.00     0.004 C 
ENDBRANCH  19  20
ENDBRANCH  18  19
ENDBRANCH  17  18
ENDBRANCH   6  17
TORSDOF 7
ENDMDL
