MODEL 1
REMARK VINA RESULT: -7.715871840      0.000      0.000
REMARK  6 active torsions:
REMARK  status: ('A' for Active; 'I' for Inactive)
REMARK    1  A    between atoms: O1_2  and  C2_3 
REMARK    2  A    between atoms: C4_5  and  C5_6 
REMARK    3  A    between atoms: N1_14  and  C13_15 
REMARK    4  A    between atoms: C13_15  and  C14_16 
REMARK    5  A    between atoms: C14_16  and  N2_17 
REMARK       I    between atoms: N2_17  and  C15_19 
REMARK    6  A    between atoms: C15_19  and  C16_21 
ROOT
HETATM    1  C2  UNL     1      -5.247  14.583   7.788  1.00  0.00     0.147 C 
HETATM    2  C3  UNL     1      -4.047  14.350   6.899  1.00  0.00     0.045 C 
HETATM    3  C4  UNL     1      -4.049  15.178   5.666  1.00  0.00    -0.009 C 
HETATM    4  C11 UNL     1      -3.142  16.368   5.917  1.00  0.00     0.039 C 
HETATM    5  C12 UNL     1      -4.018  17.260   6.742  1.00  0.00     0.238 C 
HETATM    6  N1  UNL     1      -5.372  16.760   6.657  1.00  0.00    -0.062 N 
HETATM    7  C19 UNL     1      -5.660  16.026   7.846  1.00  0.00     0.269 C 
HETATM    8  C20 UNL     1      -5.391  15.830   5.529  1.00  0.00     0.247 C 
ENDROOT
BRANCH   6   9
HETATM    9  C13 UNL     1      -6.242  17.891   6.432  1.00  0.00     0.257 C 
BRANCH   9  10
HETATM   10  C14 UNL     1      -7.567  17.767   7.099  1.00  0.00     0.150 C 
BRANCH  10  11
HETATM   11  N2  UNL     1      -8.624  17.691   6.138  1.00  0.00    -0.359 N 
HETATM   12  C15 UNL     1      -9.836  18.425   6.177  1.00  0.00     0.221 C 
HETATM   13  O2  UNL     1     -10.113  19.244   7.090  1.00  0.00    -0.273 OA
ATOM     14  H2  UNL     1      -8.493  17.051   5.354  1.00  0.00     0.162 HD
BRANCH  12  15
HETATM   15  C16 UNL     1     -10.852  18.245   5.109  1.00  0.00     0.070 C 
HETATM   16  C17 UNL     1     -11.272  19.571   4.510  1.00  0.00     0.019 C 
HETATM   17  C18 UNL     1     -12.078  17.547   5.627  1.00  0.00     0.019 C 
ENDBRANCH  12  15
ENDBRANCH  10  11
ENDBRANCH   9  10
ENDBRANCH   6   9
BRANCH   1  18
HETATM   18  O1  UNL     1      -4.902  14.141   9.065  1.00  0.00    -0.389 OA
HETATM   19  C1  UNL     1      -3.992  13.090   9.015  1.00  0.00     0.202 C 
ENDBRANCH   1  18
BRANCH   3  20
HETATM   20  C5  UNL     1      -3.560  14.485   4.439  1.00  0.00    -0.004 C 
HETATM   21  C6  UNL     1      -2.152  14.887   4.027  1.00  0.00     0.005 C 
HETATM   22  C7  UNL     1      -1.959  14.333   2.625  1.00  0.00     0.000 C 
HETATM   23  C8  UNL     1      -1.938  12.843   2.653  1.00  0.00     0.000 C 
HETATM   24  C9  UNL     1      -2.287  12.369   4.031  1.00  0.00     0.000 C 
HETATM   25  C10 UNL     1      -3.583  12.998   4.515  1.00  0.00     0.005 C 
ENDBRANCH   3  20
TORSDOF 6
ENDMDL
MODEL 2
REMARK VINA RESULT: -7.565665596      0.765      1.205
REMARK  6 active torsions:
REMARK  status: ('A' for Active; 'I' for Inactive)
REMARK    1  A    between atoms: O1_2  and  C2_3 
REMARK    2  A    between atoms: C4_5  and  C5_6 
REMARK    3  A    between atoms: N1_14  and  C13_15 
REMARK    4  A    between atoms: C13_15  and  C14_16 
REMARK    5  A    between atoms: C14_16  and  N2_17 
REMARK       I    between atoms: N2_17  and  C15_19 
REMARK    6  A    between atoms: C15_19  and  C16_21 
ROOT
HETATM    1  C2  UNL     1      -4.985  14.356   7.714  1.00  0.00     0.147 C 
HETATM    2  C3  UNL     1      -3.614  14.347   7.079  1.00  0.00     0.045 C 
HETATM    3  C4  UNL     1      -3.545  15.095   5.798  1.00  0.00    -0.009 C 
HETATM    4  C11 UNL     1      -2.967  16.464   6.101  1.00  0.00     0.039 C 
HETATM    5  C12 UNL     1      -4.151  17.183   6.674  1.00  0.00     0.238 C 
HETATM    6  N1  UNL     1      -5.331  16.397   6.391  1.00  0.00    -0.062 N 
HETATM    7  C19 UNL     1      -5.689  15.675   7.569  1.00  0.00     0.269 C 
HETATM    8  C20 UNL     1      -4.940  15.432   5.365  1.00  0.00     0.247 C 
ENDROOT
BRANCH   6   9
HETATM    9  C13 UNL     1      -6.353  17.300   5.915  1.00  0.00     0.257 C 
BRANCH   9  10
HETATM   10  C14 UNL     1      -7.457  17.519   6.889  1.00  0.00     0.150 C 
BRANCH  10  11
HETATM   11  N2  UNL     1      -8.733  17.476   6.243  1.00  0.00    -0.359 N 
HETATM   12  C15 UNL     1      -9.398  18.575   5.644  1.00  0.00     0.221 C 
HETATM   13  O2  UNL     1      -8.918  19.736   5.620  1.00  0.00    -0.273 OA
ATOM     14  H2  UNL     1      -9.206  16.573   6.210  1.00  0.00     0.162 HD
BRANCH  12  15
HETATM   15  C16 UNL     1     -10.726  18.386   5.007  1.00  0.00     0.070 C 
HETATM   16  C17 UNL     1     -11.317  19.703   4.550  1.00  0.00     0.019 C 
HETATM   17  C18 UNL     1     -11.699  17.729   5.947  1.00  0.00     0.019 C 
ENDBRANCH  12  15
ENDBRANCH  10  11
ENDBRANCH   9  10
ENDBRANCH   6   9
BRANCH   1  18
HETATM   18  O1  UNL     1      -4.813  14.062   9.066  1.00  0.00    -0.389 OA
HETATM   19  C1  UNL     1      -3.989  12.954   9.249  1.00  0.00     0.202 C 
ENDBRANCH   1  18
BRANCH   3  20
HETATM   20  C5  UNL     1      -2.696  14.467   4.745  1.00  0.00    -0.004 C 
HETATM   21  C6  UNL     1      -3.472  14.022   3.514  1.00  0.00     0.005 C 
HETATM   22  C7  UNL     1      -2.517  13.148   2.719  1.00  0.00     0.000 C 
HETATM   23  C8  UNL     1      -1.389  13.962   2.185  1.00  0.00     0.000 C 
HETATM   24  C9  UNL     1      -1.468  15.348   2.750  1.00  0.00     0.000 C 
HETATM   25  C10 UNL     1      -1.571  15.316   4.266  1.00  0.00     0.005 C 
ENDBRANCH   3  20
TORSDOF 6
ENDMDL
MODEL 3
REMARK VINA RESULT: -7.528726973      2.722      7.426
REMARK  6 active torsions:
REMARK  status: ('A' for Active; 'I' for Inactive)
REMARK    1  A    between atoms: O1_2  and  C2_3 
REMARK    2  A    between atoms: C4_5  and  C5_6 
REMARK    3  A    between atoms: N1_14  and  C13_15 
REMARK    4  A    between atoms: C13_15  and  C14_16 
REMARK    5  A    between atoms: C14_16  and  N2_17 
REMARK       I    between atoms: N2_17  and  C15_19 
REMARK    6  A    between atoms: C15_19  and  C16_21 
ROOT
HETATM    1  C2  UNL     1      -4.438  18.484   6.675  1.00  0.00     0.147 C 
HETATM    2  C3  UNL     1      -5.765  19.141   6.978  1.00  0.00     0.045 C 
HETATM    3  C4  UNL     1      -6.923  18.470   6.334  1.00  0.00    -0.009 C 
HETATM    4  C11 UNL     1      -7.569  17.578   7.377  1.00  0.00     0.039 C 
HETATM    5  C12 UNL     1      -6.650  16.394   7.387  1.00  0.00     0.238 C 
HETATM    6  N1  UNL     1      -5.792  16.484   6.227  1.00  0.00    -0.062 N 
HETATM    7  C19 UNL     1      -4.521  16.985   6.641  1.00  0.00     0.269 C 
HETATM    8  C20 UNL     1      -6.407  17.472   5.343  1.00  0.00     0.247 C 
ENDROOT
BRANCH   6   9
HETATM    9  C13 UNL     1      -5.744  15.176   5.617  1.00  0.00     0.257 C 
BRANCH   9  10
HETATM   10  C14 UNL     1      -6.138  14.074   6.538  1.00  0.00     0.150 C 
BRANCH  10  11
HETATM   11  N2  UNL     1      -5.006  13.284   6.913  1.00  0.00    -0.359 N 
HETATM   12  C15 UNL     1      -4.335  13.334   8.160  1.00  0.00     0.221 C 
HETATM   13  O2  UNL     1      -4.680  14.101   9.094  1.00  0.00    -0.273 OA
ATOM     14  H2  UNL     1      -4.649  12.626   6.220  1.00  0.00     0.162 HD
BRANCH  12  15
HETATM   15  C16 UNL     1      -3.166  12.454   8.414  1.00  0.00     0.070 C 
HETATM   16  C17 UNL     1      -3.096  11.318   7.416  1.00  0.00     0.019 C 
HETATM   17  C18 UNL     1      -3.206  11.870   9.799  1.00  0.00     0.019 C 
ENDBRANCH  12  15
ENDBRANCH  10  11
ENDBRANCH   9  10
ENDBRANCH   6   9
BRANCH   1  18
HETATM   18  O1  UNL     1      -3.546  18.883   7.671  1.00  0.00    -0.389 OA
HETATM   19  C1  UNL     1      -3.532  20.266   7.823  1.00  0.00     0.202 C 
ENDBRANCH   1  18
BRANCH   3  20
HETATM   20  C5  UNL     1      -7.973  19.390   5.810  1.00  0.00    -0.004 C 
HETATM   21  C6  UNL     1      -9.392  18.880   6.009  1.00  0.00     0.005 C 
HETATM   22  C7  UNL     1     -10.276  19.772   5.154  1.00  0.00     0.000 C 
HETATM   23  C8  UNL     1     -10.290  21.162   5.695  1.00  0.00     0.000 C 
HETATM   24  C9  UNL     1      -9.292  21.269   6.807  1.00  0.00     0.000 C 
HETATM   25  C10 UNL     1      -7.925  20.770   6.367  1.00  0.00     0.005 C 
ENDBRANCH   3  20
TORSDOF 6
ENDMDL
MODEL 4
REMARK VINA RESULT: -7.492544878      3.694      6.188
REMARK  6 active torsions:
REMARK  status: ('A' for Active; 'I' for Inactive)
REMARK    1  A    between atoms: O1_2  and  C2_3 
REMARK    2  A    between atoms: C4_5  and  C5_6 
REMARK    3  A    between atoms: N1_14  and  C13_15 
REMARK    4  A    between atoms: C13_15  and  C14_16 
REMARK    5  A    between atoms: C14_16  and  N2_17 
REMARK       I    between atoms: N2_17  and  C15_19 
REMARK    6  A    between atoms: C15_19  and  C16_21 
ROOT
HETATM    1  C2  UNL     1      -8.140  21.720   7.143  1.00  0.00     0.147 C 
HETATM    2  C3  UNL     1      -7.253  20.750   6.399  1.00  0.00     0.045 C 
HETATM    3  C4  UNL     1      -7.822  19.382   6.295  1.00  0.00    -0.009 C 
HETATM    4  C11 UNL     1      -8.451  19.254   4.921  1.00  0.00     0.039 C 
HETATM    5  C12 UNL     1      -9.749  19.981   5.104  1.00  0.00     0.238 C 
HETATM    6  N1  UNL     1      -9.953  20.183   6.521  1.00  0.00    -0.062 N 
HETATM    7  C19 UNL     1      -9.600  21.528   6.843  1.00  0.00     0.269 C 
HETATM    8  C20 UNL     1      -9.014  19.289   7.197  1.00  0.00     0.247 C 
ENDROOT
BRANCH   6   9
HETATM    9  C13 UNL     1     -11.325  19.842   6.817  1.00  0.00     0.257 C 
BRANCH   9  10
HETATM   10  C14 UNL     1     -12.127  19.495   5.612  1.00  0.00     0.150 C 
BRANCH  10  11
HETATM   11  N2  UNL     1     -12.777  18.231   5.771  1.00  0.00    -0.359 N 
HETATM   12  C15 UNL     1     -12.153  16.961   5.692  1.00  0.00     0.221 C 
HETATM   13  O2  UNL     1     -10.926  16.813   5.467  1.00  0.00    -0.273 OA
ATOM     14  H2  UNL     1     -13.780  18.245   5.958  1.00  0.00     0.162 HD
BRANCH  12  15
HETATM   15  C16 UNL     1     -12.954  15.724   5.876  1.00  0.00     0.070 C 
HETATM   16  C17 UNL     1     -12.260  14.517   5.280  1.00  0.00     0.019 C 
HETATM   17  C18 UNL     1     -14.314  15.849   5.247  1.00  0.00     0.019 C 
ENDBRANCH  12  15
ENDBRANCH  10  11
ENDBRANCH   9  10
ENDBRANCH   6   9
BRANCH   1  18
HETATM   18  O1  UNL     1      -7.749  23.005   6.766  1.00  0.00    -0.389 OA
HETATM   19  C1  UNL     1      -7.138  23.683   7.816  1.00  0.00     0.202 C 
ENDBRANCH   1  18
BRANCH   3  20
HETATM   20  C5  UNL     1      -6.833  18.275   6.446  1.00  0.00    -0.004 C 
HETATM   21  C6  UNL     1      -5.442  18.743   6.846  1.00  0.00     0.005 C 
HETATM   22  C7  UNL     1      -4.530  17.545   6.645  1.00  0.00     0.000 C 
HETATM   23  C8  UNL     1      -4.864  16.468   7.620  1.00  0.00     0.000 C 
HETATM   24  C9  UNL     1      -6.106  16.847   8.369  1.00  0.00     0.000 C 
HETATM   25  C10 UNL     1      -7.230  17.216   7.416  1.00  0.00     0.005 C 
ENDBRANCH   3  20
TORSDOF 6
ENDMDL
MODEL 5
REMARK VINA RESULT: -7.465167870      2.177      8.474
REMARK  6 active torsions:
REMARK  status: ('A' for Active; 'I' for Inactive)
REMARK    1  A    between atoms: O1_2  and  C2_3 
REMARK    2  A    between atoms: C4_5  and  C5_6 
REMARK    3  A    between atoms: N1_14  and  C13_15 
REMARK    4  A    between atoms: C13_15  and  C14_16 
REMARK    5  A    between atoms: C14_16  and  N2_17 
REMARK       I    between atoms: N2_17  and  C15_19 
REMARK    6  A    between atoms: C15_19  and  C16_21 
ROOT
HETATM    1  C2  UNL     1      -9.699  21.518   5.960  1.00  0.00     0.147 C 
HETATM    2  C3  UNL     1     -10.889  20.644   6.282  1.00  0.00     0.045 C 
HETATM    3  C4  UNL     1     -10.683  19.211   5.951  1.00  0.00    -0.009 C 
HETATM    4  C11 UNL     1     -10.304  18.497   7.234  1.00  0.00     0.039 C 
HETATM    5  C12 UNL     1      -8.858  18.865   7.381  1.00  0.00     0.238 C 
HETATM    6  N1  UNL     1      -8.412  19.433   6.128  1.00  0.00    -0.062 N 
HETATM    7  C19 UNL     1      -8.386  20.854   6.259  1.00  0.00     0.269 C 
HETATM    8  C20 UNL     1      -9.430  19.083   5.139  1.00  0.00     0.247 C 
ENDROOT
BRANCH   6   9
HETATM    9  C13 UNL     1      -7.133  18.842   5.812  1.00  0.00     0.257 C 
BRANCH   9  10
HETATM   10  C14 UNL     1      -6.764  17.706   6.701  1.00  0.00     0.150 C 
BRANCH  10  11
HETATM   11  N2  UNL     1      -6.490  16.524   5.942  1.00  0.00    -0.359 N 
HETATM   12  C15 UNL     1      -5.207  15.973   5.699  1.00  0.00     0.221 C 
HETATM   13  O2  UNL     1      -4.147  16.483   6.141  1.00  0.00    -0.273 OA
ATOM     14  H2  UNL     1      -7.290  16.035   5.540  1.00  0.00     0.162 HD
BRANCH  12  15
HETATM   15  C16 UNL     1      -5.068  14.736   4.888  1.00  0.00     0.070 C 
HETATM   16  C17 UNL     1      -5.959  13.627   5.407  1.00  0.00     0.019 C 
HETATM   17  C18 UNL     1      -3.649  14.241   4.877  1.00  0.00     0.019 C 
ENDBRANCH  12  15
ENDBRANCH  10  11
ENDBRANCH   9  10
ENDBRANCH   6   9
BRANCH   1  18
HETATM   18  O1  UNL     1      -9.824  22.678   6.725  1.00  0.00    -0.389 OA
HETATM   19  C1  UNL     1      -8.614  23.036   7.312  1.00  0.00     0.202 C 
ENDBRANCH   1  18
BRANCH   3  20
HETATM   20  C5  UNL     1     -11.874  18.518   5.380  1.00  0.00    -0.004 C 
HETATM   21  C6  UNL     1     -12.292  17.277   6.155  1.00  0.00     0.005 C 
HETATM   22  C7  UNL     1     -13.292  16.554   5.268  1.00  0.00     0.000 C 
HETATM   23  C8  UNL     1     -14.540  17.357   5.130  1.00  0.00     0.000 C 
HETATM   24  C9  UNL     1     -14.340  18.697   5.770  1.00  0.00     0.000 C 
HETATM   25  C10 UNL     1     -13.085  19.374   5.244  1.00  0.00     0.005 C 
ENDBRANCH   3  20
TORSDOF 6
ENDMDL
