MODEL 1
REMARK VINA RESULT: -7.862127063      0.000      0.000
REMARK  2 active torsions:
REMARK  status: ('A' for Active; 'I' for Inactive)
REMARK    1  A    between atoms: C6_7  and  C7_8 
REMARK    2  A    between atoms: C7_8  and  N1_9 
REMARK       I    between atoms: N1_9  and  C8_11 
REMARK       I    between atoms: C8_11  and  N2_13 
ROOT
HETATM    1  C1  UNL     1       9.725  -7.717   1.329  1.00  0.00     0.016 C 
HETATM    2  C2  UNL     1       8.298  -7.971   0.891  1.00  0.00    -0.034 C 
HETATM    3  C3  UNL     1       7.454  -8.457   2.054  1.00  0.00     0.083 C 
HETATM    4  S1  UNL     1       6.072  -9.230   1.109  1.00  0.00    -0.163 SA
HETATM    5  C4  UNL     1       6.863  -9.198  -0.531  1.00  0.00     0.058 C 
HETATM    6  C5  UNL     1       8.291  -9.065  -0.152  1.00  0.00     0.026 C 
HETATM    7  C6  UNL     1       6.270  -8.031  -1.276  1.00  0.00    -0.008 C 
HETATM    8  C12 UNL     1       7.050  -7.278  -2.251  1.00  0.00     0.013 C 
HETATM    9  C13 UNL     1       6.468  -5.983  -1.625  1.00  0.00     0.006 C 
HETATM   10  C14 UNL     1       6.424  -6.795  -0.345  1.00  0.00    -0.003 C 
HETATM   11  C15 UNL     1       7.752  -6.719   0.317  1.00  0.00     0.015 C 
ENDROOT
BRANCH   7  12
HETATM   12  C7  UNL     1       4.809  -8.264  -1.463  1.00  0.00     0.135 C 
BRANCH  12  13
HETATM   13  N1  UNL     1       4.391  -8.356  -2.813  1.00  0.00    -0.342 N 
HETATM   14  C8  UNL     1       3.197  -8.808  -3.395  1.00  0.00     0.320 C 
HETATM   15  O1  UNL     1       2.191  -9.257  -2.801  1.00  0.00    -0.247 OA
HETATM   16  N2  UNL     1       3.083  -8.765  -4.823  1.00  0.00    -0.311 N 
HETATM   17  C9  UNL     1       1.943  -9.182  -5.607  1.00  0.00     0.156 C 
HETATM   18  C11 UNL     1       4.078  -8.300  -5.756  1.00  0.00     0.297 C 
HETATM   19  C10 UNL     1       2.196  -8.467  -6.918  1.00  0.00     0.190 C 
HETATM   20  O2  UNL     1       3.599  -8.595  -7.004  1.00  0.00    -0.370 OA
ATOM     21  H1  UNL     1       5.086  -8.034  -3.487  1.00  0.00     0.164 HD
ENDBRANCH  12  13
ENDBRANCH   7  12
TORSDOF 2
ENDMDL
MODEL 2
REMARK VINA RESULT: -6.977314349      1.065      1.125
REMARK  2 active torsions:
REMARK  status: ('A' for Active; 'I' for Inactive)
REMARK    1  A    between atoms: C6_7  and  C7_8 
REMARK    2  A    between atoms: C7_8  and  N1_9 
REMARK       I    between atoms: N1_9  and  C8_11 
REMARK       I    between atoms: C8_11  and  N2_13 
ROOT
HETATM    1  C1  UNL     1       8.893  -7.191   1.991  1.00  0.00     0.016 C 
HETATM    2  C2  UNL     1       7.759  -7.766   1.170  1.00  0.00    -0.034 C 
HETATM    3  C3  UNL     1       6.747  -8.462   2.059  1.00  0.00     0.083 C 
HETATM    4  S1  UNL     1       5.924  -9.520   0.792  1.00  0.00    -0.163 SA
HETATM    5  C4  UNL     1       7.133  -9.267  -0.545  1.00  0.00     0.058 C 
HETATM    6  C5  UNL     1       8.314  -8.809   0.226  1.00  0.00     0.026 C 
HETATM    7  C6  UNL     1       6.532  -8.258  -1.488  1.00  0.00    -0.008 C 
HETATM    8  C12 UNL     1       7.367  -7.322  -2.230  1.00  0.00     0.013 C 
HETATM    9  C13 UNL     1       6.343  -6.215  -1.866  1.00  0.00     0.006 C 
HETATM   10  C14 UNL     1       6.114  -7.041  -0.616  1.00  0.00    -0.003 C 
HETATM   11  C15 UNL     1       7.132  -6.667   0.400  1.00  0.00     0.015 C 
ENDROOT
BRANCH   7  12
HETATM   12  C7  UNL     1       5.287  -8.826  -2.081  1.00  0.00     0.135 C 
BRANCH  12  13
HETATM   13  N1  UNL     1       5.135  -8.599  -3.470  1.00  0.00    -0.342 N 
HETATM   14  C8  UNL     1       3.996  -8.528  -4.288  1.00  0.00     0.320 C 
HETATM   15  O1  UNL     1       2.804  -8.664  -3.934  1.00  0.00    -0.247 OA
HETATM   16  N2  UNL     1       4.184  -8.273  -5.686  1.00  0.00    -0.311 N 
HETATM   17  C9  UNL     1       3.147  -8.164  -6.687  1.00  0.00     0.156 C 
HETATM   18  C11 UNL     1       5.439  -8.077  -6.368  1.00  0.00     0.297 C 
HETATM   19  C10 UNL     1       3.870  -7.429  -7.796  1.00  0.00     0.190 C 
HETATM   20  O2  UNL     1       5.143  -8.029  -7.704  1.00  0.00    -0.370 OA
ATOM     21  H1  UNL     1       6.014  -8.462  -3.969  1.00  0.00     0.164 HD
ENDBRANCH  12  13
ENDBRANCH   7  12
TORSDOF 2
ENDMDL
MODEL 3
REMARK VINA RESULT: -6.872372221      1.300      1.529
REMARK  2 active torsions:
REMARK  status: ('A' for Active; 'I' for Inactive)
REMARK    1  A    between atoms: C6_7  and  C7_8 
REMARK    2  A    between atoms: C7_8  and  N1_9 
REMARK       I    between atoms: N1_9  and  C8_11 
REMARK       I    between atoms: C8_11  and  N2_13 
ROOT
HETATM    1  C1  UNL     1      10.764  -7.421   2.111  1.00  0.00     0.016 C 
HETATM    2  C2  UNL     1       9.502  -8.051   1.560  1.00  0.00    -0.034 C 
HETATM    3  C3  UNL     1       8.962  -9.101   2.512  1.00  0.00     0.083 C 
HETATM    4  S1  UNL     1       7.899 -10.043   1.335  1.00  0.00    -0.163 SA
HETATM    5  C4  UNL     1       8.526  -9.291  -0.200  1.00  0.00     0.058 C 
HETATM    6  C5  UNL     1       9.829  -8.753   0.262  1.00  0.00     0.026 C 
HETATM    7  C6  UNL     1       7.507  -8.267  -0.628  1.00  0.00    -0.008 C 
HETATM    8  C12 UNL     1       7.902  -7.052  -1.330  1.00  0.00     0.013 C 
HETATM    9  C13 UNL     1       6.929  -6.275  -0.404  1.00  0.00     0.006 C 
HETATM   10  C14 UNL     1       7.259  -7.355   0.607  1.00  0.00    -0.003 C 
HETATM   11  C15 UNL     1       8.507  -6.980   1.322  1.00  0.00     0.015 C 
ENDROOT
BRANCH   7  12
HETATM   12  C7  UNL     1       6.221  -8.958  -0.933  1.00  0.00     0.135 C 
BRANCH  12  13
HETATM   13  N1  UNL     1       5.814  -8.881  -2.287  1.00  0.00    -0.342 N 
HETATM   14  C8  UNL     1       4.543  -8.854  -2.882  1.00  0.00     0.320 C 
HETATM   15  O1  UNL     1       3.436  -8.898  -2.300  1.00  0.00    -0.247 OA
HETATM   16  N2  UNL     1       4.469  -8.765  -4.311  1.00  0.00    -0.311 N 
HETATM   17  C9  UNL     1       3.264  -8.724  -5.109  1.00  0.00     0.156 C 
HETATM   18  C11 UNL     1       5.576  -8.699  -5.232  1.00  0.00     0.297 C 
HETATM   19  C10 UNL     1       3.780  -8.149  -6.411  1.00  0.00     0.190 C 
HETATM   20  O2  UNL     1       5.035  -8.789  -6.486  1.00  0.00    -0.370 OA
ATOM     21  H1  UNL     1       6.585  -8.838  -2.953  1.00  0.00     0.164 HD
ENDBRANCH  12  13
ENDBRANCH   7  12
TORSDOF 2
ENDMDL
MODEL 4
REMARK VINA RESULT: -6.801700700      1.787      2.892
REMARK  2 active torsions:
REMARK  status: ('A' for Active; 'I' for Inactive)
REMARK    1  A    between atoms: C6_7  and  C7_8 
REMARK    2  A    between atoms: C7_8  and  N1_9 
REMARK       I    between atoms: N1_9  and  C8_11 
REMARK       I    between atoms: C8_11  and  N2_13 
ROOT
HETATM    1  C1  UNL     1       8.860  -6.754   1.573  1.00  0.00     0.016 C 
HETATM    2  C2  UNL     1       8.207  -7.394   0.366  1.00  0.00    -0.034 C 
HETATM    3  C3  UNL     1       9.248  -7.802  -0.659  1.00  0.00     0.083 C 
HETATM    4  S1  UNL     1       8.161  -7.929  -2.143  1.00  0.00    -0.163 SA
HETATM    5  C4  UNL     1       6.693  -7.125  -1.429  1.00  0.00     0.058 C 
HETATM    6  C5  UNL     1       7.301  -6.383  -0.298  1.00  0.00     0.026 C 
HETATM    7  C6  UNL     1       5.736  -8.225  -1.052  1.00  0.00    -0.008 C 
HETATM    8  C12 UNL     1       4.839  -8.094   0.089  1.00  0.00     0.013 C 
HETATM    9  C13 UNL     1       5.212  -9.551   0.472  1.00  0.00     0.006 C 
HETATM   10  C14 UNL     1       6.543  -9.226  -0.178  1.00  0.00    -0.003 C 
HETATM   11  C15 UNL     1       7.417  -8.561   0.823  1.00  0.00     0.015 C 
ENDROOT
BRANCH   7  12
HETATM   12  C7  UNL     1       5.320  -8.952  -2.287  1.00  0.00     0.135 C 
BRANCH  12  13
HETATM   13  N1  UNL     1       3.926  -8.950  -2.535  1.00  0.00    -0.342 N 
HETATM   14  C8  UNL     1       3.187  -8.922  -3.727  1.00  0.00     0.320 C 
HETATM   15  O1  UNL     1       3.638  -8.886  -4.894  1.00  0.00    -0.247 OA
HETATM   16  N2  UNL     1       1.756  -8.936  -3.636  1.00  0.00    -0.311 N 
HETATM   17  C9  UNL     1       0.824  -8.912  -4.740  1.00  0.00     0.156 C 
HETATM   18  C11 UNL     1       0.968  -8.976  -2.430  1.00  0.00     0.297 C 
HETATM   19  C10 UNL     1      -0.439  -9.430  -4.084  1.00  0.00     0.190 C 
HETATM   20  O2  UNL     1      -0.334  -8.812  -2.820  1.00  0.00    -0.370 OA
ATOM     21  H1  UNL     1       3.353  -8.975  -1.691  1.00  0.00     0.164 HD
ENDBRANCH  12  13
ENDBRANCH   7  12
TORSDOF 2
ENDMDL
MODEL 5
REMARK VINA RESULT: -6.764052930      1.654      2.593
REMARK  2 active torsions:
REMARK  status: ('A' for Active; 'I' for Inactive)
REMARK    1  A    between atoms: C6_7  and  C7_8 
REMARK    2  A    between atoms: C7_8  and  N1_9 
REMARK       I    between atoms: N1_9  and  C8_11 
REMARK       I    between atoms: C8_11  and  N2_13 
ROOT
HETATM    1  C1  UNL     1       8.665  -6.294   2.550  1.00  0.00     0.016 C 
HETATM    2  C2  UNL     1       8.329  -7.150   1.347  1.00  0.00    -0.034 C 
HETATM    3  C3  UNL     1       9.590  -7.588   0.626  1.00  0.00     0.083 C 
HETATM    4  S1  UNL     1       8.856  -8.018  -1.010  1.00  0.00    -0.163 SA
HETATM    5  C4  UNL     1       7.218  -7.272  -0.735  1.00  0.00     0.058 C 
HETATM    6  C5  UNL     1       7.519  -6.330   0.369  1.00  0.00     0.026 C 
HETATM    7  C6  UNL     1       6.279  -8.401  -0.398  1.00  0.00    -0.008 C 
HETATM    8  C12 UNL     1       5.153  -8.206   0.507  1.00  0.00     0.013 C 
HETATM    9  C13 UNL     1       5.533  -9.555   1.173  1.00  0.00     0.006 C 
HETATM   10  C14 UNL     1       6.947  -9.192   0.762  1.00  0.00    -0.003 C 
HETATM   11  C15 UNL     1       7.540  -8.317   1.807  1.00  0.00     0.015 C 
ENDROOT
BRANCH   7  12
HETATM   12  C7  UNL     1       6.186  -9.323  -1.566  1.00  0.00     0.135 C 
BRANCH  12  13
HETATM   13  N1  UNL     1       5.021  -9.166  -2.355  1.00  0.00    -0.342 N 
HETATM   14  C8  UNL     1       4.840  -9.000  -3.736  1.00  0.00     0.320 C 
HETATM   15  O1  UNL     1       5.732  -8.950  -4.613  1.00  0.00    -0.247 OA
HETATM   16  N2  UNL     1       3.501  -8.872  -4.232  1.00  0.00    -0.311 N 
HETATM   17  C9  UNL     1       3.108  -8.695  -5.611  1.00  0.00     0.156 C 
HETATM   18  C11 UNL     1       2.287  -8.894  -3.456  1.00  0.00     0.297 C 
HETATM   19  C10 UNL     1       1.654  -9.114  -5.571  1.00  0.00     0.190 C 
HETATM   20  O2  UNL     1       1.275  -8.576  -4.323  1.00  0.00    -0.370 OA
ATOM     21  H1  UNL     1       4.152  -9.175  -1.820  1.00  0.00     0.164 HD
ENDBRANCH  12  13
ENDBRANCH   7  12
TORSDOF 2
ENDMDL
