MODEL 1
REMARK VINA RESULT: -8.649959077      0.000      0.000
REMARK  2 active torsions:
REMARK  status: ('A' for Active; 'I' for Inactive)
REMARK       I    between atoms: N2_7  and  C6_8 
REMARK       I    between atoms: C6_8  and  N3_10 
REMARK    1  A    between atoms: N3_10  and  C7_12 
REMARK    2  A    between atoms: C12_17  and  N4_18 
ROOT
HETATM    1  N1  UNL     1       7.271  -5.842   0.078  1.00  0.00    -0.195 NA
HETATM    2  C1  UNL     1       7.058  -6.890  -0.348  1.00  0.00     0.085 C 
HETATM    3  C2  UNL     1       6.773  -8.198  -0.882  1.00  0.00     0.196 C 
HETATM    4  C3  UNL     1       7.085  -9.298   0.141  1.00  0.00     0.042 C 
HETATM    5  C4  UNL     1       5.882  -9.199   1.056  1.00  0.00     0.023 C 
HETATM    6  C5  UNL     1       4.792  -8.523   0.238  1.00  0.00     0.129 C 
HETATM    7  N2  UNL     1       5.364  -8.441  -1.109  1.00  0.00    -0.317 N 
HETATM    8  C6  UNL     1       4.746  -8.561  -2.352  1.00  0.00     0.319 C 
HETATM    9  O1  UNL     1       5.436  -8.457  -3.395  1.00  0.00    -0.247 OA
HETATM   10  N3  UNL     1       3.350  -8.801  -2.540  1.00  0.00    -0.336 N 
ATOM     11  H3  UNL     1       2.765  -8.891  -1.709  1.00  0.00     0.164 HD
ENDROOT
BRANCH  10  12
HETATM   12  C7  UNL     1       2.724  -8.922  -3.810  1.00  0.00     0.119 C 
HETATM   13  C8  UNL     1       2.728  -7.589  -4.518  1.00  0.00     0.027 C 
HETATM   14  C9  UNL     1       2.394  -7.866  -5.993  1.00  0.00     0.002 C 
HETATM   15  C10 UNL     1       0.978  -8.401  -5.983  1.00  0.00     0.002 C 
HETATM   16  C11 UNL     1       1.051  -9.788  -5.327  1.00  0.00     0.038 C 
HETATM   17  C12 UNL     1       1.408  -9.613  -3.859  1.00  0.00     0.245 C 
BRANCH  17  18
HETATM   18  N4  UNL     1       0.306  -8.974  -3.229  1.00  0.00     0.095 N 
HETATM   19  C13 UNL     1      -0.900  -9.500  -3.887  1.00  0.00     0.273 C 
HETATM   20  C14 UNL     1      -1.984  -9.563  -2.868  1.00  0.00     0.032 C 
HETATM   21  C15 UNL     1      -1.346  -9.344  -1.542  1.00  0.00     0.032 C 
HETATM   22  C16 UNL     1       0.135  -9.208  -1.834  1.00  0.00     0.273 C 
ENDBRANCH  17  18
ENDBRANCH  10  12
TORSDOF 2
ENDMDL
MODEL 2
REMARK VINA RESULT: -7.362356247      2.075      4.245
REMARK  2 active torsions:
REMARK  status: ('A' for Active; 'I' for Inactive)
REMARK       I    between atoms: N2_7  and  C6_8 
REMARK       I    between atoms: C6_8  and  N3_10 
REMARK    1  A    between atoms: N3_10  and  C7_12 
REMARK    2  A    between atoms: C12_17  and  N4_18 
ROOT
HETATM    1  N1  UNL     1       6.942 -10.173   1.562  1.00  0.00    -0.195 NA
HETATM    2  C1  UNL     1       6.596  -9.228   1.002  1.00  0.00     0.085 C 
HETATM    3  C2  UNL     1       6.162  -8.055   0.286  1.00  0.00     0.196 C 
HETATM    4  C3  UNL     1       7.255  -6.980   0.263  1.00  0.00     0.042 C 
HETATM    5  C4  UNL     1       8.181  -7.524  -0.805  1.00  0.00     0.023 C 
HETATM    6  C5  UNL     1       7.335  -8.468  -1.648  1.00  0.00     0.129 C 
HETATM    7  N2  UNL     1       5.977  -8.274  -1.133  1.00  0.00    -0.317 N 
HETATM    8  C6  UNL     1       4.755  -8.286  -1.804  1.00  0.00     0.319 C 
HETATM    9  O1  UNL     1       3.696  -8.093  -1.159  1.00  0.00    -0.247 OA
HETATM   10  N3  UNL     1       4.608  -8.506  -3.209  1.00  0.00    -0.336 N 
ATOM     11  H3  UNL     1       5.453  -8.664  -3.758  1.00  0.00     0.164 HD
ENDROOT
BRANCH  10  12
HETATM   12  C7  UNL     1       3.361  -8.517  -3.889  1.00  0.00     0.119 C 
HETATM   13  C8  UNL     1       2.841  -9.931  -3.992  1.00  0.00     0.027 C 
HETATM   14  C9  UNL     1       1.357  -9.834  -4.383  1.00  0.00     0.002 C 
HETATM   15  C10 UNL     1       1.354  -9.219  -5.766  1.00  0.00     0.002 C 
HETATM   16  C11 UNL     1       1.810  -7.763  -5.585  1.00  0.00     0.038 C 
HETATM   17  C12 UNL     1       3.273  -7.762  -5.166  1.00  0.00     0.245 C 
BRANCH  17  18
HETATM   18  N4  UNL     1       4.029  -8.243  -6.269  1.00  0.00     0.095 N 
HETATM   19  C13 UNL     1       3.587  -7.465  -7.437  1.00  0.00     0.273 C 
HETATM   20  C14 UNL     1       4.759  -7.291  -8.338  1.00  0.00     0.032 C 
HETATM   21  C15 UNL     1       5.962  -7.718  -7.574  1.00  0.00     0.032 C 
HETATM   22  C16 UNL     1       5.444  -8.089  -6.198  1.00  0.00     0.273 C 
ENDBRANCH  17  18
ENDBRANCH  10  12
TORSDOF 2
ENDMDL
MODEL 3
REMARK VINA RESULT: -7.324499198      2.217      7.370
REMARK  2 active torsions:
REMARK  status: ('A' for Active; 'I' for Inactive)
REMARK       I    between atoms: N2_7  and  C6_8 
REMARK       I    between atoms: C6_8  and  N3_10 
REMARK    1  A    between atoms: N3_10  and  C7_12 
REMARK    2  A    between atoms: C12_17  and  N4_18 
ROOT
HETATM    1  N1  UNL     1      -0.276  -9.247  -3.762  1.00  0.00    -0.195 NA
HETATM    2  C1  UNL     1       0.808  -9.256  -4.153  1.00  0.00     0.085 C 
HETATM    3  C2  UNL     1       2.168  -9.254  -4.630  1.00  0.00     0.196 C 
HETATM    4  C3  UNL     1       2.237  -8.870  -6.114  1.00  0.00     0.042 C 
HETATM    5  C4  UNL     1       2.058  -7.368  -6.038  1.00  0.00     0.023 C 
HETATM    6  C5  UNL     1       2.454  -6.973  -4.623  1.00  0.00     0.129 C 
HETATM    7  N2  UNL     1       2.987  -8.211  -4.050  1.00  0.00    -0.317 N 
HETATM    8  C6  UNL     1       4.036  -8.402  -3.151  1.00  0.00     0.319 C 
HETATM    9  O1  UNL     1       4.330  -9.567  -2.788  1.00  0.00    -0.247 OA
HETATM   10  N3  UNL     1       4.826  -7.349  -2.596  1.00  0.00    -0.336 N 
ATOM     11  H3  UNL     1       4.609  -6.392  -2.876  1.00  0.00     0.164 HD
ENDROOT
BRANCH  10  12
HETATM   12  C7  UNL     1       5.894  -7.549  -1.681  1.00  0.00     0.119 C 
HETATM   13  C8  UNL     1       6.277  -6.237  -1.040  1.00  0.00     0.027 C 
HETATM   14  C9  UNL     1       7.148  -6.574   0.181  1.00  0.00     0.002 C 
HETATM   15  C10 UNL     1       8.396  -7.214  -0.389  1.00  0.00     0.002 C 
HETATM   16  C11 UNL     1       7.958  -8.575  -0.950  1.00  0.00     0.038 C 
HETATM   17  C12 UNL     1       7.061  -8.337  -2.156  1.00  0.00     0.245 C 
BRANCH  17  18
HETATM   18  N4  UNL     1       7.868  -7.769  -3.178  1.00  0.00     0.095 N 
HETATM   19  C13 UNL     1       9.162  -8.465  -3.109  1.00  0.00     0.273 C 
HETATM   20  C14 UNL     1       9.702  -8.561  -4.494  1.00  0.00     0.032 C 
HETATM   21  C15 UNL     1       8.600  -8.177  -5.416  1.00  0.00     0.032 C 
HETATM   22  C16 UNL     1       7.407  -7.912  -4.518  1.00  0.00     0.273 C 
ENDBRANCH  17  18
ENDBRANCH  10  12
TORSDOF 2
ENDMDL
MODEL 4
REMARK VINA RESULT: -6.711575266      2.853      7.955
REMARK  2 active torsions:
REMARK  status: ('A' for Active; 'I' for Inactive)
REMARK       I    between atoms: N2_7  and  C6_8 
REMARK       I    between atoms: C6_8  and  N3_10 
REMARK    1  A    between atoms: N3_10  and  C7_12 
REMARK    2  A    between atoms: C12_17  and  N4_18 
ROOT
HETATM    1  N1  UNL     1       2.551  -7.184  -4.594  1.00  0.00    -0.195 NA
HETATM    2  C1  UNL     1       3.244  -8.000  -4.169  1.00  0.00     0.085 C 
HETATM    3  C2  UNL     1       4.123  -9.007  -3.631  1.00  0.00     0.196 C 
HETATM    4  C3  UNL     1       4.711  -9.885  -4.743  1.00  0.00     0.042 C 
HETATM    5  C4  UNL     1       5.784  -8.973  -5.302  1.00  0.00     0.023 C 
HETATM    6  C5  UNL     1       6.097  -7.975  -4.198  1.00  0.00     0.129 C 
HETATM    7  N2  UNL     1       5.336  -8.472  -3.049  1.00  0.00    -0.317 N 
HETATM    8  C6  UNL     1       5.653  -8.459  -1.692  1.00  0.00     0.319 C 
HETATM    9  O1  UNL     1       4.844  -8.947  -0.866  1.00  0.00    -0.247 OA
HETATM   10  N3  UNL     1       6.861  -7.922  -1.150  1.00  0.00    -0.336 N 
ATOM     11  H3  UNL     1       7.538  -7.520  -1.799  1.00  0.00     0.164 HD
ENDROOT
BRANCH  10  12
HETATM   12  C7  UNL     1       7.180  -7.912   0.234  1.00  0.00     0.119 C 
HETATM   13  C8  UNL     1       7.783  -6.581   0.616  1.00  0.00     0.027 C 
HETATM   14  C9  UNL     1       7.750  -6.500   2.151  1.00  0.00     0.002 C 
HETATM   15  C10 UNL     1       8.677  -7.600   2.623  1.00  0.00     0.002 C 
HETATM   16  C11 UNL     1       7.974  -8.923   2.283  1.00  0.00     0.038 C 
HETATM   17  C12 UNL     1       7.934  -9.076   0.770  1.00  0.00     0.245 C 
BRANCH  17  18
HETATM   18  N4  UNL     1       9.273  -9.254   0.327  1.00  0.00     0.095 N 
HETATM   19  C13 UNL     1       9.680 -10.589   0.790  1.00  0.00     0.273 C 
HETATM   20  C14 UNL     1      10.611 -11.158  -0.224  1.00  0.00     0.032 C 
HETATM   21  C15 UNL     1      10.534 -10.282  -1.423  1.00  0.00     0.032 C 
HETATM   22  C16 UNL     1       9.495  -9.233  -1.080  1.00  0.00     0.273 C 
ENDBRANCH  17  18
ENDBRANCH  10  12
TORSDOF 2
ENDMDL
MODEL 5
REMARK VINA RESULT: -6.525877974      4.183      7.196
REMARK  2 active torsions:
REMARK  status: ('A' for Active; 'I' for Inactive)
REMARK       I    between atoms: N2_7  and  C6_8 
REMARK       I    between atoms: C6_8  and  N3_10 
REMARK    1  A    between atoms: N3_10  and  C7_12 
REMARK    2  A    between atoms: C12_17  and  N4_18 
ROOT
HETATM    1  N1  UNL     1       5.797  -8.071 -12.220  1.00  0.00    -0.195 NA
HETATM    2  C1  UNL     1       5.241  -7.419 -11.450  1.00  0.00     0.085 C 
HETATM    3  C2  UNL     1       4.542  -6.620 -10.475  1.00  0.00     0.196 C 
HETATM    4  C3  UNL     1       3.263  -6.015 -11.065  1.00  0.00     0.042 C 
HETATM    5  C4  UNL     1       2.331  -7.209 -11.036  1.00  0.00     0.023 C 
HETATM    6  C5  UNL     1       2.902  -8.156  -9.990  1.00  0.00     0.129 C 
HETATM    7  N2  UNL     1       3.990  -7.388  -9.379  1.00  0.00    -0.317 N 
HETATM    8  C6  UNL     1       4.436  -7.362  -8.058  1.00  0.00     0.319 C 
HETATM    9  O1  UNL     1       5.398  -6.619  -7.748  1.00  0.00    -0.247 OA
HETATM   10  N3  UNL     1       3.867  -8.134  -6.999  1.00  0.00    -0.336 N 
ATOM     11  H3  UNL     1       3.082  -8.746  -7.223  1.00  0.00     0.164 HD
ENDROOT
BRANCH  10  12
HETATM   12  C7  UNL     1       4.324  -8.105  -5.655  1.00  0.00     0.119 C 
HETATM   13  C8  UNL     1       5.407  -9.137  -5.454  1.00  0.00     0.027 C 
HETATM   14  C9  UNL     1       6.103  -8.801  -4.125  1.00  0.00     0.002 C 
HETATM   15  C10 UNL     1       5.043  -9.003  -3.063  1.00  0.00     0.002 C 
HETATM   16  C11 UNL     1       4.017  -7.879  -3.266  1.00  0.00     0.038 C 
HETATM   17  C12 UNL     1       3.293  -8.115  -4.583  1.00  0.00     0.245 C 
BRANCH  17  18
HETATM   18  N4  UNL     1       2.512  -9.293  -4.431  1.00  0.00     0.095 N 
HETATM   19  C13 UNL     1       1.828  -9.163  -3.136  1.00  0.00     0.273 C 
HETATM   20  C14 UNL     1       0.498  -9.822  -3.256  1.00  0.00     0.032 C 
HETATM   21  C15 UNL     1       0.277 -10.093  -4.701  1.00  0.00     0.032 C 
HETATM   22  C16 UNL     1       1.494  -9.522  -5.401  1.00  0.00     0.273 C 
ENDBRANCH  17  18
ENDBRANCH  10  12
TORSDOF 2
ENDMDL
