MODEL 1
REMARK VINA RESULT: -7.618827396      0.000      0.000
REMARK  11 active torsions:
REMARK  status: ('A' for Active; 'I' for Inactive)
REMARK    1  A    between atoms: O1_2  and  C2_3 
REMARK    2  A    between atoms: C2_3  and  C3_4 
REMARK    3  A    between atoms: C3_4  and  O2_5 
REMARK    4  A    between atoms: C3_4  and  C5_7 
REMARK    5  A    between atoms: C7_10  and  O4_11 
REMARK    6  A    between atoms: C9_13  and  O5_14 
REMARK    7  A    between atoms: C14_19  and  O6_20 
REMARK    8  A    between atoms: C18_26  and  O7_27 
REMARK    9  A    between atoms: C21_31  and  O8_32 
REMARK   10  A    between atoms: O8_32  and  C22_33 
REMARK   11  A    between atoms: C23_36  and  C24_37 
ROOT
HETATM    1  C5  UNL     1     -32.372   9.744 -29.284  1.00  0.00     0.179 A 
HETATM    2  O3  UNL     1     -31.337   8.812 -29.156  1.00  0.00    -0.355 OA
HETATM    3  C6  UNL     1     -32.597   8.578 -28.596  1.00  0.00     0.207 A 
HETATM    4  C7  UNL     1     -32.712   8.465 -27.114  1.00  0.00     0.138 C 
HETATM    5  C9  UNL     1     -31.396   8.107 -26.453  1.00  0.00     0.126 C 
HETATM    6  C11 UNL     1     -31.098   9.536 -26.271  1.00  0.00     0.065 C 
HETATM    7  C12 UNL     1     -32.619   9.774 -26.365  1.00  0.00     0.048 C 
HETATM    8  C13 UNL     1     -33.091   9.574 -24.986  1.00  0.00     0.004 A 
HETATM    9  C14 UNL     1     -33.944  10.452 -24.368  1.00  0.00     0.098 A 
HETATM   10  C15 UNL     1     -34.204  10.253 -23.013  1.00  0.00     0.088 A 
HETATM   11  N1  UNL     1     -35.092  11.175 -22.382  1.00  0.00    -0.099 NA
HETATM   12  C16 UNL     1     -33.649   9.235 -22.304  1.00  0.00    -0.001 A 
HETATM   13  C17 UNL     1     -33.950   9.055 -20.842  1.00  0.00     0.053 C 
HETATM   14  C18 UNL     1     -32.786   8.345 -22.944  1.00  0.00     0.085 A 
HETATM   15  C19 UNL     1     -32.499   8.491 -24.281  1.00  0.00     0.019 A 
HETATM   16  C20 UNL     1     -31.742   7.531 -25.080  1.00  0.00     0.015 C 
HETATM   17  C21 UNL     1     -31.428   6.299 -24.856  1.00  0.00     0.158 C 
HETATM   18  C23 UNL     1     -32.837  11.019 -27.097  1.00  0.00     0.144 C 
HETATM   19  C26 UNL     1     -32.333  10.985 -28.530  1.00  0.00     0.179 C 
HETATM   20  O11 UNL     1     -31.886  12.002 -29.074  1.00  0.00    -0.294 OA
ENDROOT
BRANCH   1  21
HETATM   21  C3  UNL     1     -32.790   9.864 -30.775  1.00  0.00     0.189 C 
BRANCH  21  22
HETATM   22  C2  UNL     1     -33.898   8.903 -31.052  1.00  0.00     0.202 C 
BRANCH  22  23
HETATM   23  O1  UNL     1     -35.131   9.463 -30.950  1.00  0.00    -0.393 OA
HETATM   24  C1  UNL     1     -36.186   8.640 -30.696  1.00  0.00     0.201 C 
ENDBRANCH  22  23
ENDBRANCH  21  22
BRANCH  21  25
HETATM   25  O2  UNL     1     -31.683   9.743 -31.574  1.00  0.00    -0.385 OA
HETATM   26  C4  UNL     1     -31.901   9.570 -32.920  1.00  0.00     0.202 C 
ENDBRANCH  21  25
ENDBRANCH   1  21
BRANCH   4  27
HETATM   27  O4  UNL     1     -33.827   7.807 -26.719  1.00  0.00    -0.378 OA
HETATM   28  C8  UNL     1     -35.051   8.110 -27.174  1.00  0.00     0.202 C 
ENDBRANCH   4  27
BRANCH  18  29
HETATM   29  C24 UNL     1     -32.114  12.205 -26.532  1.00  0.00     0.135 C 
HETATM   30  C25 UNL     1     -32.799  13.511 -26.389  1.00  0.00     0.091 C 
HETATM   31  O10 UNL     1     -30.972  12.105 -26.193  1.00  0.00    -0.297 OA
ENDBRANCH  18  29
BRANCH   5  32
HETATM   32  O5  UNL     1     -30.494   7.384 -27.196  1.00  0.00    -0.377 OA
HETATM   33  C10 UNL     1     -29.173   7.649 -26.977  1.00  0.00     0.203 C 
ENDBRANCH   5  32
BRANCH  17  34
HETATM   34  O8  UNL     1     -31.595   5.517 -23.759  1.00  0.00    -0.275 OA
BRANCH  34  35
HETATM   35  C22 UNL     1     -31.259   4.177 -23.740  1.00  0.00     0.377 C 
HETATM   36  N2  UNL     1     -31.744   3.285 -24.735  1.00  0.00    -0.032 NA
HETATM   37  O9  UNL     1     -30.500   3.733 -22.816  1.00  0.00    -0.242 OA
ENDBRANCH  34  35
ENDBRANCH  17  34
BRANCH   9  38
HETATM   38  O6  UNL     1     -34.567  11.524 -25.020  1.00  0.00    -0.358 OA
ATOM     39  H6  UNL     1     -34.784  12.347 -24.597  1.00  0.00     0.217 HD
ENDBRANCH   9  38
BRANCH  14  40
HETATM   40  O7  UNL     1     -32.241   7.338 -22.203  1.00  0.00    -0.359 OA
ATOM     41  H7  UNL     1     -31.350   7.073 -22.398  1.00  0.00     0.217 HD
ENDBRANCH  14  40
TORSDOF 11
ENDMDL
MODEL 2
REMARK VINA RESULT: -6.846987860      2.475      5.725
REMARK  11 active torsions:
REMARK  status: ('A' for Active; 'I' for Inactive)
REMARK    1  A    between atoms: O1_2  and  C2_3 
REMARK    2  A    between atoms: C2_3  and  C3_4 
REMARK    3  A    between atoms: C3_4  and  O2_5 
REMARK    4  A    between atoms: C3_4  and  C5_7 
REMARK    5  A    between atoms: C7_10  and  O4_11 
REMARK    6  A    between atoms: C9_13  and  O5_14 
REMARK    7  A    between atoms: C14_19  and  O6_20 
REMARK    8  A    between atoms: C18_26  and  O7_27 
REMARK    9  A    between atoms: C21_31  and  O8_32 
REMARK   10  A    between atoms: O8_32  and  C22_33 
REMARK   11  A    between atoms: C23_36  and  C24_37 
ROOT
HETATM    1  C5  UNL     1     -31.935  12.044 -27.320  1.00  0.00     0.179 A 
HETATM    2  O3  UNL     1     -32.257  11.505 -26.071  1.00  0.00    -0.355 OA
HETATM    3  C6  UNL     1     -31.104  11.109 -26.756  1.00  0.00     0.207 A 
HETATM    4  C7  UNL     1     -30.986   9.689 -27.197  1.00  0.00     0.138 C 
HETATM    5  C9  UNL     1     -31.879   8.757 -26.405  1.00  0.00     0.126 C 
HETATM    6  C11 UNL     1     -32.944   8.927 -27.407  1.00  0.00     0.065 C 
HETATM    7  C12 UNL     1     -31.828   9.321 -28.395  1.00  0.00     0.048 C 
HETATM    8  C13 UNL     1     -31.363   8.032 -28.932  1.00  0.00     0.004 A 
HETATM    9  C14 UNL     1     -31.180   7.820 -30.274  1.00  0.00     0.098 A 
HETATM   10  C15 UNL     1     -30.890   6.520 -30.688  1.00  0.00     0.088 A 
HETATM   11  N1  UNL     1     -30.702   6.313 -32.087  1.00  0.00    -0.099 NA
HETATM   12  C16 UNL     1     -30.784   5.482 -29.816  1.00  0.00    -0.001 A 
HETATM   13  C17 UNL     1     -30.474   4.093 -30.301  1.00  0.00     0.053 C 
HETATM   14  C18 UNL     1     -30.968   5.711 -28.453  1.00  0.00     0.085 A 
HETATM   15  C19 UNL     1     -31.252   6.974 -27.989  1.00  0.00     0.019 A 
HETATM   16  C20 UNL     1     -31.305   7.352 -26.579  1.00  0.00     0.015 C 
HETATM   17  C21 UNL     1     -30.866   6.753 -25.522  1.00  0.00     0.158 C 
HETATM   18  C23 UNL     1     -32.338  10.389 -29.250  1.00  0.00     0.144 C 
HETATM   19  C26 UNL     1     -32.694  11.661 -28.498  1.00  0.00     0.179 C 
HETATM   20  O11 UNL     1     -33.626  12.384 -28.870  1.00  0.00    -0.294 OA
ENDROOT
BRANCH   1  21
HETATM   21  C3  UNL     1     -31.619  13.558 -27.174  1.00  0.00     0.189 C 
BRANCH  21  22
HETATM   22  C2  UNL     1     -30.791  14.000 -28.334  1.00  0.00     0.202 C 
BRANCH  22  23
HETATM   23  O1  UNL     1     -29.594  14.528 -27.968  1.00  0.00    -0.393 OA
HETATM   24  C1  UNL     1     -29.335  15.820 -28.314  1.00  0.00     0.201 C 
ENDBRANCH  22  23
ENDBRANCH  21  22
BRANCH  21  25
HETATM   25  O2  UNL     1     -31.087  13.799 -25.934  1.00  0.00    -0.385 OA
HETATM   26  C4  UNL     1     -31.687  14.775 -25.177  1.00  0.00     0.202 C 
ENDBRANCH  21  25
ENDBRANCH   1  21
BRANCH   4  27
HETATM   27  O4  UNL     1     -29.705   9.311 -27.422  1.00  0.00    -0.378 OA
HETATM   28  C8  UNL     1     -28.710   9.561 -26.559  1.00  0.00     0.202 C 
ENDBRANCH   4  27
BRANCH  18  29
HETATM   29  C24 UNL     1     -33.624  10.062 -29.951  1.00  0.00     0.135 C 
HETATM   30  C25 UNL     1     -34.777   9.518 -29.198  1.00  0.00     0.091 C 
HETATM   31  O10 UNL     1     -33.725  10.238 -31.129  1.00  0.00    -0.297 OA
ENDBRANCH  18  29
BRANCH   5  32
HETATM   32  O5  UNL     1     -32.189   9.122 -25.117  1.00  0.00    -0.377 OA
HETATM   33  C10 UNL     1     -33.469   8.889 -24.707  1.00  0.00     0.203 C 
ENDBRANCH   5  32
BRANCH  17  34
HETATM   34  O8  UNL     1     -30.313   5.525 -25.352  1.00  0.00    -0.275 OA
BRANCH  34  35
HETATM   35  C22 UNL     1     -30.815   4.599 -24.458  1.00  0.00     0.377 C 
HETATM   36  N2  UNL     1     -31.600   3.499 -24.904  1.00  0.00    -0.032 NA
HETATM   37  O9  UNL     1     -30.570   4.729 -23.214  1.00  0.00    -0.242 OA
ENDBRANCH  34  35
ENDBRANCH  17  34
BRANCH   9  38
HETATM   38  O6  UNL     1     -31.261   8.829 -31.242  1.00  0.00    -0.358 OA
ATOM     39  H6  UNL     1     -31.088   8.691 -32.167  1.00  0.00     0.217 HD
ENDBRANCH   9  38
BRANCH  14  40
HETATM   40  O7  UNL     1     -30.862   4.647 -27.606  1.00  0.00    -0.359 OA
ATOM     41  H7  UNL     1     -31.563   4.504 -26.980  1.00  0.00     0.217 HD
ENDBRANCH  14  40
TORSDOF 11
ENDMDL
MODEL 3
REMARK VINA RESULT: -6.692502589      3.466      6.913
REMARK  11 active torsions:
REMARK  status: ('A' for Active; 'I' for Inactive)
REMARK    1  A    between atoms: O1_2  and  C2_3 
REMARK    2  A    between atoms: C2_3  and  C3_4 
REMARK    3  A    between atoms: C3_4  and  O2_5 
REMARK    4  A    between atoms: C3_4  and  C5_7 
REMARK    5  A    between atoms: C7_10  and  O4_11 
REMARK    6  A    between atoms: C9_13  and  O5_14 
REMARK    7  A    between atoms: C14_19  and  O6_20 
REMARK    8  A    between atoms: C18_26  and  O7_27 
REMARK    9  A    between atoms: C21_31  and  O8_32 
REMARK   10  A    between atoms: O8_32  and  C22_33 
REMARK   11  A    between atoms: C23_36  and  C24_37 
ROOT
HETATM    1  C5  UNL     1     -32.985   8.577 -24.816  1.00  0.00     0.179 A 
HETATM    2  O3  UNL     1     -32.730   9.941 -24.646  1.00  0.00    -0.355 OA
HETATM    3  C6  UNL     1     -33.038   9.120 -23.556  1.00  0.00     0.207 A 
HETATM    4  C7  UNL     1     -34.288   9.387 -22.790  1.00  0.00     0.138 C 
HETATM    5  C9  UNL     1     -34.787  10.807 -22.965  1.00  0.00     0.126 C 
HETATM    6  C11 UNL     1     -35.629  10.372 -24.090  1.00  0.00     0.065 C 
HETATM    7  C12 UNL     1     -35.563   8.958 -23.478  1.00  0.00     0.048 C 
HETATM    8  C13 UNL     1     -36.660   8.949 -22.497  1.00  0.00     0.004 A 
HETATM    9  C14 UNL     1     -37.560   7.919 -22.414  1.00  0.00     0.098 A 
HETATM   10  C15 UNL     1     -38.650   8.083 -21.559  1.00  0.00     0.088 A 
HETATM   11  N1  UNL     1     -39.580   7.003 -21.483  1.00  0.00    -0.099 NA
HETATM   12  C16 UNL     1     -38.838   9.209 -20.822  1.00  0.00    -0.001 A 
HETATM   13  C17 UNL     1     -40.028   9.350 -19.914  1.00  0.00     0.053 C 
HETATM   14  C18 UNL     1     -37.913  10.248 -20.911  1.00  0.00     0.085 A 
HETATM   15  C19 UNL     1     -36.817  10.139 -21.735  1.00  0.00     0.019 A 
HETATM   16  C20 UNL     1     -35.712  11.093 -21.783  1.00  0.00     0.015 C 
HETATM   17  C21 UNL     1     -35.358  12.024 -20.962  1.00  0.00     0.158 C 
HETATM   18  C23 UNL     1     -35.481   7.995 -24.572  1.00  0.00     0.144 C 
HETATM   19  C26 UNL     1     -34.229   8.138 -25.423  1.00  0.00     0.179 C 
HETATM   20  O11 UNL     1     -34.248   7.887 -26.634  1.00  0.00    -0.294 OA
ENDROOT
BRANCH   1  21
HETATM   21  C3  UNL     1     -31.697   7.858 -25.302  1.00  0.00     0.189 C 
BRANCH  21  22
HETATM   22  C2  UNL     1     -31.230   6.917 -24.241  1.00  0.00     0.202 C 
BRANCH  22  23
HETATM   23  O1  UNL     1     -31.858   5.714 -24.278  1.00  0.00    -0.393 OA
HETATM   24  C1  UNL     1     -31.165   4.621 -23.852  1.00  0.00     0.201 C 
ENDBRANCH  22  23
ENDBRANCH  21  22
BRANCH  21  25
HETATM   25  O2  UNL     1     -30.780   8.787 -25.719  1.00  0.00    -0.385 OA
HETATM   26  C4  UNL     1     -29.737   8.333 -26.488  1.00  0.00     0.202 C 
ENDBRANCH  21  25
ENDBRANCH   1  21
BRANCH   4  27
HETATM   27  O4  UNL     1     -34.263   8.867 -21.540  1.00  0.00    -0.378 OA
HETATM   28  C8  UNL     1     -33.130   8.492 -20.930  1.00  0.00     0.202 C 
ENDBRANCH   4  27
BRANCH  18  29
HETATM   29  C24 UNL     1     -36.575   8.119 -25.591  1.00  0.00     0.135 C 
HETATM   30  C25 UNL     1     -36.826   9.406 -26.278  1.00  0.00     0.091 C 
HETATM   31  O10 UNL     1     -37.257   7.173 -25.855  1.00  0.00    -0.297 OA
ENDBRANCH  18  29
BRANCH   5  32
HETATM   32  O5  UNL     1     -33.851  11.775 -23.241  1.00  0.00    -0.377 OA
HETATM   33  C10 UNL     1     -34.224  12.752 -24.117  1.00  0.00     0.203 C 
ENDBRANCH   5  32
BRANCH  17  34
HETATM   34  O8  UNL     1     -35.954  12.507 -19.842  1.00  0.00    -0.275 OA
BRANCH  34  35
HETATM   35  C22 UNL     1     -36.000  13.855 -19.543  1.00  0.00     0.377 C 
HETATM   36  N2  UNL     1     -37.242  14.543 -19.444  1.00  0.00    -0.032 NA
HETATM   37  O9  UNL     1     -34.914  14.493 -19.351  1.00  0.00    -0.242 OA
ENDBRANCH  34  35
ENDBRANCH  17  34
BRANCH   9  38
HETATM   38  O6  UNL     1     -37.444   6.721 -23.129  1.00  0.00    -0.358 OA
ATOM     39  H6  UNL     1     -38.176   6.147 -23.326  1.00  0.00     0.217 HD
ENDBRANCH   9  38
BRANCH  14  40
HETATM   40  O7  UNL     1     -38.134  11.367 -20.163  1.00  0.00    -0.359 OA
ATOM     41  H7  UNL     1     -37.395  11.938 -19.986  1.00  0.00     0.217 HD
ENDBRANCH  14  40
TORSDOF 11
ENDMDL
MODEL 4
REMARK VINA RESULT: -6.214622145      3.605      7.226
REMARK  11 active torsions:
REMARK  status: ('A' for Active; 'I' for Inactive)
REMARK    1  A    between atoms: O1_2  and  C2_3 
REMARK    2  A    between atoms: C2_3  and  C3_4 
REMARK    3  A    between atoms: C3_4  and  O2_5 
REMARK    4  A    between atoms: C3_4  and  C5_7 
REMARK    5  A    between atoms: C7_10  and  O4_11 
REMARK    6  A    between atoms: C9_13  and  O5_14 
REMARK    7  A    between atoms: C14_19  and  O6_20 
REMARK    8  A    between atoms: C18_26  and  O7_27 
REMARK    9  A    between atoms: C21_31  and  O8_32 
REMARK   10  A    between atoms: O8_32  and  C22_33 
REMARK   11  A    between atoms: C23_36  and  C24_37 
ROOT
HETATM    1  C5  UNL     1     -33.207   8.602 -24.380  1.00  0.00     0.179 A 
HETATM    2  O3  UNL     1     -32.979   9.980 -24.313  1.00  0.00    -0.355 OA
HETATM    3  C6  UNL     1     -33.302   9.242 -23.169  1.00  0.00     0.207 A 
HETATM    4  C7  UNL     1     -34.576   9.547 -22.457  1.00  0.00     0.138 C 
HETATM    5  C9  UNL     1     -35.093  10.938 -22.758  1.00  0.00     0.126 C 
HETATM    6  C11 UNL     1     -35.899  10.399 -23.864  1.00  0.00     0.065 C 
HETATM    7  C12 UNL     1     -35.825   9.040 -23.139  1.00  0.00     0.048 C 
HETATM    8  C13 UNL     1     -36.946   9.089 -22.187  1.00  0.00     0.004 A 
HETATM    9  C14 UNL     1     -37.831   8.051 -22.043  1.00  0.00     0.098 A 
HETATM   10  C15 UNL     1     -38.945   8.263 -21.231  1.00  0.00     0.088 A 
HETATM   11  N1  UNL     1     -39.858   7.175 -21.091  1.00  0.00    -0.099 NA
HETATM   12  C16 UNL     1     -39.170   9.440 -20.591  1.00  0.00    -0.001 A 
HETATM   13  C17 UNL     1     -40.385   9.631 -19.726  1.00  0.00     0.053 C 
HETATM   14  C18 UNL     1     -38.260  10.487 -20.741  1.00  0.00     0.085 A 
HETATM   15  C19 UNL     1     -37.143  10.332 -21.527  1.00  0.00     0.019 A 
HETATM   16  C20 UNL     1     -36.052  11.300 -21.624  1.00  0.00     0.015 C 
HETATM   17  C21 UNL     1     -35.735  12.301 -20.873  1.00  0.00     0.158 C 
HETATM   18  C23 UNL     1     -35.698   7.995 -24.150  1.00  0.00     0.144 C 
HETATM   19  C26 UNL     1     -34.428   8.093 -24.979  1.00  0.00     0.179 C 
HETATM   20  O11 UNL     1     -34.412   7.745 -26.166  1.00  0.00    -0.294 OA
ENDROOT
BRANCH   1  21
HETATM   21  C3  UNL     1     -31.895   7.871 -24.775  1.00  0.00     0.189 C 
BRANCH  21  22
HETATM   22  C2  UNL     1     -31.377   8.449 -26.050  1.00  0.00     0.202 C 
BRANCH  22  23
HETATM   23  O1  UNL     1     -30.088   8.868 -25.963  1.00  0.00    -0.393 OA
HETATM   24  C1  UNL     1     -29.104   7.937 -26.111  1.00  0.00     0.201 C 
ENDBRANCH  22  23
ENDBRANCH  21  22
BRANCH  21  25
HETATM   25  O2  UNL     1     -32.106   6.517 -24.778  1.00  0.00    -0.385 OA
HETATM   26  C4  UNL     1     -31.421   5.778 -23.844  1.00  0.00     0.202 C 
ENDBRANCH  21  25
ENDBRANCH   1  21
BRANCH   4  27
HETATM   27  O4  UNL     1     -34.574   9.128 -21.169  1.00  0.00    -0.378 OA
HETATM   28  C8  UNL     1     -33.448   8.866 -20.490  1.00  0.00     0.202 C 
ENDBRANCH   4  27
BRANCH  18  29
HETATM   29  C24 UNL     1     -36.768   8.016 -25.201  1.00  0.00     0.135 C 
HETATM   30  C25 UNL     1     -36.999   9.228 -26.021  1.00  0.00     0.091 C 
HETATM   31  O10 UNL     1     -37.447   7.049 -25.385  1.00  0.00    -0.297 OA
ENDBRANCH  18  29
BRANCH   5  32
HETATM   32  O5  UNL     1     -34.167  11.899 -23.088  1.00  0.00    -0.377 OA
HETATM   33  C10 UNL     1     -34.541  12.807 -24.035  1.00  0.00     0.203 C 
ENDBRANCH   5  32
BRANCH  17  34
HETATM   34  O8  UNL     1     -36.368  12.860 -19.810  1.00  0.00    -0.275 OA
BRANCH  34  35
HETATM   35  C22 UNL     1     -36.112  14.148 -19.383  1.00  0.00     0.377 C 
HETATM   36  N2  UNL     1     -37.169  15.011 -18.978  1.00  0.00    -0.032 NA
HETATM   37  O9  UNL     1     -34.910  14.572 -19.349  1.00  0.00    -0.242 OA
ENDBRANCH  34  35
ENDBRANCH  17  34
BRANCH   9  38
HETATM   38  O6  UNL     1     -37.676   6.803 -22.657  1.00  0.00    -0.358 OA
ATOM     39  H6  UNL     1     -37.512   5.995 -22.183  1.00  0.00     0.217 HD
ENDBRANCH   9  38
BRANCH  14  40
HETATM   40  O7  UNL     1     -38.519  11.657 -20.091  1.00  0.00    -0.359 OA
ATOM     41  H7  UNL     1     -38.801  11.611 -19.184  1.00  0.00     0.217 HD
ENDBRANCH  14  40
TORSDOF 11
ENDMDL
MODEL 5
REMARK VINA RESULT: -6.202658319      2.231      5.476
REMARK  11 active torsions:
REMARK  status: ('A' for Active; 'I' for Inactive)
REMARK    1  A    between atoms: O1_2  and  C2_3 
REMARK    2  A    between atoms: C2_3  and  C3_4 
REMARK    3  A    between atoms: C3_4  and  O2_5 
REMARK    4  A    between atoms: C3_4  and  C5_7 
REMARK    5  A    between atoms: C7_10  and  O4_11 
REMARK    6  A    between atoms: C9_13  and  O5_14 
REMARK    7  A    between atoms: C14_19  and  O6_20 
REMARK    8  A    between atoms: C18_26  and  O7_27 
REMARK    9  A    between atoms: C21_31  and  O8_32 
REMARK   10  A    between atoms: O8_32  and  C22_33 
REMARK   11  A    between atoms: C23_36  and  C24_37 
ROOT
HETATM    1  C5  UNL     1     -33.069  11.506 -26.947  1.00  0.00     0.179 A 
HETATM    2  O3  UNL     1     -33.584  10.894 -25.800  1.00  0.00    -0.355 OA
HETATM    3  C6  UNL     1     -32.217  10.849 -26.095  1.00  0.00     0.207 A 
HETATM    4  C7  UNL     1     -31.588   9.524 -26.365  1.00  0.00     0.138 C 
HETATM    5  C9  UNL     1     -32.382   8.372 -25.785  1.00  0.00     0.126 C 
HETATM    6  C11 UNL     1     -33.107   8.230 -27.057  1.00  0.00     0.065 C 
HETATM    7  C12 UNL     1     -31.903   8.932 -27.719  1.00  0.00     0.048 C 
HETATM    8  C13 UNL     1     -30.964   7.833 -27.993  1.00  0.00     0.004 A 
HETATM    9  C14 UNL     1     -30.342   7.686 -29.206  1.00  0.00     0.098 A 
HETATM   10  C15 UNL     1     -29.596   6.525 -29.411  1.00  0.00     0.088 A 
HETATM   11  N1  UNL     1     -28.955   6.384 -30.678  1.00  0.00    -0.099 NA
HETATM   12  C16 UNL     1     -29.470   5.560 -28.463  1.00  0.00    -0.001 A 
HETATM   13  C17 UNL     1     -28.661   4.320 -28.723  1.00  0.00     0.053 C 
HETATM   14  C18 UNL     1     -30.104   5.722 -27.231  1.00  0.00     0.085 A 
HETATM   15  C19 UNL     1     -30.848   6.849 -26.973  1.00  0.00     0.019 A 
HETATM   16  C20 UNL     1     -31.417   7.192 -25.672  1.00  0.00     0.015 C 
HETATM   17  C21 UNL     1     -31.163   6.743 -24.489  1.00  0.00     0.158 C 
HETATM   18  C23 UNL     1     -32.412   9.810 -28.768  1.00  0.00     0.144 C 
HETATM   19  C26 UNL     1     -33.310  10.923 -28.256  1.00  0.00     0.179 C 
HETATM   20  O11 UNL     1     -34.253  11.348 -28.935  1.00  0.00    -0.294 OA
ENDROOT
BRANCH   1  21
HETATM   21  C3  UNL     1     -33.241  13.047 -26.843  1.00  0.00     0.189 C 
BRANCH  21  22
HETATM   22  C2  UNL     1     -32.026  13.633 -26.205  1.00  0.00     0.202 C 
BRANCH  22  23
HETATM   23  O1  UNL     1     -31.001  13.821 -27.076  1.00  0.00    -0.393 OA
HETATM   24  C1  UNL     1     -31.229  14.601 -28.169  1.00  0.00     0.201 C 
ENDBRANCH  22  23
ENDBRANCH  21  22
BRANCH  21  25
HETATM   25  O2  UNL     1     -34.434  13.336 -26.234  1.00  0.00    -0.385 OA
HETATM   26  C4  UNL     1     -34.428  14.342 -25.298  1.00  0.00     0.202 C 
ENDBRANCH  21  25
ENDBRANCH   1  21
BRANCH   4  27
HETATM   27  O4  UNL     1     -30.245   9.532 -26.187  1.00  0.00    -0.378 OA
HETATM   28  C8  UNL     1     -29.449  10.485 -26.690  1.00  0.00     0.202 C 
ENDBRANCH   4  27
BRANCH  18  29
HETATM   29  C24 UNL     1     -33.291   9.128 -29.775  1.00  0.00     0.135 C 
HETATM   30  C25 UNL     1     -34.452   8.318 -29.339  1.00  0.00     0.091 C 
HETATM   31  O10 UNL     1     -33.059   9.233 -30.942  1.00  0.00    -0.297 OA
ENDBRANCH  18  29
BRANCH   5  32
HETATM   32  O5  UNL     1     -33.146   8.630 -24.671  1.00  0.00    -0.377 OA
HETATM   33  C10 UNL     1     -34.419   8.141 -24.680  1.00  0.00     0.203 C 
ENDBRANCH   5  32
BRANCH  17  34
HETATM   34  O8  UNL     1     -30.368   5.726 -24.068  1.00  0.00    -0.275 OA
BRANCH  34  35
HETATM   35  C22 UNL     1     -30.870   4.498 -23.682  1.00  0.00     0.377 C 
HETATM   36  N2  UNL     1     -31.932   3.880 -24.401  1.00  0.00    -0.032 NA
HETATM   37  O9  UNL     1     -30.374   3.906 -22.668  1.00  0.00    -0.242 OA
ENDBRANCH  34  35
ENDBRANCH  17  34
BRANCH   9  38
HETATM   38  O6  UNL     1     -30.409   8.630 -30.238  1.00  0.00    -0.358 OA
ATOM     39  H6  UNL     1     -30.672   8.425 -31.128  1.00  0.00     0.217 HD
ENDBRANCH   9  38
BRANCH  14  40
HETATM   40  O7  UNL     1     -29.963   4.732 -26.304  1.00  0.00    -0.359 OA
ATOM     41  H7  UNL     1     -29.130   4.660 -25.852  1.00  0.00     0.217 HD
ENDBRANCH  14  40
TORSDOF 11
ENDMDL
