MODEL 1
REMARK VINA RESULT: -6.584240933      0.000      0.000
REMARK  13 active torsions:
REMARK  status: ('A' for Active; 'I' for Inactive)
REMARK    1  A    between atoms: C2_2  and  C3_3 
REMARK    2  A    between atoms: C3_3  and  O2_5 
REMARK    3  A    between atoms: O2_5  and  C4_6 
REMARK    4  A    between atoms: C5_7  and  O3_8 
REMARK    5  A    between atoms: O3_8  and  C6_9 
REMARK    6  A    between atoms: C8_12  and  O5_13 
REMARK    7  A    between atoms: C9_15  and  O6_16 
REMARK    8  A    between atoms: C10_18  and  O7_19 
REMARK    9  A    between atoms: C19_32  and  C20_33 
REMARK   10  A    between atoms: C20_33  and  O11_34 
REMARK   11  A    between atoms: C20_33  and  C21_36 
REMARK   12  A    between atoms: C21_36  and  C23_38 
REMARK   13  A    between atoms: C23_38  and  C25_40 
ROOT
HETATM    1  C4  UNL     1     -29.646   7.742 -28.232  1.00  0.00     0.178 C 
HETATM    2  C5  UNL     1     -31.003   7.265 -27.843  1.00  0.00     0.218 C 
HETATM    3  C11 UNL     1     -31.227   7.024 -29.336  1.00  0.00     0.212 C 
HETATM    4  O8  UNL     1     -32.091   7.908 -29.940  1.00  0.00    -0.292 OA
HETATM    5  C12 UNL     1     -32.965   6.817 -30.139  1.00  0.00     0.287 C 
HETATM    6  C13 UNL     1     -34.252   6.906 -29.390  1.00  0.00     0.103 C 
HETATM    7  C14 UNL     1     -35.470   6.723 -30.263  1.00  0.00     0.014 C 
HETATM    8  C15 UNL     1     -35.438   7.554 -31.524  1.00  0.00     0.011 C 
HETATM    9  C16 UNL     1     -35.953   6.647 -32.645  1.00  0.00     0.012 C 
HETATM   10  C17 UNL     1     -33.991   7.843 -31.837  1.00  0.00     0.127 C 
HETATM   11  C18 UNL     1     -33.764   8.170 -33.285  1.00  0.00     0.040 C 
HETATM   12  O9  UNL     1     -33.285   6.669 -31.484  1.00  0.00    -0.327 OA
HETATM   13  O10 UNL     1     -31.993   5.959 -29.651  1.00  0.00    -0.292 OA
HETATM   14  C19 UNL     1     -29.792   7.107 -29.640  1.00  0.00     0.113 C 
ENDROOT
BRANCH   2  15
HETATM   15  O3  UNL     1     -31.167   6.130 -27.164  1.00  0.00    -0.345 OA
BRANCH  15  16
HETATM   16  C6  UNL     1     -31.074   6.091 -25.826  1.00  0.00     0.291 C 
HETATM   17  O4  UNL     1     -32.327   6.166 -25.202  1.00  0.00    -0.356 OA
HETATM   18  C7  UNL     1     -32.093   6.439 -23.849  1.00  0.00     0.205 C 
HETATM   19  C8  UNL     1     -31.205   5.422 -23.208  1.00  0.00     0.173 C 
HETATM   20  C9  UNL     1     -30.912   4.262 -24.124  1.00  0.00     0.182 C 
HETATM   21  C10 UNL     1     -30.430   4.734 -25.476  1.00  0.00     0.204 C 
BRANCH  19  22
HETATM   22  O5  UNL     1     -29.957   5.993 -22.886  1.00  0.00    -0.391 OA
ATOM     23  H5  UNL     1     -29.446   5.393 -22.356  1.00  0.00     0.210 HD
ENDBRANCH  19  22
BRANCH  20  24
HETATM   24  O6  UNL     1     -32.005   3.420 -24.290  1.00  0.00    -0.390 OA
ATOM     25  H6  UNL     1     -32.051   3.046 -25.162  1.00  0.00     0.210 HD
ENDBRANCH  20  24
BRANCH  21  26
HETATM   26  O7  UNL     1     -30.815   3.768 -26.409  1.00  0.00    -0.388 OA
ATOM     27  H7  UNL     1     -30.787   4.135 -27.285  1.00  0.00     0.210 HD
ENDBRANCH  21  26
ENDBRANCH  15  16
ENDBRANCH   2  15
BRANCH   1  28
HETATM   28  O2  UNL     1     -29.608   9.157 -28.257  1.00  0.00    -0.312 OA
BRANCH  28  29
HETATM   29  C3  UNL     1     -29.682   9.884 -27.081  1.00  0.00     0.258 C 
HETATM   30  O1  UNL     1     -28.861   9.646 -26.187  1.00  0.00    -0.265 OA
BRANCH  29  31
HETATM   31  C2  UNL     1     -30.748  10.913 -26.951  1.00  0.00     0.106 C 
HETATM   32  C1  UNL     1     -31.777  10.796 -28.033  1.00  0.00     0.015 C 
ENDBRANCH  29  31
ENDBRANCH  28  29
ENDBRANCH   1  28
BRANCH  14  33
HETATM   33  C20 UNL     1     -28.984   5.855 -29.783  1.00  0.00     0.134 C 
BRANCH  33  34
HETATM   34  O11 UNL     1     -29.354   4.807 -28.986  1.00  0.00    -0.395 OA
ATOM     35  H11 UNL     1     -30.288   4.694 -28.852  1.00  0.00     0.210 HD
ENDBRANCH  33  34
BRANCH  33  36
HETATM   36  C21 UNL     1     -28.702   5.430 -31.169  1.00  0.00     0.015 C 
HETATM   37  C22 UNL     1     -29.806   4.807 -31.943  1.00  0.00     0.013 C 
BRANCH  36  38
HETATM   38  C23 UNL     1     -27.505   4.510 -31.274  1.00  0.00    -0.013 C 
HETATM   39  C24 UNL     1     -26.203   5.170 -30.970  1.00  0.00     0.010 C 
BRANCH  38  40
HETATM   40  C25 UNL     1     -27.413   3.809 -32.598  1.00  0.00     0.000 C 
HETATM   41  C26 UNL     1     -26.228   4.367 -33.361  1.00  0.00     0.005 C 
ENDBRANCH  38  40
ENDBRANCH  36  38
ENDBRANCH  33  36
ENDBRANCH  14  33
TORSDOF 13
ENDMDL
MODEL 2
REMARK VINA RESULT: -6.580488812      1.637      6.468
REMARK  13 active torsions:
REMARK  status: ('A' for Active; 'I' for Inactive)
REMARK    1  A    between atoms: C2_2  and  C3_3 
REMARK    2  A    between atoms: C3_3  and  O2_5 
REMARK    3  A    between atoms: O2_5  and  C4_6 
REMARK    4  A    between atoms: C5_7  and  O3_8 
REMARK    5  A    between atoms: O3_8  and  C6_9 
REMARK    6  A    between atoms: C8_12  and  O5_13 
REMARK    7  A    between atoms: C9_15  and  O6_16 
REMARK    8  A    between atoms: C10_18  and  O7_19 
REMARK    9  A    between atoms: C19_32  and  C20_33 
REMARK   10  A    between atoms: C20_33  and  O11_34 
REMARK   11  A    between atoms: C20_33  and  C21_36 
REMARK   12  A    between atoms: C21_36  and  C23_38 
REMARK   13  A    between atoms: C23_38  and  C25_40 
ROOT
HETATM    1  C4  UNL     1     -31.736   8.659 -27.538  1.00  0.00     0.178 C 
HETATM    2  C5  UNL     1     -32.251   7.908 -28.718  1.00  0.00     0.218 C 
HETATM    3  C11 UNL     1     -31.033   7.003 -28.536  1.00  0.00     0.212 C 
HETATM    4  O8  UNL     1     -30.056   7.151 -29.493  1.00  0.00    -0.292 OA
HETATM    5  C12 UNL     1     -30.352   5.834 -29.907  1.00  0.00     0.287 C 
HETATM    6  C13 UNL     1     -30.927   5.726 -31.280  1.00  0.00     0.103 C 
HETATM    7  C14 UNL     1     -30.193   4.746 -32.162  1.00  0.00     0.014 C 
HETATM    8  C15 UNL     1     -28.693   4.920 -32.139  1.00  0.00     0.011 C 
HETATM    9  C16 UNL     1     -28.101   3.509 -32.089  1.00  0.00     0.012 C 
HETATM   10  C17 UNL     1     -28.336   5.582 -30.832  1.00  0.00     0.127 C 
HETATM   11  C18 UNL     1     -26.911   5.336 -30.427  1.00  0.00     0.040 C 
HETATM   12  O9  UNL     1     -29.219   5.029 -29.874  1.00  0.00    -0.327 OA
HETATM   13  O10 UNL     1     -31.219   5.700 -28.833  1.00  0.00    -0.292 OA
HETATM   14  C19 UNL     1     -30.778   7.494 -27.174  1.00  0.00     0.113 C 
ENDROOT
BRANCH   2  15
HETATM   15  O3  UNL     1     -33.373   7.192 -28.643  1.00  0.00    -0.345 OA
BRANCH  15  16
HETATM   16  C6  UNL     1     -34.345   7.311 -29.559  1.00  0.00     0.291 C 
HETATM   17  O4  UNL     1     -33.861   7.752 -30.798  1.00  0.00    -0.356 OA
HETATM   18  C7  UNL     1     -34.972   8.141 -31.555  1.00  0.00     0.205 C 
HETATM   19  C8  UNL     1     -35.975   7.044 -31.701  1.00  0.00     0.173 C 
HETATM   20  C9  UNL     1     -35.476   5.737 -31.144  1.00  0.00     0.182 C 
HETATM   21  C10 UNL     1     -34.947   5.902 -29.739  1.00  0.00     0.204 C 
BRANCH  19  22
HETATM   22  O5  UNL     1     -37.149   7.353 -30.986  1.00  0.00    -0.391 OA
ATOM     23  H5  UNL     1     -37.325   6.685 -30.334  1.00  0.00     0.210 HD
ENDBRANCH  19  22
BRANCH  20  24
HETATM   24  O6  UNL     1     -34.499   5.151 -31.941  1.00  0.00    -0.390 OA
ATOM     25  H6  UNL     1     -34.814   4.385 -32.404  1.00  0.00     0.210 HD
ENDBRANCH  20  24
BRANCH  21  26
HETATM   26  O7  UNL     1     -33.955   4.934 -29.556  1.00  0.00    -0.388 OA
ATOM     27  H7  UNL     1     -33.885   4.392 -30.334  1.00  0.00     0.210 HD
ENDBRANCH  21  26
ENDBRANCH  15  16
ENDBRANCH   2  15
BRANCH   1  28
HETATM   28  O2  UNL     1     -31.059   9.831 -27.954  1.00  0.00    -0.312 OA
BRANCH  28  29
HETATM   29  C3  UNL     1     -30.863  10.881 -27.072  1.00  0.00     0.258 C 
HETATM   30  O1  UNL     1     -29.804  10.926 -26.435  1.00  0.00    -0.265 OA
BRANCH  29  31
HETATM   31  C2  UNL     1     -31.937  11.900 -26.935  1.00  0.00     0.106 C 
HETATM   32  C1  UNL     1     -32.903  11.556 -25.843  1.00  0.00     0.015 C 
ENDBRANCH  29  31
ENDBRANCH  28  29
ENDBRANCH   1  28
BRANCH  14  33
HETATM   33  C20 UNL     1     -31.263   6.710 -25.995  1.00  0.00     0.134 C 
BRANCH  33  34
HETATM   34  O11 UNL     1     -30.953   5.378 -25.989  1.00  0.00    -0.395 OA
ATOM     35  H11 UNL     1     -31.657   4.787 -25.751  1.00  0.00     0.210 HD
ENDBRANCH  33  34
BRANCH  33  36
HETATM   36  C21 UNL     1     -31.047   7.339 -24.676  1.00  0.00     0.015 C 
HETATM   37  C22 UNL     1     -30.648   6.463 -23.545  1.00  0.00     0.013 C 
BRANCH  36  38
HETATM   38  C23 UNL     1     -32.229   8.162 -24.211  1.00  0.00    -0.013 C 
HETATM   39  C24 UNL     1     -32.436   8.146 -22.734  1.00  0.00     0.010 C 
BRANCH  38  40
HETATM   40  C25 UNL     1     -33.511   7.796 -24.899  1.00  0.00     0.000 C 
HETATM   41  C26 UNL     1     -34.656   8.505 -24.203  1.00  0.00     0.005 C 
ENDBRANCH  38  40
ENDBRANCH  36  38
ENDBRANCH  33  36
ENDBRANCH  14  33
TORSDOF 13
ENDMDL
MODEL 3
REMARK VINA RESULT: -6.575542530      2.170      6.083
REMARK  13 active torsions:
REMARK  status: ('A' for Active; 'I' for Inactive)
REMARK    1  A    between atoms: C2_2  and  C3_3 
REMARK    2  A    between atoms: C3_3  and  O2_5 
REMARK    3  A    between atoms: O2_5  and  C4_6 
REMARK    4  A    between atoms: C5_7  and  O3_8 
REMARK    5  A    between atoms: O3_8  and  C6_9 
REMARK    6  A    between atoms: C8_12  and  O5_13 
REMARK    7  A    between atoms: C9_15  and  O6_16 
REMARK    8  A    between atoms: C10_18  and  O7_19 
REMARK    9  A    between atoms: C19_32  and  C20_33 
REMARK   10  A    between atoms: C20_33  and  O11_34 
REMARK   11  A    between atoms: C20_33  and  C21_36 
REMARK   12  A    between atoms: C21_36  and  C23_38 
REMARK   13  A    between atoms: C23_38  and  C25_40 
ROOT
HETATM    1  C4  UNL     1     -33.582   5.734 -30.263  1.00  0.00     0.178 C 
HETATM    2  C5  UNL     1     -32.362   6.054 -29.469  1.00  0.00     0.218 C 
HETATM    3  C11 UNL     1     -31.607   5.962 -30.794  1.00  0.00     0.212 C 
HETATM    4  O8  UNL     1     -30.807   4.851 -30.927  1.00  0.00    -0.292 OA
HETATM    5  C12 UNL     1     -29.700   5.727 -30.928  1.00  0.00     0.287 C 
HETATM    6  C13 UNL     1     -28.789   5.580 -29.755  1.00  0.00     0.103 C 
HETATM    7  C14 UNL     1     -27.341   5.393 -30.140  1.00  0.00     0.014 C 
HETATM    8  C15 UNL     1     -27.132   4.350 -31.212  1.00  0.00     0.011 C 
HETATM    9  C16 UNL     1     -26.088   4.928 -32.171  1.00  0.00     0.012 C 
HETATM   10  C17 UNL     1     -28.419   4.241 -31.992  1.00  0.00     0.127 C 
HETATM   11  C18 UNL     1     -28.215   3.681 -33.371  1.00  0.00     0.040 C 
HETATM   12  O9  UNL     1     -28.926   5.560 -32.070  1.00  0.00    -0.327 OA
HETATM   13  O10 UNL     1     -30.567   6.809 -30.938  1.00  0.00    -0.292 OA
HETATM   14  C19 UNL     1     -32.840   6.053 -31.589  1.00  0.00     0.113 C 
ENDROOT
BRANCH   2  15
HETATM   15  O3  UNL     1     -32.191   7.257 -28.923  1.00  0.00    -0.345 OA
BRANCH  15  16
HETATM   16  C6  UNL     1     -31.805   7.402 -27.647  1.00  0.00     0.291 C 
HETATM   17  O4  UNL     1     -31.068   6.304 -27.183  1.00  0.00    -0.356 OA
HETATM   18  C7  UNL     1     -31.003   6.415 -25.790  1.00  0.00     0.205 C 
HETATM   19  C8  UNL     1     -30.412   7.715 -25.349  1.00  0.00     0.173 C 
HETATM   20  C9  UNL     1     -29.877   8.519 -26.505  1.00  0.00     0.182 C 
HETATM   21  C10 UNL     1     -30.902   8.653 -27.606  1.00  0.00     0.204 C 
BRANCH  19  22
HETATM   22  O5  UNL     1     -31.393   8.517 -24.733  1.00  0.00    -0.391 OA
ATOM     23  H5  UNL     1     -32.090   8.718 -25.348  1.00  0.00     0.210 HD
ENDBRANCH  19  22
BRANCH  20  24
HETATM   24  O6  UNL     1     -28.702   7.992 -27.028  1.00  0.00    -0.390 OA
ATOM     25  H6  UNL     1     -28.848   7.206 -27.540  1.00  0.00     0.210 HD
ENDBRANCH  20  24
BRANCH  21  26
HETATM   26  O7  UNL     1     -30.200   8.773 -28.809  1.00  0.00    -0.388 OA
ATOM     27  H7  UNL     1     -29.770   9.620 -28.850  1.00  0.00     0.210 HD
ENDBRANCH  21  26
ENDBRANCH  15  16
ENDBRANCH   2  15
BRANCH   1  28
HETATM   28  O2  UNL     1     -33.918   4.366 -30.125  1.00  0.00    -0.312 OA
BRANCH  28  29
HETATM   29  C3  UNL     1     -34.971   3.824 -30.845  1.00  0.00     0.258 C 
HETATM   30  O1  UNL     1     -36.124   4.153 -30.542  1.00  0.00    -0.265 OA
BRANCH  29  31
HETATM   31  C2  UNL     1     -34.660   2.873 -31.945  1.00  0.00     0.106 C 
HETATM   32  C1  UNL     1     -35.033   1.465 -31.592  1.00  0.00     0.015 C 
ENDBRANCH  29  31
ENDBRANCH  28  29
ENDBRANCH   1  28
BRANCH  14  33
HETATM   33  C20 UNL     1     -33.260   7.367 -32.170  1.00  0.00     0.134 C 
BRANCH  33  34
HETATM   34  O11 UNL     1     -32.463   8.437 -31.872  1.00  0.00    -0.395 OA
ATOM     35  H11 UNL     1     -31.561   8.237 -31.649  1.00  0.00     0.210 HD
ENDBRANCH  33  34
BRANCH  33  36
HETATM   36  C21 UNL     1     -33.651   7.341 -33.594  1.00  0.00     0.015 C 
HETATM   37  C22 UNL     1     -34.778   6.457 -33.988  1.00  0.00     0.013 C 
BRANCH  36  38
HETATM   38  C23 UNL     1     -32.495   7.034 -34.521  1.00  0.00    -0.013 C 
HETATM   39  C24 UNL     1     -32.255   8.079 -35.557  1.00  0.00     0.010 C 
BRANCH  38  40
HETATM   40  C25 UNL     1     -32.606   5.692 -35.181  1.00  0.00     0.000 C 
HETATM   41  C26 UNL     1     -31.451   4.826 -34.719  1.00  0.00     0.005 C 
ENDBRANCH  38  40
ENDBRANCH  36  38
ENDBRANCH  33  36
ENDBRANCH  14  33
TORSDOF 13
ENDMDL
MODEL 4
REMARK VINA RESULT: -6.537388026      1.911      2.949
REMARK  13 active torsions:
REMARK  status: ('A' for Active; 'I' for Inactive)
REMARK    1  A    between atoms: C2_2  and  C3_3 
REMARK    2  A    between atoms: C3_3  and  O2_5 
REMARK    3  A    between atoms: O2_5  and  C4_6 
REMARK    4  A    between atoms: C5_7  and  O3_8 
REMARK    5  A    between atoms: O3_8  and  C6_9 
REMARK    6  A    between atoms: C8_12  and  O5_13 
REMARK    7  A    between atoms: C9_15  and  O6_16 
REMARK    8  A    between atoms: C10_18  and  O7_19 
REMARK    9  A    between atoms: C19_32  and  C20_33 
REMARK   10  A    between atoms: C20_33  and  O11_34 
REMARK   11  A    between atoms: C20_33  and  C21_36 
REMARK   12  A    between atoms: C21_36  and  C23_38 
REMARK   13  A    between atoms: C23_38  and  C25_40 
ROOT
HETATM    1  C4  UNL     1     -31.184   7.596 -30.554  1.00  0.00     0.178 C 
HETATM    2  C5  UNL     1     -32.327   7.010 -29.798  1.00  0.00     0.218 C 
HETATM    3  C11 UNL     1     -32.374   5.953 -30.900  1.00  0.00     0.212 C 
HETATM    4  O8  UNL     1     -33.446   6.059 -31.756  1.00  0.00    -0.292 OA
HETATM    5  C12 UNL     1     -33.897   4.824 -31.239  1.00  0.00     0.287 C 
HETATM    6  C13 UNL     1     -35.181   4.899 -30.483  1.00  0.00     0.103 C 
HETATM    7  C14 UNL     1     -36.218   3.912 -30.962  1.00  0.00     0.014 C 
HETATM    8  C15 UNL     1     -36.392   3.901 -32.462  1.00  0.00     0.011 C 
HETATM    9  C16 UNL     1     -36.515   2.429 -32.866  1.00  0.00     0.012 C 
HETATM   10  C17 UNL     1     -35.107   4.407 -33.069  1.00  0.00     0.127 C 
HETATM   11  C18 UNL     1     -34.921   3.959 -34.490  1.00  0.00     0.040 C 
HETATM   12  O9  UNL     1     -34.074   3.889 -32.253  1.00  0.00    -0.327 OA
HETATM   13  O10 UNL     1     -32.725   4.710 -30.509  1.00  0.00    -0.292 OA
HETATM   14  C19 UNL     1     -31.032   6.298 -31.391  1.00  0.00     0.113 C 
ENDROOT
BRANCH   2  15
HETATM   15  O3  UNL     1     -32.143   6.430 -28.611  1.00  0.00    -0.345 OA
BRANCH  15  16
HETATM   16  C6  UNL     1     -31.327   6.960 -27.688  1.00  0.00     0.291 C 
HETATM   17  O4  UNL     1     -32.025   7.439 -26.571  1.00  0.00    -0.356 OA
HETATM   18  C7  UNL     1     -31.134   8.239 -25.846  1.00  0.00     0.205 C 
HETATM   19  C8  UNL     1     -29.893   7.502 -25.460  1.00  0.00     0.173 C 
HETATM   20  C9  UNL     1     -29.971   6.036 -25.797  1.00  0.00     0.182 C 
HETATM   21  C10 UNL     1     -30.391   5.821 -27.232  1.00  0.00     0.204 C 
BRANCH  19  22
HETATM   22  O5  UNL     1     -28.782   8.009 -26.164  1.00  0.00    -0.391 OA
ATOM     23  H5  UNL     1     -28.004   7.500 -25.966  1.00  0.00     0.210 HD
ENDBRANCH  19  22
BRANCH  20  24
HETATM   24  O6  UNL     1     -30.827   5.336 -24.954  1.00  0.00    -0.390 OA
ATOM     25  H6  UNL     1     -31.284   4.632 -25.398  1.00  0.00     0.210 HD
ENDBRANCH  20  24
BRANCH  21  26
HETATM   26  O7  UNL     1     -31.067   4.599 -27.284  1.00  0.00    -0.388 OA
ATOM     27  H7  UNL     1     -30.453   3.884 -27.167  1.00  0.00     0.210 HD
ENDBRANCH  21  26
ENDBRANCH  15  16
ENDBRANCH   2  15
BRANCH   1  28
HETATM   28  O2  UNL     1     -31.615   8.707 -31.319  1.00  0.00    -0.312 OA
BRANCH  28  29
HETATM   29  C3  UNL     1     -32.418   9.682 -30.751  1.00  0.00     0.258 C 
HETATM   30  O1  UNL     1     -31.968  10.341 -29.806  1.00  0.00    -0.265 OA
BRANCH  29  31
HETATM   31  C2  UNL     1     -33.783   9.886 -31.306  1.00  0.00     0.106 C 
HETATM   32  C1  UNL     1     -33.891   9.407 -32.721  1.00  0.00     0.015 C 
ENDBRANCH  29  31
ENDBRANCH  28  29
ENDBRANCH   1  28
BRANCH  14  33
HETATM   33  C20 UNL     1     -29.849   5.485 -30.965  1.00  0.00     0.134 C 
BRANCH  33  34
HETATM   34  O11 UNL     1     -30.106   4.454 -30.105  1.00  0.00    -0.395 OA
ATOM     35  H11 UNL     1     -30.070   3.581 -30.478  1.00  0.00     0.210 HD
ENDBRANCH  33  34
BRANCH  33  36
HETATM   36  C21 UNL     1     -28.920   5.094 -32.045  1.00  0.00     0.015 C 
HETATM   37  C22 UNL     1     -29.443   4.228 -33.132  1.00  0.00     0.013 C 
BRANCH  36  38
HETATM   38  C23 UNL     1     -27.651   4.450 -31.530  1.00  0.00    -0.013 C 
HETATM   39  C24 UNL     1     -26.759   5.381 -30.781  1.00  0.00     0.010 C 
BRANCH  38  40
HETATM   40  C25 UNL     1     -26.863   3.757 -32.602  1.00  0.00     0.000 C 
HETATM   41  C26 UNL     1     -25.701   4.645 -33.002  1.00  0.00     0.005 C 
ENDBRANCH  38  40
ENDBRANCH  36  38
ENDBRANCH  33  36
ENDBRANCH  14  33
TORSDOF 13
ENDMDL
MODEL 5
REMARK VINA RESULT: -6.351414583      5.923      8.411
REMARK  13 active torsions:
REMARK  status: ('A' for Active; 'I' for Inactive)
REMARK    1  A    between atoms: C2_2  and  C3_3 
REMARK    2  A    between atoms: C3_3  and  O2_5 
REMARK    3  A    between atoms: O2_5  and  C4_6 
REMARK    4  A    between atoms: C5_7  and  O3_8 
REMARK    5  A    between atoms: O3_8  and  C6_9 
REMARK    6  A    between atoms: C8_12  and  O5_13 
REMARK    7  A    between atoms: C9_15  and  O6_16 
REMARK    8  A    between atoms: C10_18  and  O7_19 
REMARK    9  A    between atoms: C19_32  and  C20_33 
REMARK   10  A    between atoms: C20_33  and  O11_34 
REMARK   11  A    between atoms: C20_33  and  C21_36 
REMARK   12  A    between atoms: C21_36  and  C23_38 
REMARK   13  A    between atoms: C23_38  and  C25_40 
ROOT
HETATM    1  C4  UNL     1     -34.050  10.656 -24.251  1.00  0.00     0.178 C 
HETATM    2  C5  UNL     1     -35.128  10.775 -23.229  1.00  0.00     0.218 C 
HETATM    3  C11 UNL     1     -35.375   9.288 -23.474  1.00  0.00     0.212 C 
HETATM    4  O8  UNL     1     -36.535   9.000 -24.157  1.00  0.00    -0.292 OA
HETATM    5  C12 UNL     1     -36.998   8.375 -22.978  1.00  0.00     0.287 C 
HETATM    6  C13 UNL     1     -38.173   9.039 -22.342  1.00  0.00     0.103 C 
HETATM    7  C14 UNL     1     -39.321   8.097 -22.072  1.00  0.00     0.014 C 
HETATM    8  C15 UNL     1     -39.676   7.225 -23.254  1.00  0.00     0.011 C 
HETATM    9  C16 UNL     1     -39.940   5.828 -22.687  1.00  0.00     0.012 C 
HETATM   10  C17 UNL     1     -38.445   7.113 -24.117  1.00  0.00     0.127 C 
HETATM   11  C18 UNL     1     -38.461   5.894 -24.995  1.00  0.00     0.040 C 
HETATM   12  O9  UNL     1     -37.355   7.053 -23.217  1.00  0.00    -0.327 OA
HETATM   13  O10 UNL     1     -35.755   8.570 -22.396  1.00  0.00    -0.292 OA
HETATM   14  C19 UNL     1     -34.084   9.108 -24.151  1.00  0.00     0.113 C 
ENDROOT
BRANCH   2  15
HETATM   15  O3  UNL     1     -34.839  10.990 -21.945  1.00  0.00    -0.345 OA
BRANCH  15  16
HETATM   16  C6  UNL     1     -35.505  11.898 -21.217  1.00  0.00     0.291 C 
HETATM   17  O4  UNL     1     -36.818  12.087 -21.669  1.00  0.00    -0.356 OA
HETATM   18  C7  UNL     1     -37.295  13.254 -21.062  1.00  0.00     0.205 C 
HETATM   19  C8  UNL     1     -37.218  13.193 -19.571  1.00  0.00     0.173 C 
HETATM   20  C9  UNL     1     -36.803  11.832 -19.077  1.00  0.00     0.182 C 
HETATM   21  C10 UNL     1     -35.556  11.346 -19.777  1.00  0.00     0.204 C 
BRANCH  19  22
HETATM   22  O5  UNL     1     -36.248  14.097 -19.092  1.00  0.00    -0.391 OA
ATOM     23  H5  UNL     1     -35.512  13.626 -18.719  1.00  0.00     0.210 HD
ENDBRANCH  19  22
BRANCH  20  24
HETATM   24  O6  UNL     1     -37.809  10.882 -19.211  1.00  0.00    -0.390 OA
ATOM     25  H6  UNL     1     -37.888  10.320 -18.450  1.00  0.00     0.210 HD
ENDBRANCH  20  24
BRANCH  21  26
HETATM   26  O7  UNL     1     -35.616   9.950 -19.803  1.00  0.00    -0.388 OA
ATOM     27  H7  UNL     1     -36.239   9.640 -19.156  1.00  0.00     0.210 HD
ENDBRANCH  21  26
ENDBRANCH  15  16
ENDBRANCH   2  15
BRANCH   1  28
HETATM   28  O2  UNL     1     -34.499  11.145 -25.502  1.00  0.00    -0.312 OA
BRANCH  28  29
HETATM   29  C3  UNL     1     -33.613  11.298 -26.556  1.00  0.00     0.258 C 
HETATM   30  O1  UNL     1     -33.864  10.729 -27.625  1.00  0.00    -0.265 OA
BRANCH  29  31
HETATM   31  C2  UNL     1     -32.404  12.139 -26.348  1.00  0.00     0.106 C 
HETATM   32  C1  UNL     1     -31.166  11.485 -26.882  1.00  0.00     0.015 C 
ENDBRANCH  29  31
ENDBRANCH  28  29
ENDBRANCH   1  28
BRANCH  14  33
HETATM   33  C20 UNL     1     -32.912   8.564 -23.394  1.00  0.00     0.134 C 
BRANCH  33  34
HETATM   34  O11 UNL     1     -33.135   8.256 -22.081  1.00  0.00    -0.395 OA
ATOM     35  H11 UNL     1     -32.490   7.693 -21.669  1.00  0.00     0.210 HD
ENDBRANCH  33  34
BRANCH  33  36
HETATM   36  C21 UNL     1     -32.131   7.520 -24.088  1.00  0.00     0.015 C 
HETATM   37  C22 UNL     1     -31.206   6.689 -23.276  1.00  0.00     0.013 C 
BRANCH  36  38
HETATM   38  C23 UNL     1     -31.340   8.054 -25.263  1.00  0.00    -0.013 C 
HETATM   39  C24 UNL     1     -32.020   7.886 -26.579  1.00  0.00     0.010 C 
BRANCH  38  40
HETATM   40  C25 UNL     1     -29.950   7.495 -25.343  1.00  0.00     0.000 C 
HETATM   41  C26 UNL     1     -29.172   8.274 -26.384  1.00  0.00     0.005 C 
ENDBRANCH  38  40
ENDBRANCH  36  38
ENDBRANCH  33  36
ENDBRANCH  14  33
TORSDOF 13
ENDMDL
