MODEL 1
REMARK VINA RESULT: -8.315099977      0.000      0.000
REMARK  8 active torsions:
REMARK  status: ('A' for Active; 'I' for Inactive)
REMARK    1  A    between atoms: C2_2  and  C3_3 
REMARK    2  A    between atoms: C3_3  and  O1_4 
REMARK    3  A    between atoms: O1_4  and  C4_5 
REMARK    4  A    between atoms: C5_6  and  C6_7 
REMARK    5  A    between atoms: N5_19  and  C10_20 
REMARK    6  A    between atoms: C13_30  and  N9_31 
REMARK    7  A    between atoms: C15_33  and  N10_34 
REMARK    8  A    between atoms: N11_37  and  C18_38 
ROOT
HETATM    1  C10 UNL     1     -32.467   7.804 -22.997  1.00  0.00     0.709 A 
HETATM    2  N6  UNL     1     -31.941   6.581 -22.870  1.00  0.00    -0.173 N 
ATOM      3  H6  UNL     1     -32.014   6.116 -21.965  1.00  0.00     0.186 HD
HETATM    4  C11 UNL     1     -31.321   5.931 -23.867  1.00  0.00     0.146 A 
HETATM    5  N7  UNL     1     -30.813   4.756 -23.754  1.00  0.00    -0.383 N 
ATOM      6  H71 UNL     1     -30.342   4.262 -24.511  1.00  0.00     0.157 HD
ATOM      7  H72 UNL     1     -30.904   4.321 -22.835  1.00  0.00     0.157 HD
HETATM    8  C12 UNL     1     -31.196   6.523 -25.118  1.00  0.00     0.138 A 
HETATM    9  N8  UNL     1     -30.662   6.161 -26.286  1.00  0.00    -0.184 N 
ATOM     10  H8  UNL     1     -30.193   5.275 -26.476  1.00  0.00     0.184 HD
HETATM   11  C13 UNL     1     -30.846   7.156 -27.173  1.00  0.00     0.682 A 
HETATM   12  N12 UNL     1     -31.500   8.142 -26.542  1.00  0.00    -0.174 N 
ATOM     13  H12 UNL     1     -31.778   9.028 -26.964  1.00  0.00     0.186 HD
HETATM   14  C24 UNL     1     -31.734   7.783 -25.266  1.00  0.00     0.167 A 
HETATM   15  N13 UNL     1     -32.348   8.390 -24.225  1.00  0.00    -0.172 N 
ATOM     16  H13 UNL     1     -32.738   9.323 -24.363  1.00  0.00     0.186 HD
ENDROOT
BRANCH   1  17
HETATM   17  N5  UNL     1     -33.139   8.513 -21.960  1.00  0.00    -0.063 N 
HETATM   18  C4  UNL     1     -34.051   9.526 -22.047  1.00  0.00     0.197 A 
HETATM   19  C5  UNL     1     -34.414   9.781 -20.752  1.00  0.00     0.080 A 
HETATM   20  C9  UNL     1     -33.712   8.919 -19.893  1.00  0.00     0.128 A 
HETATM   21  N4  UNL     1     -32.956   8.175 -20.684  1.00  0.00    -0.288 N 
ATOM     22  H4  UNL     1     -32.320   7.444 -20.361  1.00  0.00     0.187 HD
BRANCH  18  23
HETATM   23  O1  UNL     1     -34.465  10.100 -23.177  1.00  0.00    -0.333 OA
BRANCH  23  24
HETATM   24  C3  UNL     1     -35.555  10.208 -23.961  1.00  0.00     0.177 C 
BRANCH  24  25
HETATM   25  C2  UNL     1     -36.786   9.422 -23.702  1.00  0.00     0.022 C 
HETATM   26  C1  UNL     1     -37.836  10.221 -22.925  1.00  0.00     0.007 C 
ENDBRANCH  24  25
ENDBRANCH  23  24
ENDBRANCH  18  23
BRANCH  19  27
HETATM   27  C6  UNL     1     -35.385  10.750 -20.271  1.00  0.00     0.140 A 
HETATM   28  N1  UNL     1     -35.460  12.044 -20.713  1.00  0.00    -0.279 N 
HETATM   29  N2  UNL     1     -36.416  12.712 -20.129  1.00  0.00    -0.245 N 
ATOM     30  H1  UNL     1     -34.840  12.440 -21.419  1.00  0.00     0.189 HD
HETATM   31  C7  UNL     1     -36.798  14.118 -20.338  1.00  0.00     0.183 C 
HETATM   32  C8  UNL     1     -37.000  11.860 -19.277  1.00  0.00     0.342 A 
HETATM   33  O2  UNL     1     -37.969  12.169 -18.540  1.00  0.00    -0.245 OA
HETATM   34  N3  UNL     1     -36.364  10.663 -19.369  1.00  0.00    -0.291 N 
ATOM     35  H3  UNL     1     -36.599   9.828 -18.832  1.00  0.00     0.172 HD
ENDBRANCH  19  27
ENDBRANCH   1  17
BRANCH  11  36
HETATM   36  N9  UNL     1     -30.453   7.216 -28.551  1.00  0.00    -0.214 N 
HETATM   37  C14 UNL     1     -29.350   6.652 -29.287  1.00  0.00     0.167 C 
HETATM   38  C15 UNL     1     -30.123   6.816 -30.549  1.00  0.00     0.116 C 
HETATM   39  C23 UNL     1     -30.923   7.823 -29.762  1.00  0.00     0.167 C 
BRANCH  38  40
HETATM   40  N10 UNL     1     -30.879   5.679 -30.958  1.00  0.00    -0.402 N 
HETATM   41  C16 UNL     1     -30.489   4.450 -30.357  1.00  0.00     0.147 C 
HETATM   42  C17 UNL     1     -29.730   3.564 -31.323  1.00  0.00     0.292 C 
HETATM   43  N11 UNL     1     -29.209   4.398 -32.360  1.00  0.00     0.095 N 
HETATM   44  C21 UNL     1     -30.278   4.829 -33.198  1.00  0.00     0.292 C 
HETATM   45  C22 UNL     1     -31.241   5.624 -32.331  1.00  0.00     0.147 C 
BRANCH  43  46
HETATM   46  C18 UNL     1     -28.076   3.870 -33.059  1.00  0.00     0.215 C 
HETATM   47  C19 UNL     1     -26.831   4.546 -32.511  1.00  0.00     0.042 C 
HETATM   48  C20 UNL     1     -28.199   4.330 -34.513  1.00  0.00     0.042 C 
ENDBRANCH  43  46
ENDBRANCH  38  40
ENDBRANCH  11  36
TORSDOF 8
ENDMDL
MODEL 2
REMARK VINA RESULT: -8.221116858      0.980      1.358
REMARK  8 active torsions:
REMARK  status: ('A' for Active; 'I' for Inactive)
REMARK    1  A    between atoms: C2_2  and  C3_3 
REMARK    2  A    between atoms: C3_3  and  O1_4 
REMARK    3  A    between atoms: O1_4  and  C4_5 
REMARK    4  A    between atoms: C5_6  and  C6_7 
REMARK    5  A    between atoms: N5_19  and  C10_20 
REMARK    6  A    between atoms: C13_30  and  N9_31 
REMARK    7  A    between atoms: C15_33  and  N10_34 
REMARK    8  A    between atoms: N11_37  and  C18_38 
ROOT
HETATM    1  C10 UNL     1     -32.686   8.090 -22.994  1.00  0.00     0.709 A 
HETATM    2  N6  UNL     1     -32.077   6.909 -22.847  1.00  0.00    -0.173 N 
ATOM      3  H6  UNL     1     -32.110   6.461 -21.931  1.00  0.00     0.186 HD
HETATM    4  C11 UNL     1     -31.426   6.279 -23.837  1.00  0.00     0.146 A 
HETATM    5  N7  UNL     1     -30.839   5.144 -23.704  1.00  0.00    -0.383 N 
ATOM      6  H71 UNL     1     -30.345   4.665 -24.457  1.00  0.00     0.157 HD
ATOM      7  H72 UNL     1     -30.891   4.725 -22.775  1.00  0.00     0.157 HD
HETATM    8  C12 UNL     1     -31.356   6.849 -25.102  1.00  0.00     0.138 A 
HETATM    9  N8  UNL     1     -30.812   6.497 -26.269  1.00  0.00    -0.184 N 
ATOM     10  H8  UNL     1     -30.286   5.641 -26.445  1.00  0.00     0.184 HD
HETATM   11  C13 UNL     1     -31.072   7.458 -27.174  1.00  0.00     0.682 A 
HETATM   12  N12 UNL     1     -31.784   8.411 -26.558  1.00  0.00    -0.174 N 
ATOM     13  H12 UNL     1     -32.126   9.267 -26.995  1.00  0.00     0.186 HD
HETATM   14  C24 UNL     1     -31.979   8.067 -25.272  1.00  0.00     0.167 A 
HETATM   15  N13 UNL     1     -32.621   8.656 -24.236  1.00  0.00    -0.172 N 
ATOM     16  H13 UNL     1     -33.074   9.557 -24.389  1.00  0.00     0.186 HD
ENDROOT
BRANCH   1  17
HETATM   17  N5  UNL     1     -33.392   8.776 -21.964  1.00  0.00    -0.063 N 
HETATM   18  C4  UNL     1     -34.454   9.631 -22.057  1.00  0.00     0.197 A 
HETATM   19  C5  UNL     1     -34.769   9.938 -20.760  1.00  0.00     0.080 A 
HETATM   20  C9  UNL     1     -33.889   9.266 -19.895  1.00  0.00     0.128 A 
HETATM   21  N4  UNL     1     -33.079   8.579 -20.684  1.00  0.00    -0.288 N 
ATOM     22  H4  UNL     1     -32.319   7.981 -20.357  1.00  0.00     0.187 HD
BRANCH  18  23
HETATM   23  O1  UNL     1     -35.022  10.039 -23.192  1.00  0.00    -0.333 OA
BRANCH  23  24
HETATM   24  C3  UNL     1     -35.187  11.144 -23.944  1.00  0.00     0.177 C 
BRANCH  24  25
HETATM   25  C2  UNL     1     -34.193  12.245 -23.949  1.00  0.00     0.022 C 
HETATM   26  C1  UNL     1     -34.595  13.400 -23.027  1.00  0.00     0.007 C 
ENDBRANCH  24  25
ENDBRANCH  23  24
ENDBRANCH  18  23
BRANCH  19  27
HETATM   27  C6  UNL     1     -35.845  10.788 -20.280  1.00  0.00     0.140 A 
HETATM   28  N1  UNL     1     -37.148  10.382 -20.160  1.00  0.00    -0.279 N 
HETATM   29  N2  UNL     1     -37.922  11.327 -19.706  1.00  0.00    -0.245 N 
ATOM     30  H1  UNL     1     -37.475   9.446 -20.399  1.00  0.00     0.189 HD
HETATM   31  C7  UNL     1     -39.370  11.270 -19.449  1.00  0.00     0.183 C 
HETATM   32  C8  UNL     1     -37.135  12.394 -19.513  1.00  0.00     0.342 A 
HETATM   33  O2  UNL     1     -37.552  13.496 -19.077  1.00  0.00    -0.245 OA
HETATM   34  N3  UNL     1     -35.867  12.057 -19.866  1.00  0.00    -0.291 N 
ATOM     35  H3  UNL     1     -35.059  12.676 -19.822  1.00  0.00     0.172 HD
ENDBRANCH  19  27
ENDBRANCH   1  17
BRANCH  11  36
HETATM   36  N9  UNL     1     -30.700   7.513 -28.559  1.00  0.00    -0.214 N 
HETATM   37  C14 UNL     1     -29.598   6.960 -29.306  1.00  0.00     0.167 C 
HETATM   38  C15 UNL     1     -30.391   7.101 -30.558  1.00  0.00     0.116 C 
HETATM   39  C23 UNL     1     -31.196   8.101 -29.768  1.00  0.00     0.167 C 
BRANCH  38  40
HETATM   40  N10 UNL     1     -31.135   5.949 -30.947  1.00  0.00    -0.402 N 
HETATM   41  C16 UNL     1     -30.832   4.764 -30.219  1.00  0.00     0.147 C 
HETATM   42  C17 UNL     1     -30.011   3.792 -31.039  1.00  0.00     0.292 C 
HETATM   43  N11 UNL     1     -29.377   4.531 -32.084  1.00  0.00     0.095 N 
HETATM   44  C21 UNL     1     -30.353   4.914 -33.050  1.00  0.00     0.292 C 
HETATM   45  C22 UNL     1     -31.371   5.792 -32.339  1.00  0.00     0.147 C 
BRANCH  43  46
HETATM   46  C18 UNL     1     -28.198   3.930 -32.632  1.00  0.00     0.215 C 
HETATM   47  C19 UNL     1     -26.992   4.596 -31.993  1.00  0.00     0.042 C 
HETATM   48  C20 UNL     1     -28.154   4.311 -34.114  1.00  0.00     0.042 C 
ENDBRANCH  43  46
ENDBRANCH  38  40
ENDBRANCH  11  36
TORSDOF 8
ENDMDL
MODEL 3
REMARK VINA RESULT: -8.169777563      0.911      1.185
REMARK  8 active torsions:
REMARK  status: ('A' for Active; 'I' for Inactive)
REMARK    1  A    between atoms: C2_2  and  C3_3 
REMARK    2  A    between atoms: C3_3  and  O1_4 
REMARK    3  A    between atoms: O1_4  and  C4_5 
REMARK    4  A    between atoms: C5_6  and  C6_7 
REMARK    5  A    between atoms: N5_19  and  C10_20 
REMARK    6  A    between atoms: C13_30  and  N9_31 
REMARK    7  A    between atoms: C15_33  and  N10_34 
REMARK    8  A    between atoms: N11_37  and  C18_38 
ROOT
HETATM    1  C10 UNL     1     -32.742   8.057 -22.943  1.00  0.00     0.709 A 
HETATM    2  N6  UNL     1     -32.104   6.890 -22.803  1.00  0.00    -0.173 N 
ATOM      3  H6  UNL     1     -32.126   6.435 -21.891  1.00  0.00     0.186 HD
HETATM    4  C11 UNL     1     -31.437   6.282 -23.797  1.00  0.00     0.146 A 
HETATM    5  N7  UNL     1     -30.823   5.161 -23.671  1.00  0.00    -0.383 N 
ATOM      6  H71 UNL     1     -30.316   4.699 -24.426  1.00  0.00     0.157 HD
ATOM      7  H72 UNL     1     -30.865   4.734 -22.745  1.00  0.00     0.157 HD
HETATM    8  C12 UNL     1     -31.379   6.863 -25.058  1.00  0.00     0.138 A 
HETATM    9  N8  UNL     1     -30.826   6.532 -26.226  1.00  0.00    -0.184 N 
ATOM     10  H8  UNL     1     -30.279   5.690 -26.407  1.00  0.00     0.184 HD
HETATM   11  C13 UNL     1     -31.109   7.492 -27.126  1.00  0.00     0.682 A 
HETATM   12  N12 UNL     1     -31.844   8.424 -26.503  1.00  0.00    -0.174 N 
ATOM     13  H12 UNL     1     -32.206   9.274 -26.936  1.00  0.00     0.186 HD
HETATM   14  C24 UNL     1     -32.032   8.066 -25.220  1.00  0.00     0.167 A 
HETATM   15  N13 UNL     1     -32.689   8.632 -24.181  1.00  0.00    -0.172 N 
ATOM     16  H13 UNL     1     -33.164   9.522 -24.329  1.00  0.00     0.186 HD
ENDROOT
BRANCH   1  17
HETATM   17  N5  UNL     1     -33.465   8.718 -21.909  1.00  0.00    -0.063 N 
HETATM   18  C4  UNL     1     -34.637   9.418 -21.977  1.00  0.00     0.197 A 
HETATM   19  C5  UNL     1     -34.905   9.775 -20.683  1.00  0.00     0.080 A 
HETATM   20  C9  UNL     1     -33.888   9.289 -19.845  1.00  0.00     0.128 A 
HETATM   21  N4  UNL     1     -33.045   8.658 -20.646  1.00  0.00    -0.288 N 
ATOM     22  H4  UNL     1     -32.191   8.189 -20.340  1.00  0.00     0.187 HD
BRANCH  18  23
HETATM   23  O1  UNL     1     -35.328   9.664 -23.090  1.00  0.00    -0.333 OA
BRANCH  23  24
HETATM   24  C3  UNL     1     -36.381   9.205 -23.795  1.00  0.00     0.177 C 
BRANCH  24  25
HETATM   25  C2  UNL     1     -36.737   7.765 -23.822  1.00  0.00     0.022 C 
HETATM   26  C1  UNL     1     -37.789   7.404 -22.769  1.00  0.00     0.007 C 
ENDBRANCH  24  25
ENDBRANCH  23  24
ENDBRANCH  18  23
BRANCH  19  27
HETATM   27  C6  UNL     1     -36.053  10.510 -20.179  1.00  0.00     0.140 A 
HETATM   28  N1  UNL     1     -37.352  10.111 -20.346  1.00  0.00    -0.279 N 
HETATM   29  N2  UNL     1     -38.199  10.939 -19.801  1.00  0.00    -0.245 N 
ATOM     30  H1  UNL     1     -37.627   9.262 -20.841  1.00  0.00     0.189 HD
HETATM   31  C7  UNL     1     -39.668  10.851 -19.777  1.00  0.00     0.183 C 
HETATM   32  C8  UNL     1     -37.465  11.917 -19.255  1.00  0.00     0.342 A 
HETATM   33  O2  UNL     1     -37.958  12.895 -18.639  1.00  0.00    -0.245 OA
HETATM   34  N3  UNL     1     -36.155  11.648 -19.490  1.00  0.00    -0.291 N 
ATOM     35  H3  UNL     1     -35.371  12.226 -19.186  1.00  0.00     0.172 HD
ENDBRANCH  19  27
ENDBRANCH   1  17
BRANCH  11  36
HETATM   36  N9  UNL     1     -30.736   7.565 -28.509  1.00  0.00    -0.214 N 
HETATM   37  C14 UNL     1     -29.644   7.008 -29.267  1.00  0.00     0.167 C 
HETATM   38  C15 UNL     1     -30.435   7.184 -30.516  1.00  0.00     0.116 C 
HETATM   39  C23 UNL     1     -31.224   8.183 -29.707  1.00  0.00     0.167 C 
BRANCH  38  40
HETATM   40  N10 UNL     1     -31.198   6.051 -30.924  1.00  0.00    -0.402 N 
HETATM   41  C16 UNL     1     -30.936   4.856 -30.197  1.00  0.00     0.147 C 
HETATM   42  C17 UNL     1     -30.122   3.869 -31.006  1.00  0.00     0.292 C 
HETATM   43  N11 UNL     1     -29.451   4.599 -32.036  1.00  0.00     0.095 N 
HETATM   44  C21 UNL     1     -30.400   5.008 -33.017  1.00  0.00     0.292 C 
HETATM   45  C22 UNL     1     -31.412   5.906 -32.321  1.00  0.00     0.147 C 
BRANCH  43  46
HETATM   46  C18 UNL     1     -28.277   3.974 -32.564  1.00  0.00     0.215 C 
HETATM   47  C19 UNL     1     -27.067   4.640 -31.933  1.00  0.00     0.042 C 
HETATM   48  C20 UNL     1     -28.221   4.323 -34.053  1.00  0.00     0.042 C 
ENDBRANCH  43  46
ENDBRANCH  38  40
ENDBRANCH  11  36
TORSDOF 8
ENDMDL
MODEL 4
REMARK VINA RESULT: -8.050759142      3.092     12.197
REMARK  8 active torsions:
REMARK  status: ('A' for Active; 'I' for Inactive)
REMARK    1  A    between atoms: C2_2  and  C3_3 
REMARK    2  A    between atoms: C3_3  and  O1_4 
REMARK    3  A    between atoms: O1_4  and  C4_5 
REMARK    4  A    between atoms: C5_6  and  C6_7 
REMARK    5  A    between atoms: N5_19  and  C10_20 
REMARK    6  A    between atoms: C13_30  and  N9_31 
REMARK    7  A    between atoms: C15_33  and  N10_34 
REMARK    8  A    between atoms: N11_37  and  C18_38 
ROOT
HETATM    1  C10 UNL     1     -31.033   7.744 -26.547  1.00  0.00     0.709 A 
HETATM    2  N6  UNL     1     -31.309   9.005 -26.897  1.00  0.00    -0.173 N 
ATOM      3  H6  UNL     1     -30.892   9.369 -27.753  1.00  0.00     0.186 HD
HETATM    4  C11 UNL     1     -32.105   9.818 -26.185  1.00  0.00     0.146 A 
HETATM    5  N7  UNL     1     -32.376  11.030 -26.515  1.00  0.00    -0.383 N 
ATOM      6  H71 UNL     1     -32.981  11.647 -25.974  1.00  0.00     0.157 HD
ATOM      7  H72 UNL     1     -31.942  11.361 -27.376  1.00  0.00     0.157 HD
HETATM    8  C12 UNL     1     -32.697   9.367 -25.012  1.00  0.00     0.138 A 
HETATM    9  N8  UNL     1     -33.517   9.896 -24.102  1.00  0.00    -0.184 N 
ATOM     10  H8  UNL     1     -33.889  10.846 -24.119  1.00  0.00     0.184 HD
HETATM   11  C13 UNL     1     -33.772   8.971 -23.159  1.00  0.00     0.682 A 
HETATM   12  N12 UNL     1     -33.101   7.860 -23.492  1.00  0.00    -0.174 N 
ATOM     13  H12 UNL     1     -33.103   6.989 -22.961  1.00  0.00     0.186 HD
HETATM   14  C24 UNL     1     -32.423   8.069 -24.636  1.00  0.00     0.167 A 
HETATM   15  N13 UNL     1     -31.613   7.295 -25.394  1.00  0.00    -0.172 N 
ATOM     16  H13 UNL     1     -31.427   6.338 -25.093  1.00  0.00     0.186 HD
ENDROOT
BRANCH   1  17
HETATM   17  N5  UNL     1     -30.201   6.857 -27.287  1.00  0.00    -0.063 N 
HETATM   18  C4  UNL     1     -29.726   6.969 -28.564  1.00  0.00     0.197 A 
HETATM   19  C5  UNL     1     -28.926   5.873 -28.736  1.00  0.00     0.080 A 
HETATM   20  C9  UNL     1     -28.927   5.104 -27.560  1.00  0.00     0.128 A 
HETATM   21  N4  UNL     1     -29.718   5.752 -26.719  1.00  0.00    -0.288 N 
ATOM     22  H4  UNL     1     -29.929   5.448 -25.768  1.00  0.00     0.187 HD
BRANCH  18  23
HETATM   23  O1  UNL     1     -30.011   7.959 -29.411  1.00  0.00    -0.333 OA
BRANCH  23  24
HETATM   24  C3  UNL     1     -30.774   8.232 -30.487  1.00  0.00     0.177 C 
BRANCH  24  25
HETATM   25  C2  UNL     1     -31.977   7.429 -30.818  1.00  0.00     0.022 C 
HETATM   26  C1  UNL     1     -31.721   6.435 -31.955  1.00  0.00     0.007 C 
ENDBRANCH  24  25
ENDBRANCH  23  24
ENDBRANCH  18  23
BRANCH  19  27
HETATM   27  C6  UNL     1     -28.145   5.512 -29.908  1.00  0.00     0.140 A 
HETATM   28  N1  UNL     1     -28.656   4.862 -31.000  1.00  0.00    -0.279 N 
HETATM   29  N2  UNL     1     -27.755   4.654 -31.919  1.00  0.00    -0.245 N 
ATOM     30  H1  UNL     1     -29.630   4.574 -31.084  1.00  0.00     0.189 HD
HETATM   31  C7  UNL     1     -27.923   3.987 -33.220  1.00  0.00     0.183 C 
HETATM   32  C8  UNL     1     -26.613   5.171 -31.446  1.00  0.00     0.342 A 
HETATM   33  O2  UNL     1     -25.526   5.148 -32.076  1.00  0.00    -0.245 OA
HETATM   34  N3  UNL     1     -26.859   5.693 -30.217  1.00  0.00    -0.291 N 
ATOM     35  H3  UNL     1     -26.169   6.152 -29.622  1.00  0.00     0.172 HD
ENDBRANCH  19  27
ENDBRANCH   1  17
BRANCH  11  36
HETATM   36  N9  UNL     1     -34.604   9.080 -21.995  1.00  0.00    -0.214 N 
HETATM   37  C14 UNL     1     -34.327   9.358 -20.608  1.00  0.00     0.167 C 
HETATM   38  C15 UNL     1     -35.746   9.765 -20.418  1.00  0.00     0.116 C 
HETATM   39  C23 UNL     1     -35.995   8.964 -21.672  1.00  0.00     0.167 C 
BRANCH  38  40
HETATM   40  N10 UNL     1     -36.013  11.157 -20.568  1.00  0.00    -0.402 N 
HETATM   41  C16 UNL     1     -36.139  11.879 -19.348  1.00  0.00     0.147 C 
HETATM   42  C17 UNL     1     -37.580  12.230 -19.046  1.00  0.00     0.292 C 
HETATM   43  N11 UNL     1     -38.411  11.333 -19.785  1.00  0.00     0.095 N 
HETATM   44  C21 UNL     1     -38.353  11.671 -21.169  1.00  0.00     0.292 C 
HETATM   45  C22 UNL     1     -36.906  11.520 -21.611  1.00  0.00     0.147 C 
BRANCH  43  46
HETATM   46  C18 UNL     1     -39.734  11.156 -19.268  1.00  0.00     0.215 C 
HETATM   47  C19 UNL     1     -40.347   9.947 -19.952  1.00  0.00     0.042 C 
HETATM   48  C20 UNL     1     -40.556  12.363 -19.730  1.00  0.00     0.042 C 
ENDBRANCH  43  46
ENDBRANCH  38  40
ENDBRANCH  11  36
TORSDOF 8
ENDMDL
MODEL 5
REMARK VINA RESULT: -7.968841730      3.015     11.785
REMARK  8 active torsions:
REMARK  status: ('A' for Active; 'I' for Inactive)
REMARK    1  A    between atoms: C2_2  and  C3_3 
REMARK    2  A    between atoms: C3_3  and  O1_4 
REMARK    3  A    between atoms: O1_4  and  C4_5 
REMARK    4  A    between atoms: C5_6  and  C6_7 
REMARK    5  A    between atoms: N5_19  and  C10_20 
REMARK    6  A    between atoms: C13_30  and  N9_31 
REMARK    7  A    between atoms: C15_33  and  N10_34 
REMARK    8  A    between atoms: N11_37  and  C18_38 
ROOT
HETATM    1  C10 UNL     1     -30.514   5.722 -26.564  1.00  0.00     0.709 A 
HETATM    2  N6  UNL     1     -30.453   4.927 -25.490  1.00  0.00    -0.173 N 
ATOM      3  H6  UNL     1     -29.944   4.047 -25.570  1.00  0.00     0.186 HD
HETATM    4  C11 UNL     1     -31.023   5.223 -24.312  1.00  0.00     0.146 A 
HETATM    5  N7  UNL     1     -30.968   4.466 -23.275  1.00  0.00    -0.383 N 
ATOM      6  H71 UNL     1     -31.402   4.690 -22.380  1.00  0.00     0.157 HD
ATOM      7  H72 UNL     1     -30.452   3.594 -23.391  1.00  0.00     0.157 HD
HETATM    8  C12 UNL     1     -31.726   6.411 -24.153  1.00  0.00     0.138 A 
HETATM    9  N8  UNL     1     -32.385   6.993 -23.149  1.00  0.00    -0.184 N 
ATOM     10  H8  UNL     1     -32.499   6.608 -22.212  1.00  0.00     0.184 HD
HETATM   11  C13 UNL     1     -32.874   8.171 -23.578  1.00  0.00     0.682 A 
HETATM   12  N12 UNL     1     -32.512   8.315 -24.861  1.00  0.00    -0.174 N 
ATOM     13  H12 UNL     1     -32.742   9.114 -25.451  1.00  0.00     0.186 HD
HETATM   14  C24 UNL     1     -31.799   7.242 -25.250  1.00  0.00     0.167 A 
HETATM   15  N13 UNL     1     -31.203   6.891 -26.414  1.00  0.00    -0.172 N 
ATOM     16  H13 UNL     1     -31.272   7.526 -27.210  1.00  0.00     0.186 HD
ENDROOT
BRANCH   1  17
HETATM   17  N5  UNL     1     -29.910   5.438 -27.822  1.00  0.00    -0.063 N 
HETATM   18  C4  UNL     1     -30.490   5.263 -29.047  1.00  0.00     0.197 A 
HETATM   19  C5  UNL     1     -29.441   5.084 -29.908  1.00  0.00     0.080 A 
HETATM   20  C9  UNL     1     -28.234   5.149 -29.192  1.00  0.00     0.128 A 
HETATM   21  N4  UNL     1     -28.584   5.365 -27.933  1.00  0.00    -0.288 N 
ATOM     22  H4  UNL     1     -27.929   5.461 -27.157  1.00  0.00     0.187 HD
BRANCH  18  23
HETATM   23  O1  UNL     1     -31.801   5.279 -29.292  1.00  0.00    -0.333 OA
BRANCH  23  24
HETATM   24  C3  UNL     1     -32.777   6.099 -29.727  1.00  0.00     0.177 C 
BRANCH  24  25
HETATM   25  C2  UNL     1     -32.606   7.573 -29.759  1.00  0.00     0.022 C 
HETATM   26  C1  UNL     1     -31.924   8.054 -31.043  1.00  0.00     0.007 C 
ENDBRANCH  24  25
ENDBRANCH  23  24
ENDBRANCH  18  23
BRANCH  19  27
HETATM   27  C6  UNL     1     -29.490   4.886 -31.347  1.00  0.00     0.140 A 
HETATM   28  N1  UNL     1     -28.396   4.598 -32.118  1.00  0.00    -0.279 N 
HETATM   29  N2  UNL     1     -28.701   4.465 -33.380  1.00  0.00    -0.245 N 
ATOM     30  H1  UNL     1     -27.451   4.499 -31.749  1.00  0.00     0.189 HD
HETATM   31  C7  UNL     1     -27.800   4.162 -34.504  1.00  0.00     0.183 C 
HETATM   32  C8  UNL     1     -30.022   4.665 -33.468  1.00  0.00     0.342 A 
HETATM   33  O2  UNL     1     -30.663   4.613 -34.547  1.00  0.00    -0.245 OA
HETATM   34  N3  UNL     1     -30.498   4.922 -32.221  1.00  0.00    -0.291 N 
ATOM     35  H3  UNL     1     -31.472   5.113 -31.990  1.00  0.00     0.172 HD
ENDBRANCH  19  27
ENDBRANCH   1  17
BRANCH  11  36
HETATM   36  N9  UNL     1     -33.638   9.145 -22.853  1.00  0.00    -0.214 N 
HETATM   37  C14 UNL     1     -34.169  10.438 -23.200  1.00  0.00     0.167 C 
HETATM   38  C15 UNL     1     -35.147  10.324 -22.083  1.00  0.00     0.116 C 
HETATM   39  C23 UNL     1     -34.189   9.295 -21.538  1.00  0.00     0.167 C 
BRANCH  38  40
HETATM   40  N10 UNL     1     -36.421   9.790 -22.433  1.00  0.00    -0.402 N 
HETATM   41  C16 UNL     1     -37.262  10.673 -23.166  1.00  0.00     0.147 C 
HETATM   42  C17 UNL     1     -38.380  11.229 -22.310  1.00  0.00     0.292 C 
HETATM   43  N11 UNL     1     -37.985  11.105 -20.943  1.00  0.00     0.095 N 
HETATM   44  C21 UNL     1     -38.032   9.732 -20.562  1.00  0.00     0.292 C 
HETATM   45  C22 UNL     1     -37.056   8.981 -21.453  1.00  0.00     0.147 C 
BRANCH  43  46
HETATM   46  C18 UNL     1     -38.633  12.001 -20.034  1.00  0.00     0.215 C 
HETATM   47  C19 UNL     1     -37.653  12.329 -18.920  1.00  0.00     0.042 C 
HETATM   48  C20 UNL     1     -39.771  11.217 -19.375  1.00  0.00     0.042 C 
ENDBRANCH  43  46
ENDBRANCH  38  40
ENDBRANCH  11  36
TORSDOF 8
ENDMDL
