MODEL 1
REMARK VINA RESULT: -5.394550667      0.000      0.000
REMARK  13 active torsions:
REMARK  status: ('A' for Active; 'I' for Inactive)
REMARK    1  A    between atoms: C2_2  and  C3_3 
REMARK    2  A    between atoms: C3_3  and  S1_5 
REMARK    3  A    between atoms: S1_5  and  C5_6 
REMARK    4  A    between atoms: C5_6  and  O1_7 
REMARK    5  A    between atoms: C6_9  and  O2_11 
REMARK    6  A    between atoms: C8_13  and  O3_14 
REMARK    7  A    between atoms: C11_17  and  O4_18 
REMARK    8  A    between atoms: O4_18  and  C12_19 
REMARK    9  A    between atoms: C17_27  and  O8_28 
REMARK   10  A    between atoms: C19_31  and  O9_32 
REMARK   11  A    between atoms: C19_31  and  C20_34 
REMARK   12  A    between atoms: C23_37  and  O10_38 
REMARK   13  A    between atoms: O10_38  and  C24_39 
ROOT
HETATM    1  C5  UNL     1     -30.746   8.008 -26.241  1.00  0.00     0.197 C 
HETATM    2  C6  UNL     1     -31.559   9.155 -26.697  1.00  0.00     0.133 C 
HETATM    3  C7  UNL     1     -32.838   9.403 -25.938  1.00  0.00     0.053 C 
HETATM    4  C8  UNL     1     -31.842   8.982 -28.177  1.00  0.00     0.117 A 
HETATM    5  C10 UNL     1     -32.796   7.920 -28.574  1.00  0.00     0.088 A 
HETATM    6  C11 UNL     1     -33.077   7.879 -30.095  1.00  0.00     0.166 C 
HETATM    7  C14 UNL     1     -31.742   8.188 -30.682  1.00  0.00     0.179 C 
HETATM    8  O6  UNL     1     -31.453   8.953 -31.562  1.00  0.00    -0.293 OA
HETATM    9  C15 UNL     1     -30.844   7.268 -29.861  1.00  0.00     0.092 C 
HETATM   10  C16 UNL     1     -29.501   7.746 -29.585  1.00  0.00     0.193 C 
HETATM   11  O7  UNL     1     -29.288   7.781 -28.181  1.00  0.00    -0.350 OA
HETATM   12  C17 UNL     1     -30.422   7.278 -27.567  1.00  0.00     0.219 C 
HETATM   13  C18 UNL     1     -31.468   7.526 -28.502  1.00  0.00     0.084 A 
HETATM   14  C19 UNL     1     -31.083   5.951 -30.458  1.00  0.00     0.078 C 
HETATM   15  C22 UNL     1     -32.432   5.491 -29.916  1.00  0.00     0.075 C 
HETATM   16  C23 UNL     1     -33.458   6.486 -30.502  1.00  0.00     0.178 C 
ENDROOT
BRANCH   1  17
HETATM   17  S1  UNL     1     -31.640   6.849 -25.233  1.00  0.00    -0.118 SA
BRANCH  17  18
HETATM   18  C3  UNL     1     -31.057   6.617 -23.569  1.00  0.00     0.046 C 
HETATM   19  C4  UNL     1     -31.913   7.442 -22.601  1.00  0.00     0.021 C 
BRANCH  18  20
HETATM   20  C2  UNL     1     -31.164   5.175 -23.101  1.00  0.00     0.010 C 
HETATM   21  C1  UNL     1     -31.163   4.213 -24.268  1.00  0.00     0.006 C 
ENDBRANCH  18  20
ENDBRANCH  17  18
ENDBRANCH   1  17
BRANCH   1  22
HETATM   22  O1  UNL     1     -29.487   8.333 -25.723  1.00  0.00    -0.371 OA
ATOM     23  H1  UNL     1     -28.831   8.477 -26.395  1.00  0.00     0.212 HD
ENDBRANCH   1  22
BRANCH   2  24
HETATM   24  O2  UNL     1     -30.738  10.294 -26.472  1.00  0.00    -0.383 OA
ATOM     25  H2  UNL     1     -30.049  10.229 -27.123  1.00  0.00     0.210 HD
ENDBRANCH   2  24
BRANCH  12  26
HETATM   26  O8  UNL     1     -30.165   5.982 -27.139  1.00  0.00    -0.361 OA
ATOM     27  H8  UNL     1     -30.591   5.458 -27.807  1.00  0.00     0.213 HD
ENDBRANCH  12  26
BRANCH   4  28
HETATM   28  O3  UNL     1     -31.531  10.026 -28.963  1.00  0.00    -0.380 OA
HETATM   29  C9  UNL     1     -32.289  11.148 -28.789  1.00  0.00     0.202 C 
ENDBRANCH   4  28
BRANCH   6  30
HETATM   30  O4  UNL     1     -34.040   8.836 -30.360  1.00  0.00    -0.299 OA
BRANCH  30  31
HETATM   31  C12 UNL     1     -34.925   8.855 -31.416  1.00  0.00     0.256 C 
HETATM   32  C13 UNL     1     -36.381   8.897 -31.112  1.00  0.00     0.126 C 
HETATM   33  O5  UNL     1     -34.471   8.834 -32.567  1.00  0.00    -0.266 OA
ENDBRANCH  30  31
ENDBRANCH   6  30
BRANCH  14  34
HETATM   34  O9  UNL     1     -31.381   6.173 -31.853  1.00  0.00    -0.388 OA
ATOM     35  H9  UNL     1     -31.454   5.316 -32.257  1.00  0.00     0.210 HD
ENDBRANCH  14  34
BRANCH  14  36
HETATM   36  C20 UNL     1     -30.041   4.918 -30.466  1.00  0.00     0.035 C 
HETATM   37  C21 UNL     1     -30.242   3.991 -31.689  1.00  0.00     0.008 C 
ENDBRANCH  14  36
BRANCH  16  38
HETATM   38  O10 UNL     1     -34.752   6.125 -30.055  1.00  0.00    -0.313 OA
BRANCH  38  39
HETATM   39  C24 UNL     1     -35.479   5.193 -30.762  1.00  0.00     0.255 C 
HETATM   40  C25 UNL     1     -35.524   5.231 -32.260  1.00  0.00     0.126 C 
HETATM   41  O11 UNL     1     -36.132   4.279 -30.222  1.00  0.00    -0.266 OA
ENDBRANCH  38  39
ENDBRANCH  16  38
TORSDOF 13
ENDMDL
MODEL 2
REMARK VINA RESULT: -5.325508333      1.211      1.398
REMARK  13 active torsions:
REMARK  status: ('A' for Active; 'I' for Inactive)
REMARK    1  A    between atoms: C2_2  and  C3_3 
REMARK    2  A    between atoms: C3_3  and  S1_5 
REMARK    3  A    between atoms: S1_5  and  C5_6 
REMARK    4  A    between atoms: C5_6  and  O1_7 
REMARK    5  A    between atoms: C6_9  and  O2_11 
REMARK    6  A    between atoms: C8_13  and  O3_14 
REMARK    7  A    between atoms: C11_17  and  O4_18 
REMARK    8  A    between atoms: O4_18  and  C12_19 
REMARK    9  A    between atoms: C17_27  and  O8_28 
REMARK   10  A    between atoms: C19_31  and  O9_32 
REMARK   11  A    between atoms: C19_31  and  C20_34 
REMARK   12  A    between atoms: C23_37  and  O10_38 
REMARK   13  A    between atoms: O10_38  and  C24_39 
ROOT
HETATM    1  C5  UNL     1     -31.410   8.903 -26.674  1.00  0.00     0.197 C 
HETATM    2  C6  UNL     1     -32.299   9.686 -27.558  1.00  0.00     0.133 C 
HETATM    3  C7  UNL     1     -33.726   9.840 -27.093  1.00  0.00     0.053 C 
HETATM    4  C8  UNL     1     -32.254   9.074 -28.945  1.00  0.00     0.117 A 
HETATM    5  C10 UNL     1     -32.920   7.765 -29.140  1.00  0.00     0.088 A 
HETATM    6  C11 UNL     1     -32.887   7.267 -30.605  1.00  0.00     0.166 C 
HETATM    7  C14 UNL     1     -31.534   7.694 -31.064  1.00  0.00     0.179 C 
HETATM    8  O6  UNL     1     -31.211   8.245 -32.081  1.00  0.00    -0.293 OA
HETATM    9  C15 UNL     1     -30.672   7.239 -29.890  1.00  0.00     0.092 C 
HETATM   10  C16 UNL     1     -29.509   8.051 -29.583  1.00  0.00     0.193 C 
HETATM   11  O7  UNL     1     -29.584   8.498 -28.236  1.00  0.00    -0.350 OA
HETATM   12  C17 UNL     1     -30.715   7.939 -27.667  1.00  0.00     0.219 C 
HETATM   13  C18 UNL     1     -31.584   7.701 -28.770  1.00  0.00     0.084 A 
HETATM   14  C19 UNL     1     -30.565   5.792 -30.099  1.00  0.00     0.078 C 
HETATM   15  C22 UNL     1     -31.896   5.209 -29.640  1.00  0.00     0.075 C 
HETATM   16  C23 UNL     1     -32.940   5.768 -30.631  1.00  0.00     0.178 C 
ENDROOT
BRANCH   1  17
HETATM   17  S1  UNL     1     -32.276   7.883 -25.505  1.00  0.00    -0.118 SA
BRANCH  17  18
HETATM   18  C3  UNL     1     -32.309   8.447 -23.818  1.00  0.00     0.046 C 
HETATM   19  C4  UNL     1     -33.735   8.866 -23.440  1.00  0.00     0.021 C 
BRANCH  18  20
HETATM   20  C2  UNL     1     -31.911   7.367 -22.825  1.00  0.00     0.010 C 
HETATM   21  C1  UNL     1     -31.035   6.317 -23.472  1.00  0.00     0.006 C 
ENDBRANCH  18  20
ENDBRANCH  17  18
ENDBRANCH   1  17
BRANCH   1  22
HETATM   22  O1  UNL     1     -30.350   9.617 -26.104  1.00  0.00    -0.371 OA
ATOM     23  H1  UNL     1     -30.410   9.685 -25.158  1.00  0.00     0.212 HD
ENDBRANCH   1  22
BRANCH   2  24
HETATM   24  O2  UNL     1     -31.742  10.994 -27.567  1.00  0.00    -0.383 OA
ATOM     25  H2  UNL     1     -32.392  11.532 -28.003  1.00  0.00     0.210 HD
ENDBRANCH   2  24
BRANCH  12  26
HETATM   26  O8  UNL     1     -30.332   6.888 -26.844  1.00  0.00    -0.361 OA
ATOM     27  H8  UNL     1     -29.406   7.057 -26.715  1.00  0.00     0.213 HD
ENDBRANCH  12  26
BRANCH   4  28
HETATM   28  O3  UNL     1     -31.975   9.918 -29.952  1.00  0.00    -0.380 OA
HETATM   29  C9  UNL     1     -32.945  10.833 -30.248  1.00  0.00     0.202 C 
ENDBRANCH   4  28
BRANCH   6  30
HETATM   30  O4  UNL     1     -33.926   7.889 -31.273  1.00  0.00    -0.299 OA
BRANCH  30  31
HETATM   31  C12 UNL     1     -34.556   7.454 -32.418  1.00  0.00     0.256 C 
HETATM   32  C13 UNL     1     -36.038   7.326 -32.399  1.00  0.00     0.126 C 
HETATM   33  O5  UNL     1     -33.864   7.189 -33.408  1.00  0.00    -0.266 OA
ENDBRANCH  30  31
ENDBRANCH   6  30
BRANCH  14  34
HETATM   34  O9  UNL     1     -30.617   5.571 -31.525  1.00  0.00    -0.388 OA
ATOM     35  H9  UNL     1     -29.778   5.848 -31.876  1.00  0.00     0.210 HD
ENDBRANCH  14  34
BRANCH  14  36
HETATM   36  C20 UNL     1     -29.382   5.043 -29.656  1.00  0.00     0.035 C 
HETATM   37  C21 UNL     1     -28.476   4.742 -30.873  1.00  0.00     0.008 C 
ENDBRANCH  14  36
BRANCH  16  38
HETATM   38  O10 UNL     1     -34.218   5.265 -30.283  1.00  0.00    -0.313 OA
BRANCH  38  39
HETATM   39  C24 UNL     1     -34.719   4.167 -30.946  1.00  0.00     0.255 C 
HETATM   40  C25 UNL     1     -34.022   3.615 -32.154  1.00  0.00     0.126 C 
HETATM   41  O11 UNL     1     -35.756   3.570 -30.599  1.00  0.00    -0.266 OA
ENDBRANCH  38  39
ENDBRANCH  16  38
TORSDOF 13
ENDMDL
MODEL 3
REMARK VINA RESULT: -5.246221673      1.902      6.600
REMARK  13 active torsions:
REMARK  status: ('A' for Active; 'I' for Inactive)
REMARK    1  A    between atoms: C2_2  and  C3_3 
REMARK    2  A    between atoms: C3_3  and  S1_5 
REMARK    3  A    between atoms: S1_5  and  C5_6 
REMARK    4  A    between atoms: C5_6  and  O1_7 
REMARK    5  A    between atoms: C6_9  and  O2_11 
REMARK    6  A    between atoms: C8_13  and  O3_14 
REMARK    7  A    between atoms: C11_17  and  O4_18 
REMARK    8  A    between atoms: O4_18  and  C12_19 
REMARK    9  A    between atoms: C17_27  and  O8_28 
REMARK   10  A    between atoms: C19_31  and  O9_32 
REMARK   11  A    between atoms: C19_31  and  C20_34 
REMARK   12  A    between atoms: C23_37  and  O10_38 
REMARK   13  A    between atoms: O10_38  and  C24_39 
ROOT
HETATM    1  C5  UNL     1     -33.080   6.763 -30.576  1.00  0.00     0.197 C 
HETATM    2  C6  UNL     1     -31.696   6.251 -30.669  1.00  0.00     0.133 C 
HETATM    3  C7  UNL     1     -31.548   4.753 -30.746  1.00  0.00     0.053 C 
HETATM    4  C8  UNL     1     -30.901   6.806 -29.503  1.00  0.00     0.117 A 
HETATM    5  C10 UNL     1     -31.196   6.271 -28.154  1.00  0.00     0.088 A 
HETATM    6  C11 UNL     1     -30.277   6.842 -27.047  1.00  0.00     0.166 C 
HETATM    7  C14 UNL     1     -30.114   8.265 -27.462  1.00  0.00     0.179 C 
HETATM    8  O6  UNL     1     -29.118   8.932 -27.526  1.00  0.00    -0.293 OA
HETATM    9  C15 UNL     1     -31.557   8.642 -27.781  1.00  0.00     0.092 C 
HETATM   10  C16 UNL     1     -31.758   9.604 -28.849  1.00  0.00     0.193 C 
HETATM   11  O7  UNL     1     -32.594   9.037 -29.848  1.00  0.00    -0.350 OA
HETATM   12  C17 UNL     1     -32.982   7.782 -29.414  1.00  0.00     0.219 C 
HETATM   13  C18 UNL     1     -31.943   7.379 -28.528  1.00  0.00     0.084 A 
HETATM   14  C19 UNL     1     -32.152   8.831 -26.454  1.00  0.00     0.078 C 
HETATM   15  C22 UNL     1     -32.400   7.430 -25.909  1.00  0.00     0.075 C 
HETATM   16  C23 UNL     1     -30.995   6.816 -25.730  1.00  0.00     0.178 C 
ENDROOT
BRANCH   1  17
HETATM   17  S1  UNL     1     -34.266   5.539 -30.074  1.00  0.00    -0.118 SA
BRANCH  17  18
HETATM   18  C3  UNL     1     -35.338   4.894 -31.338  1.00  0.00     0.046 C 
HETATM   19  C4  UNL     1     -34.503   4.436 -32.540  1.00  0.00     0.021 C 
BRANCH  18  20
HETATM   20  C2  UNL     1     -36.124   3.676 -30.883  1.00  0.00     0.010 C 
HETATM   21  C1  UNL     1     -35.388   2.393 -31.198  1.00  0.00     0.006 C 
ENDBRANCH  18  20
ENDBRANCH  17  18
ENDBRANCH   1  17
BRANCH   1  22
HETATM   22  O1  UNL     1     -33.509   7.534 -31.661  1.00  0.00    -0.371 OA
ATOM     23  H1  UNL     1     -32.795   7.850 -32.202  1.00  0.00     0.212 HD
ENDBRANCH   1  22
BRANCH   2  24
HETATM   24  O2  UNL     1     -31.203   6.762 -31.902  1.00  0.00    -0.383 OA
ATOM     25  H2  UNL     1     -31.681   6.285 -32.570  1.00  0.00     0.210 HD
ENDBRANCH   2  24
BRANCH  12  26
HETATM   26  O8  UNL     1     -34.294   7.847 -28.963  1.00  0.00    -0.361 OA
ATOM     27  H8  UNL     1     -34.783   7.935 -29.773  1.00  0.00     0.213 HD
ENDBRANCH  12  26
BRANCH   4  28
HETATM   28  O3  UNL     1     -29.751   7.427 -29.816  1.00  0.00    -0.380 OA
HETATM   29  C9  UNL     1     -28.738   6.620 -30.247  1.00  0.00     0.202 C 
ENDBRANCH   4  28
BRANCH   6  30
HETATM   30  O4  UNL     1     -29.102   6.114 -27.074  1.00  0.00    -0.299 OA
BRANCH  30  31
HETATM   31  C12 UNL     1     -28.966   4.750 -26.934  1.00  0.00     0.256 C 
HETATM   32  C13 UNL     1     -29.700   3.869 -27.882  1.00  0.00     0.126 C 
HETATM   33  O5  UNL     1     -28.242   4.319 -26.028  1.00  0.00    -0.266 OA
ENDBRANCH  30  31
ENDBRANCH   6  30
BRANCH  14  34
HETATM   34  O9  UNL     1     -31.099   9.307 -25.589  1.00  0.00    -0.388 OA
ATOM     35  H9  UNL     1     -31.193   8.846 -24.763  1.00  0.00     0.210 HD
ENDBRANCH  14  34
BRANCH  14  36
HETATM   36  C20 UNL     1     -33.254   9.777 -26.241  1.00  0.00     0.035 C 
HETATM   37  C21 UNL     1     -33.418  10.048 -24.727  1.00  0.00     0.008 C 
ENDBRANCH  14  36
BRANCH  16  38
HETATM   38  O10 UNL     1     -31.130   5.504 -25.213  1.00  0.00    -0.313 OA
BRANCH  38  39
HETATM   39  C24 UNL     1     -30.960   5.286 -23.864  1.00  0.00     0.255 C 
HETATM   40  C25 UNL     1     -31.325   3.969 -23.248  1.00  0.00     0.126 C 
HETATM   41  O11 UNL     1     -30.501   6.141 -23.083  1.00  0.00    -0.266 OA
ENDBRANCH  38  39
ENDBRANCH  16  38
TORSDOF 13
ENDMDL
MODEL 4
REMARK VINA RESULT: -5.242869186      2.346      6.125
REMARK  13 active torsions:
REMARK  status: ('A' for Active; 'I' for Inactive)
REMARK    1  A    between atoms: C2_2  and  C3_3 
REMARK    2  A    between atoms: C3_3  and  S1_5 
REMARK    3  A    between atoms: S1_5  and  C5_6 
REMARK    4  A    between atoms: C5_6  and  O1_7 
REMARK    5  A    between atoms: C6_9  and  O2_11 
REMARK    6  A    between atoms: C8_13  and  O3_14 
REMARK    7  A    between atoms: C11_17  and  O4_18 
REMARK    8  A    between atoms: O4_18  and  C12_19 
REMARK    9  A    between atoms: C17_27  and  O8_28 
REMARK   10  A    between atoms: C19_31  and  O9_32 
REMARK   11  A    between atoms: C19_31  and  C20_34 
REMARK   12  A    between atoms: C23_37  and  O10_38 
REMARK   13  A    between atoms: O10_38  and  C24_39 
ROOT
HETATM    1  C5  UNL     1     -31.298   7.186 -29.877  1.00  0.00     0.197 C 
HETATM    2  C6  UNL     1     -30.416   7.171 -28.691  1.00  0.00     0.133 C 
HETATM    3  C7  UNL     1     -30.246   5.837 -28.009  1.00  0.00     0.053 C 
HETATM    4  C8  UNL     1     -30.918   8.211 -27.708  1.00  0.00     0.117 A 
HETATM    5  C10 UNL     1     -32.182   7.925 -26.991  1.00  0.00     0.088 A 
HETATM    6  C11 UNL     1     -32.565   9.009 -25.955  1.00  0.00     0.166 C 
HETATM    7  C14 UNL     1     -32.154  10.270 -26.636  1.00  0.00     0.179 C 
HETATM    8  O6  UNL     1     -31.537  11.205 -26.203  1.00  0.00    -0.293 OA
HETATM    9  C15 UNL     1     -32.731  10.049 -28.030  1.00  0.00     0.092 C 
HETATM   10  C16 UNL     1     -31.989  10.619 -29.140  1.00  0.00     0.193 C 
HETATM   11  O7  UNL     1     -31.647   9.591 -30.060  1.00  0.00    -0.350 OA
HETATM   12  C17 UNL     1     -32.207   8.410 -29.604  1.00  0.00     0.219 C 
HETATM   13  C18 UNL     1     -32.325   8.597 -28.197  1.00  0.00     0.084 A 
HETATM   14  C19 UNL     1     -34.160  10.317 -27.844  1.00  0.00     0.078 C 
HETATM   15  C22 UNL     1     -34.728   9.075 -27.166  1.00  0.00     0.075 C 
HETATM   16  C23 UNL     1     -34.054   9.035 -25.777  1.00  0.00     0.178 C 
ENDROOT
BRANCH   1  17
HETATM   17  S1  UNL     1     -32.374   5.777 -29.990  1.00  0.00    -0.118 SA
BRANCH  17  18
HETATM   18  C3  UNL     1     -31.977   4.561 -31.226  1.00  0.00     0.046 C 
HETATM   19  C4  UNL     1     -32.207   5.149 -32.623  1.00  0.00     0.021 C 
BRANCH  18  20
HETATM   20  C2  UNL     1     -30.521   4.129 -31.185  1.00  0.00     0.010 C 
HETATM   21  C1  UNL     1     -29.840   4.352 -32.518  1.00  0.00     0.006 C 
ENDBRANCH  18  20
ENDBRANCH  17  18
ENDBRANCH   1  17
BRANCH   1  22
HETATM   22  O1  UNL     1     -30.671   7.499 -31.088  1.00  0.00    -0.371 OA
ATOM     23  H1  UNL     1     -30.305   6.740 -31.527  1.00  0.00     0.212 HD
ENDBRANCH   1  22
BRANCH   2  24
HETATM   24  O2  UNL     1     -29.133   7.528 -29.189  1.00  0.00    -0.383 OA
ATOM     25  H2  UNL     1     -28.640   7.793 -28.422  1.00  0.00     0.210 HD
ENDBRANCH   2  24
BRANCH  12  26
HETATM   26  O8  UNL     1     -33.332   8.122 -30.365  1.00  0.00    -0.361 OA
ATOM     27  H8  UNL     1     -33.074   8.418 -31.230  1.00  0.00     0.213 HD
ENDBRANCH  12  26
BRANCH   4  28
HETATM   28  O3  UNL     1     -30.009   9.100 -27.275  1.00  0.00    -0.380 OA
HETATM   29  C9  UNL     1     -29.017   8.598 -26.483  1.00  0.00     0.202 C 
ENDBRANCH   4  28
BRANCH   6  30
HETATM   30  O4  UNL     1     -31.855   8.740 -24.799  1.00  0.00    -0.299 OA
BRANCH  30  31
HETATM   31  C12 UNL     1     -31.833   7.557 -24.093  1.00  0.00     0.256 C 
HETATM   32  C13 UNL     1     -32.043   7.613 -22.621  1.00  0.00     0.126 C 
HETATM   33  O5  UNL     1     -31.638   6.504 -24.712  1.00  0.00    -0.266 OA
ENDBRANCH  30  31
ENDBRANCH   6  30
BRANCH  14  34
HETATM   34  O9  UNL     1     -34.267  11.305 -26.797  1.00  0.00    -0.388 OA
ATOM     35  H9  UNL     1     -34.342  12.151 -27.224  1.00  0.00     0.210 HD
ENDBRANCH  14  34
BRANCH  14  36
HETATM   36  C20 UNL     1     -34.985  10.851 -28.935  1.00  0.00     0.035 C 
HETATM   37  C21 UNL     1     -36.170   9.894 -29.204  1.00  0.00     0.008 C 
ENDBRANCH  14  36
BRANCH  16  38
HETATM   38  O10 UNL     1     -34.536   7.909 -25.067  1.00  0.00    -0.313 OA
BRANCH  38  39
HETATM   39  C24 UNL     1     -35.625   8.045 -24.235  1.00  0.00     0.255 C 
HETATM   40  C25 UNL     1     -35.626   9.059 -23.131  1.00  0.00     0.126 C 
HETATM   41  O11 UNL     1     -36.658   7.356 -24.339  1.00  0.00    -0.266 OA
ENDBRANCH  38  39
ENDBRANCH  16  38
TORSDOF 13
ENDMDL
MODEL 5
REMARK VINA RESULT: -5.197214869      2.066      4.196
REMARK  13 active torsions:
REMARK  status: ('A' for Active; 'I' for Inactive)
REMARK    1  A    between atoms: C2_2  and  C3_3 
REMARK    2  A    between atoms: C3_3  and  S1_5 
REMARK    3  A    between atoms: S1_5  and  C5_6 
REMARK    4  A    between atoms: C5_6  and  O1_7 
REMARK    5  A    between atoms: C6_9  and  O2_11 
REMARK    6  A    between atoms: C8_13  and  O3_14 
REMARK    7  A    between atoms: C11_17  and  O4_18 
REMARK    8  A    between atoms: O4_18  and  C12_19 
REMARK    9  A    between atoms: C17_27  and  O8_28 
REMARK   10  A    between atoms: C19_31  and  O9_32 
REMARK   11  A    between atoms: C19_31  and  C20_34 
REMARK   12  A    between atoms: C23_37  and  O10_38 
REMARK   13  A    between atoms: O10_38  and  C24_39 
ROOT
HETATM    1  C5  UNL     1     -34.152   9.853 -25.720  1.00  0.00     0.197 C 
HETATM    2  C6  UNL     1     -34.919   9.431 -26.912  1.00  0.00     0.133 C 
HETATM    3  C7  UNL     1     -35.897   8.303 -26.704  1.00  0.00     0.053 C 
HETATM    4  C8  UNL     1     -33.937   9.088 -28.015  1.00  0.00     0.117 A 
HETATM    5  C10 UNL     1     -33.144   7.846 -27.867  1.00  0.00     0.088 A 
HETATM    6  C11 UNL     1     -32.232   7.546 -29.082  1.00  0.00     0.166 C 
HETATM    7  C14 UNL     1     -31.760   8.903 -29.478  1.00  0.00     0.179 C 
HETATM    8  O6  UNL     1     -31.703   9.404 -30.568  1.00  0.00    -0.293 OA
HETATM    9  C15 UNL     1     -31.368   9.482 -28.122  1.00  0.00     0.092 C 
HETATM   10  C16 UNL     1     -31.557  10.910 -27.944  1.00  0.00     0.193 C 
HETATM   11  O7  UNL     1     -32.407  11.142 -26.830  1.00  0.00    -0.350 OA
HETATM   12  C17 UNL     1     -32.702   9.916 -26.260  1.00  0.00     0.219 C 
HETATM   13  C18 UNL     1     -32.564   8.987 -27.331  1.00  0.00     0.084 A 
HETATM   14  C19 UNL     1     -30.081   8.837 -27.846  1.00  0.00     0.078 C 
HETATM   15  C22 UNL     1     -30.418   7.419 -27.397  1.00  0.00     0.075 C 
HETATM   16  C23 UNL     1     -31.044   6.746 -28.638  1.00  0.00     0.178 C 
ENDROOT
BRANCH   1  17
HETATM   17  S1  UNL     1     -34.149   8.657 -24.407  1.00  0.00    -0.118 SA
BRANCH  17  18
HETATM   18  C3  UNL     1     -34.263   9.287 -22.747  1.00  0.00     0.046 C 
HETATM   19  C4  UNL     1     -35.671   9.034 -22.193  1.00  0.00     0.021 C 
BRANCH  18  20
HETATM   20  C2  UNL     1     -33.305   8.602 -21.787  1.00  0.00     0.010 C 
HETATM   21  C1  UNL     1     -32.293   7.755 -22.526  1.00  0.00     0.006 C 
ENDBRANCH  18  20
ENDBRANCH  17  18
ENDBRANCH   1  17
BRANCH   1  22
HETATM   22  O1  UNL     1     -34.401  11.157 -25.277  1.00  0.00    -0.371 OA
ATOM     23  H1  UNL     1     -34.039  11.823 -25.851  1.00  0.00     0.212 HD
ENDBRANCH   1  22
BRANCH   2  24
HETATM   24  O2  UNL     1     -35.696  10.569 -27.265  1.00  0.00    -0.383 OA
ATOM     25  H2  UNL     1     -35.914  10.980 -26.437  1.00  0.00     0.210 HD
ENDBRANCH   2  24
BRANCH  12  26
HETATM   26  O8  UNL     1     -31.947   9.763 -25.104  1.00  0.00    -0.361 OA
ATOM     27  H8  UNL     1     -31.205   9.257 -25.411  1.00  0.00     0.213 HD
ENDBRANCH  12  26
BRANCH   4  28
HETATM   28  O3  UNL     1     -34.139   9.699 -29.195  1.00  0.00    -0.380 OA
HETATM   29  C9  UNL     1     -35.238   9.290 -29.895  1.00  0.00     0.202 C 
ENDBRANCH   4  28
BRANCH   6  30
HETATM   30  O4  UNL     1     -33.016   6.926 -30.038  1.00  0.00    -0.299 OA
BRANCH  30  31
HETATM   31  C12 UNL     1     -32.587   6.107 -31.060  1.00  0.00     0.256 C 
HETATM   32  C13 UNL     1     -33.199   4.756 -31.181  1.00  0.00     0.126 C 
HETATM   33  O5  UNL     1     -31.714   6.529 -31.828  1.00  0.00    -0.266 OA
ENDBRANCH  30  31
ENDBRANCH   6  30
BRANCH  14  34
HETATM   34  O9  UNL     1     -29.448   8.605 -29.122  1.00  0.00    -0.388 OA
ATOM     35  H9  UNL     1     -28.577   8.269 -28.939  1.00  0.00     0.210 HD
ENDBRANCH  14  34
BRANCH  14  36
HETATM   36  C20 UNL     1     -29.050   9.505 -27.043  1.00  0.00     0.035 C 
HETATM   37  C21 UNL     1     -28.510   8.525 -25.975  1.00  0.00     0.008 C 
ENDBRANCH  14  36
BRANCH  16  38
HETATM   38  O10 UNL     1     -31.381   5.410 -28.312  1.00  0.00    -0.313 OA
BRANCH  38  39
HETATM   39  C24 UNL     1     -30.483   4.634 -27.613  1.00  0.00     0.255 C 
HETATM   40  C25 UNL     1     -29.060   4.511 -28.067  1.00  0.00     0.126 C 
HETATM   41  O11 UNL     1     -30.781   3.999 -26.583  1.00  0.00    -0.266 OA
ENDBRANCH  38  39
ENDBRANCH  16  38
TORSDOF 13
ENDMDL
