MODEL 1
REMARK VINA RESULT: -6.618125274      0.000      0.000
REMARK  14 active torsions:
REMARK  status: ('A' for Active; 'I' for Inactive)
REMARK    1  A    between atoms: O1_2  and  C2_3 
REMARK    2  A    between atoms: C5_6  and  N1_7 
REMARK    3  A    between atoms: N1_7  and  C6_9 
REMARK    4  A    between atoms: C6_9  and  O2_10 
REMARK    5  A    between atoms: C6_9  and  C7_12 
REMARK    6  A    between atoms: C7_12  and  C8_13 
REMARK    7  A    between atoms: C8_13  and  O3_14 
REMARK    8  A    between atoms: C8_13  and  C9_16 
REMARK    9  A    between atoms: C9_16  and  O4_17 
REMARK   10  A    between atoms: C9_16  and  C10_19 
REMARK   11  A    between atoms: C20_33  and  O9_35 
REMARK   12  A    between atoms: O9_35  and  C22_36 
REMARK   13  A    between atoms: C22_36  and  C23_38 
REMARK   14  A    between atoms: C23_38  and  C24_39 
ROOT
HETATM    1  C2  UNL     1     -30.508   5.379 -28.258  1.00  0.00     0.135 C 
HETATM    2  C3  UNL     1     -30.515   6.190 -26.952  1.00  0.00     0.035 C 
HETATM    3  C4  UNL     1     -31.557   7.201 -26.828  1.00  0.00     0.033 C 
HETATM    4  C5  UNL     1     -31.214   8.666 -27.076  1.00  0.00     0.153 C 
HETATM    5  C12 UNL     1     -31.151   8.918 -28.576  1.00  0.00     0.283 A 
HETATM    6  O6  UNL     1     -32.437   8.617 -29.168  1.00  0.00    -0.267 OA
HETATM    7  C13 UNL     1     -31.948   9.962 -29.228  1.00  0.00     0.328 A 
HETATM    8  O7  UNL     1     -32.044  11.154 -29.556  1.00  0.00    -0.259 OA
HETATM    9  O8  UNL     1     -30.076   8.516 -29.254  1.00  0.00    -0.338 OA
HETATM   10  C14 UNL     1     -29.547   7.299 -29.097  1.00  0.00     0.145 A 
HETATM   11  C15 UNL     1     -28.962   6.542 -30.125  1.00  0.00     0.033 A 
HETATM   12  C16 UNL     1     -28.111   5.367 -30.182  1.00  0.00     0.012 C 
HETATM   13  C17 UNL     1     -28.774   4.473 -31.208  1.00  0.00    -0.015 C 
HETATM   14  C18 UNL     1     -28.136   4.743 -32.586  1.00  0.00     0.010 C 
HETATM   15  C19 UNL     1     -30.193   4.512 -31.343  1.00  0.00     0.043 C 
HETATM   16  C20 UNL     1     -30.998   5.664 -30.666  1.00  0.00     0.081 C 
HETATM   17  C21 UNL     1     -31.060   6.732 -31.784  1.00  0.00     0.047 C 
HETATM   18  C27 UNL     1     -30.263   6.113 -29.493  1.00  0.00     0.050 A 
ENDROOT
BRANCH   4  19
HETATM   19  N1  UNL     1     -32.374   9.421 -26.697  1.00  0.00    -0.387 N 
ATOM     20  H1  UNL     1     -32.492  10.338 -27.129  1.00  0.00     0.156 HD
BRANCH  19  21
HETATM   21  C6  UNL     1     -33.322   9.033 -25.824  1.00  0.00     0.216 C 
BRANCH  21  22
HETATM   22  O2  UNL     1     -34.622   8.841 -26.292  1.00  0.00    -0.377 OA
ATOM     23  H2  UNL     1     -34.877   7.973 -26.582  1.00  0.00     0.212 HD
ENDBRANCH  21  22
BRANCH  21  24
HETATM   24  C7  UNL     1     -33.388   9.812 -24.506  1.00  0.00     0.087 C 
BRANCH  24  25
HETATM   25  C8  UNL     1     -33.192   8.794 -23.396  1.00  0.00     0.158 C 
BRANCH  25  26
HETATM   26  O3  UNL     1     -33.100   7.541 -23.962  1.00  0.00    -0.392 OA
ATOM     27  H3  UNL     1     -33.915   7.354 -24.413  1.00  0.00     0.210 HD
ENDBRANCH  25  26
BRANCH  25  28
HETATM   28  C9  UNL     1     -34.139   8.962 -22.277  1.00  0.00     0.215 C 
BRANCH  28  29
HETATM   29  O4  UNL     1     -34.640  10.246 -22.150  1.00  0.00    -0.385 OA
ATOM     30  H4  UNL     1     -35.493  10.369 -22.550  1.00  0.00     0.210 HD
ENDBRANCH  28  29
BRANCH  28  31
HETATM   31  C10 UNL     1     -33.405   8.641 -20.982  1.00  0.00     0.154 C 
HETATM   32  C11 UNL     1     -33.821   9.347 -19.766  1.00  0.00     0.093 C 
HETATM   33  O5  UNL     1     -32.554   7.841 -21.050  1.00  0.00    -0.295 OA
ENDBRANCH  28  31
ENDBRANCH  25  28
ENDBRANCH  24  25
ENDBRANCH  21  24
ENDBRANCH  19  21
ENDBRANCH   4  19
BRANCH   1  34
HETATM   34  O1  UNL     1     -29.732   4.247 -28.030  1.00  0.00    -0.390 OA
HETATM   35  C1  UNL     1     -29.047   4.242 -26.852  1.00  0.00     0.202 C 
ENDBRANCH   1  34
BRANCH  16  36
HETATM   36  O9  UNL     1     -32.175   5.106 -30.451  1.00  0.00    -0.306 OA
BRANCH  36  37
HETATM   37  C22 UNL     1     -33.374   4.646 -30.468  1.00  0.00     0.284 C 
HETATM   38  O10 UNL     1     -34.055   4.927 -29.461  1.00  0.00    -0.260 OA
BRANCH  37  39
HETATM   39  C23 UNL     1     -33.898   3.839 -31.604  1.00  0.00     0.088 C 
BRANCH  39  40
HETATM   40  C24 UNL     1     -34.097   4.516 -32.760  1.00  0.00    -0.066 C 
HETATM   41  C25 UNL     1     -33.199   4.556 -33.842  1.00  0.00     0.018 C 
HETATM   42  C26 UNL     1     -35.438   5.218 -32.790  1.00  0.00     0.047 C 
ENDBRANCH  39  40
ENDBRANCH  37  39
ENDBRANCH  36  37
ENDBRANCH  16  36
TORSDOF 14
ENDMDL
MODEL 2
REMARK VINA RESULT: -6.227280300      2.995      9.734
REMARK  14 active torsions:
REMARK  status: ('A' for Active; 'I' for Inactive)
REMARK    1  A    between atoms: O1_2  and  C2_3 
REMARK    2  A    between atoms: C5_6  and  N1_7 
REMARK    3  A    between atoms: N1_7  and  C6_9 
REMARK    4  A    between atoms: C6_9  and  O2_10 
REMARK    5  A    between atoms: C6_9  and  C7_12 
REMARK    6  A    between atoms: C7_12  and  C8_13 
REMARK    7  A    between atoms: C8_13  and  O3_14 
REMARK    8  A    between atoms: C8_13  and  C9_16 
REMARK    9  A    between atoms: C9_16  and  O4_17 
REMARK   10  A    between atoms: C9_16  and  C10_19 
REMARK   11  A    between atoms: C20_33  and  O9_35 
REMARK   12  A    between atoms: O9_35  and  C22_36 
REMARK   13  A    between atoms: C22_36  and  C23_38 
REMARK   14  A    between atoms: C23_38  and  C24_39 
ROOT
HETATM    1  C2  UNL     1     -34.629   9.812 -21.878  1.00  0.00     0.135 C 
HETATM    2  C3  UNL     1     -33.586   8.707 -22.115  1.00  0.00     0.035 C 
HETATM    3  C4  UNL     1     -32.918   8.719 -23.411  1.00  0.00     0.033 C 
HETATM    4  C5  UNL     1     -33.369   7.746 -24.495  1.00  0.00     0.153 C 
HETATM    5  C12 UNL     1     -34.639   8.276 -25.146  1.00  0.00     0.283 A 
HETATM    6  O6  UNL     1     -34.370   9.569 -25.739  1.00  0.00    -0.267 OA
HETATM    7  C13 UNL     1     -34.748   8.482 -26.594  1.00  0.00     0.328 A 
HETATM    8  O7  UNL     1     -35.000   7.994 -27.705  1.00  0.00    -0.259 OA
HETATM    9  O8  UNL     1     -35.798   8.147 -24.502  1.00  0.00    -0.338 OA
HETATM   10  C14 UNL     1     -35.933   8.454 -23.207  1.00  0.00     0.145 A 
HETATM   11  C15 UNL     1     -37.084   9.020 -22.636  1.00  0.00     0.033 A 
HETATM   12  C16 UNL     1     -37.581   9.197 -21.283  1.00  0.00     0.012 C 
HETATM   13  C17 UNL     1     -38.006  10.649 -21.226  1.00  0.00    -0.015 C 
HETATM   14  C18 UNL     1     -39.508  10.739 -21.564  1.00  0.00     0.010 C 
HETATM   15  C19 UNL     1     -37.299  11.606 -22.012  1.00  0.00     0.043 C 
HETATM   16  C20 UNL     1     -36.322  11.116 -23.125  1.00  0.00     0.081 C 
HETATM   17  C21 UNL     1     -37.236  11.057 -24.372  1.00  0.00     0.047 C 
HETATM   18  C27 UNL     1     -35.803   9.811 -22.741  1.00  0.00     0.050 A 
ENDROOT
BRANCH   4  19
HETATM   19  N1  UNL     1     -32.417   7.863 -25.562  1.00  0.00    -0.387 N 
ATOM     20  H1  UNL     1     -32.740   7.624 -26.500  1.00  0.00     0.156 HD
BRANCH  19  21
HETATM   21  C6  UNL     1     -31.136   8.260 -25.442  1.00  0.00     0.216 C 
BRANCH  21  22
HETATM   22  O2  UNL     1     -30.650   9.223 -26.327  1.00  0.00    -0.377 OA
ATOM     23  H2  UNL     1     -29.883   9.725 -26.076  1.00  0.00     0.212 HD
ENDBRANCH  21  22
BRANCH  21  24
HETATM   24  C7  UNL     1     -30.092   7.147 -25.311  1.00  0.00     0.087 C 
BRANCH  24  25
HETATM   25  C8  UNL     1     -30.484   6.072 -26.309  1.00  0.00     0.158 C 
BRANCH  25  26
HETATM   26  O3  UNL     1     -30.880   4.952 -25.612  1.00  0.00    -0.392 OA
ATOM     27  H3  UNL     1     -31.099   4.270 -26.236  1.00  0.00     0.210 HD
ENDBRANCH  25  26
BRANCH  25  28
HETATM   28  C9  UNL     1     -29.491   5.883 -27.383  1.00  0.00     0.215 C 
BRANCH  28  29
HETATM   29  O4  UNL     1     -28.910   7.058 -27.827  1.00  0.00    -0.385 OA
ATOM     30  H4  UNL     1     -28.272   7.425 -27.226  1.00  0.00     0.210 HD
ENDBRANCH  28  29
BRANCH  28  31
HETATM   31  C10 UNL     1     -30.197   5.256 -28.578  1.00  0.00     0.154 C 
HETATM   32  C11 UNL     1     -29.367   4.769 -29.685  1.00  0.00     0.093 C 
HETATM   33  O5  UNL     1     -31.365   5.205 -28.525  1.00  0.00    -0.295 OA
ENDBRANCH  28  31
ENDBRANCH  25  28
ENDBRANCH  24  25
ENDBRANCH  21  24
ENDBRANCH  19  21
ENDBRANCH   4  19
BRANCH   1  34
HETATM   34  O1  UNL     1     -34.851   9.875 -20.507  1.00  0.00    -0.390 OA
HETATM   35  C1  UNL     1     -33.915   9.248 -19.739  1.00  0.00     0.202 C 
ENDBRANCH   1  34
BRANCH  16  36
HETATM   36  O9  UNL     1     -35.449  12.102 -23.198  1.00  0.00    -0.306 OA
BRANCH  36  37
HETATM   37  C22 UNL     1     -34.501  12.931 -23.455  1.00  0.00     0.284 C 
HETATM   38  O10 UNL     1     -33.673  12.530 -24.298  1.00  0.00    -0.260 OA
BRANCH  37  39
HETATM   39  C23 UNL     1     -34.407  14.259 -22.792  1.00  0.00     0.088 C 
BRANCH  39  40
HETATM   40  C24 UNL     1     -35.344  14.511 -21.848  1.00  0.00    -0.066 C 
HETATM   41  C25 UNL     1     -35.237  14.169 -20.487  1.00  0.00     0.018 C 
HETATM   42  C26 UNL     1     -36.540  15.250 -22.408  1.00  0.00     0.047 C 
ENDBRANCH  39  40
ENDBRANCH  37  39
ENDBRANCH  36  37
ENDBRANCH  16  36
TORSDOF 14
ENDMDL
MODEL 3
REMARK VINA RESULT: -6.226902623      2.737      7.619
REMARK  14 active torsions:
REMARK  status: ('A' for Active; 'I' for Inactive)
REMARK    1  A    between atoms: O1_2  and  C2_3 
REMARK    2  A    between atoms: C5_6  and  N1_7 
REMARK    3  A    between atoms: N1_7  and  C6_9 
REMARK    4  A    between atoms: C6_9  and  O2_10 
REMARK    5  A    between atoms: C6_9  and  C7_12 
REMARK    6  A    between atoms: C7_12  and  C8_13 
REMARK    7  A    between atoms: C8_13  and  O3_14 
REMARK    8  A    between atoms: C8_13  and  C9_16 
REMARK    9  A    between atoms: C9_16  and  O4_17 
REMARK   10  A    between atoms: C9_16  and  C10_19 
REMARK   11  A    between atoms: C20_33  and  O9_35 
REMARK   12  A    between atoms: O9_35  and  C22_36 
REMARK   13  A    between atoms: C22_36  and  C23_38 
REMARK   14  A    between atoms: C23_38  and  C24_39 
ROOT
HETATM    1  C2  UNL     1     -32.325   9.876 -28.734  1.00  0.00     0.135 C 
HETATM    2  C3  UNL     1     -31.312   8.805 -29.174  1.00  0.00     0.035 C 
HETATM    3  C4  UNL     1     -31.421   7.508 -28.517  1.00  0.00     0.033 C 
HETATM    4  C5  UNL     1     -30.455   7.155 -27.391  1.00  0.00     0.153 C 
HETATM    5  C12 UNL     1     -30.909   7.840 -26.110  1.00  0.00     0.283 A 
HETATM    6  O6  UNL     1     -32.238   7.382 -25.766  1.00  0.00    -0.267 OA
HETATM    7  C13 UNL     1     -31.156   7.095 -24.870  1.00  0.00     0.328 A 
HETATM    8  O7  UNL     1     -30.690   6.607 -23.831  1.00  0.00    -0.259 OA
HETATM    9  O8  UNL     1     -30.668   9.141 -25.952  1.00  0.00    -0.338 OA
HETATM   10  C14 UNL     1     -30.918  10.034 -26.915  1.00  0.00     0.145 A 
HETATM   11  C15 UNL     1     -31.374  11.344 -26.693  1.00  0.00     0.033 A 
HETATM   12  C16 UNL     1     -31.464  12.552 -27.493  1.00  0.00     0.012 C 
HETATM   13  C17 UNL     1     -32.876  13.048 -27.265  1.00  0.00    -0.015 C 
HETATM   14  C18 UNL     1     -32.862  14.067 -26.108  1.00  0.00     0.010 C 
HETATM   15  C19 UNL     1     -33.912  12.097 -27.028  1.00  0.00     0.043 C 
HETATM   16  C20 UNL     1     -33.538  10.616 -26.710  1.00  0.00     0.081 C 
HETATM   17  C21 UNL     1     -33.453  10.616 -25.164  1.00  0.00     0.047 C 
HETATM   18  C27 UNL     1     -32.264  10.315 -27.347  1.00  0.00     0.050 A 
ENDROOT
BRANCH   4  19
HETATM   19  N1  UNL     1     -30.682   5.771 -27.085  1.00  0.00    -0.387 N 
ATOM     20  H1  UNL     1     -31.582   5.531 -26.668  1.00  0.00     0.156 HD
BRANCH  19  21
HETATM   21  C6  UNL     1     -29.820   4.760 -27.296  1.00  0.00     0.216 C 
BRANCH  21  22
HETATM   22  O2  UNL     1     -29.432   3.975 -26.210  1.00  0.00    -0.377 OA
ATOM     23  H2  UNL     1     -30.103   3.654 -25.619  1.00  0.00     0.212 HD
ENDBRANCH  21  22
BRANCH  21  24
HETATM   24  C7  UNL     1     -28.575   5.095 -28.124  1.00  0.00     0.087 C 
BRANCH  24  25
HETATM   25  C8  UNL     1     -28.992   5.001 -29.582  1.00  0.00     0.158 C 
BRANCH  25  26
HETATM   26  O3  UNL     1     -30.012   4.082 -29.687  1.00  0.00    -0.392 OA
ATOM     27  H3  UNL     1     -30.198   3.737 -28.822  1.00  0.00     0.210 HD
ENDBRANCH  25  26
BRANCH  25  28
HETATM   28  C9  UNL     1     -27.851   4.854 -30.506  1.00  0.00     0.215 C 
BRANCH  28  29
HETATM   29  O4  UNL     1     -27.000   5.944 -30.530  1.00  0.00    -0.385 OA
ATOM     30  H4  UNL     1     -26.289   5.894 -29.903  1.00  0.00     0.210 HD
ENDBRANCH  28  29
BRANCH  28  31
HETATM   31  C10 UNL     1     -28.401   4.687 -31.916  1.00  0.00     0.154 C 
HETATM   32  C11 UNL     1     -27.561   3.996 -32.901  1.00  0.00     0.093 C 
HETATM   33  O5  UNL     1     -29.469   5.124 -32.114  1.00  0.00    -0.295 OA
ENDBRANCH  28  31
ENDBRANCH  25  28
ENDBRANCH  24  25
ENDBRANCH  21  24
ENDBRANCH  19  21
ENDBRANCH   4  19
BRANCH   1  34
HETATM   34  O1  UNL     1     -32.322  10.864 -29.713  1.00  0.00    -0.390 OA
HETATM   35  C1  UNL     1     -32.745  10.461 -30.944  1.00  0.00     0.202 C 
ENDBRANCH   1  34
BRANCH  16  36
HETATM   36  O9  UNL     1     -34.590   9.952 -27.147  1.00  0.00    -0.306 OA
BRANCH  36  37
HETATM   37  C22 UNL     1     -35.592   9.176 -27.361  1.00  0.00     0.284 C 
HETATM   38  O10 UNL     1     -36.638   9.499 -26.764  1.00  0.00    -0.260 OA
BRANCH  37  39
HETATM   39  C23 UNL     1     -35.498   7.987 -28.251  1.00  0.00     0.088 C 
BRANCH  39  40
HETATM   40  C24 UNL     1     -35.512   8.247 -29.580  1.00  0.00    -0.066 C 
HETATM   41  C25 UNL     1     -36.199   9.312 -30.192  1.00  0.00     0.018 C 
HETATM   42  C26 UNL     1     -34.660   7.272 -30.365  1.00  0.00     0.047 C 
ENDBRANCH  39  40
ENDBRANCH  37  39
ENDBRANCH  36  37
ENDBRANCH  16  36
TORSDOF 14
ENDMDL
MODEL 4
REMARK VINA RESULT: -6.210656531      3.021      8.000
REMARK  14 active torsions:
REMARK  status: ('A' for Active; 'I' for Inactive)
REMARK    1  A    between atoms: O1_2  and  C2_3 
REMARK    2  A    between atoms: C5_6  and  N1_7 
REMARK    3  A    between atoms: N1_7  and  C6_9 
REMARK    4  A    between atoms: C6_9  and  O2_10 
REMARK    5  A    between atoms: C6_9  and  C7_12 
REMARK    6  A    between atoms: C7_12  and  C8_13 
REMARK    7  A    between atoms: C8_13  and  O3_14 
REMARK    8  A    between atoms: C8_13  and  C9_16 
REMARK    9  A    between atoms: C9_16  and  O4_17 
REMARK   10  A    between atoms: C9_16  and  C10_19 
REMARK   11  A    between atoms: C20_33  and  O9_35 
REMARK   12  A    between atoms: O9_35  and  C22_36 
REMARK   13  A    between atoms: C22_36  and  C23_38 
REMARK   14  A    between atoms: C23_38  and  C24_39 
ROOT
HETATM    1  C2  UNL     1     -32.355   9.719 -28.608  1.00  0.00     0.135 C 
HETATM    2  C3  UNL     1     -31.305   8.677 -29.029  1.00  0.00     0.035 C 
HETATM    3  C4  UNL     1     -31.378   7.383 -28.361  1.00  0.00     0.033 C 
HETATM    4  C5  UNL     1     -30.411   7.071 -27.224  1.00  0.00     0.153 C 
HETATM    5  C12 UNL     1     -30.897   7.753 -25.953  1.00  0.00     0.283 A 
HETATM    6  O6  UNL     1     -32.215   7.257 -25.616  1.00  0.00    -0.267 OA
HETATM    7  C13 UNL     1     -31.132   7.013 -24.709  1.00  0.00     0.328 A 
HETATM    8  O7  UNL     1     -30.658   6.549 -23.662  1.00  0.00    -0.259 OA
HETATM    9  O8  UNL     1     -30.699   9.063 -25.806  1.00  0.00    -0.338 OA
HETATM   10  C14 UNL     1     -30.969   9.939 -26.779  1.00  0.00     0.145 A 
HETATM   11  C15 UNL     1     -31.468  11.235 -26.573  1.00  0.00     0.033 A 
HETATM   12  C16 UNL     1     -31.590  12.433 -27.385  1.00  0.00     0.012 C 
HETATM   13  C17 UNL     1     -33.019  12.886 -27.173  1.00  0.00    -0.015 C 
HETATM   14  C18 UNL     1     -33.047  13.915 -26.025  1.00  0.00     0.010 C 
HETATM   15  C19 UNL     1     -34.026  11.904 -26.935  1.00  0.00     0.043 C 
HETATM   16  C20 UNL     1     -33.607  10.439 -26.600  1.00  0.00     0.081 C 
HETATM   17  C21 UNL     1     -33.536  10.456 -25.054  1.00  0.00     0.047 C 
HETATM   18  C27 UNL     1     -32.319  10.173 -27.224  1.00  0.00     0.050 A 
ENDROOT
BRANCH   4  19
HETATM   19  N1  UNL     1     -30.597   5.684 -26.907  1.00  0.00    -0.387 N 
ATOM     20  H1  UNL     1     -31.425   5.441 -26.361  1.00  0.00     0.156 HD
BRANCH  19  21
HETATM   21  C6  UNL     1     -29.783   4.673 -27.262  1.00  0.00     0.216 C 
BRANCH  21  22
HETATM   22  O2  UNL     1     -29.386   3.760 -26.284  1.00  0.00    -0.377 OA
ATOM     23  H2  UNL     1     -28.752   4.038 -25.634  1.00  0.00     0.212 HD
ENDBRANCH  21  22
BRANCH  21  24
HETATM   24  C7  UNL     1     -28.557   5.054 -28.099  1.00  0.00     0.087 C 
BRANCH  24  25
HETATM   25  C8  UNL     1     -28.997   5.001 -29.552  1.00  0.00     0.158 C 
BRANCH  25  26
HETATM   26  O3  UNL     1     -30.033   4.101 -29.663  1.00  0.00    -0.392 OA
ATOM     27  H3  UNL     1     -30.316   4.076 -30.569  1.00  0.00     0.210 HD
ENDBRANCH  25  26
BRANCH  25  28
HETATM   28  C9  UNL     1     -27.873   4.857 -30.496  1.00  0.00     0.215 C 
BRANCH  28  29
HETATM   29  O4  UNL     1     -27.017   5.944 -30.525  1.00  0.00    -0.385 OA
ATOM     30  H4  UNL     1     -26.102   5.720 -30.405  1.00  0.00     0.210 HD
ENDBRANCH  28  29
BRANCH  28  31
HETATM   31  C10 UNL     1     -28.447   4.705 -31.898  1.00  0.00     0.154 C 
HETATM   32  C11 UNL     1     -27.638   3.998 -32.897  1.00  0.00     0.093 C 
HETATM   33  O5  UNL     1     -29.507   5.167 -32.080  1.00  0.00    -0.295 OA
ENDBRANCH  28  31
ENDBRANCH  25  28
ENDBRANCH  24  25
ENDBRANCH  21  24
ENDBRANCH  19  21
ENDBRANCH   4  19
BRANCH   1  34
HETATM   34  O1  UNL     1     -32.375  10.698 -29.596  1.00  0.00    -0.390 OA
HETATM   35  C1  UNL     1     -33.460  10.667 -30.420  1.00  0.00     0.202 C 
ENDBRANCH   1  34
BRANCH  16  36
HETATM   36  O9  UNL     1     -34.635   9.738 -27.040  1.00  0.00    -0.306 OA
BRANCH  36  37
HETATM   37  C22 UNL     1     -35.614   8.934 -27.252  1.00  0.00     0.284 C 
HETATM   38  O10 UNL     1     -35.356   7.992 -28.029  1.00  0.00    -0.260 OA
BRANCH  37  39
HETATM   39  C23 UNL     1     -36.948   9.123 -26.619  1.00  0.00     0.088 C 
BRANCH  39  40
HETATM   40  C24 UNL     1     -36.950   9.190 -25.266  1.00  0.00    -0.066 C 
HETATM   41  C25 UNL     1     -36.610   8.133 -24.401  1.00  0.00     0.018 C 
HETATM   42  C26 UNL     1     -37.330  10.565 -24.760  1.00  0.00     0.047 C 
ENDBRANCH  39  40
ENDBRANCH  37  39
ENDBRANCH  36  37
ENDBRANCH  16  36
TORSDOF 14
ENDMDL
MODEL 5
REMARK VINA RESULT: -6.170117688      3.252      9.802
REMARK  14 active torsions:
REMARK  status: ('A' for Active; 'I' for Inactive)
REMARK    1  A    between atoms: O1_2  and  C2_3 
REMARK    2  A    between atoms: C5_6  and  N1_7 
REMARK    3  A    between atoms: N1_7  and  C6_9 
REMARK    4  A    between atoms: C6_9  and  O2_10 
REMARK    5  A    between atoms: C6_9  and  C7_12 
REMARK    6  A    between atoms: C7_12  and  C8_13 
REMARK    7  A    between atoms: C8_13  and  O3_14 
REMARK    8  A    between atoms: C8_13  and  C9_16 
REMARK    9  A    between atoms: C9_16  and  O4_17 
REMARK   10  A    between atoms: C9_16  and  C10_19 
REMARK   11  A    between atoms: C20_33  and  O9_35 
REMARK   12  A    between atoms: O9_35  and  C22_36 
REMARK   13  A    between atoms: C22_36  and  C23_38 
REMARK   14  A    between atoms: C23_38  and  C24_39 
ROOT
HETATM    1  C2  UNL     1     -34.865   9.918 -21.501  1.00  0.00     0.135 C 
HETATM    2  C3  UNL     1     -33.822   9.012 -22.177  1.00  0.00     0.035 C 
HETATM    3  C4  UNL     1     -33.389   9.413 -23.511  1.00  0.00     0.033 C 
HETATM    4  C5  UNL     1     -33.969   8.706 -24.731  1.00  0.00     0.153 C 
HETATM    5  C12 UNL     1     -35.357   9.260 -25.017  1.00  0.00     0.283 A 
HETATM    6  O6  UNL     1     -35.262  10.680 -25.282  1.00  0.00    -0.267 OA
HETATM    7  C13 UNL     1     -35.724   9.812 -26.326  1.00  0.00     0.328 A 
HETATM    8  O7  UNL     1     -36.138   9.597 -27.474  1.00  0.00    -0.259 OA
HETATM    9  O8  UNL     1     -36.380   8.863 -24.261  1.00  0.00    -0.338 OA
HETATM   10  C14 UNL     1     -36.306   8.821 -22.926  1.00  0.00     0.145 A 
HETATM   11  C15 UNL     1     -37.370   9.113 -22.057  1.00  0.00     0.033 A 
HETATM   12  C16 UNL     1     -37.635   8.896 -20.646  1.00  0.00     0.012 C 
HETATM   13  C17 UNL     1     -38.118  10.240 -20.144  1.00  0.00    -0.015 C 
HETATM   14  C18 UNL     1     -39.659  10.269 -20.214  1.00  0.00     0.010 C 
HETATM   15  C19 UNL     1     -37.608  11.426 -20.749  1.00  0.00     0.043 C 
HETATM   16  C20 UNL     1     -36.813  11.327 -22.086  1.00  0.00     0.081 C 
HETATM   17  C21 UNL     1     -37.923  11.498 -23.151  1.00  0.00     0.047 C 
HETATM   18  C27 UNL     1     -36.168  10.023 -22.144  1.00  0.00     0.050 A 
ENDROOT
BRANCH   4  19
HETATM   19  N1  UNL     1     -33.221   9.177 -25.862  1.00  0.00    -0.387 N 
ATOM     20  H1  UNL     1     -33.407  10.131 -26.174  1.00  0.00     0.156 HD
BRANCH  19  21
HETATM   21  C6  UNL     1     -32.298   8.480 -26.548  1.00  0.00     0.216 C 
BRANCH  21  22
HETATM   22  O2  UNL     1     -32.716   7.388 -27.309  1.00  0.00    -0.377 OA
ATOM     23  H2  UNL     1     -32.061   6.883 -27.777  1.00  0.00     0.212 HD
ENDBRANCH  21  22
BRANCH  21  24
HETATM   24  C7  UNL     1     -31.037   8.080 -25.774  1.00  0.00     0.087 C 
BRANCH  24  25
HETATM   25  C8  UNL     1     -30.758   6.630 -26.129  1.00  0.00     0.158 C 
BRANCH  25  26
HETATM   26  O3  UNL     1     -31.287   5.828 -25.142  1.00  0.00    -0.392 OA
ATOM     27  H3  UNL     1     -30.786   5.022 -25.107  1.00  0.00     0.210 HD
ENDBRANCH  25  26
BRANCH  25  28
HETATM   28  C9  UNL     1     -29.357   6.385 -26.520  1.00  0.00     0.215 C 
BRANCH  28  29
HETATM   29  O4  UNL     1     -28.907   7.200 -27.544  1.00  0.00    -0.385 OA
ATOM     30  H4  UNL     1     -28.547   8.028 -27.250  1.00  0.00     0.210 HD
ENDBRANCH  28  29
BRANCH  28  31
HETATM   31  C10 UNL     1     -29.245   4.949 -27.011  1.00  0.00     0.154 C 
HETATM   32  C11 UNL     1     -29.180   4.723 -28.459  1.00  0.00     0.093 C 
HETATM   33  O5  UNL     1     -29.215   4.117 -26.188  1.00  0.00    -0.295 OA
ENDBRANCH  28  31
ENDBRANCH  25  28
ENDBRANCH  24  25
ENDBRANCH  21  24
ENDBRANCH  19  21
ENDBRANCH   4  19
BRANCH   1  34
HETATM   34  O1  UNL     1     -34.851   9.613 -20.145  1.00  0.00    -0.390 OA
HETATM   35  C1  UNL     1     -33.688   9.071 -19.685  1.00  0.00     0.202 C 
ENDBRANCH   1  34
BRANCH  16  36
HETATM   36  O9  UNL     1     -36.018  12.378 -22.029  1.00  0.00    -0.306 OA
BRANCH  36  37
HETATM   37  C22 UNL     1     -35.322  13.419 -21.739  1.00  0.00     0.284 C 
HETATM   38  O10 UNL     1     -34.921  13.464 -20.558  1.00  0.00    -0.260 OA
BRANCH  37  39
HETATM   39  C23 UNL     1     -35.027  14.481 -22.739  1.00  0.00     0.088 C 
BRANCH  39  40
HETATM   40  C24 UNL     1     -34.667  14.043 -23.969  1.00  0.00    -0.066 C 
HETATM   41  C25 UNL     1     -33.432  13.451 -24.291  1.00  0.00     0.018 C 
HETATM   42  C26 UNL     1     -35.771  14.227 -24.989  1.00  0.00     0.047 C 
ENDBRANCH  39  40
ENDBRANCH  37  39
ENDBRANCH  36  37
ENDBRANCH  16  36
TORSDOF 14
ENDMDL
