MODEL 1
REMARK VINA RESULT: -6.695899877      0.000      0.000
REMARK  8 active torsions:
REMARK  status: ('A' for Active; 'I' for Inactive)
REMARK    1  A    between atoms: O1_2  and  C2_3 
REMARK    2  A    between atoms: C4_6  and  O3_7 
REMARK    3  A    between atoms: O3_7  and  C5_8 
REMARK    4  A    between atoms: C5_8  and  C6_9 
REMARK    5  A    between atoms: C6_9  and  O4_10 
REMARK    6  A    between atoms: C9_15  and  O6_16 
REMARK    7  A    between atoms: C10_19  and  O8_20 
REMARK    8  A    between atoms: C11_22  and  O9_23 
ROOT
HETATM    1  C6  UNL     1     -29.105   5.605 -30.002  1.00  0.00     0.087 C 
HETATM    2  C7  UNL     1     -29.668   6.782 -30.694  1.00  0.00     0.124 C 
HETATM    3  C8  UNL     1     -31.008   7.154 -30.016  1.00  0.00     0.192 C 
HETATM    4  O5  UNL     1     -32.035   7.187 -30.642  1.00  0.00    -0.292 OA
HETATM    5  C9  UNL     1     -30.809   7.434 -28.597  1.00  0.00     0.238 C 
HETATM    6  O7  UNL     1     -31.924   7.715 -27.848  1.00  0.00    -0.313 OA
HETATM    7  C10 UNL     1     -31.411   7.711 -26.533  1.00  0.00     0.311 C 
HETATM    8  C11 UNL     1     -30.302   6.651 -26.511  1.00  0.00     0.209 C 
HETATM    9  C12 UNL     1     -30.596   5.581 -25.591  1.00  0.00     0.104 C 
HETATM   10  N1  UNL     1     -30.846   4.713 -24.852  1.00  0.00    -0.194 NA
HETATM   11  C13 UNL     1     -30.372   6.143 -27.928  1.00  0.00     0.072 C 
HETATM   12  C14 UNL     1     -31.425   5.094 -28.042  1.00  0.00     0.026 C 
HETATM   13  C15 UNL     1     -29.034   5.760 -28.503  1.00  0.00     0.059 C 
ENDROOT
BRANCH   8  14
HETATM   14  O9  UNL     1     -29.059   7.226 -26.314  1.00  0.00    -0.370 OA
ATOM     15  H9  UNL     1     -28.395   6.567 -26.149  1.00  0.00     0.212 HD
ENDBRANCH   8  14
BRANCH   7  16
HETATM   16  O8  UNL     1     -32.372   7.303 -25.623  1.00  0.00    -0.367 OA
ATOM     17  H8  UNL     1     -32.016   6.673 -25.007  1.00  0.00     0.212 HD
ENDBRANCH   7  16
BRANCH   5  18
HETATM   18  O6  UNL     1     -29.855   8.428 -28.381  1.00  0.00    -0.359 OA
ATOM     19  H6  UNL     1     -29.487   8.393 -27.506  1.00  0.00     0.213 HD
ENDBRANCH   5  18
BRANCH   1  20
HETATM   20  C5  UNL     1     -27.835   5.068 -30.529  1.00  0.00     0.208 C 
BRANCH  20  21
HETATM   21  O3  UNL     1     -27.438   5.233 -31.786  1.00  0.00    -0.362 OA
BRANCH  21  22
HETATM   22  C4  UNL     1     -27.563   4.273 -32.733  1.00  0.00     0.265 C 
HETATM   23  C3  UNL     1     -28.909   4.370 -33.428  1.00  0.00     0.224 C 
HETATM   24  O2  UNL     1     -28.955   5.386 -34.364  1.00  0.00    -0.334 OA
HETATM   25  C2  UNL     1     -27.872   5.359 -35.226  1.00  0.00     0.434 C 
HETATM   26  O10 UNL     1     -26.735   5.635 -34.435  1.00  0.00    -0.225 OA
HETATM   27  N2  UNL     1     -26.491   4.537 -33.719  1.00  0.00    -0.061 NA
BRANCH  25  28
HETATM   28  O1  UNL     1     -27.739   4.136 -35.862  1.00  0.00    -0.343 OA
HETATM   29  C1  UNL     1     -28.450   4.105 -37.042  1.00  0.00     0.207 C 
ENDBRANCH  25  28
ENDBRANCH  21  22
ENDBRANCH  20  21
ENDBRANCH   1  20
BRANCH   1  30
HETATM   30  O4  UNL     1     -30.102   4.572 -30.187  1.00  0.00    -0.387 OA
ATOM     31  H4  UNL     1     -30.896   4.881 -29.767  1.00  0.00     0.210 HD
ENDBRANCH   1  30
TORSDOF 8
ENDMDL
MODEL 2
REMARK VINA RESULT: -6.437911514      5.338     10.782
REMARK  8 active torsions:
REMARK  status: ('A' for Active; 'I' for Inactive)
REMARK    1  A    between atoms: O1_2  and  C2_3 
REMARK    2  A    between atoms: C4_6  and  O3_7 
REMARK    3  A    between atoms: O3_7  and  C5_8 
REMARK    4  A    between atoms: C5_8  and  C6_9 
REMARK    5  A    between atoms: C6_9  and  O4_10 
REMARK    6  A    between atoms: C9_15  and  O6_16 
REMARK    7  A    between atoms: C10_19  and  O8_20 
REMARK    8  A    between atoms: C11_22  and  O9_23 
ROOT
HETATM    1  C6  UNL     1     -32.649   8.127 -23.827  1.00  0.00     0.087 C 
HETATM    2  C7  UNL     1     -31.546   7.159 -23.659  1.00  0.00     0.124 C 
HETATM    3  C8  UNL     1     -31.140   6.632 -25.056  1.00  0.00     0.192 C 
HETATM    4  O5  UNL     1     -31.179   5.458 -25.314  1.00  0.00    -0.292 OA
HETATM    5  C9  UNL     1     -30.737   7.733 -25.927  1.00  0.00     0.238 C 
HETATM    6  O7  UNL     1     -30.412   7.423 -27.223  1.00  0.00    -0.313 OA
HETATM    7  C10 UNL     1     -30.295   8.699 -27.817  1.00  0.00     0.311 C 
HETATM    8  C11 UNL     1     -31.330   9.590 -27.117  1.00  0.00     0.209 C 
HETATM    9  C12 UNL     1     -32.323  10.088 -28.037  1.00  0.00     0.104 C 
HETATM   10  N1  UNL     1     -33.129  10.478 -28.785  1.00  0.00    -0.194 NA
HETATM   11  C13 UNL     1     -31.958   8.600 -26.170  1.00  0.00     0.072 C 
HETATM   12  C14 UNL     1     -33.031   7.837 -26.868  1.00  0.00     0.026 C 
HETATM   13  C15 UNL     1     -32.366   9.198 -24.849  1.00  0.00     0.059 C 
ENDROOT
BRANCH   8  14
HETATM   14  O9  UNL     1     -30.719  10.582 -26.371  1.00  0.00    -0.370 OA
ATOM     15  H9  UNL     1     -30.576  11.367 -26.888  1.00  0.00     0.212 HD
ENDBRANCH   8  14
BRANCH   7  16
HETATM   16  O8  UNL     1     -30.641   8.661 -29.157  1.00  0.00    -0.367 OA
ATOM     17  H8  UNL     1     -30.600   9.526 -29.547  1.00  0.00     0.212 HD
ENDBRANCH   7  16
BRANCH   5  18
HETATM   18  O6  UNL     1     -29.711   8.499 -25.373  1.00  0.00    -0.359 OA
ATOM     19  H6  UNL     1     -29.176   8.920 -26.035  1.00  0.00     0.213 HD
ENDBRANCH   5  18
BRANCH   1  20
HETATM   20  C5  UNL     1     -33.208   8.719 -22.595  1.00  0.00     0.208 C 
BRANCH  20  21
HETATM   21  O3  UNL     1     -34.276   9.509 -22.585  1.00  0.00    -0.362 OA
BRANCH  21  22
HETATM   22  C4  UNL     1     -35.356   9.282 -21.800  1.00  0.00     0.265 C 
HETATM   23  C3  UNL     1     -34.979   9.338 -20.330  1.00  0.00     0.224 C 
HETATM   24  O2  UNL     1     -34.836  10.631 -19.864  1.00  0.00    -0.334 OA
HETATM   25  C2  UNL     1     -35.909  11.437 -20.207  1.00  0.00     0.434 C 
HETATM   26  O10 UNL     1     -35.884  11.545 -21.615  1.00  0.00    -0.225 OA
HETATM   27  N2  UNL     1     -36.307  10.376 -22.096  1.00  0.00    -0.061 NA
BRANCH  25  28
HETATM   28  O1  UNL     1     -37.117  10.911 -19.779  1.00  0.00    -0.343 OA
HETATM   29  C1  UNL     1     -37.611  11.608 -18.697  1.00  0.00     0.207 C 
ENDBRANCH  25  28
ENDBRANCH  21  22
ENDBRANCH  20  21
ENDBRANCH   1  20
BRANCH   1  30
HETATM   30  O4  UNL     1     -33.711   7.352 -24.434  1.00  0.00    -0.387 OA
ATOM     31  H4  UNL     1     -33.293   6.696 -24.979  1.00  0.00     0.210 HD
ENDBRANCH   1  30
TORSDOF 8
ENDMDL
MODEL 3
REMARK VINA RESULT: -6.193260055      4.796      9.727
REMARK  8 active torsions:
REMARK  status: ('A' for Active; 'I' for Inactive)
REMARK    1  A    between atoms: O1_2  and  C2_3 
REMARK    2  A    between atoms: C4_6  and  O3_7 
REMARK    3  A    between atoms: O3_7  and  C5_8 
REMARK    4  A    between atoms: C5_8  and  C6_9 
REMARK    5  A    between atoms: C6_9  and  O4_10 
REMARK    6  A    between atoms: C9_15  and  O6_16 
REMARK    7  A    between atoms: C10_19  and  O8_20 
REMARK    8  A    between atoms: C11_22  and  O9_23 
ROOT
HETATM    1  C6  UNL     1     -33.209   9.568 -25.989  1.00  0.00     0.087 C 
HETATM    2  C7  UNL     1     -32.406  10.551 -26.743  1.00  0.00     0.124 C 
HETATM    3  C8  UNL     1     -30.926  10.100 -26.714  1.00  0.00     0.192 C 
HETATM    4  O5  UNL     1     -30.066  10.811 -26.264  1.00  0.00    -0.292 OA
HETATM    5  C9  UNL     1     -30.781   8.764 -27.286  1.00  0.00     0.238 C 
HETATM    6  O7  UNL     1     -29.529   8.204 -27.267  1.00  0.00    -0.313 OA
HETATM    7  C10 UNL     1     -29.788   6.877 -27.675  1.00  0.00     0.311 C 
HETATM    8  C11 UNL     1     -31.170   6.519 -27.110  1.00  0.00     0.209 C 
HETATM    9  C12 UNL     1     -31.104   5.419 -26.182  1.00  0.00     0.104 C 
HETATM   10  N1  UNL     1     -31.043   4.535 -25.422  1.00  0.00    -0.194 NA
HETATM   11  C13 UNL     1     -31.510   7.791 -26.377  1.00  0.00     0.072 C 
HETATM   12  C14 UNL     1     -30.906   7.771 -25.014  1.00  0.00     0.026 C 
HETATM   13  C15 UNL     1     -32.974   8.140 -26.413  1.00  0.00     0.059 C 
ENDROOT
BRANCH   8  14
HETATM   14  O9  UNL     1     -32.095   6.337 -28.123  1.00  0.00    -0.370 OA
ATOM     15  H9  UNL     1     -32.843   6.914 -28.016  1.00  0.00     0.212 HD
ENDBRANCH   8  14
BRANCH   7  16
HETATM   16  O8  UNL     1     -28.884   5.994 -27.108  1.00  0.00    -0.367 OA
ATOM     17  H8  UNL     1     -28.058   5.999 -27.577  1.00  0.00     0.212 HD
ENDBRANCH   7  16
BRANCH   5  18
HETATM   18  O6  UNL     1     -31.295   8.683 -28.580  1.00  0.00    -0.359 OA
ATOM     19  H6  UNL     1     -30.619   8.529 -29.229  1.00  0.00     0.213 HD
ENDBRANCH   5  18
BRANCH   1  20
HETATM   20  C5  UNL     1     -34.654   9.843 -25.868  1.00  0.00     0.208 C 
BRANCH  20  21
HETATM   21  O3  UNL     1     -35.421   9.311 -24.921  1.00  0.00    -0.362 OA
BRANCH  21  22
HETATM   22  C4  UNL     1     -36.119  10.056 -24.032  1.00  0.00     0.265 C 
HETATM   23  C3  UNL     1     -37.008   9.177 -23.169  1.00  0.00     0.224 C 
HETATM   24  O2  UNL     1     -36.308   8.528 -22.169  1.00  0.00    -0.334 OA
HETATM   25  C2  UNL     1     -35.491   9.387 -21.453  1.00  0.00     0.434 C 
HETATM   26  O10 UNL     1     -34.508   9.841 -22.361  1.00  0.00    -0.225 OA
HETATM   27  N2  UNL     1     -35.108  10.711 -23.172  1.00  0.00    -0.061 NA
BRANCH  25  28
HETATM   28  O1  UNL     1     -36.194  10.456 -20.921  1.00  0.00    -0.343 OA
HETATM   29  C1  UNL     1     -35.742  10.773 -19.658  1.00  0.00     0.207 C 
ENDBRANCH  25  28
ENDBRANCH  21  22
ENDBRANCH  20  21
ENDBRANCH   1  20
BRANCH   1  30
HETATM   30  O4  UNL     1     -32.663   9.616 -24.649  1.00  0.00    -0.387 OA
ATOM     31  H4  UNL     1     -31.893   9.059 -24.649  1.00  0.00     0.210 HD
ENDBRANCH   1  30
TORSDOF 8
ENDMDL
MODEL 4
REMARK VINA RESULT: -6.145650441      5.669      9.261
REMARK  8 active torsions:
REMARK  status: ('A' for Active; 'I' for Inactive)
REMARK    1  A    between atoms: O1_2  and  C2_3 
REMARK    2  A    between atoms: C4_6  and  O3_7 
REMARK    3  A    between atoms: O3_7  and  C5_8 
REMARK    4  A    between atoms: C5_8  and  C6_9 
REMARK    5  A    between atoms: C6_9  and  O4_10 
REMARK    6  A    between atoms: C9_15  and  O6_16 
REMARK    7  A    between atoms: C10_19  and  O8_20 
REMARK    8  A    between atoms: C11_22  and  O9_23 
ROOT
HETATM    1  C6  UNL     1     -34.099   9.064 -23.467  1.00  0.00     0.087 C 
HETATM    2  C7  UNL     1     -34.145  10.287 -24.293  1.00  0.00     0.124 C 
HETATM    3  C8  UNL     1     -35.608  10.789 -24.343  1.00  0.00     0.192 C 
HETATM    4  O5  UNL     1     -36.187  10.920 -25.390  1.00  0.00    -0.292 OA
HETATM    5  C9  UNL     1     -36.110  11.053 -22.998  1.00  0.00     0.238 C 
HETATM    6  O7  UNL     1     -37.420  11.443 -22.880  1.00  0.00    -0.313 OA
HETATM    7  C10 UNL     1     -37.624  11.393 -21.484  1.00  0.00     0.311 C 
HETATM    8  C11 UNL     1     -36.765  10.231 -20.969  1.00  0.00     0.209 C 
HETATM    9  C12 UNL     1     -37.565   9.197 -20.360  1.00  0.00     0.104 C 
HETATM   10  N1  UNL     1     -38.219   8.359 -19.879  1.00  0.00    -0.194 NA
HETATM   11  C13 UNL     1     -36.172   9.728 -22.260  1.00  0.00     0.072 C 
HETATM   12  C14 UNL     1     -37.117   8.785 -22.922  1.00  0.00     0.026 C 
HETATM   13  C15 UNL     1     -34.763   9.215 -22.122  1.00  0.00     0.059 C 
ENDROOT
BRANCH   8  14
HETATM   14  O9  UNL     1     -35.736  10.684 -20.162  1.00  0.00    -0.370 OA
ATOM     15  H9  UNL     1     -35.188  11.311 -20.619  1.00  0.00     0.212 HD
ENDBRANCH   8  14
BRANCH   7  16
HETATM   16  O8  UNL     1     -38.939  11.083 -21.181  1.00  0.00    -0.367 OA
ATOM     17  H8  UNL     1     -39.517  11.811 -21.374  1.00  0.00     0.212 HD
ENDBRANCH   7  16
BRANCH   5  18
HETATM   18  O6  UNL     1     -35.304  11.951 -22.297  1.00  0.00    -0.359 OA
ATOM     19  H6  UNL     1     -35.342  11.813 -21.358  1.00  0.00     0.213 HD
ENDBRANCH   5  18
BRANCH   1  20
HETATM   20  C5  UNL     1     -32.786   8.404 -23.328  1.00  0.00     0.208 C 
BRANCH  20  21
HETATM   21  O3  UNL     1     -32.536   7.175 -23.768  1.00  0.00    -0.362 OA
BRANCH  21  22
HETATM   22  C4  UNL     1     -31.297   6.628 -23.769  1.00  0.00     0.265 C 
HETATM   23  C3  UNL     1     -31.367   5.129 -23.541  1.00  0.00     0.224 C 
HETATM   24  O2  UNL     1     -31.741   4.433 -24.676  1.00  0.00    -0.334 OA
HETATM   25  C2  UNL     1     -31.008   4.805 -25.789  1.00  0.00     0.434 C 
HETATM   26  O10 UNL     1     -31.347   6.151 -26.051  1.00  0.00    -0.225 OA
HETATM   27  N2  UNL     1     -30.743   6.886 -25.117  1.00  0.00    -0.061 NA
BRANCH  25  28
HETATM   28  O1  UNL     1     -29.643   4.676 -25.585  1.00  0.00    -0.343 OA
HETATM   29  C1  UNL     1     -28.963   4.592 -26.781  1.00  0.00     0.207 C 
ENDBRANCH  25  28
ENDBRANCH  21  22
ENDBRANCH  20  21
ENDBRANCH   1  20
BRANCH   1  30
HETATM   30  O4  UNL     1     -34.961   8.131 -24.165  1.00  0.00    -0.387 OA
ATOM     31  H4  UNL     1     -35.660   8.644 -24.553  1.00  0.00     0.210 HD
ENDBRANCH   1  30
TORSDOF 8
ENDMDL
MODEL 5
REMARK VINA RESULT: -6.132997242      6.421      9.974
REMARK  8 active torsions:
REMARK  status: ('A' for Active; 'I' for Inactive)
REMARK    1  A    between atoms: O1_2  and  C2_3 
REMARK    2  A    between atoms: C4_6  and  O3_7 
REMARK    3  A    between atoms: O3_7  and  C5_8 
REMARK    4  A    between atoms: C5_8  and  C6_9 
REMARK    5  A    between atoms: C6_9  and  O4_10 
REMARK    6  A    between atoms: C9_15  and  O6_16 
REMARK    7  A    between atoms: C10_19  and  O8_20 
REMARK    8  A    between atoms: C11_22  and  O9_23 
ROOT
HETATM    1  C6  UNL     1     -34.762   9.660 -22.935  1.00  0.00     0.087 C 
HETATM    2  C7  UNL     1     -34.590  11.124 -23.017  1.00  0.00     0.124 C 
HETATM    3  C8  UNL     1     -35.953  11.794 -22.722  1.00  0.00     0.192 C 
HETATM    4  O5  UNL     1     -36.472  12.528 -23.521  1.00  0.00    -0.292 OA
HETATM    5  C9  UNL     1     -36.448  11.403 -21.405  1.00  0.00     0.238 C 
HETATM    6  O7  UNL     1     -37.683  11.869 -21.033  1.00  0.00    -0.313 OA
HETATM    7  C10 UNL     1     -37.935  11.142 -19.849  1.00  0.00     0.311 C 
HETATM    8  C11 UNL     1     -37.285   9.766 -20.049  1.00  0.00     0.209 C 
HETATM    9  C12 UNL     1     -38.256   8.701 -20.010  1.00  0.00     0.104 C 
HETATM   10  N1  UNL     1     -39.048   7.845 -19.989  1.00  0.00    -0.194 NA
HETATM   11  C13 UNL     1     -36.740   9.914 -21.446  1.00  0.00     0.072 C 
HETATM   12  C14 UNL     1     -37.802   9.599 -22.443  1.00  0.00     0.026 C 
HETATM   13  C15 UNL     1     -35.434   9.197 -21.667  1.00  0.00     0.059 C 
ENDROOT
BRANCH   8  14
HETATM   14  O9  UNL     1     -36.223   9.580 -19.181  1.00  0.00    -0.370 OA
ATOM     15  H9  UNL     1     -36.292   8.751 -18.722  1.00  0.00     0.212 HD
ENDBRANCH   8  14
BRANCH   7  16
HETATM   16  O8  UNL     1     -39.291  10.922 -19.676  1.00  0.00    -0.367 OA
ATOM     17  H8  UNL     1     -39.448  10.170 -19.117  1.00  0.00     0.212 HD
ENDBRANCH   7  16
BRANCH   5  18
HETATM   18  O6  UNL     1     -35.533  11.681 -20.390  1.00  0.00    -0.359 OA
ATOM     19  H6  UNL     1     -35.390  12.614 -20.277  1.00  0.00     0.213 HD
ENDBRANCH   5  18
BRANCH   1  20
HETATM   20  C5  UNL     1     -33.574   8.833 -23.225  1.00  0.00     0.208 C 
BRANCH  20  21
HETATM   21  O3  UNL     1     -32.651   9.169 -24.120  1.00  0.00    -0.362 OA
BRANCH  21  22
HETATM   22  C4  UNL     1     -32.538   8.565 -25.327  1.00  0.00     0.265 C 
HETATM   23  C3  UNL     1     -31.501   9.265 -26.187  1.00  0.00     0.224 C 
HETATM   24  O2  UNL     1     -30.205   8.939 -25.834  1.00  0.00    -0.334 OA
HETATM   25  C2  UNL     1     -30.018   7.572 -25.718  1.00  0.00     0.434 C 
HETATM   26  O10 UNL     1     -30.815   7.158 -24.628  1.00  0.00    -0.225 OA
HETATM   27  N2  UNL     1     -32.081   7.186 -25.047  1.00  0.00    -0.061 NA
BRANCH  25  28
HETATM   28  O1  UNL     1     -30.378   6.894 -26.871  1.00  0.00    -0.343 OA
HETATM   29  C1  UNL     1     -29.677   5.714 -26.998  1.00  0.00     0.207 C 
ENDBRANCH  25  28
ENDBRANCH  21  22
ENDBRANCH  20  21
ENDBRANCH   1  20
BRANCH   1  30
HETATM   30  O4  UNL     1     -35.738   9.359 -23.962  1.00  0.00    -0.387 OA
ATOM     31  H4  UNL     1     -36.180  10.175 -24.165  1.00  0.00     0.210 HD
ENDBRANCH   1  30
TORSDOF 8
ENDMDL
