MODEL 1
REMARK VINA RESULT: -7.179037761      0.000      0.000
REMARK  10 active torsions:
REMARK  status: ('A' for Active; 'I' for Inactive)
REMARK    1  A    between atoms: C3_3  and  O1_4 
REMARK    2  A    between atoms: C4_6  and  O2_7 
REMARK    3  A    between atoms: C6_10  and  O3_11 
REMARK    4  A    between atoms: O3_11  and  C7_12 
REMARK    5  A    between atoms: C7_12  and  C8_13 
REMARK    6  A    between atoms: C8_13  and  O4_14 
REMARK    7  A    between atoms: C11_21  and  C12_22 
REMARK    8  A    between atoms: C12_22  and  C14_25 
REMARK    9  A    between atoms: C14_25  and  O7_27 
REMARK   10  A    between atoms: N3_29  and  O8_30 
ROOT
HETATM    1  C12 UNL     1     -30.338   5.702 -27.097  1.00  0.00     0.165 C 
HETATM    2  C13 UNL     1     -29.881   7.005 -26.541  1.00  0.00     0.110 C 
HETATM    3  N2  UNL     1     -29.524   8.019 -26.131  1.00  0.00    -0.191 NA
ENDROOT
BRANCH   1   4
HETATM    4  C11 UNL     1     -30.389   5.636 -28.404  1.00  0.00     0.164 A 
HETATM    5  N1  UNL     1     -29.299   5.469 -29.232  1.00  0.00    -0.332 N 
HETATM    6  C10 UNL     1     -29.624   5.437 -30.499  1.00  0.00     0.140 A 
ATOM      7  H1  UNL     1     -28.341   5.380 -28.892  1.00  0.00     0.168 HD
HETATM    8  C9  UNL     1     -28.990   5.303 -31.642  1.00  0.00     0.121 A 
HETATM    9  C16 UNL     1     -31.025   5.593 -30.491  1.00  0.00     0.303 A 
HETATM   10  C2  UNL     1     -27.596   5.137 -31.847  1.00  0.00     0.027 A 
HETATM   11  O5  UNL     1     -29.774   5.327 -32.824  1.00  0.00    -0.302 OA
HETATM   12  C1  UNL     1     -26.706   5.090 -30.904  1.00  0.00     0.029 C 
HETATM   13  C3  UNL     1     -27.049   5.000 -33.231  1.00  0.00     0.114 A 
HETATM   14  C4  UNL     1     -27.837   5.031 -34.271  1.00  0.00     0.136 A 
HETATM   15  C5  UNL     1     -29.271   5.201 -34.092  1.00  0.00     0.134 A 
HETATM   16  C6  UNL     1     -30.060   5.231 -35.169  1.00  0.00     0.174 C 
HETATM   17  N3  UNL     1     -31.427   5.707 -29.215  1.00  0.00    -0.167 N 
HETATM   18  O9  UNL     1     -31.788   5.625 -31.483  1.00  0.00    -0.263 OA
BRANCH  13  19
HETATM   19  O1  UNL     1     -25.673   4.836 -33.444  1.00  0.00    -0.357 OA
ATOM     20  H1  UNL     1     -25.333   4.681 -34.318  1.00  0.00     0.217 HD
ENDBRANCH  13  19
BRANCH  14  21
HETATM   21  O2  UNL     1     -27.331   4.905 -35.568  1.00  0.00    -0.356 OA
ATOM     22  H2  UNL     1     -26.402   4.996 -35.745  1.00  0.00     0.218 HD
ENDBRANCH  14  21
BRANCH  16  23
HETATM   23  O3  UNL     1     -29.538   5.104 -36.426  1.00  0.00    -0.358 OA
BRANCH  23  24
HETATM   24  C7  UNL     1     -30.272   4.572 -37.526  1.00  0.00     0.200 C 
BRANCH  24  25
HETATM   25  C8  UNL     1     -29.343   4.241 -38.678  1.00  0.00     0.190 C 
BRANCH  25  26
HETATM   26  O4  UNL     1     -28.109   3.841 -38.175  1.00  0.00    -0.399 OA
ATOM     27  H4  UNL     1     -27.949   4.279 -37.348  1.00  0.00     0.209 HD
ENDBRANCH  25  26
ENDBRANCH  24  25
ENDBRANCH  23  24
ENDBRANCH  16  23
BRANCH  17  28
HETATM   28  O8  UNL     1     -32.773   5.874 -28.914  1.00  0.00    -0.278 OA
ATOM     29  H8  UNL     1     -33.497   5.269 -29.028  1.00  0.00     0.245 HD
ENDBRANCH  17  28
ENDBRANCH   1   4
BRANCH   1  30
HETATM   30  C14 UNL     1     -30.656   4.709 -26.119  1.00  0.00     0.307 C 
HETATM   31  O6  UNL     1     -31.122   3.579 -26.299  1.00  0.00    -0.258 OA
BRANCH  30  32
HETATM   32  O7  UNL     1     -30.433   4.983 -24.734  1.00  0.00    -0.322 OA
HETATM   33  C15 UNL     1     -31.530   5.060 -23.848  1.00  0.00     0.213 C 
ENDBRANCH  30  32
ENDBRANCH   1  30
TORSDOF 10
ENDMDL
MODEL 2
REMARK VINA RESULT: -6.798454782      6.563     10.697
REMARK  10 active torsions:
REMARK  status: ('A' for Active; 'I' for Inactive)
REMARK    1  A    between atoms: C3_3  and  O1_4 
REMARK    2  A    between atoms: C4_6  and  O2_7 
REMARK    3  A    between atoms: C6_10  and  O3_11 
REMARK    4  A    between atoms: O3_11  and  C7_12 
REMARK    5  A    between atoms: C7_12  and  C8_13 
REMARK    6  A    between atoms: C8_13  and  O4_14 
REMARK    7  A    between atoms: C11_21  and  C12_22 
REMARK    8  A    between atoms: C12_22  and  C14_25 
REMARK    9  A    between atoms: C14_25  and  O7_27 
REMARK   10  A    between atoms: N3_29  and  O8_30 
ROOT
HETATM    1  C12 UNL     1     -36.375  11.020 -20.009  1.00  0.00     0.165 C 
HETATM    2  C13 UNL     1     -36.009  12.442 -19.765  1.00  0.00     0.110 C 
HETATM    3  N2  UNL     1     -35.707  13.537 -19.586  1.00  0.00    -0.191 NA
ENDROOT
BRANCH   1   4
HETATM    4  C11 UNL     1     -35.480  10.311 -20.651  1.00  0.00     0.164 A 
HETATM    5  N1  UNL     1     -35.293  10.322 -22.017  1.00  0.00    -0.332 N 
HETATM    6  C10 UNL     1     -34.333   9.521 -22.403  1.00  0.00     0.140 A 
ATOM      7  H1  UNL     1     -35.844  10.893 -22.657  1.00  0.00     0.168 HD
HETATM    8  C9  UNL     1     -33.779   9.179 -23.544  1.00  0.00     0.121 A 
HETATM    9  C16 UNL     1     -33.864   8.952 -21.202  1.00  0.00     0.303 A 
HETATM   10  C2  UNL     1     -34.113   9.642 -24.844  1.00  0.00     0.027 A 
HETATM   11  O5  UNL     1     -32.721   8.236 -23.494  1.00  0.00    -0.302 OA
HETATM   12  C1  UNL     1     -35.046  10.502 -25.110  1.00  0.00     0.029 C 
HETATM   13  C3  UNL     1     -33.368   9.137 -26.038  1.00  0.00     0.114 A 
HETATM   14  C4  UNL     1     -32.403   8.267 -25.909  1.00  0.00     0.136 A 
HETATM   15  C5  UNL     1     -32.039   7.774 -24.589  1.00  0.00     0.134 A 
HETATM   16  C6  UNL     1     -31.049   6.884 -24.480  1.00  0.00     0.174 C 
HETATM   17  N3  UNL     1     -34.585   9.459 -20.189  1.00  0.00    -0.167 N 
HETATM   18  O9  UNL     1     -32.941   8.117 -21.070  1.00  0.00    -0.263 OA
BRANCH  13  19
HETATM   19  O1  UNL     1     -33.689   9.588 -27.325  1.00  0.00    -0.357 OA
ATOM     20  H1  UNL     1     -33.241  10.336 -27.703  1.00  0.00     0.217 HD
ENDBRANCH  13  19
BRANCH  14  21
HETATM   21  O2  UNL     1     -31.704   7.791 -27.022  1.00  0.00    -0.356 OA
ATOM     22  H2  UNL     1     -31.743   6.876 -27.274  1.00  0.00     0.218 HD
ENDBRANCH  14  21
BRANCH  16  23
HETATM   23  O3  UNL     1     -30.382   6.436 -25.585  1.00  0.00    -0.358 OA
BRANCH  23  24
HETATM   24  C7  UNL     1     -30.250   5.054 -25.910  1.00  0.00     0.200 C 
BRANCH  24  25
HETATM   25  C8  UNL     1     -29.317   4.870 -27.092  1.00  0.00     0.190 C 
BRANCH  25  26
HETATM   26  O4  UNL     1     -29.194   6.077 -27.774  1.00  0.00    -0.399 OA
ATOM     27  H4  UNL     1     -28.357   6.101 -28.222  1.00  0.00     0.209 HD
ENDBRANCH  25  26
ENDBRANCH  24  25
ENDBRANCH  23  24
ENDBRANCH  16  23
BRANCH  17  28
HETATM   28  O8  UNL     1     -34.333   9.067 -18.880  1.00  0.00    -0.278 OA
ATOM     29  H8  UNL     1     -33.504   8.996 -18.420  1.00  0.00     0.245 HD
ENDBRANCH  17  28
ENDBRANCH   1   4
BRANCH   1  30
HETATM   30  C14 UNL     1     -37.656  10.634 -19.503  1.00  0.00     0.307 C 
HETATM   31  O6  UNL     1     -38.488  11.332 -18.914  1.00  0.00    -0.258 OA
BRANCH  30  32
HETATM   32  O7  UNL     1     -38.102   9.285 -19.661  1.00  0.00    -0.322 OA
HETATM   33  C15 UNL     1     -39.256   9.011 -20.427  1.00  0.00     0.213 C 
ENDBRANCH  30  32
ENDBRANCH   1  30
TORSDOF 10
ENDMDL
MODEL 3
REMARK VINA RESULT: -6.708870913      2.947      9.676
REMARK  10 active torsions:
REMARK  status: ('A' for Active; 'I' for Inactive)
REMARK    1  A    between atoms: C3_3  and  O1_4 
REMARK    2  A    between atoms: C4_6  and  O2_7 
REMARK    3  A    between atoms: C6_10  and  O3_11 
REMARK    4  A    between atoms: O3_11  and  C7_12 
REMARK    5  A    between atoms: C7_12  and  C8_13 
REMARK    6  A    between atoms: C8_13  and  O4_14 
REMARK    7  A    between atoms: C11_21  and  C12_22 
REMARK    8  A    between atoms: C12_22  and  C14_25 
REMARK    9  A    between atoms: C14_25  and  O7_27 
REMARK   10  A    between atoms: N3_29  and  O8_30 
ROOT
HETATM    1  C12 UNL     1     -29.775   6.043 -31.035  1.00  0.00     0.165 C 
HETATM    2  C13 UNL     1     -28.322   5.733 -30.935  1.00  0.00     0.110 C 
HETATM    3  N2  UNL     1     -27.200   5.501 -30.839  1.00  0.00    -0.191 NA
ENDROOT
BRANCH   1   4
HETATM    4  C11 UNL     1     -30.308   6.588 -29.970  1.00  0.00     0.164 A 
HETATM    5  N1  UNL     1     -30.292   6.037 -28.706  1.00  0.00    -0.332 N 
HETATM    6  C10 UNL     1     -30.896   6.786 -27.819  1.00  0.00     0.140 A 
ATOM      7  H1  UNL     1     -29.855   5.142 -28.487  1.00  0.00     0.168 HD
HETATM    8  C9  UNL     1     -31.148   6.721 -26.531  1.00  0.00     0.121 A 
HETATM    9  C16 UNL     1     -31.333   7.901 -28.560  1.00  0.00     0.303 A 
HETATM   10  C2  UNL     1     -30.790   5.686 -25.628  1.00  0.00     0.027 A 
HETATM   11  O5  UNL     1     -31.861   7.803 -25.956  1.00  0.00    -0.302 OA
HETATM   12  C1  UNL     1     -30.138   4.612 -25.948  1.00  0.00     0.029 C 
HETATM   13  C3  UNL     1     -31.165   5.784 -24.184  1.00  0.00     0.114 A 
HETATM   14  C4  UNL     1     -31.824   6.814 -23.729  1.00  0.00     0.136 A 
HETATM   15  C5  UNL     1     -32.204   7.891 -24.632  1.00  0.00     0.134 A 
HETATM   16  C6  UNL     1     -32.879   8.937 -24.146  1.00  0.00     0.174 C 
HETATM   17  N3  UNL     1     -30.955   7.730 -29.837  1.00  0.00    -0.167 N 
HETATM   18  O9  UNL     1     -31.965   8.893 -28.133  1.00  0.00    -0.263 OA
BRANCH  13  19
HETATM   19  O1  UNL     1     -30.816   4.768 -23.284  1.00  0.00    -0.357 OA
ATOM     20  H1  UNL     1     -31.479   4.187 -22.927  1.00  0.00     0.217 HD
ENDBRANCH  13  19
BRANCH  14  21
HETATM   21  O2  UNL     1     -32.178   6.910 -22.380  1.00  0.00    -0.356 OA
ATOM     22  H2  UNL     1     -31.588   7.296 -21.743  1.00  0.00     0.218 HD
ENDBRANCH  14  21
BRANCH  16  23
HETATM   23  O3  UNL     1     -33.211   9.004 -22.823  1.00  0.00    -0.358 OA
BRANCH  23  24
HETATM   24  C7  UNL     1     -34.497   9.413 -22.360  1.00  0.00     0.200 C 
BRANCH  24  25
HETATM   25  C8  UNL     1     -34.628   9.178 -20.868  1.00  0.00     0.190 C 
BRANCH  25  26
HETATM   26  O4  UNL     1     -33.474   8.558 -20.396  1.00  0.00    -0.399 OA
ATOM     27  H4  UNL     1     -33.353   8.776 -19.480  1.00  0.00     0.209 HD
ENDBRANCH  25  26
ENDBRANCH  24  25
ENDBRANCH  23  24
ENDBRANCH  16  23
BRANCH  17  28
HETATM   28  O8  UNL     1     -31.260   8.689 -30.796  1.00  0.00    -0.278 OA
ATOM     29  H8  UNL     1     -31.487   9.605 -30.683  1.00  0.00     0.245 HD
ENDBRANCH  17  28
ENDBRANCH   1   4
BRANCH   1  30
HETATM   30  C14 UNL     1     -30.379   5.700 -32.285  1.00  0.00     0.307 C 
HETATM   31  O6  UNL     1     -31.472   6.064 -32.732  1.00  0.00    -0.258 OA
BRANCH  30  32
HETATM   32  O7  UNL     1     -29.693   4.829 -33.187  1.00  0.00    -0.322 OA
HETATM   33  C15 UNL     1     -29.284   5.308 -34.451  1.00  0.00     0.213 C 
ENDBRANCH  30  32
ENDBRANCH   1  30
TORSDOF 10
ENDMDL
MODEL 4
REMARK VINA RESULT: -6.690630652      1.514      1.751
REMARK  10 active torsions:
REMARK  status: ('A' for Active; 'I' for Inactive)
REMARK    1  A    between atoms: C3_3  and  O1_4 
REMARK    2  A    between atoms: C4_6  and  O2_7 
REMARK    3  A    between atoms: C6_10  and  O3_11 
REMARK    4  A    between atoms: O3_11  and  C7_12 
REMARK    5  A    between atoms: C7_12  and  C8_13 
REMARK    6  A    between atoms: C8_13  and  O4_14 
REMARK    7  A    between atoms: C11_21  and  C12_22 
REMARK    8  A    between atoms: C12_22  and  C14_25 
REMARK    9  A    between atoms: C14_25  and  O7_27 
REMARK   10  A    between atoms: N3_29  and  O8_30 
ROOT
HETATM    1  C12 UNL     1     -30.204   5.955 -27.646  1.00  0.00     0.165 C 
HETATM    2  C13 UNL     1     -29.499   4.849 -26.939  1.00  0.00     0.110 C 
HETATM    3  N2  UNL     1     -28.952   3.986 -26.412  1.00  0.00    -0.191 NA
ENDROOT
BRANCH   1   4
HETATM    4  C11 UNL     1     -30.255   5.846 -28.950  1.00  0.00     0.164 A 
HETATM    5  N1  UNL     1     -29.179   5.558 -29.763  1.00  0.00    -0.332 N 
HETATM    6  C10 UNL     1     -29.500   5.508 -31.030  1.00  0.00     0.140 A 
ATOM      7  H1  UNL     1     -28.234   5.401 -29.413  1.00  0.00     0.168 HD
HETATM    8  C9  UNL     1     -28.875   5.280 -32.163  1.00  0.00     0.121 A 
HETATM    9  C16 UNL     1     -30.882   5.783 -31.039  1.00  0.00     0.303 A 
HETATM   10  C2  UNL     1     -27.499   4.989 -32.352  1.00  0.00     0.027 A 
HETATM   11  O5  UNL     1     -29.649   5.327 -33.351  1.00  0.00    -0.302 OA
HETATM   12  C1  UNL     1     -26.621   4.901 -31.402  1.00  0.00     0.029 C 
HETATM   13  C3  UNL     1     -26.960   4.757 -33.726  1.00  0.00     0.114 A 
HETATM   14  C4  UNL     1     -27.738   4.817 -34.772  1.00  0.00     0.136 A 
HETATM   15  C5  UNL     1     -29.153   5.114 -34.610  1.00  0.00     0.134 A 
HETATM   16  C6  UNL     1     -29.932   5.171 -35.694  1.00  0.00     0.174 C 
HETATM   17  N3  UNL     1     -31.279   5.976 -29.770  1.00  0.00    -0.167 N 
HETATM   18  O9  UNL     1     -31.636   5.843 -32.036  1.00  0.00    -0.263 OA
BRANCH  13  19
HETATM   19  O1  UNL     1     -25.602   4.468 -33.923  1.00  0.00    -0.357 OA
ATOM     20  H1  UNL     1     -24.943   5.144 -33.816  1.00  0.00     0.217 HD
ENDBRANCH  13  19
BRANCH  14  21
HETATM   21  O2  UNL     1     -27.238   4.601 -36.060  1.00  0.00    -0.356 OA
ATOM     22  H2  UNL     1     -26.456   5.045 -36.365  1.00  0.00     0.218 HD
ENDBRANCH  14  21
BRANCH  16  23
HETATM   23  O3  UNL     1     -29.417   4.955 -36.941  1.00  0.00    -0.358 OA
BRANCH  23  24
HETATM   24  C7  UNL     1     -30.226   4.684 -38.083  1.00  0.00     0.200 C 
BRANCH  24  25
HETATM   25  C8  UNL     1     -29.369   4.229 -39.249  1.00  0.00     0.190 C 
BRANCH  25  26
HETATM   26  O4  UNL     1     -28.109   3.868 -38.781  1.00  0.00    -0.399 OA
ATOM     27  H4  UNL     1     -27.799   3.111 -39.265  1.00  0.00     0.209 HD
ENDBRANCH  25  26
ENDBRANCH  24  25
ENDBRANCH  23  24
ENDBRANCH  16  23
BRANCH  17  28
HETATM   28  O8  UNL     1     -32.608   6.267 -29.485  1.00  0.00    -0.278 OA
ATOM     29  H8  UNL     1     -33.185   5.881 -28.837  1.00  0.00     0.245 HD
ENDBRANCH  17  28
ENDBRANCH   1   4
BRANCH   1  30
HETATM   30  C14 UNL     1     -30.725   6.978 -26.792  1.00  0.00     0.307 C 
HETATM   31  O6  UNL     1     -31.904   7.314 -26.634  1.00  0.00    -0.258 OA
BRANCH  30  32
HETATM   32  O7  UNL     1     -29.832   7.753 -25.990  1.00  0.00    -0.322 OA
HETATM   33  C15 UNL     1     -29.413   9.026 -26.436  1.00  0.00     0.213 C 
ENDBRANCH  30  32
ENDBRANCH   1  30
TORSDOF 10
ENDMDL
MODEL 5
REMARK VINA RESULT: -6.623288375      1.460      1.981
REMARK  10 active torsions:
REMARK  status: ('A' for Active; 'I' for Inactive)
REMARK    1  A    between atoms: C3_3  and  O1_4 
REMARK    2  A    between atoms: C4_6  and  O2_7 
REMARK    3  A    between atoms: C6_10  and  O3_11 
REMARK    4  A    between atoms: O3_11  and  C7_12 
REMARK    5  A    between atoms: C7_12  and  C8_13 
REMARK    6  A    between atoms: C8_13  and  O4_14 
REMARK    7  A    between atoms: C11_21  and  C12_22 
REMARK    8  A    between atoms: C12_22  and  C14_25 
REMARK    9  A    between atoms: C14_25  and  O7_27 
REMARK   10  A    between atoms: N3_29  and  O8_30 
ROOT
HETATM    1  C12 UNL     1     -30.153   6.571 -27.280  1.00  0.00     0.165 C 
HETATM    2  C13 UNL     1     -30.420   5.453 -26.332  1.00  0.00     0.110 C 
HETATM    3  N2  UNL     1     -30.630   4.577 -25.617  1.00  0.00    -0.191 NA
ENDROOT
BRANCH   1   4
HETATM    4  C11 UNL     1     -30.270   6.271 -28.549  1.00  0.00     0.164 A 
HETATM    5  N1  UNL     1     -29.223   5.944 -29.385  1.00  0.00    -0.332 N 
HETATM    6  C10 UNL     1     -29.612   5.688 -30.608  1.00  0.00     0.140 A 
ATOM      7  H1  UNL     1     -28.250   5.905 -29.082  1.00  0.00     0.168 HD
HETATM    8  C9  UNL     1     -29.037   5.343 -31.737  1.00  0.00     0.121 A 
HETATM    9  C16 UNL     1     -31.009   5.861 -30.561  1.00  0.00     0.303 A 
HETATM   10  C2  UNL     1     -27.655   5.125 -31.976  1.00  0.00     0.027 A 
HETATM   11  O5  UNL     1     -29.879   5.163 -32.864  1.00  0.00    -0.302 OA
HETATM   12  C1  UNL     1     -26.719   5.236 -31.085  1.00  0.00     0.029 C 
HETATM   13  C3  UNL     1     -27.178   4.733 -33.338  1.00  0.00     0.114 A 
HETATM   14  C4  UNL     1     -28.017   4.587 -34.327  1.00  0.00     0.136 A 
HETATM   15  C5  UNL     1     -29.440   4.804 -34.112  1.00  0.00     0.134 A 
HETATM   16  C6  UNL     1     -30.282   4.649 -35.138  1.00  0.00     0.174 C 
HETATM   17  N3  UNL     1     -31.347   6.208 -29.308  1.00  0.00    -0.167 N 
HETATM   18  O9  UNL     1     -31.821   5.723 -31.503  1.00  0.00    -0.263 OA
BRANCH  13  19
HETATM   19  O1  UNL     1     -25.816   4.515 -33.584  1.00  0.00    -0.357 OA
ATOM     20  H1  UNL     1     -25.158   4.808 -32.964  1.00  0.00     0.217 HD
ENDBRANCH  13  19
BRANCH  14  21
HETATM   21  O2  UNL     1     -27.577   4.222 -35.603  1.00  0.00    -0.356 OA
ATOM     22  H2  UNL     1     -28.030   4.518 -36.383  1.00  0.00     0.218 HD
ENDBRANCH  14  21
BRANCH  16  23
HETATM   23  O3  UNL     1     -29.824   4.292 -36.374  1.00  0.00    -0.358 OA
BRANCH  23  24
HETATM   24  C7  UNL     1     -30.454   4.697 -37.588  1.00  0.00     0.200 C 
BRANCH  24  25
HETATM   25  C8  UNL     1     -29.622   4.284 -38.786  1.00  0.00     0.190 C 
BRANCH  25  26
HETATM   26  O4  UNL     1     -28.365   3.869 -38.354  1.00  0.00    -0.399 OA
ATOM     27  H4  UNL     1     -28.427   3.562 -37.457  1.00  0.00     0.209 HD
ENDBRANCH  25  26
ENDBRANCH  24  25
ENDBRANCH  23  24
ENDBRANCH  16  23
BRANCH  17  28
HETATM   28  O8  UNL     1     -32.675   6.444 -28.977  1.00  0.00    -0.278 OA
ATOM     29  H8  UNL     1     -33.446   6.443 -29.534  1.00  0.00     0.245 HD
ENDBRANCH  17  28
ENDBRANCH   1   4
BRANCH   1  30
HETATM   30  C14 UNL     1     -29.809   7.813 -26.662  1.00  0.00     0.307 C 
HETATM   31  O6  UNL     1     -29.216   7.998 -25.593  1.00  0.00    -0.258 OA
BRANCH  30  32
HETATM   32  O7  UNL     1     -30.161   9.043 -27.300  1.00  0.00    -0.322 OA
HETATM   33  C15 UNL     1     -31.502   9.486 -27.280  1.00  0.00     0.213 C 
ENDBRANCH  30  32
ENDBRANCH   1  30
TORSDOF 10
ENDMDL
