MODEL 1
REMARK VINA RESULT: -6.787351967      0.000      0.000
REMARK  9 active torsions:
REMARK  status: ('A' for Active; 'I' for Inactive)
REMARK    1  A    between atoms: C3_3  and  C4_4 
REMARK    2  A    between atoms: C4_4  and  O1_5 
REMARK    3  A    between atoms: C8_13  and  C9_14 
REMARK    4  A    between atoms: C9_14  and  O5_15 
REMARK    5  A    between atoms: C9_14  and  C10_17 
REMARK    6  A    between atoms: C10_17  and  O6_18 
REMARK    7  A    between atoms: C10_17  and  C11_20 
REMARK    8  A    between atoms: C14_25  and  O9_26 
REMARK    9  A    between atoms: C17_30  and  O10_31 
ROOT
HETATM    1  C9  UNL     1     -26.520   4.616 -34.397  1.00  0.00     0.181 C 
ENDROOT
BRANCH   1   2
HETATM    2  C8  UNL     1     -27.755   5.220 -33.843  1.00  0.00     0.197 C 
HETATM    3  C6  UNL     1     -28.261   4.617 -32.579  1.00  0.00     0.147 A 
HETATM    4  C2  UNL     1     -29.384   5.327 -31.953  1.00  0.00    -0.011 A 
HETATM    5  C5  UNL     1     -27.502   4.735 -31.322  1.00  0.00     0.206 A 
HETATM    6  O3  UNL     1     -28.545   3.319 -33.016  1.00  0.00    -0.346 OA
HETATM    7  C1  UNL     1     -30.580   5.725 -32.295  1.00  0.00     0.021 C 
HETATM    8  C3  UNL     1     -28.584   5.421 -30.726  1.00  0.00     0.138 A 
HETATM    9  O2  UNL     1     -27.317   5.983 -30.789  1.00  0.00    -0.358 OA
HETATM   10  C7  UNL     1     -29.136   3.510 -34.241  1.00  0.00     0.340 C 
HETATM   11  O4  UNL     1     -28.809   4.758 -34.701  1.00  0.00    -0.356 OA
BRANCH   8  12
HETATM   12  C4  UNL     1     -29.156   5.250 -29.369  1.00  0.00     0.209 C 
BRANCH  12  13
HETATM   13  O1  UNL     1     -29.132   6.507 -28.730  1.00  0.00    -0.397 OA
ATOM     14  H1  UNL     1     -28.525   6.450 -28.000  1.00  0.00     0.209 HD
ENDBRANCH  12  13
ENDBRANCH   8  12
ENDBRANCH   1   2
BRANCH   1  15
HETATM   15  O5  UNL     1     -25.513   4.595 -33.454  1.00  0.00    -0.390 OA
ATOM     16  H5  UNL     1     -24.711   4.242 -33.820  1.00  0.00     0.210 HD
ENDBRANCH   1  15
BRANCH   1  17
HETATM   17  C10 UNL     1     -26.103   5.053 -35.766  1.00  0.00     0.181 C 
BRANCH  17  18
HETATM   18  O6  UNL     1     -27.066   4.952 -36.744  1.00  0.00    -0.390 OA
ATOM     19  H6  UNL     1     -27.828   4.429 -36.519  1.00  0.00     0.210 HD
ENDBRANCH  17  18
BRANCH  17  20
HETATM   20  C11 UNL     1     -25.494   6.461 -35.744  1.00  0.00     0.187 C 
HETATM   21  O7  UNL     1     -25.933   7.130 -36.867  1.00  0.00    -0.348 OA
HETATM   22  C12 UNL     1     -24.951   7.110 -37.826  1.00  0.00     0.289 C 
HETATM   23  O8  UNL     1     -23.879   6.395 -37.324  1.00  0.00    -0.348 OA
HETATM   24  C17 UNL     1     -24.496   8.520 -38.118  1.00  0.00     0.173 C 
HETATM   25  C13 UNL     1     -24.016   6.372 -35.947  1.00  0.00     0.185 C 
HETATM   26  C14 UNL     1     -23.248   7.467 -35.256  1.00  0.00     0.150 C 
HETATM   27  C15 UNL     1     -22.881   8.550 -36.240  1.00  0.00     0.037 C 
HETATM   28  C16 UNL     1     -24.089   9.221 -36.830  1.00  0.00     0.039 C 
BRANCH  26  29
HETATM   29  O9  UNL     1     -23.880   7.944 -34.126  1.00  0.00    -0.393 OA
ATOM     30  H9  UNL     1     -24.594   8.540 -34.321  1.00  0.00     0.210 HD
ENDBRANCH  26  29
BRANCH  24  31
HETATM   31  O10 UNL     1     -25.561   9.215 -38.658  1.00  0.00    -0.391 OA
ATOM     32  H10 UNL     1     -25.622   8.995 -39.581  1.00  0.00     0.210 HD
ENDBRANCH  24  31
ENDBRANCH  17  20
ENDBRANCH   1  17
TORSDOF 9
ENDMDL
MODEL 2
REMARK VINA RESULT: -6.783335270      7.379     11.749
REMARK  9 active torsions:
REMARK  status: ('A' for Active; 'I' for Inactive)
REMARK    1  A    between atoms: C3_3  and  C4_4 
REMARK    2  A    between atoms: C4_4  and  O1_5 
REMARK    3  A    between atoms: C8_13  and  C9_14 
REMARK    4  A    between atoms: C9_14  and  O5_15 
REMARK    5  A    between atoms: C9_14  and  C10_17 
REMARK    6  A    between atoms: C10_17  and  O6_18 
REMARK    7  A    between atoms: C10_17  and  C11_20 
REMARK    8  A    between atoms: C14_25  and  O9_26 
REMARK    9  A    between atoms: C17_30  and  O10_31 
ROOT
HETATM    1  C9  UNL     1     -32.354   8.627 -24.897  1.00  0.00     0.181 C 
ENDROOT
BRANCH   1   2
HETATM    2  C8  UNL     1     -33.228   9.710 -24.385  1.00  0.00     0.197 C 
HETATM    3  C6  UNL     1     -34.463   9.267 -23.682  1.00  0.00     0.147 A 
HETATM    4  C2  UNL     1     -35.234  10.339 -23.036  1.00  0.00    -0.011 A 
HETATM    5  C5  UNL     1     -34.393   8.559 -22.391  1.00  0.00     0.206 A 
HETATM    6  O3  UNL     1     -35.122   8.604 -24.722  1.00  0.00    -0.346 OA
HETATM    7  C1  UNL     1     -35.783  11.472 -23.384  1.00  0.00     0.021 C 
HETATM    8  C3  UNL     1     -35.131   9.595 -21.775  1.00  0.00     0.138 A 
HETATM    9  O2  UNL     1     -33.876   9.224 -21.312  1.00  0.00    -0.358 OA
HETATM   10  C7  UNL     1     -34.929   9.424 -25.806  1.00  0.00     0.340 C 
HETATM   11  O4  UNL     1     -33.866  10.251 -25.551  1.00  0.00    -0.356 OA
BRANCH   8  12
HETATM   12  C4  UNL     1     -36.244   9.487 -20.802  1.00  0.00     0.209 C 
BRANCH  12  13
HETATM   13  O1  UNL     1     -35.768   9.933 -19.552  1.00  0.00    -0.397 OA
ATOM     14  H1  UNL     1     -36.177   9.401 -18.879  1.00  0.00     0.209 HD
ENDBRANCH  12  13
ENDBRANCH   8  12
ENDBRANCH   1   2
BRANCH   1  15
HETATM   15  O5  UNL     1     -31.677   8.010 -23.865  1.00  0.00    -0.390 OA
ATOM     16  H5  UNL     1     -30.757   8.248 -23.871  1.00  0.00     0.210 HD
ENDBRANCH   1  15
BRANCH   1  17
HETATM   17  C10 UNL     1     -31.532   8.931 -26.109  1.00  0.00     0.181 C 
BRANCH  17  18
HETATM   18  O6  UNL     1     -30.269   9.421 -25.866  1.00  0.00    -0.390 OA
ATOM     19  H6  UNL     1     -30.031  10.204 -26.349  1.00  0.00     0.210 HD
ENDBRANCH  17  18
BRANCH  17  20
HETATM   20  C11 UNL     1     -31.475   7.730 -27.062  1.00  0.00     0.187 C 
HETATM   21  O7  UNL     1     -31.588   6.583 -26.306  1.00  0.00    -0.348 OA
HETATM   22  C12 UNL     1     -30.345   6.033 -26.116  1.00  0.00     0.289 C 
HETATM   23  O8  UNL     1     -29.418   6.853 -26.731  1.00  0.00    -0.348 OA
HETATM   24  C17 UNL     1     -30.287   4.669 -26.760  1.00  0.00     0.173 C 
HETATM   25  C13 UNL     1     -30.106   7.623 -27.653  1.00  0.00     0.185 C 
HETATM   26  C14 UNL     1     -30.095   7.039 -29.041  1.00  0.00     0.150 C 
HETATM   27  C15 UNL     1     -29.715   5.580 -28.991  1.00  0.00     0.037 C 
HETATM   28  C16 UNL     1     -30.707   4.756 -28.220  1.00  0.00     0.039 C 
BRANCH  26  29
HETATM   29  O9  UNL     1     -31.259   7.280 -29.740  1.00  0.00    -0.393 OA
ATOM     30  H9  UNL     1     -31.130   7.831 -30.503  1.00  0.00     0.210 HD
ENDBRANCH  26  29
BRANCH  24  31
HETATM   31  O10 UNL     1     -31.186   3.845 -26.110  1.00  0.00    -0.391 OA
ATOM     32  H10 UNL     1     -31.019   2.950 -26.382  1.00  0.00     0.210 HD
ENDBRANCH  24  31
ENDBRANCH  17  20
ENDBRANCH   1  17
TORSDOF 9
ENDMDL
MODEL 3
REMARK VINA RESULT: -6.532063035      3.703      9.678
REMARK  9 active torsions:
REMARK  status: ('A' for Active; 'I' for Inactive)
REMARK    1  A    between atoms: C3_3  and  C4_4 
REMARK    2  A    between atoms: C4_4  and  O1_5 
REMARK    3  A    between atoms: C8_13  and  C9_14 
REMARK    4  A    between atoms: C9_14  and  O5_15 
REMARK    5  A    between atoms: C9_14  and  C10_17 
REMARK    6  A    between atoms: C10_17  and  O6_18 
REMARK    7  A    between atoms: C10_17  and  C11_20 
REMARK    8  A    between atoms: C14_25  and  O9_26 
REMARK    9  A    between atoms: C17_30  and  O10_31 
ROOT
HETATM    1  C9  UNL     1     -29.984   6.033 -28.412  1.00  0.00     0.181 C 
ENDROOT
BRANCH   1   2
HETATM    2  C8  UNL     1     -29.770   5.035 -29.488  1.00  0.00     0.197 C 
HETATM    3  C6  UNL     1     -29.304   5.579 -30.793  1.00  0.00     0.147 A 
HETATM    4  C2  UNL     1     -28.937   4.570 -31.796  1.00  0.00    -0.011 A 
HETATM    5  C5  UNL     1     -27.968   6.184 -30.933  1.00  0.00     0.206 A 
HETATM    6  O3  UNL     1     -30.394   6.387 -31.133  1.00  0.00    -0.346 OA
HETATM    7  C1  UNL     1     -29.497   3.540 -32.373  1.00  0.00     0.021 C 
HETATM    8  C3  UNL     1     -27.619   5.209 -31.894  1.00  0.00     0.138 A 
HETATM    9  O2  UNL     1     -26.870   5.389 -30.739  1.00  0.00    -0.358 OA
HETATM   10  C7  UNL     1     -31.484   5.624 -30.795  1.00  0.00     0.340 C 
HETATM   11  O4  UNL     1     -31.090   4.657 -29.908  1.00  0.00    -0.356 OA
BRANCH   8  12
HETATM   12  C4  UNL     1     -26.896   5.387 -33.175  1.00  0.00     0.209 C 
BRANCH  12  13
HETATM   13  O1  UNL     1     -25.519   5.474 -32.884  1.00  0.00    -0.397 OA
ATOM     14  H1  UNL     1     -25.083   4.755 -33.326  1.00  0.00     0.209 HD
ENDBRANCH  12  13
ENDBRANCH   8  12
ENDBRANCH   1   2
BRANCH   1  15
HETATM   15  O5  UNL     1     -29.300   7.201 -28.678  1.00  0.00    -0.390 OA
ATOM     16  H5  UNL     1     -29.889   7.946 -28.682  1.00  0.00     0.210 HD
ENDBRANCH   1  15
BRANCH   1  17
HETATM   17  C10 UNL     1     -29.890   5.545 -27.002  1.00  0.00     0.181 C 
BRANCH  17  18
HETATM   18  O6  UNL     1     -28.688   5.771 -26.371  1.00  0.00    -0.390 OA
ATOM     19  H6  UNL     1     -28.733   6.273 -25.566  1.00  0.00     0.210 HD
ENDBRANCH  17  18
BRANCH  17  20
HETATM   20  C11 UNL     1     -31.057   6.062 -26.150  1.00  0.00     0.187 C 
HETATM   21  O7  UNL     1     -31.585   7.168 -26.783  1.00  0.00    -0.348 OA
HETATM   22  C12 UNL     1     -31.112   8.309 -26.184  1.00  0.00     0.289 C 
HETATM   23  O8  UNL     1     -30.246   7.932 -25.173  1.00  0.00    -0.348 OA
HETATM   24  C17 UNL     1     -32.260   9.078 -25.575  1.00  0.00     0.173 C 
HETATM   25  C13 UNL     1     -30.533   6.614 -24.864  1.00  0.00     0.185 C 
HETATM   26  C14 UNL     1     -31.493   6.469 -23.713  1.00  0.00     0.150 C 
HETATM   27  C15 UNL     1     -32.221   7.769 -23.472  1.00  0.00     0.037 C 
HETATM   28  C16 UNL     1     -33.064   8.180 -24.646  1.00  0.00     0.039 C 
BRANCH  26  29
HETATM   29  O9  UNL     1     -32.336   5.385 -23.843  1.00  0.00    -0.393 OA
ATOM     30  H9  UNL     1     -31.956   4.674 -24.346  1.00  0.00     0.210 HD
ENDBRANCH  26  29
BRANCH  24  31
HETATM   31  O10 UNL     1     -33.096   9.487 -26.596  1.00  0.00    -0.391 OA
ATOM     32  H10 UNL     1     -32.558   9.742 -27.337  1.00  0.00     0.210 HD
ENDBRANCH  24  31
ENDBRANCH  17  20
ENDBRANCH   1  17
TORSDOF 9
ENDMDL
MODEL 4
REMARK VINA RESULT: -6.472886983      7.371     11.242
REMARK  9 active torsions:
REMARK  status: ('A' for Active; 'I' for Inactive)
REMARK    1  A    between atoms: C3_3  and  C4_4 
REMARK    2  A    between atoms: C4_4  and  O1_5 
REMARK    3  A    between atoms: C8_13  and  C9_14 
REMARK    4  A    between atoms: C9_14  and  O5_15 
REMARK    5  A    between atoms: C9_14  and  C10_17 
REMARK    6  A    between atoms: C10_17  and  O6_18 
REMARK    7  A    between atoms: C10_17  and  C11_20 
REMARK    8  A    between atoms: C14_25  and  O9_26 
REMARK    9  A    between atoms: C17_30  and  O10_31 
ROOT
HETATM    1  C9  UNL     1     -33.202   9.053 -27.315  1.00  0.00     0.181 C 
ENDROOT
BRANCH   1   2
HETATM    2  C8  UNL     1     -33.356  10.010 -26.193  1.00  0.00     0.197 C 
HETATM    3  C6  UNL     1     -34.273   9.585 -25.099  1.00  0.00     0.147 A 
HETATM    4  C2  UNL     1     -34.288  10.461 -23.920  1.00  0.00    -0.011 A 
HETATM    5  C5  UNL     1     -33.942   8.443 -24.229  1.00  0.00     0.206 A 
HETATM    6  O3  UNL     1     -35.481   9.507 -25.799  1.00  0.00    -0.346 OA
HETATM    7  C1  UNL     1     -34.496  11.725 -23.664  1.00  0.00     0.021 C 
HETATM    8  C3  UNL     1     -33.955   9.291 -23.099  1.00  0.00     0.138 A 
HETATM    9  O2  UNL     1     -32.838   8.535 -23.425  1.00  0.00    -0.358 OA
HETATM   10  C7  UNL     1     -35.466  10.621 -26.601  1.00  0.00     0.340 C 
HETATM   11  O4  UNL     1     -34.175  11.065 -26.718  1.00  0.00    -0.356 OA
BRANCH   8  12
HETATM   12  C4  UNL     1     -34.542   9.043 -21.761  1.00  0.00     0.209 C 
BRANCH  12  13
HETATM   13  O1  UNL     1     -33.512   8.578 -20.918  1.00  0.00    -0.397 OA
ATOM     14  H1  UNL     1     -33.600   9.020 -20.081  1.00  0.00     0.209 HD
ENDBRANCH  12  13
ENDBRANCH   8  12
ENDBRANCH   1   2
BRANCH   1  15
HETATM   15  O5  UNL     1     -33.955   7.917 -27.102  1.00  0.00    -0.390 OA
ATOM     16  H5  UNL     1     -33.800   7.273 -27.783  1.00  0.00     0.210 HD
ENDBRANCH   1  15
BRANCH   1  17
HETATM   17  C10 UNL     1     -31.816   8.815 -27.822  1.00  0.00     0.181 C 
BRANCH  17  18
HETATM   18  O6  UNL     1     -30.822   9.543 -27.207  1.00  0.00    -0.390 OA
ATOM     19  H6  UNL     1     -30.489  10.284 -27.699  1.00  0.00     0.210 HD
ENDBRANCH  17  18
BRANCH  17  20
HETATM   20  C11 UNL     1     -31.471   7.320 -27.830  1.00  0.00     0.187 C 
HETATM   21  O7  UNL     1     -31.781   6.807 -26.588  1.00  0.00    -0.348 OA
HETATM   22  C12 UNL     1     -30.638   6.700 -25.837  1.00  0.00     0.289 C 
HETATM   23  O8  UNL     1     -29.584   7.178 -26.593  1.00  0.00    -0.348 OA
HETATM   24  C17 UNL     1     -30.378   5.249 -25.508  1.00  0.00     0.173 C 
HETATM   25  C13 UNL     1     -29.988   7.148 -27.917  1.00  0.00     0.185 C 
HETATM   26  C14 UNL     1     -29.571   5.894 -28.637  1.00  0.00     0.150 C 
HETATM   27  C15 UNL     1     -29.201   4.819 -27.645  1.00  0.00     0.037 C 
HETATM   28  C16 UNL     1     -30.362   4.414 -26.780  1.00  0.00     0.039 C 
BRANCH  26  29
HETATM   29  O9  UNL     1     -30.488   5.479 -29.580  1.00  0.00    -0.393 OA
ATOM     30  H9  UNL     1     -30.440   5.972 -30.391  1.00  0.00     0.210 HD
ENDBRANCH  26  29
BRANCH  24  31
HETATM   31  O10 UNL     1     -31.414   4.793 -24.717  1.00  0.00    -0.391 OA
ATOM     32  H10 UNL     1     -32.234   5.018 -25.142  1.00  0.00     0.210 HD
ENDBRANCH  24  31
ENDBRANCH  17  20
ENDBRANCH   1  17
TORSDOF 9
ENDMDL
MODEL 5
REMARK VINA RESULT: -6.470207994      6.244     10.347
REMARK  9 active torsions:
REMARK  status: ('A' for Active; 'I' for Inactive)
REMARK    1  A    between atoms: C3_3  and  C4_4 
REMARK    2  A    between atoms: C4_4  and  O1_5 
REMARK    3  A    between atoms: C8_13  and  C9_14 
REMARK    4  A    between atoms: C9_14  and  O5_15 
REMARK    5  A    between atoms: C9_14  and  C10_17 
REMARK    6  A    between atoms: C10_17  and  O6_18 
REMARK    7  A    between atoms: C10_17  and  C11_20 
REMARK    8  A    between atoms: C14_25  and  O9_26 
REMARK    9  A    between atoms: C17_30  and  O10_31 
ROOT
HETATM    1  C9  UNL     1     -30.234   5.652 -27.805  1.00  0.00     0.181 C 
ENDROOT
BRANCH   1   2
HETATM    2  C8  UNL     1     -30.697   6.414 -28.989  1.00  0.00     0.197 C 
HETATM    3  C6  UNL     1     -31.532   5.656 -29.962  1.00  0.00     0.147 A 
HETATM    4  C2  UNL     1     -32.122   6.462 -31.040  1.00  0.00    -0.011 A 
HETATM    5  C5  UNL     1     -32.878   5.179 -29.601  1.00  0.00     0.206 A 
HETATM    6  O3  UNL     1     -30.615   4.685 -30.376  1.00  0.00    -0.346 OA
HETATM    7  C1  UNL     1     -31.702   7.280 -31.968  1.00  0.00     0.021 C 
HETATM    8  C3  UNL     1     -33.440   5.958 -30.637  1.00  0.00     0.138 A 
HETATM    9  O2  UNL     1     -33.844   6.107 -29.318  1.00  0.00    -0.358 OA
HETATM   10  C7  UNL     1     -29.443   5.384 -30.524  1.00  0.00     0.340 C 
HETATM   11  O4  UNL     1     -29.533   6.554 -29.816  1.00  0.00    -0.356 OA
BRANCH   8  12
HETATM   12  C4  UNL     1     -34.499   5.587 -31.606  1.00  0.00     0.209 C 
BRANCH  12  13
HETATM   13  O1  UNL     1     -35.272   6.738 -31.861  1.00  0.00    -0.397 OA
ATOM     14  H1  UNL     1     -35.837   6.550 -32.601  1.00  0.00     0.209 HD
ENDBRANCH  12  13
ENDBRANCH   8  12
ENDBRANCH   1   2
BRANCH   1  15
HETATM   15  O5  UNL     1     -31.020   4.537 -27.596  1.00  0.00    -0.390 OA
ATOM     16  H5  UNL     1     -30.561   3.891 -27.072  1.00  0.00     0.210 HD
ENDBRANCH   1  15
BRANCH   1  17
HETATM   17  C10 UNL     1     -29.901   6.437 -26.576  1.00  0.00     0.181 C 
BRANCH  17  18
HETATM   18  O6  UNL     1     -29.296   7.655 -26.792  1.00  0.00    -0.390 OA
ATOM     19  H6  UNL     1     -29.881   8.402 -26.843  1.00  0.00     0.210 HD
ENDBRANCH  17  18
BRANCH  17  20
HETATM   20  C11 UNL     1     -31.123   6.591 -25.661  1.00  0.00     0.187 C 
HETATM   21  O7  UNL     1     -32.133   7.172 -26.398  1.00  0.00    -0.348 OA
HETATM   22  C12 UNL     1     -32.198   8.513 -26.111  1.00  0.00     0.289 C 
HETATM   23  O8  UNL     1     -31.198   8.803 -25.201  1.00  0.00    -0.348 OA
HETATM   24  C17 UNL     1     -33.533   8.835 -25.481  1.00  0.00     0.173 C 
HETATM   25  C13 UNL     1     -30.833   7.609 -24.605  1.00  0.00     0.185 C 
HETATM   26  C14 UNL     1     -31.551   7.349 -23.308  1.00  0.00     0.150 C 
HETATM   27  C15 UNL     1     -32.776   8.224 -23.203  1.00  0.00     0.037 C 
HETATM   28  C16 UNL     1     -33.782   7.933 -24.281  1.00  0.00     0.039 C 
BRANCH  26  29
HETATM   29  O9  UNL     1     -31.812   6.012 -23.090  1.00  0.00    -0.393 OA
ATOM     30  H9  UNL     1     -32.653   5.857 -22.676  1.00  0.00     0.210 HD
ENDBRANCH  26  29
BRANCH  24  31
HETATM   31  O10 UNL     1     -34.522   8.582 -26.411  1.00  0.00    -0.391 OA
ATOM     32  H10 UNL     1     -34.781   9.409 -26.802  1.00  0.00     0.210 HD
ENDBRANCH  24  31
ENDBRANCH  17  20
ENDBRANCH   1  17
TORSDOF 9
ENDMDL
