MODEL 1
REMARK VINA RESULT: -7.000995214      0.000      0.000
REMARK  6 active torsions:
REMARK  status: ('A' for Active; 'I' for Inactive)
REMARK    1  A    between atoms: N1_1  and  C1_4 
REMARK    2  A    between atoms: C2_7  and  N3_8 
REMARK    3  A    between atoms: N3_8  and  C3_10 
REMARK    4  A    between atoms: N6_21  and  O1_23 
REMARK    5  A    between atoms: O1_23  and  C9_24 
REMARK    6  A    between atoms: C9_24  and  C10_25 
REMARK       I    between atoms: C10_25  and  N7_27 
ROOT
HETATM    1  C1  UNL     1     -34.637   9.543 -20.483  1.00  0.00     0.705 A 
HETATM    2  N2  UNL     1     -35.275  10.242 -21.437  1.00  0.00    -0.021 N 
ATOM      3  H2  UNL     1     -35.955  10.954 -21.170  1.00  0.00     0.203 HD
HETATM    4  C2  UNL     1     -35.031  10.015 -22.739  1.00  0.00     0.711 A 
HETATM    5  N5  UNL     1     -34.096   9.050 -23.037  1.00  0.00    -0.019 N 
ATOM      6  H5  UNL     1     -33.903   8.874 -24.023  1.00  0.00     0.203 HD
HETATM    7  C8  UNL     1     -33.453   8.360 -22.184  1.00  0.00     0.731 A 
HETATM    8  N6  UNL     1     -32.436   7.617 -22.101  1.00  0.00    -0.095 N 
ATOM      9  H6  UNL     1     -32.418   7.329 -21.123  1.00  0.00     0.213 HD
HETATM   10  N8  UNL     1     -33.766   8.643 -20.783  1.00  0.00    -0.020 N 
ATOM     11  H8  UNL     1     -33.292   8.126 -20.042  1.00  0.00     0.203 HD
ENDROOT
BRANCH   8  12
HETATM   12  O1  UNL     1     -31.411   7.036 -22.616  1.00  0.00    -0.257 OA
BRANCH  12  13
HETATM   13  C9  UNL     1     -31.588   6.572 -23.999  1.00  0.00     0.304 C 
BRANCH  13  14
HETATM   14  C10 UNL     1     -31.258   7.568 -25.040  1.00  0.00     0.250 C 
HETATM   15  O2  UNL     1     -31.624   8.771 -24.715  1.00  0.00    -0.271 OA
HETATM   16  N7  UNL     1     -30.626   7.384 -26.247  1.00  0.00    -0.287 N 
HETATM   17  C11 UNL     1     -30.396   6.163 -26.932  1.00  0.00     0.157 C 
HETATM   18  C14 UNL     1     -30.014   8.552 -26.941  1.00  0.00     0.332 A 
HETATM   19  C12 UNL     1     -29.629   6.279 -28.196  1.00  0.00     0.188 C 
HETATM   20  O3  UNL     1     -29.897   7.351 -29.010  1.00  0.00    -0.382 OA
HETATM   21  C13 UNL     1     -30.486   8.422 -28.375  1.00  0.00     0.267 C 
HETATM   22  O4  UNL     1     -29.139   9.379 -26.469  1.00  0.00    -0.168 OA
HETATM   23  O5  UNL     1     -30.416   9.771 -26.344  1.00  0.00    -0.168 OA
ENDBRANCH  13  14
ENDBRANCH  12  13
ENDBRANCH   8  12
BRANCH   4  24
HETATM   24  N3  UNL     1     -35.688  10.750 -23.707  1.00  0.00    -0.198 N 
ATOM     25  H3  UNL     1     -36.689  10.566 -23.661  1.00  0.00     0.183 HD
BRANCH  24  26
HETATM   26  C3  UNL     1     -35.422  11.662 -24.727  1.00  0.00     0.007 C 
HETATM   27  C4  UNL     1     -34.272  12.535 -24.821  1.00  0.00     0.080 C 
HETATM   28  C5  UNL     1     -33.073  12.021 -25.602  1.00  0.00     0.238 C 
HETATM   29  N4  UNL     1     -33.225  10.694 -26.107  1.00  0.00    -0.074 N 
HETATM   30  C6  UNL     1     -34.479  10.489 -26.767  1.00  0.00     0.238 C 
ATOM     31  H42 UNL     1     -32.446  10.445 -26.717  1.00  0.00     0.277 HD
ATOM     32  H41 UNL     1     -33.085  10.005 -25.369  1.00  0.00     0.277 HD
HETATM   33  C7  UNL     1     -35.677  11.078 -26.109  1.00  0.00     0.080 C 
ENDBRANCH  24  26
ENDBRANCH   4  24
BRANCH   1  34
HETATM   34  N1  UNL     1     -34.845   9.832 -19.219  1.00  0.00    -0.234 N 
ATOM     35  H12 UNL     1     -34.947  10.809 -18.945  1.00  0.00     0.174 HD
ATOM     36  H11 UNL     1     -34.960   9.078 -18.542  1.00  0.00     0.174 HD
ENDBRANCH   1  34
TORSDOF 6
ENDMDL
MODEL 2
REMARK VINA RESULT: -6.678461351      5.012      8.458
REMARK  6 active torsions:
REMARK  status: ('A' for Active; 'I' for Inactive)
REMARK    1  A    between atoms: N1_1  and  C1_4 
REMARK    2  A    between atoms: C2_7  and  N3_8 
REMARK    3  A    between atoms: N3_8  and  C3_10 
REMARK    4  A    between atoms: N6_21  and  O1_23 
REMARK    5  A    between atoms: O1_23  and  C9_24 
REMARK    6  A    between atoms: C9_24  and  C10_25 
REMARK       I    between atoms: C10_25  and  N7_27 
ROOT
HETATM    1  C1  UNL     1     -31.505   5.719 -29.701  1.00  0.00     0.705 A 
HETATM    2  N2  UNL     1     -31.551   5.950 -28.378  1.00  0.00    -0.021 N 
ATOM      3  H2  UNL     1     -32.435   5.849 -27.880  1.00  0.00     0.203 HD
HETATM    4  C2  UNL     1     -30.447   6.311 -27.702  1.00  0.00     0.711 A 
HETATM    5  N5  UNL     1     -29.282   6.419 -28.427  1.00  0.00    -0.019 N 
ATOM      6  H5  UNL     1     -28.439   6.690 -27.920  1.00  0.00     0.203 HD
HETATM    7  C8  UNL     1     -29.170   6.208 -29.676  1.00  0.00     0.731 A 
HETATM    8  N6  UNL     1     -28.285   6.001 -30.553  1.00  0.00    -0.095 N 
ATOM      9  H6  UNL     1     -28.813   5.904 -31.420  1.00  0.00     0.213 HD
HETATM   10  N8  UNL     1     -30.404   5.826 -30.362  1.00  0.00    -0.020 N 
ATOM     11  H8  UNL     1     -30.394   5.644 -31.366  1.00  0.00     0.203 HD
ENDROOT
BRANCH   8  12
HETATM   12  O1  UNL     1     -27.061   5.849 -30.914  1.00  0.00    -0.257 OA
BRANCH  12  13
HETATM   13  C9  UNL     1     -26.820   4.734 -31.842  1.00  0.00     0.304 C 
BRANCH  13  14
HETATM   14  C10 UNL     1     -27.803   4.609 -32.939  1.00  0.00     0.250 C 
HETATM   15  O2  UNL     1     -28.918   4.067 -32.552  1.00  0.00    -0.271 OA
HETATM   16  N7  UNL     1     -27.689   4.995 -34.253  1.00  0.00    -0.287 N 
HETATM   17  C11 UNL     1     -26.508   5.337 -34.961  1.00  0.00     0.157 C 
HETATM   18  C14 UNL     1     -28.919   5.176 -35.075  1.00  0.00     0.332 A 
HETATM   19  C12 UNL     1     -26.712   5.773 -36.364  1.00  0.00     0.188 C 
HETATM   20  O3  UNL     1     -27.655   5.111 -37.108  1.00  0.00    -0.382 OA
HETATM   21  C13 UNL     1     -28.611   4.450 -36.369  1.00  0.00     0.267 C 
HETATM   22  O4  UNL     1     -29.938   5.927 -34.814  1.00  0.00    -0.168 OA
HETATM   23  O5  UNL     1     -30.058   4.652 -34.415  1.00  0.00    -0.168 OA
ENDBRANCH  13  14
ENDBRANCH  12  13
ENDBRANCH   8  12
BRANCH   4  24
HETATM   24  N3  UNL     1     -30.508   6.533 -26.340  1.00  0.00    -0.198 N 
ATOM     25  H3  UNL     1     -30.428   5.648 -25.841  1.00  0.00     0.183 HD
BRANCH  24  26
HETATM   26  C3  UNL     1     -30.644   7.578 -25.428  1.00  0.00     0.007 C 
HETATM   27  C4  UNL     1     -31.234   8.874 -25.686  1.00  0.00     0.080 C 
HETATM   28  C5  UNL     1     -32.715   9.035 -25.384  1.00  0.00     0.238 C 
HETATM   29  N4  UNL     1     -33.354   7.844 -24.923  1.00  0.00    -0.074 N 
HETATM   30  C6  UNL     1     -32.619   7.182 -23.887  1.00  0.00     0.238 C 
ATOM     31  H42 UNL     1     -34.311   8.036 -24.626  1.00  0.00     0.277 HD
ATOM     32  H41 UNL     1     -33.545   7.209 -25.698  1.00  0.00     0.277 HD
HETATM   33  C7  UNL     1     -31.145   7.102 -24.071  1.00  0.00     0.080 C 
ENDBRANCH  24  26
ENDBRANCH   4  24
BRANCH   1  34
HETATM   34  N1  UNL     1     -32.584   5.302 -30.324  1.00  0.00    -0.234 N 
ATOM     35  H12 UNL     1     -32.964   4.385 -30.093  1.00  0.00     0.174 HD
ATOM     36  H11 UNL     1     -33.056   5.921 -30.983  1.00  0.00     0.174 HD
ENDBRANCH   1  34
TORSDOF 6
ENDMDL
MODEL 3
REMARK VINA RESULT: -6.642099773      5.577     10.430
REMARK  6 active torsions:
REMARK  status: ('A' for Active; 'I' for Inactive)
REMARK    1  A    between atoms: N1_1  and  C1_4 
REMARK    2  A    between atoms: C2_7  and  N3_8 
REMARK    3  A    between atoms: N3_8  and  C3_10 
REMARK    4  A    between atoms: N6_21  and  O1_23 
REMARK    5  A    between atoms: O1_23  and  C9_24 
REMARK    6  A    between atoms: C9_24  and  C10_25 
REMARK       I    between atoms: C10_25  and  N7_27 
ROOT
HETATM    1  C1  UNL     1     -29.760   5.342 -32.537  1.00  0.00     0.705 A 
HETATM    2  N2  UNL     1     -28.580   5.270 -33.175  1.00  0.00    -0.021 N 
ATOM      3  H2  UNL     1     -28.550   5.368 -34.189  1.00  0.00     0.203 HD
HETATM    4  C2  UNL     1     -27.439   5.069 -32.494  1.00  0.00     0.711 A 
HETATM    5  N5  UNL     1     -27.543   4.956 -31.126  1.00  0.00    -0.019 N 
ATOM      6  H5  UNL     1     -26.681   4.806 -30.602  1.00  0.00     0.203 HD
HETATM    7  C8  UNL     1     -28.626   5.022 -30.463  1.00  0.00     0.731 A 
HETATM    8  N6  UNL     1     -29.033   5.182 -29.278  1.00  0.00    -0.095 N 
ATOM      9  H6  UNL     1     -30.049   5.137 -29.358  1.00  0.00     0.213 HD
HETATM   10  N8  UNL     1     -29.837   5.232 -31.256  1.00  0.00    -0.020 N 
ATOM     11  H8  UNL     1     -30.744   5.292 -30.793  1.00  0.00     0.203 HD
ENDROOT
BRANCH   8  12
HETATM   12  O1  UNL     1     -28.826   5.373 -28.025  1.00  0.00    -0.257 OA
BRANCH  12  13
HETATM   13  C9  UNL     1     -29.503   4.422 -27.130  1.00  0.00     0.304 C 
BRANCH  13  14
HETATM   14  C10 UNL     1     -30.423   5.034 -26.148  1.00  0.00     0.250 C 
HETATM   15  O2  UNL     1     -31.169   4.157 -25.548  1.00  0.00    -0.271 OA
HETATM   16  N7  UNL     1     -30.564   6.356 -25.800  1.00  0.00    -0.287 N 
HETATM   17  C11 UNL     1     -30.083   7.496 -26.494  1.00  0.00     0.157 C 
HETATM   18  C14 UNL     1     -31.222   6.709 -24.510  1.00  0.00     0.332 A 
HETATM   19  C12 UNL     1     -30.343   8.798 -25.834  1.00  0.00     0.188 C 
HETATM   20  O3  UNL     1     -31.558   8.972 -25.220  1.00  0.00    -0.382 OA
HETATM   21  C13 UNL     1     -32.203   7.803 -24.881  1.00  0.00     0.267 C 
HETATM   22  O4  UNL     1     -30.902   6.304 -23.325  1.00  0.00    -0.168 OA
HETATM   23  O5  UNL     1     -31.856   5.583 -23.933  1.00  0.00    -0.168 OA
ENDBRANCH  13  14
ENDBRANCH  12  13
ENDBRANCH   8  12
BRANCH   4  24
HETATM   24  N3  UNL     1     -26.232   5.009 -33.164  1.00  0.00    -0.198 N 
ATOM     25  H3  UNL     1     -25.487   5.369 -32.567  1.00  0.00     0.183 HD
BRANCH  24  26
HETATM   26  C3  UNL     1     -25.704   4.615 -34.392  1.00  0.00     0.007 C 
HETATM   27  C4  UNL     1     -26.349   4.730 -35.682  1.00  0.00     0.080 C 
HETATM   28  C5  UNL     1     -26.067   5.987 -36.489  1.00  0.00     0.238 C 
HETATM   29  N4  UNL     1     -25.224   6.932 -35.830  1.00  0.00    -0.074 N 
HETATM   30  C6  UNL     1     -24.054   6.334 -35.260  1.00  0.00     0.238 C 
ATOM     31  H42 UNL     1     -24.973   7.697 -36.458  1.00  0.00     0.277 HD
ATOM     32  H41 UNL     1     -25.744   7.458 -35.128  1.00  0.00     0.277 HD
HETATM   33  C7  UNL     1     -24.251   5.035 -34.560  1.00  0.00     0.080 C 
ENDBRANCH  24  26
ENDBRANCH   4  24
BRANCH   1  34
HETATM   34  N1  UNL     1     -30.851   5.606 -33.220  1.00  0.00    -0.234 N 
ATOM     35  H12 UNL     1     -30.941   5.242 -34.168  1.00  0.00     0.174 HD
ATOM     36  H11 UNL     1     -31.613   6.118 -32.774  1.00  0.00     0.174 HD
ENDBRANCH   1  34
TORSDOF 6
ENDMDL
MODEL 4
REMARK VINA RESULT: -6.622711494      6.640     11.468
REMARK  6 active torsions:
REMARK  status: ('A' for Active; 'I' for Inactive)
REMARK    1  A    between atoms: N1_1  and  C1_4 
REMARK    2  A    between atoms: C2_7  and  N3_8 
REMARK    3  A    between atoms: N3_8  and  C3_10 
REMARK    4  A    between atoms: N6_21  and  O1_23 
REMARK    5  A    between atoms: O1_23  and  C9_24 
REMARK    6  A    between atoms: C9_24  and  C10_25 
REMARK       I    between atoms: C10_25  and  N7_27 
ROOT
HETATM    1  C1  UNL     1     -28.419   4.192 -34.346  1.00  0.00     0.705 A 
HETATM    2  N2  UNL     1     -27.212   4.652 -34.715  1.00  0.00    -0.021 N 
ATOM      3  H2  UNL     1     -26.934   4.606 -35.695  1.00  0.00     0.203 HD
HETATM    4  C2  UNL     1     -26.365   5.173 -33.811  1.00  0.00     0.711 A 
HETATM    5  N5  UNL     1     -26.801   5.218 -32.506  1.00  0.00    -0.019 N 
ATOM      6  H5  UNL     1     -26.165   5.615 -31.813  1.00  0.00     0.203 HD
HETATM    7  C8  UNL     1     -27.931   4.808 -32.093  1.00  0.00     0.731 A 
HETATM    8  N6  UNL     1     -28.694   4.901 -31.090  1.00  0.00    -0.095 N 
ATOM      9  H6  UNL     1     -29.499   4.325 -31.337  1.00  0.00     0.213 HD
HETATM   10  N8  UNL     1     -28.808   4.244 -33.119  1.00  0.00    -0.020 N 
ATOM     11  H8  UNL     1     -29.730   3.890 -32.862  1.00  0.00     0.203 HD
ENDROOT
BRANCH   8  12
HETATM   12  O1  UNL     1     -28.978   5.349 -29.920  1.00  0.00    -0.257 OA
BRANCH  12  13
HETATM   13  C9  UNL     1     -30.414   5.447 -29.622  1.00  0.00     0.304 C 
BRANCH  13  14
HETATM   14  C10 UNL     1     -30.761   5.381 -28.187  1.00  0.00     0.250 C 
HETATM   15  O2  UNL     1     -31.458   4.326 -27.889  1.00  0.00    -0.271 OA
HETATM   16  N7  UNL     1     -30.437   6.253 -27.175  1.00  0.00    -0.287 N 
HETATM   17  C11 UNL     1     -29.945   7.579 -27.293  1.00  0.00     0.157 C 
HETATM   18  C14 UNL     1     -30.509   5.794 -25.760  1.00  0.00     0.332 A 
HETATM   19  C12 UNL     1     -29.629   8.254 -26.012  1.00  0.00     0.188 C 
HETATM   20  O3  UNL     1     -30.478   8.050 -24.954  1.00  0.00    -0.382 OA
HETATM   21  C13 UNL     1     -31.245   6.909 -25.045  1.00  0.00     0.267 C 
HETATM   22  O4  UNL     1     -29.922   4.771 -25.232  1.00  0.00    -0.168 OA
HETATM   23  O5  UNL     1     -31.175   4.549 -25.657  1.00  0.00    -0.168 OA
ENDBRANCH  13  14
ENDBRANCH  12  13
ENDBRANCH   8  12
BRANCH   4  24
HETATM   24  N3  UNL     1     -25.132   5.652 -34.209  1.00  0.00    -0.198 N 
ATOM     25  H3  UNL     1     -24.570   5.883 -33.389  1.00  0.00     0.183 HD
BRANCH  24  26
HETATM   26  C3  UNL     1     -24.408   5.921 -35.368  1.00  0.00     0.007 C 
HETATM   27  C4  UNL     1     -24.906   6.572 -36.561  1.00  0.00     0.080 C 
HETATM   28  C5  UNL     1     -24.726   8.079 -36.655  1.00  0.00     0.238 C 
HETATM   29  N4  UNL     1     -24.122   8.672 -35.506  1.00  0.00    -0.074 N 
HETATM   30  C6  UNL     1     -22.950   7.974 -35.068  1.00  0.00     0.238 C 
ATOM     31  H42 UNL     1     -23.919   9.658 -35.669  1.00  0.00     0.277 HD
ATOM     32  H41 UNL     1     -24.796   8.764 -34.746  1.00  0.00     0.277 HD
HETATM   33  C7  UNL     1     -23.027   6.487 -35.071  1.00  0.00     0.080 C 
ENDBRANCH  24  26
ENDBRANCH   4  24
BRANCH   1  34
HETATM   34  N1  UNL     1     -29.253   3.752 -35.260  1.00  0.00    -0.234 N 
ATOM     35  H12 UNL     1     -29.411   4.313 -36.097  1.00  0.00     0.174 HD
ATOM     36  H11 UNL     1     -29.682   2.834 -35.150  1.00  0.00     0.174 HD
ENDBRANCH   1  34
TORSDOF 6
ENDMDL
MODEL 5
REMARK VINA RESULT: -6.593538942      5.595     10.127
REMARK  6 active torsions:
REMARK  status: ('A' for Active; 'I' for Inactive)
REMARK    1  A    between atoms: N1_1  and  C1_4 
REMARK    2  A    between atoms: C2_7  and  N3_8 
REMARK    3  A    between atoms: N3_8  and  C3_10 
REMARK    4  A    between atoms: N6_21  and  O1_23 
REMARK    5  A    between atoms: O1_23  and  C9_24 
REMARK    6  A    between atoms: C9_24  and  C10_25 
REMARK       I    between atoms: C10_25  and  N7_27 
ROOT
HETATM    1  C1  UNL     1     -27.207   5.155 -31.702  1.00  0.00     0.705 A 
HETATM    2  N2  UNL     1     -27.872   5.061 -32.865  1.00  0.00    -0.021 N 
ATOM      3  H2  UNL     1     -27.350   5.006 -33.740  1.00  0.00     0.203 HD
HETATM    4  C2  UNL     1     -29.215   5.036 -32.893  1.00  0.00     0.711 A 
HETATM    5  N5  UNL     1     -29.863   5.101 -31.680  1.00  0.00    -0.019 N 
ATOM      6  H5  UNL     1     -30.883   5.081 -31.692  1.00  0.00     0.203 HD
HETATM    7  C8  UNL     1     -29.295   5.185 -30.546  1.00  0.00     0.731 A 
HETATM    8  N6  UNL     1     -29.547   5.038 -29.317  1.00  0.00    -0.095 N 
ATOM      9  H6  UNL     1     -28.664   5.255 -28.855  1.00  0.00     0.213 HD
HETATM   10  N8  UNL     1     -27.832   5.216 -30.577  1.00  0.00    -0.020 N 
ATOM     11  H8  UNL     1     -27.306   5.285 -29.706  1.00  0.00     0.203 HD
ENDROOT
BRANCH   8  12
HETATM   12  O1  UNL     1     -30.345   4.757 -28.350  1.00  0.00    -0.257 OA
BRANCH  12  13
HETATM   13  C9  UNL     1     -29.715   4.690 -27.023  1.00  0.00     0.304 C 
BRANCH  13  14
HETATM   14  C10 UNL     1     -30.542   5.206 -25.912  1.00  0.00     0.250 C 
HETATM   15  O2  UNL     1     -31.026   4.259 -25.167  1.00  0.00    -0.271 OA
HETATM   16  N7  UNL     1     -30.832   6.508 -25.579  1.00  0.00    -0.287 N 
HETATM   17  C11 UNL     1     -30.663   7.669 -26.378  1.00  0.00     0.157 C 
HETATM   18  C14 UNL     1     -31.311   6.825 -24.205  1.00  0.00     0.332 A 
HETATM   19  C12 UNL     1     -31.014   8.950 -25.717  1.00  0.00     0.188 C 
HETATM   20  O3  UNL     1     -32.119   8.969 -24.905  1.00  0.00    -0.382 OA
HETATM   21  C13 UNL     1     -32.502   7.735 -24.427  1.00  0.00     0.267 C 
HETATM   22  O4  UNL     1     -30.735   6.538 -23.084  1.00  0.00    -0.168 OA
HETATM   23  O5  UNL     1     -31.651   5.648 -23.495  1.00  0.00    -0.168 OA
ENDBRANCH  13  14
ENDBRANCH  12  13
ENDBRANCH   8  12
BRANCH   4  24
HETATM   24  N3  UNL     1     -29.884   4.927 -34.097  1.00  0.00    -0.198 N 
ATOM     25  H3  UNL     1     -30.442   5.765 -34.260  1.00  0.00     0.183 HD
BRANCH  24  26
HETATM   26  C3  UNL     1     -30.041   4.042 -35.161  1.00  0.00     0.007 C 
HETATM   27  C4  UNL     1     -31.169   3.976 -36.065  1.00  0.00     0.080 C 
HETATM   28  C5  UNL     1     -31.074   4.779 -37.353  1.00  0.00     0.238 C 
HETATM   29  N4  UNL     1     -29.878   5.549 -37.479  1.00  0.00    -0.074 N 
HETATM   30  C6  UNL     1     -28.697   4.798 -37.174  1.00  0.00     0.238 C 
ATOM     31  H42 UNL     1     -29.813   5.971 -38.406  1.00  0.00     0.277 HD
ATOM     32  H41 UNL     1     -29.929   6.395 -36.914  1.00  0.00     0.277 HD
HETATM   33  C7  UNL     1     -28.773   3.899 -35.991  1.00  0.00     0.080 C 
ENDBRANCH  24  26
ENDBRANCH   4  24
BRANCH   1  34
HETATM   34  N1  UNL     1     -25.894   5.108 -31.699  1.00  0.00    -0.234 N 
ATOM     35  H12 UNL     1     -25.380   5.623 -32.414  1.00  0.00     0.174 HD
ATOM     36  H11 UNL     1     -25.410   4.609 -30.953  1.00  0.00     0.174 HD
ENDBRANCH   1  34
TORSDOF 6
ENDMDL
