MODEL 1
REMARK VINA RESULT: -7.310197117      0.000      0.000
REMARK  8 active torsions:
REMARK  status: ('A' for Active; 'I' for Inactive)
REMARK    1  A    between atoms: N1_1  and  C1_4 
REMARK    2  A    between atoms: C2_7  and  N3_8 
REMARK    3  A    between atoms: N4_11  and  C5_12 
REMARK    4  A    between atoms: C6_15  and  N6_16 
REMARK    5  A    between atoms: C11_26  and  N9_27 
REMARK    6  A    between atoms: N9_27  and  C12_29 
REMARK    7  A    between atoms: C12_29  and  C13_30 
REMARK    8  A    between atoms: C13_30  and  O1_31 
ROOT
HETATM    1  C5  UNL     1     -28.789   5.058 -32.099  1.00  0.00     0.710 A 
HETATM    2  N5  UNL     1     -29.496   4.850 -33.251  1.00  0.00    -0.021 N 
ATOM      3  H5  UNL     1     -30.510   4.761 -33.191  1.00  0.00     0.203 HD
HETATM    4  C6  UNL     1     -28.915   4.758 -34.457  1.00  0.00     0.709 A 
HETATM    5  N8  UNL     1     -27.586   4.879 -34.491  1.00  0.00    -0.021 N 
ATOM      6  H8  UNL     1     -27.116   4.813 -35.393  1.00  0.00     0.203 HD
HETATM    7  C11 UNL     1     -26.835   5.084 -33.390  1.00  0.00     0.707 A 
HETATM    8  N10 UNL     1     -27.456   5.171 -32.204  1.00  0.00    -0.021 N 
ATOM      9  H10 UNL     1     -26.902   5.326 -31.362  1.00  0.00     0.203 HD
ENDROOT
BRANCH   1  10
HETATM   10  N4  UNL     1     -29.443   5.150 -30.850  1.00  0.00    -0.198 N 
HETATM   11  C4  UNL     1     -30.700   4.541 -30.511  1.00  0.00     0.163 C 
HETATM   12  C3  UNL     1     -31.333   5.635 -29.635  1.00  0.00     0.163 C 
HETATM   13  N3  UNL     1     -30.180   6.076 -28.874  1.00  0.00    -0.199 N 
HETATM   14  C14 UNL     1     -28.989   5.859 -29.674  1.00  0.00     0.286 C 
BRANCH  13  15
HETATM   15  C2  UNL     1     -30.226   6.626 -27.566  1.00  0.00     0.697 A 
HETATM   16  N2  UNL     1     -30.922   6.067 -26.563  1.00  0.00    -0.022 N 
HETATM   17  C1  UNL     1     -30.961   6.597 -25.323  1.00  0.00     0.691 A 
ATOM     18  H2  UNL     1     -31.443   5.209 -26.746  1.00  0.00     0.203 HD
HETATM   19  N12 UNL     1     -30.285   7.723 -25.055  1.00  0.00    -0.187 N 
HETATM   20  C15 UNL     1     -29.583   8.300 -26.035  1.00  0.00     0.215 A 
ATOM     21  H12 UNL     1     -30.306   8.131 -24.121  1.00  0.00     0.185 HD
HETATM   22  N11 UNL     1     -29.555   7.756 -27.276  1.00  0.00    -0.187 N 
ATOM     23  H11 UNL     1     -29.013   8.215 -28.008  1.00  0.00     0.185 HD
BRANCH  17  24
HETATM   24  N1  UNL     1     -31.634   6.053 -24.361  1.00  0.00    -0.234 N 
ATOM     25  H12 UNL     1     -31.198   5.286 -23.848  1.00  0.00     0.174 HD
ATOM     26  H11 UNL     1     -32.572   6.366 -24.107  1.00  0.00     0.174 HD
ENDBRANCH  17  24
ENDBRANCH  13  15
ENDBRANCH   1  10
BRANCH   4  27
HETATM   27  N6  UNL     1     -29.708   4.541 -35.624  1.00  0.00    -0.213 N 
HETATM   28  C7  UNL     1     -31.140   4.488 -35.606  1.00  0.00     0.168 C 
HETATM   29  C8  UNL     1     -31.597   3.948 -36.943  1.00  0.00     0.252 C 
HETATM   30  N7  UNL     1     -31.137   4.717 -38.057  1.00  0.00    -0.072 N 
HETATM   31  C9  UNL     1     -29.807   5.255 -37.893  1.00  0.00     0.252 C 
ATOM     32  H72 UNL     1     -31.200   4.172 -38.917  1.00  0.00     0.277 HD
ATOM     33  H71 UNL     1     -31.800   5.461 -38.276  1.00  0.00     0.277 HD
HETATM   34  C10 UNL     1     -29.052   4.363 -36.907  1.00  0.00     0.168 C 
ENDBRANCH   4  27
BRANCH   7  35
HETATM   35  N9  UNL     1     -25.563   5.198 -33.428  1.00  0.00    -0.223 N 
ATOM     36  H9  UNL     1     -25.067   5.577 -32.621  1.00  0.00     0.177 HD
BRANCH  35  37
HETATM   37  C12 UNL     1     -24.821   4.798 -34.593  1.00  0.00     0.164 C 
BRANCH  37  38
HETATM   38  C13 UNL     1     -24.171   6.036 -35.189  1.00  0.00     0.184 C 
BRANCH  38  39
HETATM   39  O1  UNL     1     -22.803   6.008 -34.889  1.00  0.00    -0.399 OA
ATOM     40  H1  UNL     1     -22.377   5.404 -35.486  1.00  0.00     0.209 HD
ENDBRANCH  38  39
ENDBRANCH  37  38
ENDBRANCH  35  37
ENDBRANCH   7  35
TORSDOF 8
ENDMDL
MODEL 2
REMARK VINA RESULT: -7.305950690      1.759      2.584
REMARK  8 active torsions:
REMARK  status: ('A' for Active; 'I' for Inactive)
REMARK    1  A    between atoms: N1_1  and  C1_4 
REMARK    2  A    between atoms: C2_7  and  N3_8 
REMARK    3  A    between atoms: N4_11  and  C5_12 
REMARK    4  A    between atoms: C6_15  and  N6_16 
REMARK    5  A    between atoms: C11_26  and  N9_27 
REMARK    6  A    between atoms: N9_27  and  C12_29 
REMARK    7  A    between atoms: C12_29  and  C13_30 
REMARK    8  A    between atoms: C13_30  and  O1_31 
ROOT
HETATM    1  C5  UNL     1     -27.159   5.204 -33.660  1.00  0.00     0.710 A 
HETATM    2  N5  UNL     1     -27.734   5.139 -34.900  1.00  0.00    -0.021 N 
ATOM      3  H5  UNL     1     -28.737   4.971 -34.963  1.00  0.00     0.203 HD
HETATM    4  C6  UNL     1     -27.035   5.286 -36.036  1.00  0.00     0.709 A 
HETATM    5  N8  UNL     1     -25.725   5.503 -35.909  1.00  0.00    -0.021 N 
ATOM      6  H8  UNL     1     -25.168   5.618 -36.755  1.00  0.00     0.203 HD
HETATM    7  C11 UNL     1     -25.101   5.577 -34.716  1.00  0.00     0.707 A 
HETATM    8  N10 UNL     1     -25.836   5.425 -33.603  1.00  0.00    -0.021 N 
ATOM      9  H10 UNL     1     -25.379   5.479 -32.694  1.00  0.00     0.203 HD
ENDROOT
BRANCH   1  10
HETATM   10  N4  UNL     1     -27.932   5.046 -32.490  1.00  0.00    -0.198 N 
HETATM   11  C4  UNL     1     -29.155   4.298 -32.384  1.00  0.00     0.163 C 
HETATM   12  C3  UNL     1     -29.965   5.186 -31.425  1.00  0.00     0.163 C 
HETATM   13  N3  UNL     1     -28.934   5.584 -30.486  1.00  0.00    -0.199 N 
HETATM   14  C14 UNL     1     -27.658   5.589 -31.178  1.00  0.00     0.286 C 
BRANCH  13  15
HETATM   15  C2  UNL     1     -29.152   5.912 -29.123  1.00  0.00     0.697 A 
HETATM   16  N2  UNL     1     -29.545   7.132 -28.719  1.00  0.00    -0.022 N 
HETATM   17  C1  UNL     1     -29.750   7.436 -27.421  1.00  0.00     0.691 A 
ATOM     18  H2  UNL     1     -29.694   7.856 -29.422  1.00  0.00     0.203 HD
HETATM   19  N12 UNL     1     -29.562   6.503 -26.478  1.00  0.00    -0.187 N 
HETATM   20  C15 UNL     1     -29.170   5.280 -26.851  1.00  0.00     0.215 A 
ATOM     21  H12 UNL     1     -29.714   6.722 -25.493  1.00  0.00     0.185 HD
HETATM   22  N11 UNL     1     -28.968   4.991 -28.159  1.00  0.00    -0.187 N 
ATOM     23  H11 UNL     1     -28.669   4.051 -28.420  1.00  0.00     0.185 HD
BRANCH  17  24
HETATM   24  N1  UNL     1     -30.128   8.613 -27.039  1.00  0.00    -0.234 N 
ATOM     25  H12 UNL     1     -30.042   8.843 -26.049  1.00  0.00     0.174 HD
ATOM     26  H11 UNL     1     -30.503   9.303 -27.691  1.00  0.00     0.174 HD
ENDBRANCH  17  24
ENDBRANCH  13  15
ENDBRANCH   1  10
BRANCH   4  27
HETATM   27  N6  UNL     1     -27.694   5.208 -37.301  1.00  0.00    -0.213 N 
HETATM   28  C7  UNL     1     -28.722   4.255 -37.597  1.00  0.00     0.168 C 
HETATM   29  C8  UNL     1     -28.953   4.278 -39.092  1.00  0.00     0.252 C 
HETATM   30  N7  UNL     1     -29.304   5.568 -39.597  1.00  0.00    -0.072 N 
HETATM   31  C9  UNL     1     -28.632   6.662 -38.936  1.00  0.00     0.252 C 
ATOM     32  H72 UNL     1     -29.153   5.611 -40.604  1.00  0.00     0.277 HD
ATOM     33  H71 UNL     1     -30.315   5.700 -39.568  1.00  0.00     0.277 HD
HETATM   34  C10 UNL     1     -27.320   6.133 -38.356  1.00  0.00     0.168 C 
ENDBRANCH   4  27
BRANCH   7  35
HETATM   35  N9  UNL     1     -23.845   5.784 -34.600  1.00  0.00    -0.223 N 
ATOM     36  H9  UNL     1     -23.302   5.221 -33.946  1.00  0.00     0.177 HD
BRANCH  35  37
HETATM   37  C12 UNL     1     -23.190   6.799 -35.379  1.00  0.00     0.164 C 
BRANCH  37  38
HETATM   38  C13 UNL     1     -23.659   8.156 -34.881  1.00  0.00     0.184 C 
BRANCH  38  39
HETATM   39  O1  UNL     1     -22.921   8.490 -33.738  1.00  0.00    -0.399 OA
ATOM     40  H1  UNL     1     -22.260   9.126 -33.982  1.00  0.00     0.209 HD
ENDBRANCH  38  39
ENDBRANCH  37  38
ENDBRANCH  35  37
ENDBRANCH   7  35
TORSDOF 8
ENDMDL
MODEL 3
REMARK VINA RESULT: -7.145994584      0.577      1.300
REMARK  8 active torsions:
REMARK  status: ('A' for Active; 'I' for Inactive)
REMARK    1  A    between atoms: N1_1  and  C1_4 
REMARK    2  A    between atoms: C2_7  and  N3_8 
REMARK    3  A    between atoms: N4_11  and  C5_12 
REMARK    4  A    between atoms: C6_15  and  N6_16 
REMARK    5  A    between atoms: C11_26  and  N9_27 
REMARK    6  A    between atoms: N9_27  and  C12_29 
REMARK    7  A    between atoms: C12_29  and  C13_30 
REMARK    8  A    between atoms: C13_30  and  O1_31 
ROOT
HETATM    1  C5  UNL     1     -28.686   5.030 -32.265  1.00  0.00     0.710 A 
HETATM    2  N5  UNL     1     -29.402   4.801 -33.407  1.00  0.00    -0.021 N 
ATOM      3  H5  UNL     1     -30.418   4.747 -33.342  1.00  0.00     0.203 HD
HETATM    4  C6  UNL     1     -28.827   4.642 -34.609  1.00  0.00     0.709 A 
HETATM    5  N8  UNL     1     -27.496   4.718 -34.649  1.00  0.00    -0.021 N 
ATOM      6  H8  UNL     1     -27.030   4.601 -35.549  1.00  0.00     0.203 HD
HETATM    7  C11 UNL     1     -26.736   4.941 -33.558  1.00  0.00     0.707 A 
HETATM    8  N10 UNL     1     -27.350   5.094 -32.375  1.00  0.00    -0.021 N 
ATOM      9  H10 UNL     1     -26.789   5.264 -31.541  1.00  0.00     0.203 HD
ENDROOT
BRANCH   1  10
HETATM   10  N4  UNL     1     -29.333   5.193 -31.020  1.00  0.00    -0.198 N 
HETATM   11  C4  UNL     1     -30.572   4.578 -30.628  1.00  0.00     0.163 C 
HETATM   12  C3  UNL     1     -31.227   5.714 -29.825  1.00  0.00     0.163 C 
HETATM   13  N3  UNL     1     -30.080   6.235 -29.106  1.00  0.00    -0.199 N 
HETATM   14  C14 UNL     1     -28.890   5.993 -29.900  1.00  0.00     0.286 C 
BRANCH  13  15
HETATM   15  C2  UNL     1     -30.130   6.874 -27.840  1.00  0.00     0.697 A 
HETATM   16  N2  UNL     1     -29.408   7.967 -27.545  1.00  0.00    -0.022 N 
HETATM   17  C1  UNL     1     -29.461   8.569 -26.339  1.00  0.00     0.691 A 
ATOM     18  H2  UNL     1     -28.795   8.358 -28.261  1.00  0.00     0.203 HD
HETATM   19  N12 UNL     1     -30.258   8.077 -25.380  1.00  0.00    -0.187 N 
HETATM   20  C15 UNL     1     -30.989   6.989 -25.646  1.00  0.00     0.215 A 
ATOM     21  H12 UNL     1     -30.307   8.524 -24.465  1.00  0.00     0.185 HD
HETATM   22  N11 UNL     1     -30.923   6.397 -26.863  1.00  0.00    -0.187 N 
ATOM     23  H11 UNL     1     -31.489   5.568 -27.043  1.00  0.00     0.185 HD
BRANCH  17  24
HETATM   24  N1  UNL     1     -28.762   9.622 -26.061  1.00  0.00    -0.234 N 
ATOM     25  H12 UNL     1     -29.258  10.449 -25.727  1.00  0.00     0.174 HD
ATOM     26  H11 UNL     1     -27.747   9.646 -26.166  1.00  0.00     0.174 HD
ENDBRANCH  17  24
ENDBRANCH  13  15
ENDBRANCH   1  10
BRANCH   4  27
HETATM   27  N6  UNL     1     -29.630   4.406 -35.765  1.00  0.00    -0.213 N 
HETATM   28  C7  UNL     1     -31.062   4.370 -35.737  1.00  0.00     0.168 C 
HETATM   29  C8  UNL     1     -31.534   3.803 -37.059  1.00  0.00     0.252 C 
HETATM   30  N7  UNL     1     -31.073   4.538 -38.194  1.00  0.00    -0.072 N 
HETATM   31  C9  UNL     1     -29.735   5.065 -38.051  1.00  0.00     0.252 C 
ATOM     32  H72 UNL     1     -31.146   3.973 -39.040  1.00  0.00     0.277 HD
ATOM     33  H71 UNL     1     -31.727   5.285 -38.427  1.00  0.00     0.277 HD
HETATM   34  C10 UNL     1     -28.984   4.188 -37.048  1.00  0.00     0.168 C 
ENDBRANCH   4  27
BRANCH   7  35
HETATM   35  N9  UNL     1     -25.460   5.011 -33.602  1.00  0.00    -0.223 N 
ATOM     36  H9  UNL     1     -24.931   5.104 -32.735  1.00  0.00     0.177 HD
BRANCH  35  37
HETATM   37  C12 UNL     1     -24.762   4.961 -34.858  1.00  0.00     0.164 C 
BRANCH  37  38
HETATM   38  C13 UNL     1     -24.224   6.351 -35.158  1.00  0.00     0.184 C 
BRANCH  38  39
HETATM   39  O1  UNL     1     -22.848   6.361 -34.894  1.00  0.00    -0.399 OA
ATOM     40  H1  UNL     1     -22.711   6.723 -34.026  1.00  0.00     0.209 HD
ENDBRANCH  38  39
ENDBRANCH  37  38
ENDBRANCH  35  37
ENDBRANCH   7  35
TORSDOF 8
ENDMDL
MODEL 4
REMARK VINA RESULT: -6.810028642      1.396      1.539
REMARK  8 active torsions:
REMARK  status: ('A' for Active; 'I' for Inactive)
REMARK    1  A    between atoms: N1_1  and  C1_4 
REMARK    2  A    between atoms: C2_7  and  N3_8 
REMARK    3  A    between atoms: N4_11  and  C5_12 
REMARK    4  A    between atoms: C6_15  and  N6_16 
REMARK    5  A    between atoms: C11_26  and  N9_27 
REMARK    6  A    between atoms: N9_27  and  C12_29 
REMARK    7  A    between atoms: C12_29  and  C13_30 
REMARK    8  A    between atoms: C13_30  and  O1_31 
ROOT
HETATM    1  C5  UNL     1     -28.715   5.493 -31.158  1.00  0.00     0.710 A 
HETATM    2  N5  UNL     1     -29.647   5.280 -32.136  1.00  0.00    -0.021 N 
ATOM      3  H5  UNL     1     -30.635   5.326 -31.886  1.00  0.00     0.203 HD
HETATM    4  C6  UNL     1     -29.321   5.011 -33.409  1.00  0.00     0.709 A 
HETATM    5  N8  UNL     1     -28.018   4.959 -33.694  1.00  0.00    -0.021 N 
ATOM      6  H8  UNL     1     -27.739   4.756 -34.654  1.00  0.00     0.203 HD
HETATM    7  C11 UNL     1     -27.053   5.160 -32.775  1.00  0.00     0.707 A 
HETATM    8  N10 UNL     1     -27.422   5.426 -31.512  1.00  0.00    -0.021 N 
ATOM      9  H10 UNL     1     -26.704   5.581 -30.805  1.00  0.00     0.203 HD
ENDROOT
BRANCH   1  10
HETATM   10  N4  UNL     1     -29.104   5.775 -29.830  1.00  0.00    -0.198 N 
HETATM   11  C4  UNL     1     -28.912   4.913 -28.696  1.00  0.00     0.163 C 
HETATM   12  C3  UNL     1     -30.216   5.150 -27.917  1.00  0.00     0.163 C 
HETATM   13  N3  UNL     1     -30.379   6.581 -28.089  1.00  0.00    -0.199 N 
HETATM   14  C14 UNL     1     -29.760   6.968 -29.344  1.00  0.00     0.286 C 
BRANCH  13  15
HETATM   15  C2  UNL     1     -31.038   7.444 -27.176  1.00  0.00     0.697 A 
HETATM   16  N2  UNL     1     -31.746   6.994 -26.126  1.00  0.00    -0.022 N 
HETATM   17  C1  UNL     1     -32.369   7.821 -25.262  1.00  0.00     0.691 A 
ATOM     18  H2  UNL     1     -31.814   5.987 -25.977  1.00  0.00     0.203 HD
HETATM   19  N12 UNL     1     -32.294   9.148 -25.435  1.00  0.00    -0.187 N 
HETATM   20  C15 UNL     1     -31.597   9.624 -26.471  1.00  0.00     0.215 A 
ATOM     21  H12 UNL     1     -32.762   9.783 -24.787  1.00  0.00     0.185 HD
HETATM   22  N11 UNL     1     -30.977   8.780 -27.330  1.00  0.00    -0.187 N 
ATOM     23  H11 UNL     1     -30.450   9.166 -28.114  1.00  0.00     0.185 HD
BRANCH  17  24
HETATM   24  N1  UNL     1     -33.050   7.380 -24.253  1.00  0.00    -0.234 N 
ATOM     25  H12 UNL     1     -33.683   6.596 -24.412  1.00  0.00     0.174 HD
ATOM     26  H11 UNL     1     -32.970   7.790 -23.322  1.00  0.00     0.174 HD
ENDBRANCH  17  24
ENDBRANCH  13  15
ENDBRANCH   1  10
BRANCH   4  27
HETATM   27  N6  UNL     1     -30.341   4.798 -34.385  1.00  0.00    -0.213 N 
HETATM   28  C7  UNL     1     -31.539   5.582 -34.458  1.00  0.00     0.168 C 
HETATM   29  C8  UNL     1     -32.492   4.878 -35.399  1.00  0.00     0.252 C 
HETATM   30  N7  UNL     1     -31.952   4.663 -36.705  1.00  0.00    -0.072 N 
HETATM   31  C9  UNL     1     -30.541   4.355 -36.715  1.00  0.00     0.252 C 
ATOM     32  H72 UNL     1     -32.480   3.941 -37.195  1.00  0.00     0.277 HD
ATOM     33  H71 UNL     1     -32.149   5.461 -37.309  1.00  0.00     0.277 HD
HETATM   34  C10 UNL     1     -30.179   3.738 -35.364  1.00  0.00     0.168 C 
ENDBRANCH   4  27
BRANCH   7  35
HETATM   35  N9  UNL     1     -25.806   5.107 -33.052  1.00  0.00    -0.223 N 
ATOM     36  H9  UNL     1     -25.126   5.462 -32.381  1.00  0.00     0.177 HD
BRANCH  35  37
HETATM   37  C12 UNL     1     -25.352   4.555 -34.299  1.00  0.00     0.164 C 
BRANCH  37  38
HETATM   38  C13 UNL     1     -24.574   5.632 -35.040  1.00  0.00     0.184 C 
BRANCH  38  39
HETATM   39  O1  UNL     1     -23.223   5.526 -34.686  1.00  0.00    -0.399 OA
ATOM     40  H1  UNL     1     -22.875   6.402 -34.564  1.00  0.00     0.209 HD
ENDBRANCH  38  39
ENDBRANCH  37  38
ENDBRANCH  35  37
ENDBRANCH   7  35
TORSDOF 8
ENDMDL
MODEL 5
REMARK VINA RESULT: -6.730286445      6.996     13.019
REMARK  8 active torsions:
REMARK  status: ('A' for Active; 'I' for Inactive)
REMARK    1  A    between atoms: N1_1  and  C1_4 
REMARK    2  A    between atoms: C2_7  and  N3_8 
REMARK    3  A    between atoms: N4_11  and  C5_12 
REMARK    4  A    between atoms: C6_15  and  N6_16 
REMARK    5  A    between atoms: C11_26  and  N9_27 
REMARK    6  A    between atoms: N9_27  and  C12_29 
REMARK    7  A    between atoms: C12_29  and  C13_30 
REMARK    8  A    between atoms: C13_30  and  O1_31 
ROOT
HETATM    1  C5  UNL     1     -34.658   8.951 -23.497  1.00  0.00     0.710 A 
HETATM    2  N5  UNL     1     -35.654   8.014 -23.470  1.00  0.00    -0.021 N 
ATOM      3  H5  UNL     1     -35.586   7.213 -24.097  1.00  0.00     0.203 HD
HETATM    4  C6  UNL     1     -36.718   8.104 -22.657  1.00  0.00     0.709 A 
HETATM    5  N8  UNL     1     -36.769   9.169 -21.855  1.00  0.00    -0.021 N 
ATOM      6  H8  UNL     1     -37.566   9.265 -21.225  1.00  0.00     0.203 HD
HETATM    7  C11 UNL     1     -35.818  10.125 -21.836  1.00  0.00     0.707 A 
HETATM    8  N10 UNL     1     -34.771   9.998 -22.664  1.00  0.00    -0.021 N 
ATOM      9  H10 UNL     1     -34.044  10.712 -22.662  1.00  0.00     0.203 HD
ENDROOT
BRANCH   1  10
HETATM   10  N4  UNL     1     -33.555   8.816 -24.369  1.00  0.00    -0.198 N 
HETATM   11  C4  UNL     1     -33.025   9.844 -25.222  1.00  0.00     0.163 C 
HETATM   12  C3  UNL     1     -32.656   9.031 -26.474  1.00  0.00     0.163 C 
HETATM   13  N3  UNL     1     -32.109   7.832 -25.868  1.00  0.00    -0.199 N 
HETATM   14  C14 UNL     1     -32.742   7.638 -24.577  1.00  0.00     0.286 C 
BRANCH  13  15
HETATM   15  C2  UNL     1     -31.121   6.998 -26.453  1.00  0.00     0.697 A 
HETATM   16  N2  UNL     1     -30.555   7.262 -27.643  1.00  0.00    -0.022 N 
HETATM   17  C1  UNL     1     -29.616   6.464 -28.193  1.00  0.00     0.691 A 
ATOM     18  H2  UNL     1     -30.846   8.098 -28.150  1.00  0.00     0.203 HD
HETATM   19  N12 UNL     1     -29.215   5.360 -27.547  1.00  0.00    -0.187 N 
HETATM   20  C15 UNL     1     -29.762   5.073 -26.361  1.00  0.00     0.215 A 
ATOM     21  H12 UNL     1     -28.505   4.750 -27.953  1.00  0.00     0.185 HD
HETATM   22  N11 UNL     1     -30.704   5.885 -25.823  1.00  0.00    -0.187 N 
ATOM     23  H11 UNL     1     -31.107   5.646 -24.917  1.00  0.00     0.185 HD
BRANCH  17  24
HETATM   24  N1  UNL     1     -29.075   6.723 -29.339  1.00  0.00    -0.234 N 
ATOM     25  H12 UNL     1     -28.317   7.406 -29.364  1.00  0.00     0.174 HD
ATOM     26  H11 UNL     1     -29.381   6.272 -30.201  1.00  0.00     0.174 HD
ENDBRANCH  17  24
ENDBRANCH  13  15
ENDBRANCH   1  10
BRANCH   4  27
HETATM   27  N6  UNL     1     -37.725   7.093 -22.676  1.00  0.00    -0.213 N 
HETATM   28  C7  UNL     1     -37.918   6.192 -23.773  1.00  0.00     0.168 C 
HETATM   29  C8  UNL     1     -39.241   5.488 -23.563  1.00  0.00     0.252 C 
HETATM   30  N7  UNL     1     -39.325   4.789 -22.319  1.00  0.00    -0.072 N 
HETATM   31  C9  UNL     1     -38.659   5.454 -21.223  1.00  0.00     0.252 C 
ATOM     32  H72 UNL     1     -40.298   4.596 -22.082  1.00  0.00     0.277 HD
ATOM     33  H71 UNL     1     -38.980   3.834 -22.420  1.00  0.00     0.277 HD
HETATM   34  C10 UNL     1     -38.611   6.950 -21.534  1.00  0.00     0.168 C 
ENDBRANCH   4  27
BRANCH   7  35
HETATM   35  N9  UNL     1     -35.873  11.144 -21.066  1.00  0.00    -0.223 N 
ATOM     36  H9  UNL     1     -35.953  12.077 -21.471  1.00  0.00     0.177 HD
BRANCH  35  37
HETATM   37  C12 UNL     1     -35.823  10.993 -19.637  1.00  0.00     0.164 C 
BRANCH  37  38
HETATM   38  C13 UNL     1     -37.175  11.396 -19.070  1.00  0.00     0.184 C 
BRANCH  38  39
HETATM   39  O1  UNL     1     -38.070  10.334 -19.257  1.00  0.00    -0.399 OA
ATOM     40  H1  UNL     1     -38.947  10.643 -19.067  1.00  0.00     0.209 HD
ENDBRANCH  38  39
ENDBRANCH  37  38
ENDBRANCH  35  37
ENDBRANCH   7  35
TORSDOF 8
ENDMDL
