MODEL 1
REMARK VINA RESULT: -7.117249589      0.000      0.000
REMARK  9 active torsions:
REMARK  status: ('A' for Active; 'I' for Inactive)
REMARK    1  A    between atoms: N1_1  and  C1_4 
REMARK    2  A    between atoms: C4_12  and  N4_13 
REMARK    3  A    between atoms: N5_16  and  C7_17 
REMARK    4  A    between atoms: C7_17  and  O2_18 
REMARK    5  A    between atoms: C7_17  and  C8_20 
REMARK    6  A    between atoms: C8_20  and  O3_21 
REMARK    7  A    between atoms: N7_28  and  C12_29 
REMARK    8  A    between atoms: C12_29  and  C13_30 
REMARK    9  A    between atoms: C13_30  and  N8_31 
ROOT
HETATM    1  C1  UNL     1     -30.322   6.339 -26.248  1.00  0.00     0.682 A 
HETATM    2  N2  UNL     1     -30.391   5.373 -25.316  1.00  0.00    -0.154 N 
ATOM      3  H2  UNL     1     -29.888   4.500 -25.471  1.00  0.00     0.187 HD
HETATM    4  C2  UNL     1     -31.105   5.522 -24.186  1.00  0.00     0.290 A 
HETATM    5  O1  UNL     1     -31.173   4.620 -23.313  1.00  0.00    -0.265 OA
HETATM    6  C3  UNL     1     -31.762   6.744 -24.054  1.00  0.00     0.162 A 
HETATM    7  N3  UNL     1     -32.555   7.210 -23.071  1.00  0.00    -0.182 N 
ATOM      8  H3  UNL     1     -32.793   6.693 -22.224  1.00  0.00     0.184 HD
HETATM    9  C4  UNL     1     -32.991   8.452 -23.358  1.00  0.00     0.682 A 
HETATM   10  N6  UNL     1     -32.459   8.761 -24.537  1.00  0.00    -0.173 N 
ATOM     11  H6  UNL     1     -32.607   9.645 -25.024  1.00  0.00     0.186 HD
HETATM   12  C11 UNL     1     -31.697   7.744 -25.005  1.00  0.00     0.172 A 
HETATM   13  N7  UNL     1     -30.968   7.533 -26.107  1.00  0.00    -0.164 N 
ENDROOT
BRANCH   9  14
HETATM   14  N4  UNL     1     -33.857   9.188 -22.509  1.00  0.00    -0.214 N 
HETATM   15  C5  UNL     1     -33.870   9.093 -21.085  1.00  0.00     0.171 C 
HETATM   16  C6  UNL     1     -35.264   9.138 -20.502  1.00  0.00     0.296 C 
HETATM   17  N5  UNL     1     -36.296   9.102 -21.481  1.00  0.00     0.122 N 
HETATM   18  C9  UNL     1     -36.148  10.047 -22.563  1.00  0.00     0.296 C 
HETATM   19  C10 UNL     1     -34.784  10.098 -23.164  1.00  0.00     0.171 C 
BRANCH  17  20
HETATM   20  C7  UNL     1     -37.587   9.352 -20.884  1.00  0.00     0.380 C 
BRANCH  20  21
HETATM   21  O2  UNL     1     -37.474   9.789 -19.563  1.00  0.00    -0.366 OA
ATOM     22  H2  UNL     1     -37.215   9.086 -18.979  1.00  0.00     0.212 HD
ENDBRANCH  20  21
BRANCH  20  23
HETATM   23  C8  UNL     1     -38.496   8.173 -20.993  1.00  0.00     0.228 C 
BRANCH  23  24
HETATM   24  O3  UNL     1     -38.694   7.655 -19.704  1.00  0.00    -0.396 OA
ATOM     25  H3  UNL     1     -39.560   7.266 -19.672  1.00  0.00     0.209 HD
ENDBRANCH  23  24
ENDBRANCH  20  23
ENDBRANCH  17  20
ENDBRANCH   9  14
BRANCH  13  26
HETATM   26  C12 UNL     1     -30.869   8.501 -27.143  1.00  0.00     0.171 C 
BRANCH  26  27
HETATM   27  C13 UNL     1     -32.026   8.624 -28.065  1.00  0.00     0.169 C 
BRANCH  27  28
HETATM   28  N8  UNL     1     -32.220   7.531 -28.985  1.00  0.00    -0.302 N 
HETATM   29  C14 UNL     1     -31.591   7.361 -30.165  1.00  0.00     0.111 A 
HETATM   30  C15 UNL     1     -32.059   6.193 -30.749  1.00  0.00     0.037 A 
HETATM   31  C16 UNL     1     -32.986   5.678 -29.874  1.00  0.00     0.108 A 
HETATM   32  N9  UNL     1     -33.064   6.506 -28.818  1.00  0.00    -0.310 N 
ATOM     33  H9  UNL     1     -33.673   6.372 -28.011  1.00  0.00     0.186 HD
ENDBRANCH  27  28
ENDBRANCH  26  27
ENDBRANCH  13  26
BRANCH   1  34
HETATM   34  N1  UNL     1     -29.609   6.094 -27.297  1.00  0.00    -0.234 N 
ATOM     35  H12 UNL     1     -30.032   5.680 -28.129  1.00  0.00     0.174 HD
ATOM     36  H11 UNL     1     -28.618   6.333 -27.252  1.00  0.00     0.174 HD
ENDBRANCH   1  34
TORSDOF 9
ENDMDL
MODEL 2
REMARK VINA RESULT: -6.978797068      4.673      7.684
REMARK  9 active torsions:
REMARK  status: ('A' for Active; 'I' for Inactive)
REMARK    1  A    between atoms: N1_1  and  C1_4 
REMARK    2  A    between atoms: C4_12  and  N4_13 
REMARK    3  A    between atoms: N5_16  and  C7_17 
REMARK    4  A    between atoms: C7_17  and  O2_18 
REMARK    5  A    between atoms: C7_17  and  C8_20 
REMARK    6  A    between atoms: C8_20  and  O3_21 
REMARK    7  A    between atoms: N7_28  and  C12_29 
REMARK    8  A    between atoms: C12_29  and  C13_30 
REMARK    9  A    between atoms: C13_30  and  N8_31 
ROOT
HETATM    1  C1  UNL     1     -30.102   5.350 -33.461  1.00  0.00     0.682 A 
HETATM    2  N2  UNL     1     -31.229   6.060 -33.284  1.00  0.00    -0.154 N 
ATOM      3  H2  UNL     1     -31.793   6.302 -34.098  1.00  0.00     0.187 HD
HETATM    4  C2  UNL     1     -31.635   6.461 -32.067  1.00  0.00     0.290 A 
HETATM    5  O1  UNL     1     -32.689   7.127 -31.898  1.00  0.00    -0.265 OA
HETATM    6  C3  UNL     1     -30.807   6.089 -31.010  1.00  0.00     0.162 A 
HETATM    7  N3  UNL     1     -30.910   6.330 -29.689  1.00  0.00    -0.182 N 
ATOM      8  H3  UNL     1     -31.670   6.852 -29.253  1.00  0.00     0.184 HD
HETATM    9  C4  UNL     1     -29.873   5.788 -29.022  1.00  0.00     0.682 A 
HETATM   10  N6  UNL     1     -29.114   5.201 -29.944  1.00  0.00    -0.173 N 
ATOM     11  H6  UNL     1     -28.248   4.701 -29.747  1.00  0.00     0.186 HD
HETATM   12  C11 UNL     1     -29.646   5.359 -31.180  1.00  0.00     0.172 A 
HETATM   13  N7  UNL     1     -29.299   4.990 -32.418  1.00  0.00    -0.164 N 
ENDROOT
BRANCH   9  14
HETATM   14  N4  UNL     1     -29.709   5.897 -27.618  1.00  0.00    -0.214 N 
HETATM   15  C5  UNL     1     -29.603   4.787 -26.726  1.00  0.00     0.171 C 
HETATM   16  C6  UNL     1     -30.336   5.005 -25.421  1.00  0.00     0.296 C 
HETATM   17  N5  UNL     1     -31.119   6.193 -25.396  1.00  0.00     0.122 N 
HETATM   18  C9  UNL     1     -30.432   7.391 -25.819  1.00  0.00     0.296 C 
HETATM   19  C10 UNL     1     -29.644   7.246 -27.077  1.00  0.00     0.171 C 
BRANCH  17  20
HETATM   20  C7  UNL     1     -31.628   6.451 -24.069  1.00  0.00     0.380 C 
BRANCH  20  21
HETATM   21  O2  UNL     1     -32.574   5.502 -23.681  1.00  0.00    -0.366 OA
ATOM     22  H2  UNL     1     -33.179   5.849 -23.036  1.00  0.00     0.212 HD
ENDBRANCH  20  21
BRANCH  20  23
HETATM   23  C8  UNL     1     -32.158   7.839 -23.929  1.00  0.00     0.228 C 
BRANCH  23  24
HETATM   24  O3  UNL     1     -32.675   7.980 -22.633  1.00  0.00    -0.396 OA
ATOM     25  H3  UNL     1     -33.397   7.370 -22.534  1.00  0.00     0.209 HD
ENDBRANCH  23  24
ENDBRANCH  20  23
ENDBRANCH  17  20
ENDBRANCH   9  14
BRANCH  13  26
HETATM   26  C12 UNL     1     -28.108   4.257 -32.680  1.00  0.00     0.171 C 
BRANCH  26  27
HETATM   27  C13 UNL     1     -26.822   4.984 -32.535  1.00  0.00     0.169 C 
BRANCH  27  28
HETATM   28  N8  UNL     1     -26.147   5.325 -33.762  1.00  0.00    -0.302 N 
HETATM   29  C14 UNL     1     -26.464   4.882 -34.996  1.00  0.00     0.111 A 
HETATM   30  C15 UNL     1     -25.573   5.436 -35.904  1.00  0.00     0.037 A 
HETATM   31  C16 UNL     1     -24.721   6.222 -35.167  1.00  0.00     0.108 A 
HETATM   32  N9  UNL     1     -25.089   6.137 -33.877  1.00  0.00    -0.310 N 
ATOM     33  H9  UNL     1     -24.631   6.618 -33.102  1.00  0.00     0.186 HD
ENDBRANCH  27  28
ENDBRANCH  26  27
ENDBRANCH  13  26
BRANCH   1  34
HETATM   34  N1  UNL     1     -29.801   5.015 -34.672  1.00  0.00    -0.234 N 
ATOM     35  H12 UNL     1     -30.495   4.576 -35.278  1.00  0.00     0.174 HD
ATOM     36  H11 UNL     1     -28.850   5.210 -34.985  1.00  0.00     0.174 HD
ENDBRANCH   1  34
TORSDOF 9
ENDMDL
MODEL 3
REMARK VINA RESULT: -6.882820813      1.224      1.524
REMARK  9 active torsions:
REMARK  status: ('A' for Active; 'I' for Inactive)
REMARK    1  A    between atoms: N1_1  and  C1_4 
REMARK    2  A    between atoms: C4_12  and  N4_13 
REMARK    3  A    between atoms: N5_16  and  C7_17 
REMARK    4  A    between atoms: C7_17  and  O2_18 
REMARK    5  A    between atoms: C7_17  and  C8_20 
REMARK    6  A    between atoms: C8_20  and  O3_21 
REMARK    7  A    between atoms: N7_28  and  C12_29 
REMARK    8  A    between atoms: C12_29  and  C13_30 
REMARK    9  A    between atoms: C13_30  and  N8_31 
ROOT
HETATM    1  C1  UNL     1     -29.929   6.004 -26.021  1.00  0.00     0.682 A 
HETATM    2  N2  UNL     1     -30.391   5.010 -25.244  1.00  0.00    -0.154 N 
ATOM      3  H2  UNL     1     -29.906   4.113 -25.247  1.00  0.00     0.187 HD
HETATM    4  C2  UNL     1     -31.475   5.162 -24.462  1.00  0.00     0.290 A 
HETATM    5  O1  UNL     1     -31.911   4.234 -23.734  1.00  0.00    -0.265 OA
HETATM    6  C3  UNL     1     -32.078   6.417 -24.517  1.00  0.00     0.162 A 
HETATM    7  N3  UNL     1     -33.165   6.895 -23.883  1.00  0.00    -0.182 N 
ATOM      8  H3  UNL     1     -33.731   6.363 -23.222  1.00  0.00     0.184 HD
HETATM    9  C4  UNL     1     -33.403   8.172 -24.241  1.00  0.00     0.682 A 
HETATM   10  N6  UNL     1     -32.449   8.491 -25.110  1.00  0.00    -0.173 N 
ATOM     11  H6  UNL     1     -32.360   9.400 -25.564  1.00  0.00     0.186 HD
HETATM   12  C11 UNL     1     -31.611   7.446 -25.313  1.00  0.00     0.172 A 
HETATM   13  N7  UNL     1     -30.527   7.230 -26.067  1.00  0.00    -0.164 N 
ENDROOT
BRANCH   9  14
HETATM   14  N4  UNL     1     -34.494   8.928 -23.742  1.00  0.00    -0.214 N 
HETATM   15  C5  UNL     1     -34.382  10.227 -23.160  1.00  0.00     0.171 C 
HETATM   16  C6  UNL     1     -35.294  10.422 -21.969  1.00  0.00     0.296 C 
HETATM   17  N5  UNL     1     -35.963   9.234 -21.560  1.00  0.00     0.122 N 
HETATM   18  C9  UNL     1     -36.627   8.508 -22.617  1.00  0.00     0.296 C 
HETATM   19  C10 UNL     1     -35.809   8.314 -23.849  1.00  0.00     0.171 C 
BRANCH  17  20
HETATM   20  C7  UNL     1     -36.964   9.521 -20.559  1.00  0.00     0.380 C 
BRANCH  20  21
HETATM   21  O2  UNL     1     -36.473   9.344 -19.265  1.00  0.00    -0.366 OA
ATOM     22  H2  UNL     1     -36.041  10.125 -18.940  1.00  0.00     0.212 HD
ENDBRANCH  20  21
BRANCH  20  23
HETATM   23  C8  UNL     1     -38.219   8.743 -20.777  1.00  0.00     0.228 C 
BRANCH  23  24
HETATM   24  O3  UNL     1     -38.421   7.919 -19.660  1.00  0.00    -0.396 OA
ATOM     25  H3  UNL     1     -38.347   8.456 -18.880  1.00  0.00     0.209 HD
ENDBRANCH  23  24
ENDBRANCH  20  23
ENDBRANCH  17  20
ENDBRANCH   9  14
BRANCH  13  26
HETATM   26  C12 UNL     1     -29.997   8.228 -26.930  1.00  0.00     0.171 C 
BRANCH  26  27
HETATM   27  C13 UNL     1     -30.635   8.377 -28.262  1.00  0.00     0.169 C 
BRANCH  27  28
HETATM   28  N8  UNL     1     -30.453   7.277 -29.176  1.00  0.00    -0.302 N 
HETATM   29  C14 UNL     1     -31.396   6.389 -29.551  1.00  0.00     0.111 A 
HETATM   30  C15 UNL     1     -30.822   5.487 -30.436  1.00  0.00     0.037 A 
HETATM   31  C16 UNL     1     -29.510   5.873 -30.571  1.00  0.00     0.108 A 
HETATM   32  N9  UNL     1     -29.313   6.956 -29.800  1.00  0.00    -0.310 N 
ATOM     33  H9  UNL     1     -28.430   7.457 -29.704  1.00  0.00     0.186 HD
ENDBRANCH  27  28
ENDBRANCH  26  27
ENDBRANCH  13  26
BRANCH   1  34
HETATM   34  N1  UNL     1     -28.881   5.753 -26.735  1.00  0.00    -0.234 N 
ATOM     35  H12 UNL     1     -27.983   5.562 -26.291  1.00  0.00     0.174 HD
ATOM     36  H11 UNL     1     -28.998   5.757 -27.748  1.00  0.00     0.174 HD
ENDBRANCH   1  34
TORSDOF 9
ENDMDL
MODEL 4
REMARK VINA RESULT: -6.878845062      1.306      1.751
REMARK  9 active torsions:
REMARK  status: ('A' for Active; 'I' for Inactive)
REMARK    1  A    between atoms: N1_1  and  C1_4 
REMARK    2  A    between atoms: C4_12  and  N4_13 
REMARK    3  A    between atoms: N5_16  and  C7_17 
REMARK    4  A    between atoms: C7_17  and  O2_18 
REMARK    5  A    between atoms: C7_17  and  C8_20 
REMARK    6  A    between atoms: C8_20  and  O3_21 
REMARK    7  A    between atoms: N7_28  and  C12_29 
REMARK    8  A    between atoms: C12_29  and  C13_30 
REMARK    9  A    between atoms: C13_30  and  N8_31 
ROOT
HETATM    1  C1  UNL     1     -30.259   7.689 -25.896  1.00  0.00     0.682 A 
HETATM    2  N2  UNL     1     -30.236   6.809 -24.881  1.00  0.00    -0.154 N 
ATOM      3  H2  UNL     1     -29.497   6.106 -24.853  1.00  0.00     0.187 HD
HETATM    4  C2  UNL     1     -31.157   6.825 -23.901  1.00  0.00     0.290 A 
HETATM    5  O1  UNL     1     -31.139   6.001 -22.951  1.00  0.00    -0.265 OA
HETATM    6  C3  UNL     1     -32.131   7.815 -24.016  1.00  0.00     0.162 A 
HETATM    7  N3  UNL     1     -33.185   8.101 -23.229  1.00  0.00    -0.182 N 
ATOM      8  H3  UNL     1     -33.427   7.596 -22.377  1.00  0.00     0.184 HD
HETATM    9  C4  UNL     1     -33.879   9.146 -23.723  1.00  0.00     0.682 A 
HETATM   10  N6  UNL     1     -33.244   9.513 -24.832  1.00  0.00    -0.173 N 
ATOM     11  H6  UNL     1     -33.532  10.284 -25.435  1.00  0.00     0.186 HD
HETATM   12  C11 UNL     1     -32.164   8.726 -25.054  1.00  0.00     0.172 A 
HETATM   13  N7  UNL     1     -31.217   8.656 -25.997  1.00  0.00    -0.164 N 
ENDROOT
BRANCH   9  14
HETATM   14  N4  UNL     1     -35.050   9.660 -23.110  1.00  0.00    -0.214 N 
HETATM   15  C5  UNL     1     -35.215  11.012 -22.683  1.00  0.00     0.171 C 
HETATM   16  C6  UNL     1     -35.960  11.131 -21.372  1.00  0.00     0.296 C 
HETATM   17  N5  UNL     1     -36.208   9.881 -20.739  1.00  0.00     0.122 N 
HETATM   18  C9  UNL     1     -36.795   8.869 -21.587  1.00  0.00     0.296 C 
HETATM   19  C10 UNL     1     -36.146   8.721 -22.922  1.00  0.00     0.171 C 
BRANCH  17  20
HETATM   20  C7  UNL     1     -37.091  10.039 -19.607  1.00  0.00     0.380 C 
BRANCH  20  21
HETATM   21  O2  UNL     1     -38.233   9.245 -19.724  1.00  0.00    -0.366 OA
ATOM     22  H2  UNL     1     -38.529   8.924 -18.880  1.00  0.00     0.212 HD
ENDBRANCH  20  21
BRANCH  20  23
HETATM   23  C8  UNL     1     -37.442  11.468 -19.361  1.00  0.00     0.228 C 
BRANCH  23  24
HETATM   24  O3  UNL     1     -37.055  11.793 -18.053  1.00  0.00    -0.396 OA
ATOM     25  H3  UNL     1     -37.717  12.365 -17.682  1.00  0.00     0.209 HD
ENDBRANCH  23  24
ENDBRANCH  20  23
ENDBRANCH  17  20
ENDBRANCH   9  14
BRANCH  13  26
HETATM   26  C12 UNL     1     -31.194   9.541 -27.110  1.00  0.00     0.171 C 
BRANCH  26  27
HETATM   27  C13 UNL     1     -32.159   9.272 -28.206  1.00  0.00     0.169 C 
BRANCH  27  28
HETATM   28  N8  UNL     1     -32.020   8.002 -28.872  1.00  0.00    -0.302 N 
HETATM   29  C14 UNL     1     -31.207   7.733 -29.914  1.00  0.00     0.111 A 
HETATM   30  C15 UNL     1     -31.370   6.400 -30.266  1.00  0.00     0.037 A 
HETATM   31  C16 UNL     1     -32.305   5.891 -29.398  1.00  0.00     0.108 A 
HETATM   32  N9  UNL     1     -32.682   6.879 -28.567  1.00  0.00    -0.310 N 
ATOM     33  H9  UNL     1     -33.368   6.786 -27.818  1.00  0.00     0.186 HD
ENDBRANCH  27  28
ENDBRANCH  26  27
ENDBRANCH  13  26
BRANCH   1  34
HETATM   34  N1  UNL     1     -29.328   7.586 -26.785  1.00  0.00    -0.234 N 
ATOM     35  H12 UNL     1     -28.907   6.682 -26.997  1.00  0.00     0.174 HD
ATOM     36  H11 UNL     1     -29.042   8.444 -27.258  1.00  0.00     0.174 HD
ENDBRANCH   1  34
TORSDOF 9
ENDMDL
MODEL 5
REMARK VINA RESULT: -6.853281394      1.430      2.205
REMARK  9 active torsions:
REMARK  status: ('A' for Active; 'I' for Inactive)
REMARK    1  A    between atoms: N1_1  and  C1_4 
REMARK    2  A    between atoms: C4_12  and  N4_13 
REMARK    3  A    between atoms: N5_16  and  C7_17 
REMARK    4  A    between atoms: C7_17  and  O2_18 
REMARK    5  A    between atoms: C7_17  and  C8_20 
REMARK    6  A    between atoms: C8_20  and  O3_21 
REMARK    7  A    between atoms: N7_28  and  C12_29 
REMARK    8  A    between atoms: C12_29  and  C13_30 
REMARK    9  A    between atoms: C13_30  and  N8_31 
ROOT
HETATM    1  C1  UNL     1     -30.280   6.406 -26.232  1.00  0.00     0.682 A 
HETATM    2  N2  UNL     1     -30.392   5.413 -25.335  1.00  0.00    -0.154 N 
ATOM      3  H2  UNL     1     -29.901   4.535 -25.505  1.00  0.00     0.187 HD
HETATM    4  C2  UNL     1     -31.131   5.540 -24.219  1.00  0.00     0.290 A 
HETATM    5  O1  UNL     1     -31.238   4.612 -23.377  1.00  0.00    -0.265 OA
HETATM    6  C3  UNL     1     -31.768   6.770 -24.063  1.00  0.00     0.162 A 
HETATM    7  N3  UNL     1     -32.577   7.220 -23.086  1.00  0.00    -0.182 N 
ATOM      8  H3  UNL     1     -32.847   6.681 -22.263  1.00  0.00     0.184 HD
HETATM    9  C4  UNL     1     -32.982   8.479 -23.343  1.00  0.00     0.682 A 
HETATM   10  N6  UNL     1     -32.415   8.815 -24.498  1.00  0.00    -0.173 N 
ATOM     11  H6  UNL     1     -32.533   9.717 -24.959  1.00  0.00     0.186 HD
HETATM   12  C11 UNL     1     -31.659   7.799 -24.980  1.00  0.00     0.172 A 
HETATM   13  N7  UNL     1     -30.908   7.608 -26.069  1.00  0.00    -0.164 N 
ENDROOT
BRANCH   9  14
HETATM   14  N4  UNL     1     -33.855   9.203 -22.493  1.00  0.00    -0.214 N 
HETATM   15  C5  UNL     1     -33.880   9.092 -21.070  1.00  0.00     0.171 C 
HETATM   16  C6  UNL     1     -35.278   9.130 -20.497  1.00  0.00     0.296 C 
HETATM   17  N5  UNL     1     -36.302   9.104 -21.485  1.00  0.00     0.122 N 
HETATM   18  C9  UNL     1     -36.147  10.062 -22.555  1.00  0.00     0.296 C 
HETATM   19  C10 UNL     1     -34.778  10.121 -23.145  1.00  0.00     0.171 C 
BRANCH  17  20
HETATM   20  C7  UNL     1     -37.599   9.346 -20.896  1.00  0.00     0.380 C 
BRANCH  20  21
HETATM   21  O2  UNL     1     -37.496   9.797 -19.579  1.00  0.00    -0.366 OA
ATOM     22  H2  UNL     1     -37.758   9.131 -18.955  1.00  0.00     0.212 HD
ENDBRANCH  20  21
BRANCH  20  23
HETATM   23  C8  UNL     1     -38.494   8.156 -20.996  1.00  0.00     0.228 C 
BRANCH  23  24
HETATM   24  O3  UNL     1     -38.679   7.639 -19.706  1.00  0.00    -0.396 OA
ATOM     25  H3  UNL     1     -39.469   8.022 -19.344  1.00  0.00     0.209 HD
ENDBRANCH  23  24
ENDBRANCH  20  23
ENDBRANCH  17  20
ENDBRANCH   9  14
BRANCH  13  26
HETATM   26  C12 UNL     1     -30.763   8.607 -27.071  1.00  0.00     0.171 C 
BRANCH  26  27
HETATM   27  C13 UNL     1     -31.912   8.815 -27.987  1.00  0.00     0.169 C 
BRANCH  27  28
HETATM   28  N8  UNL     1     -32.309  10.184 -28.204  1.00  0.00    -0.302 N 
HETATM   29  C14 UNL     1     -32.330  11.163 -27.278  1.00  0.00     0.111 A 
HETATM   30  C15 UNL     1     -32.775  12.330 -27.882  1.00  0.00     0.037 A 
HETATM   31  C16 UNL     1     -33.015  12.008 -29.196  1.00  0.00     0.108 A 
HETATM   32  N9  UNL     1     -32.726  10.706 -29.364  1.00  0.00    -0.310 N 
ATOM     33  H9  UNL     1     -32.812  10.193 -30.242  1.00  0.00     0.186 HD
ENDBRANCH  27  28
ENDBRANCH  26  27
ENDBRANCH  13  26
BRANCH   1  34
HETATM   34  N1  UNL     1     -29.546   6.181 -27.271  1.00  0.00    -0.234 N 
ATOM     35  H12 UNL     1     -29.333   5.226 -27.562  1.00  0.00     0.174 HD
ATOM     36  H11 UNL     1     -29.196   6.995 -27.778  1.00  0.00     0.174 HD
ENDBRANCH   1  34
TORSDOF 9
ENDMDL
