MODEL 1
REMARK VINA RESULT: -4.706608734      0.000      0.000
REMARK  1 active torsions:
REMARK  status: ('A' for Active; 'I' for Inactive)
REMARK    1  A    between atoms: C6_7  and  N1_8 
ROOT
HETATM    1  C1  UNL     1       0.878 101.674  26.819  1.00  0.00     0.012 C 
HETATM    2  C2  UNL     1       1.271 100.605  25.792  1.00  0.00     0.016 C 
HETATM    3  C3  UNL     1       1.809  99.448  26.547  1.00  0.00     0.032 C 
HETATM    4  C4  UNL     1       3.316  99.355  26.419  1.00  0.00     0.168 C 
HETATM    5  O1  UNL     1       3.538  99.214  25.037  1.00  0.00    -0.389 OA
HETATM    6  C5  UNL     1       3.423 100.458  24.476  1.00  0.00     0.200 C 
HETATM    7  C6  UNL     1       2.128 101.152  24.722  1.00  0.00     0.210 C 
ENDROOT
BRANCH   7   8
HETATM    8  N1  UNL     1       1.437 101.243  23.451  1.00  0.00    -0.073 N 
ATOM      9  H13 UNL     1       0.642 101.880  23.510  1.00  0.00     0.274 HD
ATOM     10  H12 UNL     1       1.998 101.744  22.763  1.00  0.00     0.274 HD
ATOM     11  H11 UNL     1       1.150 100.331  23.097  1.00  0.00     0.274 HD
ENDBRANCH   7   8
TORSDOF 1
ENDMDL
MODEL 2
REMARK VINA RESULT: -4.272892610      2.889      3.670
REMARK  1 active torsions:
REMARK  status: ('A' for Active; 'I' for Inactive)
REMARK    1  A    between atoms: C6_7  and  N1_8 
ROOT
HETATM    1  C1  UNL     1       3.414 105.181  24.890  1.00  0.00     0.012 C 
HETATM    2  C2  UNL     1       2.940 104.078  23.936  1.00  0.00     0.016 C 
HETATM    3  C3  UNL     1       1.583 103.672  24.375  1.00  0.00     0.032 C 
HETATM    4  C4  UNL     1       1.604 102.322  25.063  1.00  0.00     0.168 C 
HETATM    5  O1  UNL     1       2.113 101.444  24.089  1.00  0.00    -0.389 OA
HETATM    6  C5  UNL     1       3.472 101.610  24.059  1.00  0.00     0.200 C 
HETATM    7  C6  UNL     1       3.939 103.000  23.795  1.00  0.00     0.210 C 
ENDROOT
BRANCH   7   8
HETATM    8  N1  UNL     1       4.577 103.003  22.493  1.00  0.00    -0.073 N 
ATOM      9  H13 UNL     1       5.030 103.898  22.308  1.00  0.00     0.274 HD
ATOM     10  H12 UNL     1       5.398 102.398  22.485  1.00  0.00     0.274 HD
ATOM     11  H11 UNL     1       3.932 102.757  21.743  1.00  0.00     0.274 HD
ENDBRANCH   7   8
TORSDOF 1
ENDMDL
MODEL 3
REMARK VINA RESULT: -4.157293570      1.585      2.465
REMARK  1 active torsions:
REMARK  status: ('A' for Active; 'I' for Inactive)
REMARK    1  A    between atoms: C6_7  and  N1_8 
ROOT
HETATM    1  C1  UNL     1       0.716 101.527  23.717  1.00  0.00     0.012 C 
HETATM    2  C2  UNL     1       1.697 101.488  24.896  1.00  0.00     0.016 C 
HETATM    3  C3  UNL     1       3.055 101.307  24.331  1.00  0.00     0.032 C 
HETATM    4  C4  UNL     1       3.567  99.899  24.556  1.00  0.00     0.168 C 
HETATM    5  O1  UNL     1       3.569  99.750  25.954  1.00  0.00    -0.389 OA
HETATM    6  C5  UNL     1       2.280  99.497  26.340  1.00  0.00     0.200 C 
HETATM    7  C6  UNL     1       1.279 100.523  25.933  1.00  0.00     0.210 C 
ENDROOT
BRANCH   7   8
HETATM    8  N1  UNL     1       0.809 101.174  27.139  1.00  0.00    -0.073 N 
ATOM      9  H13 UNL     1      -0.089 101.632  26.984  1.00  0.00     0.274 HD
ATOM     10  H12 UNL     1       0.526 100.490  27.840  1.00  0.00     0.274 HD
ATOM     11  H11 UNL     1       1.493 101.828  27.520  1.00  0.00     0.274 HD
ENDBRANCH   7   8
TORSDOF 1
ENDMDL
MODEL 4
REMARK VINA RESULT: -4.086216061      1.977      2.735
REMARK  1 active torsions:
REMARK  status: ('A' for Active; 'I' for Inactive)
REMARK    1  A    between atoms: C6_7  and  N1_8 
ROOT
HETATM    1  C1  UNL     1       0.031 102.387  24.156  1.00  0.00     0.012 C 
HETATM    2  C2  UNL     1       1.266 102.136  25.031  1.00  0.00     0.016 C 
HETATM    3  C3  UNL     1       2.332 103.051  24.559  1.00  0.00     0.032 C 
HETATM    4  C4  UNL     1       3.398 102.307  23.781  1.00  0.00     0.168 C 
HETATM    5  O1  UNL     1       3.900 101.364  24.695  1.00  0.00    -0.389 OA
HETATM    6  C5  UNL     1       3.007 100.327  24.744  1.00  0.00     0.200 C 
HETATM    7  C6  UNL     1       1.611 100.702  25.104  1.00  0.00     0.210 C 
ENDROOT
BRANCH   7   8
HETATM    8  N1  UNL     1       1.330 100.130  26.406  1.00  0.00    -0.073 N 
ATOM      9  H13 UNL     1       2.079 100.337  27.067  1.00  0.00     0.274 HD
ATOM     10  H12 UNL     1       0.565 100.623  26.866  1.00  0.00     0.274 HD
ATOM     11  H11 UNL     1       1.147  99.128  26.360  1.00  0.00     0.274 HD
ENDBRANCH   7   8
TORSDOF 1
ENDMDL
MODEL 5
REMARK VINA RESULT: -4.071881060      2.054      2.845
REMARK  1 active torsions:
REMARK  status: ('A' for Active; 'I' for Inactive)
REMARK    1  A    between atoms: C6_7  and  N1_8 
ROOT
HETATM    1  C1  UNL     1       0.238 103.006  24.085  1.00  0.00     0.012 C 
HETATM    2  C2  UNL     1       1.207 102.526  25.173  1.00  0.00     0.016 C 
HETATM    3  C3  UNL     1       2.404 101.984  24.486  1.00  0.00     0.032 C 
HETATM    4  C4  UNL     1       2.438 100.470  24.544  1.00  0.00     0.168 C 
HETATM    5  O1  UNL     1       2.458 100.175  25.918  1.00  0.00    -0.389 OA
HETATM    6  C5  UNL     1       1.177 100.308  26.383  1.00  0.00     0.200 C 
HETATM    7  C6  UNL     1       0.547 101.638  26.150  1.00  0.00     0.210 C 
ENDROOT
BRANCH   7   8
HETATM    8  N1  UNL     1       0.374 102.269  27.443  1.00  0.00    -0.073 N 
ATOM      9  H13 UNL     1       0.975 101.838  28.146  1.00  0.00     0.274 HD
ATOM     10  H12 UNL     1       0.765 103.210  27.448  1.00  0.00     0.274 HD
ATOM     11  H11 UNL     1      -0.599 102.274  27.747  1.00  0.00     0.274 HD
ENDBRANCH   7   8
TORSDOF 1
ENDMDL
