MODEL 1
REMARK VINA RESULT: -4.094948520      0.000      0.000
REMARK  1 active torsions:
REMARK  status: ('A' for Active; 'I' for Inactive)
REMARK    1  A    between atoms: C2_2  and  C3_6 
ROOT
HETATM    1  C1  UNL     1       1.261 100.208  26.400  1.00  0.00     0.070 C 
HETATM    2  C2  UNL     1       2.592  99.694  26.015  1.00  0.00     0.034 C 
HETATM    3  N1  UNL     1       3.123  98.830  26.794  1.00  0.00    -0.400 N 
ATOM      4  H11 UNL     1       4.042  98.476  26.528  1.00  0.00     0.156 HD
ATOM      5  H12 UNL     1       2.607  98.546  27.626  1.00  0.00     0.156 HD
ENDROOT
BRANCH   2   6
HETATM    6  C3  UNL     1       3.326 100.099  24.832  1.00  0.00     0.134 C 
HETATM    7  N2  UNL     1       4.206  99.211  24.163  1.00  0.00    -0.088 NA
HETATM    8  S1  UNL     1       3.178 101.607  24.199  1.00  0.00    -0.062 SA
ENDBRANCH   2   6
TORSDOF 1
ENDMDL
MODEL 2
REMARK VINA RESULT: -4.093404567      2.198      2.897
REMARK  1 active torsions:
REMARK  status: ('A' for Active; 'I' for Inactive)
REMARK    1  A    between atoms: C2_2  and  C3_6 
ROOT
HETATM    1  C1  UNL     1       3.795 102.437  23.980  1.00  0.00     0.070 C 
HETATM    2  C2  UNL     1       2.857 101.313  24.187  1.00  0.00     0.034 C 
HETATM    3  N1  UNL     1       1.664 101.471  23.753  1.00  0.00    -0.400 N 
ATOM      4  H11 UNL     1       1.017 100.695  23.896  1.00  0.00     0.156 HD
ATOM      5  H12 UNL     1       1.428 102.350  23.293  1.00  0.00     0.156 HD
ENDROOT
BRANCH   2   6
HETATM    6  C3  UNL     1       3.193 100.063  24.841  1.00  0.00     0.134 C 
HETATM    7  N2  UNL     1       4.161  99.179  24.301  1.00  0.00    -0.088 NA
HETATM    8  S1  UNL     1       2.473  99.603  26.242  1.00  0.00    -0.062 SA
ENDBRANCH   2   6
TORSDOF 1
ENDMDL
MODEL 3
REMARK VINA RESULT: -3.932675918      2.115      2.618
REMARK  1 active torsions:
REMARK  status: ('A' for Active; 'I' for Inactive)
REMARK    1  A    between atoms: C2_2  and  C3_6 
ROOT
HETATM    1  C1  UNL     1       1.131 101.437  24.153  1.00  0.00     0.070 C 
HETATM    2  C2  UNL     1       2.579 101.148  24.233  1.00  0.00     0.034 C 
HETATM    3  N1  UNL     1       3.367 102.001  23.697  1.00  0.00    -0.400 N 
ATOM      4  H11 UNL     1       4.366 101.801  23.752  1.00  0.00     0.156 HD
ATOM      5  H12 UNL     1       2.961 102.822  23.250  1.00  0.00     0.156 HD
ENDROOT
BRANCH   2   6
HETATM    6  C3  UNL     1       3.156  99.980  24.869  1.00  0.00     0.134 C 
HETATM    7  N2  UNL     1       4.193  99.235  24.252  1.00  0.00    -0.088 NA
HETATM    8  S1  UNL     1       2.643  99.455  26.337  1.00  0.00    -0.062 SA
ENDBRANCH   2   6
TORSDOF 1
ENDMDL
MODEL 4
REMARK VINA RESULT: -3.877764817      2.207      3.198
REMARK  1 active torsions:
REMARK  status: ('A' for Active; 'I' for Inactive)
REMARK    1  A    between atoms: C2_2  and  C3_6 
ROOT
HETATM    1  C1  UNL     1       3.582  99.986  24.737  1.00  0.00     0.070 C 
HETATM    2  C2  UNL     1       2.282 100.688  24.737  1.00  0.00     0.034 C 
HETATM    3  N1  UNL     1       2.007 101.391  23.705  1.00  0.00    -0.400 N 
ATOM      4  H11 UNL     1       1.109 101.876  23.705  1.00  0.00     0.156 HD
ATOM      5  H12 UNL     1       2.689 101.428  22.948  1.00  0.00     0.156 HD
ENDROOT
BRANCH   2   6
HETATM    6  C3  UNL     1       1.311 100.636  25.814  1.00  0.00     0.134 C 
HETATM    7  N2  UNL     1       1.356  99.624  26.806  1.00  0.00    -0.088 NA
HETATM    8  S1  UNL     1       0.108 101.745  25.945  1.00  0.00    -0.062 SA
ENDBRANCH   2   6
TORSDOF 1
ENDMDL
MODEL 5
REMARK VINA RESULT: -3.855017571      2.272      2.912
REMARK  1 active torsions:
REMARK  status: ('A' for Active; 'I' for Inactive)
REMARK    1  A    between atoms: C2_2  and  C3_6 
ROOT
HETATM    1  C1  UNL     1       0.173 102.190  25.812  1.00  0.00     0.070 C 
HETATM    2  C2  UNL     1       1.040 101.300  25.012  1.00  0.00     0.034 C 
HETATM    3  N1  UNL     1       0.971 101.418  23.741  1.00  0.00    -0.400 N 
ATOM      4  H11 UNL     1       1.570 100.803  23.189  1.00  0.00     0.156 HD
ATOM      5  H12 UNL     1       0.330 102.110  23.353  1.00  0.00     0.156 HD
ENDROOT
BRANCH   2   6
HETATM    6  C3  UNL     1       1.951 100.316  25.565  1.00  0.00     0.134 C 
HETATM    7  N2  UNL     1       1.610  99.545  26.704  1.00  0.00    -0.088 NA
HETATM    8  S1  UNL     1       3.427 100.039  24.901  1.00  0.00    -0.062 SA
ENDBRANCH   2   6
TORSDOF 1
ENDMDL
