MODEL 1
REMARK VINA RESULT: -3.529647492      0.000      0.000
REMARK  2 active torsions:
REMARK  status: ('A' for Active; 'I' for Inactive)
REMARK    1  A    between atoms: O1_2  and  C2_3 
REMARK    2  A    between atoms: C2_3  and  N1_5 
ROOT
HETATM    1  N1  UNL     1       0.947 101.345  23.742  1.00  0.00    -0.277 N 
ATOM      2  H1  UNL     1       0.595 100.606  23.133  1.00  0.00     0.189 HD
HETATM    3  N2  UNL     1       0.290 102.410  23.801  1.00  0.00    -0.343 N 
ATOM      4  H21 UNL     1      -0.570 102.592  23.284  1.00  0.00     0.176 HD
ATOM      5  H22 UNL     1       0.656 103.137  24.414  1.00  0.00     0.176 HD
ENDROOT
BRANCH   1   6
HETATM    6  C2  UNL     1       2.142 101.092  24.459  1.00  0.00     0.228 C 
HETATM    7  S1  UNL     1       3.537 101.877  24.130  1.00  0.00    -0.032 SA
BRANCH   6   8
HETATM    8  O1  UNL     1       2.114 100.153  25.461  1.00  0.00    -0.331 OA
HETATM    9  C1  UNL     1       1.173 100.137  26.517  1.00  0.00     0.212 C 
ENDBRANCH   6   8
ENDBRANCH   1   6
TORSDOF 2
ENDMDL
MODEL 2
REMARK VINA RESULT: -3.507544026      1.842      2.014
REMARK  2 active torsions:
REMARK  status: ('A' for Active; 'I' for Inactive)
REMARK    1  A    between atoms: O1_2  and  C2_3 
REMARK    2  A    between atoms: C2_3  and  N1_5 
ROOT
HETATM    1  N1  UNL     1       0.613 101.947  23.854  1.00  0.00    -0.277 N 
ATOM      2  H1  UNL     1       1.102 102.430  23.102  1.00  0.00     0.189 HD
HETATM    3  N2  UNL     1      -0.624 102.121  23.949  1.00  0.00    -0.343 N 
ATOM      4  H21 UNL     1      -1.177 102.711  23.328  1.00  0.00     0.176 HD
ATOM      5  H22 UNL     1      -1.096 101.630  24.707  1.00  0.00     0.176 HD
ENDROOT
BRANCH   1   6
HETATM    6  C2  UNL     1       1.382 101.127  24.716  1.00  0.00     0.228 C 
HETATM    7  S1  UNL     1       0.882 100.737  26.223  1.00  0.00    -0.032 SA
BRANCH   6   8
HETATM    8  O1  UNL     1       2.586 100.649  24.259  1.00  0.00    -0.331 OA
HETATM    9  C1  UNL     1       3.479  99.864  25.025  1.00  0.00     0.212 C 
ENDBRANCH   6   8
ENDBRANCH   1   6
TORSDOF 2
ENDMDL
MODEL 3
REMARK VINA RESULT: -3.492734271      2.388      2.732
REMARK  2 active torsions:
REMARK  status: ('A' for Active; 'I' for Inactive)
REMARK    1  A    between atoms: O1_2  and  C2_3 
REMARK    2  A    between atoms: C2_3  and  N1_5 
ROOT
HETATM    1  N1  UNL     1       1.167 100.544  26.231  1.00  0.00    -0.277 N 
ATOM      2  H1  UNL     1       0.699 101.359  26.627  1.00  0.00     0.189 HD
HETATM    3  N2  UNL     1       1.115  99.474  26.879  1.00  0.00    -0.343 N 
ATOM      4  H21 UNL     1       0.640  99.357  27.773  1.00  0.00     0.176 HD
ATOM      5  H22 UNL     1       1.589  98.670  26.468  1.00  0.00     0.176 HD
ENDROOT
BRANCH   1   6
HETATM    6  C2  UNL     1       1.827 100.707  24.989  1.00  0.00     0.228 C 
HETATM    7  S1  UNL     1       3.376 100.237  24.758  1.00  0.00    -0.032 SA
BRANCH   6   8
HETATM    8  O1  UNL     1       1.133 101.278  23.951  1.00  0.00    -0.331 OA
HETATM    9  C1  UNL     1      -0.041 102.053  24.103  1.00  0.00     0.212 C 
ENDBRANCH   6   8
ENDBRANCH   1   6
TORSDOF 2
ENDMDL
MODEL 4
REMARK VINA RESULT: -3.437799541      1.923      1.923
REMARK  2 active torsions:
REMARK  status: ('A' for Active; 'I' for Inactive)
REMARK    1  A    between atoms: O1_2  and  C2_3 
REMARK    2  A    between atoms: C2_3  and  N1_5 
ROOT
HETATM    1  N1  UNL     1       1.481 101.357  23.887  1.00  0.00    -0.277 N 
ATOM      2  H1  UNL     1       2.122 101.311  23.095  1.00  0.00     0.189 HD
HETATM    3  N2  UNL     1       0.466 102.081  23.770  1.00  0.00    -0.343 N 
ATOM      4  H21 UNL     1       0.233 102.628  22.942  1.00  0.00     0.176 HD
ATOM      5  H22 UNL     1      -0.164 102.114  24.571  1.00  0.00     0.176 HD
ENDROOT
BRANCH   1   6
HETATM    6  C2  UNL     1       1.804 100.597  25.038  1.00  0.00     0.228 C 
HETATM    7  S1  UNL     1       0.895 100.642  26.395  1.00  0.00    -0.032 SA
BRANCH   6   8
HETATM    8  O1  UNL     1       2.922  99.799  24.999  1.00  0.00    -0.331 OA
HETATM    9  C1  UNL     1       3.461  99.122  26.118  1.00  0.00     0.212 C 
ENDBRANCH   6   8
ENDBRANCH   1   6
TORSDOF 2
ENDMDL
MODEL 5
REMARK VINA RESULT: -3.432507486      1.217      1.217
REMARK  2 active torsions:
REMARK  status: ('A' for Active; 'I' for Inactive)
REMARK    1  A    between atoms: O1_2  and  C2_3 
REMARK    2  A    between atoms: C2_3  and  N1_5 
ROOT
HETATM    1  N1  UNL     1       1.433 101.176  23.549  1.00  0.00    -0.277 N 
ATOM      2  H1  UNL     1       1.137 100.461  22.885  1.00  0.00     0.189 HD
HETATM    3  N2  UNL     1       0.601 102.059  23.859  1.00  0.00    -0.343 N 
ATOM      4  H21 UNL     1      -0.350 102.115  23.496  1.00  0.00     0.176 HD
ATOM      5  H22 UNL     1       0.914 102.765  24.525  1.00  0.00     0.176 HD
ENDROOT
BRANCH   1   6
HETATM    6  C2  UNL     1       2.755 101.097  24.053  1.00  0.00     0.228 C 
HETATM    7  S1  UNL     1       3.732 102.404  24.141  1.00  0.00    -0.032 SA
BRANCH   6   8
HETATM    8  O1  UNL     1       3.218  99.877  24.480  1.00  0.00    -0.331 OA
HETATM    9  C1  UNL     1       3.251  99.461  25.831  1.00  0.00     0.212 C 
ENDBRANCH   6   8
ENDBRANCH   1   6
TORSDOF 2
ENDMDL
