MODEL 1
REMARK VINA RESULT: -3.657060445      0.000      0.000
REMARK  2 active torsions:
REMARK  status: ('A' for Active; 'I' for Inactive)
REMARK    1  A    between atoms: N1_2  and  N2_4 
REMARK    2  A    between atoms: N2_4  and  C2_6 
ROOT
HETATM    1  N2  UNL     1       1.342 101.517  23.816  1.00  0.00    -0.285 N 
ATOM      2  H2  UNL     1       1.942 101.835  23.055  1.00  0.00     0.188 HD
ENDROOT
BRANCH   1   3
HETATM    3  N1  UNL     1      -0.014 101.838  23.757  1.00  0.00    -0.321 N 
HETATM    4  C1  UNL     1      -0.446 103.043  23.982  1.00  0.00     0.139 C 
ATOM      5  H1  UNL     1      -0.687 101.106  23.532  1.00  0.00     0.185 HD
ENDBRANCH   1   3
BRANCH   1   6
HETATM    6  C2  UNL     1       1.933 100.784  24.855  1.00  0.00     0.164 C 
HETATM    7  S1  UNL     1       3.434 100.149  24.785  1.00  0.00    -0.050 SA
HETATM    8  S2  UNL     1       1.000 100.522  26.352  1.00  0.00    -0.019 SA
ENDBRANCH   1   6
TORSDOF 2
ENDMDL
MODEL 2
REMARK VINA RESULT: -3.633049021      0.078      1.687
REMARK  2 active torsions:
REMARK  status: ('A' for Active; 'I' for Inactive)
REMARK    1  A    between atoms: N1_2  and  N2_4 
REMARK    2  A    between atoms: N2_4  and  C2_6 
ROOT
HETATM    1  N2  UNL     1       1.290 101.536  23.865  1.00  0.00    -0.285 N 
ATOM      2  H2  UNL     1       1.934 101.837  23.134  1.00  0.00     0.188 HD
ENDROOT
BRANCH   1   3
HETATM    3  N1  UNL     1      -0.056 101.877  23.732  1.00  0.00    -0.321 N 
HETATM    4  C1  UNL     1      -0.490 103.076  23.981  1.00  0.00     0.139 C 
ATOM      5  H1  UNL     1      -0.719 101.164  23.429  1.00  0.00     0.185 HD
ENDBRANCH   1   3
BRANCH   1   6
HETATM    6  C2  UNL     1       1.814 100.806  24.942  1.00  0.00     0.164 C 
HETATM    7  S1  UNL     1       1.010 100.530  26.334  1.00  0.00    -0.050 SA
HETATM    8  S2  UNL     1       3.458 100.132  24.795  1.00  0.00    -0.019 SA
ENDBRANCH   1   6
TORSDOF 2
ENDMDL
MODEL 3
REMARK VINA RESULT: -3.450469740      1.203      2.082
REMARK  2 active torsions:
REMARK  status: ('A' for Active; 'I' for Inactive)
REMARK    1  A    between atoms: N1_2  and  N2_4 
REMARK    2  A    between atoms: N2_4  and  C2_6 
ROOT
HETATM    1  N2  UNL     1       1.304 101.565  23.897  1.00  0.00    -0.285 N 
ATOM      2  H2  UNL     1       1.093 101.081  23.023  1.00  0.00     0.188 HD
ENDROOT
BRANCH   1   3
HETATM    3  N1  UNL     1       1.063 102.937  23.958  1.00  0.00    -0.321 N 
HETATM    4  C1  UNL     1       1.973 103.779  24.347  1.00  0.00     0.139 C 
ATOM      5  H1  UNL     1       0.144 103.290  23.691  1.00  0.00     0.185 HD
ENDBRANCH   1   3
BRANCH   1   6
HETATM    6  C2  UNL     1       1.817 100.807  24.959  1.00  0.00     0.164 C 
HETATM    7  S1  UNL     1       1.009 100.515  26.346  1.00  0.00    -0.050 SA
HETATM    8  S2  UNL     1       3.452 100.112  24.799  1.00  0.00    -0.019 SA
ENDBRANCH   1   6
TORSDOF 2
ENDMDL
MODEL 4
REMARK VINA RESULT: -3.322556913      1.379      1.890
REMARK  2 active torsions:
REMARK  status: ('A' for Active; 'I' for Inactive)
REMARK    1  A    between atoms: N1_2  and  N2_4 
REMARK    2  A    between atoms: N2_4  and  C2_6 
ROOT
HETATM    1  N2  UNL     1       1.483 101.230  23.525  1.00  0.00    -0.285 N 
ATOM      2  H2  UNL     1       1.359 100.562  22.763  1.00  0.00     0.188 HD
ENDROOT
BRANCH   1   3
HETATM    3  N1  UNL     1       0.410 102.059  23.849  1.00  0.00    -0.321 N 
HETATM    4  C1  UNL     1      -0.127 102.059  25.032  1.00  0.00     0.139 C 
ATOM      5  H1  UNL     1       0.034 102.683  23.136  1.00  0.00     0.185 HD
ENDBRANCH   1   3
BRANCH   1   6
HETATM    6  C2  UNL     1       2.723 101.255  24.179  1.00  0.00     0.164 C 
HETATM    7  S1  UNL     1       3.328 100.006  25.037  1.00  0.00    -0.050 SA
HETATM    8  S2  UNL     1       3.712 102.735  24.077  1.00  0.00    -0.019 SA
ENDBRANCH   1   6
TORSDOF 2
ENDMDL
MODEL 5
REMARK VINA RESULT: -3.285206769      1.423      1.803
REMARK  2 active torsions:
REMARK  status: ('A' for Active; 'I' for Inactive)
REMARK    1  A    between atoms: N1_2  and  N2_4 
REMARK    2  A    between atoms: N2_4  and  C2_6 
ROOT
HETATM    1  N2  UNL     1       1.546 101.515  23.784  1.00  0.00    -0.285 N 
ATOM      2  H2  UNL     1       1.121 100.658  23.429  1.00  0.00     0.188 HD
ENDROOT
BRANCH   1   3
HETATM    3  N1  UNL     1       0.752 102.660  23.846  1.00  0.00    -0.321 N 
HETATM    4  C1  UNL     1      -0.515 102.605  24.127  1.00  0.00     0.139 C 
ATOM      5  H1  UNL     1       1.179 103.569  23.664  1.00  0.00     0.185 HD
ENDBRANCH   1   3
BRANCH   1   6
HETATM    6  C2  UNL     1       2.890 101.468  24.180  1.00  0.00     0.164 C 
HETATM    7  S1  UNL     1       3.933 102.712  24.019  1.00  0.00    -0.050 SA
HETATM    8  S2  UNL     1       3.513  99.962  24.905  1.00  0.00    -0.019 SA
ENDBRANCH   1   6
TORSDOF 2
ENDMDL
