MODEL 1
REMARK VINA RESULT: -3.976214016      0.000      0.000
REMARK  0 active torsions:
REMARK  status: ('A' for Active; 'I' for Inactive)
ROOT
HETATM    1  C1  UNL     1       2.121 101.070  23.796  1.00  0.00     0.031 C 
HETATM    2  C2  UNL     1       2.072 101.171  25.282  1.00  0.00     0.117 C 
HETATM    3  N1  UNL     1       1.835  99.898  25.940  1.00  0.00    -0.123 NA
HETATM    4  N2  UNL     1       0.870 100.123  26.922  1.00  0.00    -0.039 NA
HETATM    5  N3  UNL     1       0.894 101.513  27.189  1.00  0.00    -0.119 NA
HETATM    6  C3  UNL     1       0.914 101.997  25.795  1.00  0.00     0.059 C 
HETATM    7  C4  UNL     1       1.143 103.461  25.738  1.00  0.00     0.037 C 
HETATM    8  C5  UNL     1      -0.380 101.562  25.177  1.00  0.00     0.037 C 
ENDROOT
TORSDOF 0
ENDMDL
MODEL 2
REMARK VINA RESULT: -3.923986875      1.708      2.238
REMARK  0 active torsions:
REMARK  status: ('A' for Active; 'I' for Inactive)
ROOT
HETATM    1  C1  UNL     1       1.900 104.202  24.105  1.00  0.00     0.031 C 
HETATM    2  C2  UNL     1       2.204 102.948  24.851  1.00  0.00     0.117 C 
HETATM    3  N1  UNL     1       2.973 101.988  24.079  1.00  0.00    -0.123 NA
HETATM    4  N2  UNL     1       2.378 100.741  24.276  1.00  0.00    -0.039 NA
HETATM    5  N3  UNL     1       1.630 100.844  25.473  1.00  0.00    -0.119 NA
HETATM    6  C3  UNL     1       0.976 102.139  25.203  1.00  0.00     0.059 C 
HETATM    7  C4  UNL     1       0.248 102.633  26.397  1.00  0.00     0.037 C 
HETATM    8  C5  UNL     1       0.100 101.932  24.004  1.00  0.00     0.037 C 
ENDROOT
TORSDOF 0
ENDMDL
MODEL 3
REMARK VINA RESULT: -3.828311656      1.553      2.606
REMARK  0 active torsions:
REMARK  status: ('A' for Active; 'I' for Inactive)
ROOT
HETATM    1  C1  UNL     1       0.592 102.112  26.999  1.00  0.00     0.031 C 
HETATM    2  C2  UNL     1       0.668 101.310  25.746  1.00  0.00     0.117 C 
HETATM    3  N1  UNL     1       1.835 100.448  25.681  1.00  0.00    -0.123 NA
HETATM    4  N2  UNL     1       2.374 100.591  24.402  1.00  0.00    -0.039 NA
HETATM    5  N3  UNL     1       1.332 101.096  23.588  1.00  0.00    -0.119 NA
HETATM    6  C3  UNL     1       0.842 102.149  24.499  1.00  0.00     0.059 C 
HETATM    7  C4  UNL     1      -0.414 102.753  23.996  1.00  0.00     0.037 C 
HETATM    8  C5  UNL     1       1.964 103.130  24.657  1.00  0.00     0.037 C 
ENDROOT
TORSDOF 0
ENDMDL
MODEL 4
REMARK VINA RESULT: -3.787615521      2.499      3.267
REMARK  0 active torsions:
REMARK  status: ('A' for Active; 'I' for Inactive)
ROOT
HETATM    1  C1  UNL     1       2.366 104.326  25.188  1.00  0.00     0.031 C 
HETATM    2  C2  UNL     1       1.565 103.501  24.240  1.00  0.00     0.117 C 
HETATM    3  N1  UNL     1       0.258 104.063  23.948  1.00  0.00    -0.123 NA
HETATM    4  N2  UNL     1      -0.660 103.016  24.023  1.00  0.00    -0.039 NA
HETATM    5  N3  UNL     1       0.086 101.824  23.864  1.00  0.00    -0.119 NA
HETATM    6  C3  UNL     1       1.192 102.141  24.787  1.00  0.00     0.059 C 
HETATM    7  C4  UNL     1       2.276 101.134  24.693  1.00  0.00     0.037 C 
HETATM    8  C5  UNL     1       0.587 102.252  26.154  1.00  0.00     0.037 C 
ENDROOT
TORSDOF 0
ENDMDL
MODEL 5
REMARK VINA RESULT: -3.710682901      2.551      2.989
REMARK  0 active torsions:
REMARK  status: ('A' for Active; 'I' for Inactive)
ROOT
HETATM    1  C1  UNL     1       1.980 100.711  25.104  1.00  0.00     0.031 C 
HETATM    2  C2  UNL     1       1.968 101.938  24.258  1.00  0.00     0.117 C 
HETATM    3  N1  UNL     1       3.156 102.759  24.413  1.00  0.00    -0.123 NA
HETATM    4  N2  UNL     1       2.724 104.080  24.526  1.00  0.00    -0.039 NA
HETATM    5  N3  UNL     1       1.423 104.120  23.970  1.00  0.00    -0.119 NA
HETATM    6  C3  UNL     1       0.875 102.917  24.624  1.00  0.00     0.059 C 
HETATM    7  C4  UNL     1      -0.458 102.567  24.077  1.00  0.00     0.037 C 
HETATM    8  C5  UNL     1       0.869 103.199  26.096  1.00  0.00     0.037 C 
ENDROOT
TORSDOF 0
ENDMDL
