MODEL 1
REMARK VINA RESULT: -8.502344589      0.000      0.000
REMARK  6 active torsions:
REMARK  status: ('A' for Active; 'I' for Inactive)
REMARK    1  A    between atoms: C3_3  and  N1_4 
REMARK    2  A    between atoms: N1_4  and  C4_6 
REMARK    3  A    between atoms: C7_9  and  N2_10 
REMARK    4  A    between atoms: N2_10  and  C8_12 
REMARK    5  A    between atoms: C20_24  and  C21_25 
REMARK    6  A    between atoms: C21_25  and  N3_26 
ROOT
HETATM    1  C4  UNL     1      72.649  48.596  10.766  1.00  0.00     0.082 C 
HETATM    2  C5  UNL     1      74.085  48.955  10.388  1.00  0.00     0.027 C 
HETATM    3  C6  UNL     1      74.684  47.763   9.651  1.00  0.00     0.027 C 
HETATM    4  C7  UNL     1      73.635  47.098   8.809  1.00  0.00     0.077 C 
HETATM    5  C16 UNL     1      72.754  46.312   9.757  1.00  0.00     0.027 C 
HETATM    6  C17 UNL     1      72.659  47.104  11.044  1.00  0.00     0.027 C 
ENDROOT
BRANCH   1   7
HETATM    7  N1  UNL     1      72.347  49.272  12.004  1.00  0.00    -0.385 N 
ATOM      8  H1  UNL     1      73.026  49.281  12.766  1.00  0.00     0.160 HD
BRANCH   7   9
HETATM    9  C3  UNL     1      71.097  49.922  12.151  1.00  0.00     0.028 A 
HETATM   10  C2  UNL     1      70.889  50.940  13.050  1.00  0.00     0.029 A 
HETATM   11  C1  UNL     1      69.648  51.554  13.171  1.00  0.00     0.011 A 
HETATM   12  C20 UNL     1      68.562  51.182  12.404  1.00  0.00    -0.030 A 
HETATM   13  C19 UNL     1      68.762  50.161  11.501  1.00  0.00     0.011 A 
HETATM   14  C18 UNL     1      69.990  49.550  11.377  1.00  0.00     0.029 A 
BRANCH  12  15
HETATM   15  C21 UNL     1      67.249  51.869  12.590  1.00  0.00     0.311 C 
BRANCH  15  16
HETATM   16  N3  UNL     1      66.745  52.524  11.446  1.00  0.00     0.096 N 
HETATM   17  C22 UNL     1      67.450  53.664  11.016  1.00  0.00     0.299 C 
HETATM   18  C23 UNL     1      66.900  54.997  11.403  1.00  0.00     0.198 C 
HETATM   19  O1  UNL     1      65.533  55.093  11.279  1.00  0.00    -0.388 OA
HETATM   20  C24 UNL     1      64.989  54.103  12.105  1.00  0.00     0.198 C 
HETATM   21  C25 UNL     1      65.335  52.745  11.560  1.00  0.00     0.299 C 
ENDBRANCH  15  16
ENDBRANCH  12  15
ENDBRANCH   7   9
ENDBRANCH   1   7
BRANCH   4  22
HETATM   22  N2  UNL     1      74.010  46.438   7.649  1.00  0.00    -0.413 N 
ATOM     23  H2  UNL     1      73.623  45.506   7.500  1.00  0.00     0.154 HD
BRANCH  22  24
HETATM   24  C8  UNL     1      74.862  46.928   6.675  1.00  0.00     0.077 C 
HETATM   25  C9  UNL     1      74.745  48.316   6.177  1.00  0.00     0.024 C 
HETATM   26  C10 UNL     1      73.494  48.693   5.473  1.00  0.00     0.002 C 
HETATM   27  C11 UNL     1      73.609  48.552   3.974  1.00  0.00     0.000 C 
HETATM   28  C12 UNL     1      72.631  47.480   3.540  1.00  0.00     0.000 C 
HETATM   29  C13 UNL     1      73.319  46.159   3.567  1.00  0.00     0.000 C 
HETATM   30  C14 UNL     1      73.498  45.616   4.990  1.00  0.00     0.002 C 
HETATM   31  C15 UNL     1      74.851  45.962   5.480  1.00  0.00     0.024 C 
ENDBRANCH  22  24
ENDBRANCH   4  22
TORSDOF 6
ENDMDL
MODEL 2
REMARK VINA RESULT: -8.162704769      3.110      9.599
REMARK  6 active torsions:
REMARK  status: ('A' for Active; 'I' for Inactive)
REMARK    1  A    between atoms: C3_3  and  N1_4 
REMARK    2  A    between atoms: N1_4  and  C4_6 
REMARK    3  A    between atoms: C7_9  and  N2_10 
REMARK    4  A    between atoms: N2_10  and  C8_12 
REMARK    5  A    between atoms: C20_24  and  C21_25 
REMARK    6  A    between atoms: C21_25  and  N3_26 
ROOT
HETATM    1  C4  UNL     1      72.114  49.989  12.009  1.00  0.00     0.082 C 
HETATM    2  C5  UNL     1      70.868  49.366  11.381  1.00  0.00     0.027 C 
HETATM    3  C6  UNL     1      69.651  50.083  11.953  1.00  0.00     0.027 C 
HETATM    4  C7  UNL     1      69.962  51.535  12.166  1.00  0.00     0.077 C 
HETATM    5  C16 UNL     1      70.827  51.614  13.406  1.00  0.00     0.027 C 
HETATM    6  C17 UNL     1      71.708  50.384  13.418  1.00  0.00     0.027 C 
ENDROOT
BRANCH   1   7
HETATM    7  N1  UNL     1      73.110  48.952  12.113  1.00  0.00    -0.385 N 
ATOM      8  H1  UNL     1      73.634  48.824  12.980  1.00  0.00     0.160 HD
BRANCH   7   9
HETATM    9  C3  UNL     1      73.354  48.112  10.999  1.00  0.00     0.028 A 
HETATM   10  C2  UNL     1      73.861  48.580   9.811  1.00  0.00     0.029 A 
HETATM   11  C1  UNL     1      74.085  47.728   8.735  1.00  0.00     0.011 A 
HETATM   12  C20 UNL     1      73.815  46.375   8.796  1.00  0.00    -0.030 A 
HETATM   13  C19 UNL     1      73.306  45.898   9.985  1.00  0.00     0.011 A 
HETATM   14  C18 UNL     1      73.083  46.739  11.052  1.00  0.00     0.029 A 
BRANCH  12  15
HETATM   15  C21 UNL     1      74.063  45.512   7.603  1.00  0.00     0.311 C 
BRANCH  15  16
HETATM   16  N3  UNL     1      73.234  45.770   6.491  1.00  0.00     0.096 N 
HETATM   17  C22 UNL     1      71.870  45.456   6.640  1.00  0.00     0.299 C 
HETATM   18  C23 UNL     1      71.396  44.165   6.058  1.00  0.00     0.198 C 
HETATM   19  O1  UNL     1      71.909  43.895   4.810  1.00  0.00    -0.388 OA
HETATM   20  C24 UNL     1      73.300  43.864   4.951  1.00  0.00     0.198 C 
HETATM   21  C25 UNL     1      73.804  45.239   5.290  1.00  0.00     0.299 C 
ENDBRANCH  15  16
ENDBRANCH  12  15
ENDBRANCH   7   9
ENDBRANCH   1   7
BRANCH   4  22
HETATM   22  N2  UNL     1      68.941  52.469  12.084  1.00  0.00    -0.413 N 
ATOM     23  H2  UNL     1      68.720  52.990  12.932  1.00  0.00     0.154 HD
BRANCH  22  24
HETATM   24  C8  UNL     1      68.194  52.759  10.956  1.00  0.00     0.077 C 
HETATM   25  C9  UNL     1      67.928  54.155  10.545  1.00  0.00     0.024 C 
HETATM   26  C10 UNL     1      67.131  55.005  11.464  1.00  0.00     0.002 C 
HETATM   27  C11 UNL     1      65.661  55.009  11.119  1.00  0.00     0.000 C 
HETATM   28  C12 UNL     1      64.917  54.380  12.279  1.00  0.00     0.000 C 
HETATM   29  C13 UNL     1      64.815  52.912  12.047  1.00  0.00     0.000 C 
HETATM   30  C14 UNL     1      66.135  52.179  12.315  1.00  0.00     0.002 C 
HETATM   31  C15 UNL     1      66.862  51.997  11.038  1.00  0.00     0.024 C 
ENDBRANCH  22  24
ENDBRANCH   4  22
TORSDOF 6
ENDMDL
MODEL 3
REMARK VINA RESULT: -8.156176026      0.768      1.408
REMARK  6 active torsions:
REMARK  status: ('A' for Active; 'I' for Inactive)
REMARK    1  A    between atoms: C3_3  and  N1_4 
REMARK    2  A    between atoms: N1_4  and  C4_6 
REMARK    3  A    between atoms: C7_9  and  N2_10 
REMARK    4  A    between atoms: N2_10  and  C8_12 
REMARK    5  A    between atoms: C20_24  and  C21_25 
REMARK    6  A    between atoms: C21_25  and  N3_26 
ROOT
HETATM    1  C4  UNL     1      72.761  48.474  10.908  1.00  0.00     0.082 C 
HETATM    2  C5  UNL     1      74.044  48.983  10.254  1.00  0.00     0.027 C 
HETATM    3  C6  UNL     1      74.754  47.788   9.629  1.00  0.00     0.027 C 
HETATM    4  C7  UNL     1      73.748  46.820   9.081  1.00  0.00     0.077 C 
HETATM    5  C16 UNL     1      73.159  46.090  10.270  1.00  0.00     0.027 C 
HETATM    6  C17 UNL     1      73.085  47.079  11.413  1.00  0.00     0.027 C 
ENDROOT
BRANCH   1   7
HETATM    7  N1  UNL     1      72.501  49.308  12.056  1.00  0.00    -0.385 N 
ATOM      8  H1  UNL     1      73.220  49.445  12.767  1.00  0.00     0.160 HD
BRANCH   7   9
HETATM    9  C3  UNL     1      71.237  49.933  12.185  1.00  0.00     0.028 A 
HETATM   10  C2  UNL     1      71.006  50.971  13.056  1.00  0.00     0.029 A 
HETATM   11  C1  UNL     1      69.751  51.560  13.160  1.00  0.00     0.011 A 
HETATM   12  C20 UNL     1      68.674  51.143  12.403  1.00  0.00    -0.030 A 
HETATM   13  C19 UNL     1      68.898  50.102  11.529  1.00  0.00     0.011 A 
HETATM   14  C18 UNL     1      70.139  49.516  11.422  1.00  0.00     0.029 A 
BRANCH  12  15
HETATM   15  C21 UNL     1      67.346  51.805  12.570  1.00  0.00     0.311 C 
BRANCH  15  16
HETATM   16  N3  UNL     1      66.850  52.458  11.422  1.00  0.00     0.096 N 
HETATM   17  C22 UNL     1      67.600  53.552  10.951  1.00  0.00     0.299 C 
HETATM   18  C23 UNL     1      67.124  54.919  11.318  1.00  0.00     0.198 C 
HETATM   19  O1  UNL     1      65.761  55.079  11.219  1.00  0.00    -0.388 OA
HETATM   20  C24 UNL     1      65.187  54.136  12.079  1.00  0.00     0.198 C 
HETATM   21  C25 UNL     1      65.456  52.751  11.558  1.00  0.00     0.299 C 
ENDBRANCH  15  16
ENDBRANCH  12  15
ENDBRANCH   7   9
ENDBRANCH   1   7
BRANCH   4  22
HETATM   22  N2  UNL     1      74.086  46.027   7.996  1.00  0.00    -0.413 N 
ATOM     23  H2  UNL     1      75.045  45.681   7.955  1.00  0.00     0.154 HD
BRANCH  22  24
HETATM   24  C8  UNL     1      73.242  45.663   6.961  1.00  0.00     0.077 C 
HETATM   25  C9  UNL     1      73.772  45.242   5.646  1.00  0.00     0.024 C 
HETATM   26  C10 UNL     1      74.538  46.240   4.858  1.00  0.00     0.002 C 
HETATM   27  C11 UNL     1      73.674  46.979   3.864  1.00  0.00     0.000 C 
HETATM   28  C12 UNL     1      73.658  48.438   4.270  1.00  0.00     0.000 C 
HETATM   29  C13 UNL     1      72.519  48.666   5.203  1.00  0.00     0.000 C 
HETATM   30  C14 UNL     1      72.797  48.134   6.614  1.00  0.00     0.002 C 
HETATM   31  C15 UNL     1      72.210  46.783   6.752  1.00  0.00     0.024 C 
ENDBRANCH  22  24
ENDBRANCH   4  22
TORSDOF 6
ENDMDL
MODEL 4
REMARK VINA RESULT: -8.153493506      2.652      9.442
REMARK  6 active torsions:
REMARK  status: ('A' for Active; 'I' for Inactive)
REMARK    1  A    between atoms: C3_3  and  N1_4 
REMARK    2  A    between atoms: N1_4  and  C4_6 
REMARK    3  A    between atoms: C7_9  and  N2_10 
REMARK    4  A    between atoms: N2_10  and  C8_12 
REMARK    5  A    between atoms: C20_24  and  C21_25 
REMARK    6  A    between atoms: C21_25  and  N3_26 
ROOT
HETATM    1  C4  UNL     1      72.058  50.024  11.988  1.00  0.00     0.082 C 
HETATM    2  C5  UNL     1      70.821  49.433  11.314  1.00  0.00     0.027 C 
HETATM    3  C6  UNL     1      69.596  50.121  11.903  1.00  0.00     0.027 C 
HETATM    4  C7  UNL     1      69.903  51.561  12.192  1.00  0.00     0.077 C 
HETATM    5  C16 UNL     1      70.752  51.579  13.446  1.00  0.00     0.027 C 
HETATM    6  C17 UNL     1      71.633  50.349  13.409  1.00  0.00     0.027 C 
ENDROOT
BRANCH   1   7
HETATM    7  N1  UNL     1      73.054  48.982  12.055  1.00  0.00    -0.385 N 
ATOM      8  H1  UNL     1      73.475  48.728  12.948  1.00  0.00     0.160 HD
BRANCH   7   9
HETATM    9  C3  UNL     1      73.439  48.317  10.866  1.00  0.00     0.028 A 
HETATM   10  C2  UNL     1      74.114  48.944   9.847  1.00  0.00     0.029 A 
HETATM   11  C1  UNL     1      74.474  48.261   8.690  1.00  0.00     0.011 A 
HETATM   12  C20 UNL     1      74.179  46.926   8.499  1.00  0.00    -0.030 A 
HETATM   13  C19 UNL     1      73.503  46.290   9.517  1.00  0.00     0.011 A 
HETATM   14  C18 UNL     1      73.144  46.962  10.664  1.00  0.00     0.029 A 
BRANCH  12  15
HETATM   15  C21 UNL     1      74.580  46.249   7.230  1.00  0.00     0.311 C 
BRANCH  15  16
HETATM   16  N3  UNL     1      73.520  45.951   6.347  1.00  0.00     0.096 N 
HETATM   17  C22 UNL     1      73.881  45.416   5.096  1.00  0.00     0.299 C 
HETATM   18  C23 UNL     1      73.918  46.353   3.934  1.00  0.00     0.198 C 
HETATM   19  O1  UNL     1      72.860  47.232   3.893  1.00  0.00    -0.388 OA
HETATM   20  C24 UNL     1      72.905  47.962   5.086  1.00  0.00     0.198 C 
HETATM   21  C25 UNL     1      72.610  47.051   6.246  1.00  0.00     0.299 C 
ENDBRANCH  15  16
ENDBRANCH  12  15
ENDBRANCH   7   9
ENDBRANCH   1   7
BRANCH   4  22
HETATM   22  N2  UNL     1      68.883  52.498  12.142  1.00  0.00    -0.413 N 
ATOM     23  H2  UNL     1      68.676  53.005  13.003  1.00  0.00     0.154 HD
BRANCH  22  24
HETATM   24  C8  UNL     1      68.120  52.809  11.030  1.00  0.00     0.077 C 
HETATM   25  C9  UNL     1      67.794  54.211  10.687  1.00  0.00     0.024 C 
HETATM   26  C10 UNL     1      66.966  54.982  11.647  1.00  0.00     0.002 C 
HETATM   27  C11 UNL     1      65.495  54.941  11.306  1.00  0.00     0.000 C 
HETATM   28  C12 UNL     1      64.784  54.227  12.437  1.00  0.00     0.000 C 
HETATM   29  C13 UNL     1      64.743  52.769  12.136  1.00  0.00     0.000 C 
HETATM   30  C14 UNL     1      66.093  52.080  12.366  1.00  0.00     0.002 C 
HETATM   31  C15 UNL     1      66.821  51.989  11.080  1.00  0.00     0.024 C 
ENDBRANCH  22  24
ENDBRANCH   4  22
TORSDOF 6
ENDMDL
MODEL 5
REMARK VINA RESULT: -8.142343008      1.732      2.589
REMARK  6 active torsions:
REMARK  status: ('A' for Active; 'I' for Inactive)
REMARK    1  A    between atoms: C3_3  and  N1_4 
REMARK    2  A    between atoms: N1_4  and  C4_6 
REMARK    3  A    between atoms: C7_9  and  N2_10 
REMARK    4  A    between atoms: N2_10  and  C8_12 
REMARK    5  A    between atoms: C20_24  and  C21_25 
REMARK    6  A    between atoms: C21_25  and  N3_26 
ROOT
HETATM    1  C4  UNL     1      71.766  49.967  11.676  1.00  0.00     0.082 C 
HETATM    2  C5  UNL     1      72.802  49.095  12.383  1.00  0.00     0.027 C 
HETATM    3  C6  UNL     1      72.952  47.808  11.580  1.00  0.00     0.027 C 
HETATM    4  C7  UNL     1      72.819  48.097  10.114  1.00  0.00     0.077 C 
HETATM    5  C16 UNL     1      71.345  48.314   9.848  1.00  0.00     0.027 C 
HETATM    6  C17 UNL     1      70.765  49.001  11.066  1.00  0.00     0.027 C 
ENDROOT
BRANCH   1   7
HETATM    7  N1  UNL     1      71.079  50.729  12.690  1.00  0.00    -0.385 N 
ATOM      8  H1  UNL     1      71.510  50.880  13.602  1.00  0.00     0.160 HD
BRANCH   7   9
HETATM    9  C3  UNL     1      69.800  51.267  12.404  1.00  0.00     0.028 A 
HETATM   10  C2  UNL     1      69.568  52.115  11.349  1.00  0.00     0.029 A 
HETATM   11  C1  UNL     1      68.300  52.628  11.100  1.00  0.00     0.011 A 
HETATM   12  C20 UNL     1      67.210  52.318  11.890  1.00  0.00    -0.030 A 
HETATM   13  C19 UNL     1      67.435  51.469  12.950  1.00  0.00     0.011 A 
HETATM   14  C18 UNL     1      68.690  50.959  13.201  1.00  0.00     0.029 A 
BRANCH  12  15
HETATM   15  C21 UNL     1      65.875  52.912  11.580  1.00  0.00     0.311 C 
BRANCH  15  16
HETATM   16  N3  UNL     1      64.773  52.250  12.163  1.00  0.00     0.096 N 
HETATM   17  C22 UNL     1      64.611  50.893  11.831  1.00  0.00     0.299 C 
HETATM   18  C23 UNL     1      63.610  50.559  10.773  1.00  0.00     0.198 C 
HETATM   19  O1  UNL     1      62.433  51.263  10.879  1.00  0.00    -0.388 OA
HETATM   20  C24 UNL     1      62.772  52.618  10.794  1.00  0.00     0.198 C 
HETATM   21  C25 UNL     1      63.572  53.014  12.004  1.00  0.00     0.299 C 
ENDBRANCH  15  16
ENDBRANCH  12  15
ENDBRANCH   7   9
ENDBRANCH   1   7
BRANCH   4  22
HETATM   22  N2  UNL     1      73.484  47.296   9.199  1.00  0.00    -0.413 N 
ATOM     23  H2  UNL     1      73.041  46.412   8.948  1.00  0.00     0.154 HD
BRANCH  22  24
HETATM   24  C8  UNL     1      74.694  47.586   8.594  1.00  0.00     0.077 C 
HETATM   25  C9  UNL     1      74.893  48.836   7.829  1.00  0.00     0.024 C 
HETATM   26  C10 UNL     1      74.074  49.036   6.608  1.00  0.00     0.002 C 
HETATM   27  C11 UNL     1      74.785  48.586   5.354  1.00  0.00     0.000 C 
HETATM   28  C12 UNL     1      73.998  47.430   4.772  1.00  0.00     0.000 C 
HETATM   29  C13 UNL     1      74.516  46.157   5.344  1.00  0.00     0.000 C 
HETATM   30  C14 UNL     1      74.054  45.927   6.788  1.00  0.00     0.002 C 
HETATM   31  C15 UNL     1      75.106  46.390   7.720  1.00  0.00     0.024 C 
ENDBRANCH  22  24
ENDBRANCH   4  22
TORSDOF 6
ENDMDL
