MODEL 1
REMARK VINA RESULT: -7.983751714      0.000      0.000
REMARK  6 active torsions:
REMARK  status: ('A' for Active; 'I' for Inactive)
REMARK    1  A    between atoms: C2_2  and  N1_3 
REMARK       I    between atoms: N1_3  and  C3_5 
REMARK    2  A    between atoms: C3_5  and  C4_7 
REMARK    3  A    between atoms: C4_7  and  S1_8 
REMARK    4  A    between atoms: S1_8  and  C5_9 
REMARK    5  A    between atoms: C8_13  and  C9_14 
REMARK       I    between atoms: C9_14  and  N2_16 
REMARK    6  A    between atoms: N2_16  and  C10_18 
ROOT
HETATM    1  C5  UNL     1      72.222  47.277   7.864  1.00  0.00     0.058 A 
HETATM    2  S2  UNL     1      73.302  46.990   6.553  1.00  0.00    -0.086 SA
HETATM    3  C6  UNL     1      72.934  48.335   5.608  1.00  0.00    -0.009 A 
HETATM    4  C7  UNL     1      71.975  48.996   6.317  1.00  0.00    -0.027 A 
HETATM    5  C8  UNL     1      71.595  48.438   7.510  1.00  0.00     0.063 A 
HETATM    6  C17 UNL     1      71.407  50.307   5.786  1.00  0.00     0.041 C 
HETATM    7  C18 UNL     1      70.711  50.077   4.488  1.00  0.00     0.005 C 
HETATM    8  C19 UNL     1      71.755  50.114   3.368  1.00  0.00     0.001 C 
HETATM    9  C20 UNL     1      72.468  48.777   3.252  1.00  0.00     0.005 C 
HETATM   10  C21 UNL     1      73.564  48.681   4.274  1.00  0.00     0.046 C 
ENDROOT
BRANCH   5  11
HETATM   11  C9  UNL     1      70.546  49.074   8.368  1.00  0.00     0.254 C 
HETATM   12  O2  UNL     1      69.305  48.808   8.136  1.00  0.00    -0.268 OA
HETATM   13  N2  UNL     1      70.845  49.951   9.411  1.00  0.00    -0.352 N 
ATOM     14  H2  UNL     1      71.817  50.187   9.609  1.00  0.00     0.163 HD
BRANCH  13  15
HETATM   15  C10 UNL     1      69.775  50.538  10.223  1.00  0.00     0.084 C 
HETATM   16  C11 UNL     1      69.749  50.049  11.618  1.00  0.00     0.025 C 
HETATM   17  C12 UNL     1      69.393  51.124  12.630  1.00  0.00     0.002 C 
HETATM   18  C13 UNL     1      68.036  51.692  12.369  1.00  0.00     0.000 C 
HETATM   19  C14 UNL     1      68.201  53.003  11.619  1.00  0.00     0.000 C 
HETATM   20  C15 UNL     1      68.506  52.687  10.169  1.00  0.00     0.002 C 
HETATM   21  C16 UNL     1      69.899  52.058  10.134  1.00  0.00     0.025 C 
ENDBRANCH  13  15
ENDBRANCH   5  11
BRANCH   1  22
HETATM   22  S1  UNL     1      71.954  46.193   9.295  1.00  0.00    -0.112 SA
BRANCH  22  23
HETATM   23  C4  UNL     1      73.310  46.477  10.453  1.00  0.00     0.182 C 
BRANCH  23  24
HETATM   24  C3  UNL     1      73.361  47.881  10.959  1.00  0.00     0.227 C 
HETATM   25  N1  UNL     1      72.944  48.218  12.262  1.00  0.00    -0.361 N 
ATOM     26  H1  UNL     1      72.593  47.494  12.888  1.00  0.00     0.162 HD
HETATM   27  O1  UNL     1      73.785  48.782  10.206  1.00  0.00    -0.273 OA
BRANCH  25  28
HETATM   28  C2  UNL     1      73.013  49.583  12.709  1.00  0.00     0.118 C 
HETATM   29  C1  UNL     1      73.077  49.615  14.231  1.00  0.00     0.026 C 
ENDBRANCH  25  28
ENDBRANCH  23  24
ENDBRANCH  22  23
ENDBRANCH   1  22
TORSDOF 6
ENDMDL
MODEL 2
REMARK VINA RESULT: -7.770357987      5.206      7.989
REMARK  6 active torsions:
REMARK  status: ('A' for Active; 'I' for Inactive)
REMARK    1  A    between atoms: C2_2  and  N1_3 
REMARK       I    between atoms: N1_3  and  C3_5 
REMARK    2  A    between atoms: C3_5  and  C4_7 
REMARK    3  A    between atoms: C4_7  and  S1_8 
REMARK    4  A    between atoms: S1_8  and  C5_9 
REMARK    5  A    between atoms: C8_13  and  C9_14 
REMARK       I    between atoms: C9_14  and  N2_16 
REMARK    6  A    between atoms: N2_16  and  C10_18 
ROOT
HETATM    1  C5  UNL     1      66.860  50.603  12.388  1.00  0.00     0.058 A 
HETATM    2  S2  UNL     1      68.320  51.198  13.083  1.00  0.00    -0.086 SA
HETATM    3  C6  UNL     1      69.416  50.597  11.954  1.00  0.00    -0.009 A 
HETATM    4  C7  UNL     1      68.640  49.938  11.046  1.00  0.00    -0.027 A 
HETATM    5  C8  UNL     1      67.288  49.938  11.274  1.00  0.00     0.063 A 
HETATM    6  C17 UNL     1      69.286  49.277   9.833  1.00  0.00     0.041 C 
HETATM    7  C18 UNL     1      70.215  48.196  10.272  1.00  0.00     0.005 C 
HETATM    8  C19 UNL     1      71.569  48.831  10.605  1.00  0.00     0.001 C 
HETATM    9  C20 UNL     1      71.555  49.422  12.005  1.00  0.00     0.005 C 
HETATM   10  C21 UNL     1      70.919  50.782  11.991  1.00  0.00     0.046 C 
ENDROOT
BRANCH   5  11
HETATM   11  C9  UNL     1      66.342  49.239  10.347  1.00  0.00     0.254 C 
HETATM   12  O2  UNL     1      65.836  49.898   9.361  1.00  0.00    -0.268 OA
HETATM   13  N2  UNL     1      65.974  47.902  10.502  1.00  0.00    -0.352 N 
ATOM     14  H2  UNL     1      66.352  47.361  11.279  1.00  0.00     0.163 HD
BRANCH  13  15
HETATM   15  C10 UNL     1      65.049  47.269   9.557  1.00  0.00     0.084 C 
HETATM   16  C11 UNL     1      65.722  46.501   8.488  1.00  0.00     0.025 C 
HETATM   17  C12 UNL     1      64.998  45.219   8.115  1.00  0.00     0.002 C 
HETATM   18  C13 UNL     1      63.617  45.497   7.616  1.00  0.00     0.000 C 
HETATM   19  C14 UNL     1      62.638  45.258   8.752  1.00  0.00     0.000 C 
HETATM   20  C15 UNL     1      62.695  46.449   9.687  1.00  0.00     0.002 C 
HETATM   21  C16 UNL     1      64.066  46.420  10.362  1.00  0.00     0.025 C 
ENDBRANCH  13  15
ENDBRANCH   5  11
BRANCH   1  22
HETATM   22  S1  UNL     1      65.192  50.766  13.084  1.00  0.00    -0.112 SA
BRANCH  22  23
HETATM   23  C4  UNL     1      64.260  51.875  12.006  1.00  0.00     0.182 C 
BRANCH  23  24
HETATM   24  C3  UNL     1      64.759  53.281  12.043  1.00  0.00     0.227 C 
HETATM   25  N1  UNL     1      65.947  53.667  11.390  1.00  0.00    -0.361 N 
ATOM     26  H1  UNL     1      66.493  52.977  10.876  1.00  0.00     0.162 HD
HETATM   27  O1  UNL     1      64.107  54.140  12.670  1.00  0.00    -0.273 OA
BRANCH  25  28
HETATM   28  C2  UNL     1      66.390  55.033  11.450  1.00  0.00     0.118 C 
HETATM   29  C1  UNL     1      67.536  55.238  10.467  1.00  0.00     0.026 C 
ENDBRANCH  25  28
ENDBRANCH  23  24
ENDBRANCH  22  23
ENDBRANCH   1  22
TORSDOF 6
ENDMDL
MODEL 3
REMARK VINA RESULT: -7.758414141      3.848      6.769
REMARK  6 active torsions:
REMARK  status: ('A' for Active; 'I' for Inactive)
REMARK    1  A    between atoms: C2_2  and  N1_3 
REMARK       I    between atoms: N1_3  and  C3_5 
REMARK    2  A    between atoms: C3_5  and  C4_7 
REMARK    3  A    between atoms: C4_7  and  S1_8 
REMARK    4  A    between atoms: S1_8  and  C5_9 
REMARK    5  A    between atoms: C8_13  and  C9_14 
REMARK       I    between atoms: C9_14  and  N2_16 
REMARK    6  A    between atoms: N2_16  and  C10_18 
ROOT
HETATM    1  C5  UNL     1      70.589  48.080   9.275  1.00  0.00     0.058 A 
HETATM    2  S2  UNL     1      71.858  48.609  10.314  1.00  0.00    -0.086 SA
HETATM    3  C6  UNL     1      70.938  49.441  11.454  1.00  0.00    -0.009 A 
HETATM    4  C7  UNL     1      69.653  49.303  11.019  1.00  0.00    -0.027 A 
HETATM    5  C8  UNL     1      69.466  48.585   9.866  1.00  0.00     0.063 A 
HETATM    6  C17 UNL     1      68.509  49.906  11.827  1.00  0.00     0.041 C 
HETATM    7  C18 UNL     1      68.646  51.389  11.883  1.00  0.00     0.005 C 
HETATM    8  C19 UNL     1      69.598  51.742  13.030  1.00  0.00     0.001 C 
HETATM    9  C20 UNL     1      71.046  51.599  12.591  1.00  0.00     0.005 C 
HETATM   10  C21 UNL     1      71.477  50.163  12.672  1.00  0.00     0.046 C 
ENDROOT
BRANCH   5  11
HETATM   11  C9  UNL     1      68.098  48.376   9.293  1.00  0.00     0.254 C 
HETATM   12  O2  UNL     1      67.613  49.267   8.496  1.00  0.00    -0.268 OA
HETATM   13  N2  UNL     1      67.314  47.259   9.583  1.00  0.00    -0.352 N 
ATOM     14  H2  UNL     1      67.670  46.544  10.218  1.00  0.00     0.163 HD
BRANCH  13  15
HETATM   15  C10 UNL     1      65.985  47.104   8.985  1.00  0.00     0.084 C 
HETATM   16  C11 UNL     1      65.866  45.933   8.091  1.00  0.00     0.025 C 
HETATM   17  C12 UNL     1      64.524  45.229   8.191  1.00  0.00     0.002 C 
HETATM   18  C13 UNL     1      63.399  46.142   7.824  1.00  0.00     0.000 C 
HETATM   19  C14 UNL     1      62.775  46.672   9.102  1.00  0.00     0.000 C 
HETATM   20  C15 UNL     1      63.671  47.763   9.653  1.00  0.00     0.002 C 
HETATM   21  C16 UNL     1      64.961  47.086  10.118  1.00  0.00     0.025 C 
ENDBRANCH  13  15
ENDBRANCH   5  11
BRANCH   1  22
HETATM   22  S1  UNL     1      70.782  47.163   7.721  1.00  0.00    -0.112 SA
BRANCH  22  23
HETATM   23  C4  UNL     1      72.150  47.913   6.814  1.00  0.00     0.182 C 
BRANCH  23  24
HETATM   24  C3  UNL     1      71.808  49.248   6.239  1.00  0.00     0.227 C 
HETATM   25  N1  UNL     1      71.284  49.386   4.939  1.00  0.00    -0.361 N 
ATOM     26  H1  UNL     1      71.130  48.560   4.361  1.00  0.00     0.162 HD
HETATM   27  O1  UNL     1      71.992  50.271   6.930  1.00  0.00    -0.273 OA
BRANCH  25  28
HETATM   28  C2  UNL     1      70.965  50.691   4.425  1.00  0.00     0.118 C 
HETATM   29  C1  UNL     1      71.151  50.700   2.913  1.00  0.00     0.026 C 
ENDBRANCH  25  28
ENDBRANCH  23  24
ENDBRANCH  22  23
ENDBRANCH   1  22
TORSDOF 6
ENDMDL
MODEL 4
REMARK VINA RESULT: -7.745613623      3.243      7.884
REMARK  6 active torsions:
REMARK  status: ('A' for Active; 'I' for Inactive)
REMARK    1  A    between atoms: C2_2  and  N1_3 
REMARK       I    between atoms: N1_3  and  C3_5 
REMARK    2  A    between atoms: C3_5  and  C4_7 
REMARK    3  A    between atoms: C4_7  and  S1_8 
REMARK    4  A    between atoms: S1_8  and  C5_9 
REMARK    5  A    between atoms: C8_13  and  C9_14 
REMARK       I    between atoms: C9_14  and  N2_16 
REMARK    6  A    between atoms: N2_16  and  C10_18 
ROOT
HETATM    1  C5  UNL     1      69.033  50.778  10.685  1.00  0.00     0.058 A 
HETATM    2  S2  UNL     1      69.101  51.433  12.277  1.00  0.00    -0.086 SA
HETATM    3  C6  UNL     1      70.689  51.027  12.664  1.00  0.00    -0.009 A 
HETATM    4  C7  UNL     1      71.154  50.384  11.554  1.00  0.00    -0.027 A 
HETATM    5  C8  UNL     1      70.280  50.249  10.507  1.00  0.00     0.063 A 
HETATM    6  C17 UNL     1      72.595  49.887  11.514  1.00  0.00     0.041 C 
HETATM    7  C18 UNL     1      72.812  48.855  12.568  1.00  0.00     0.005 C 
HETATM    8  C19 UNL     1      73.131  49.572  13.884  1.00  0.00     0.001 C 
HETATM    9  C20 UNL     1      71.856  50.038  14.566  1.00  0.00     0.005 C 
HETATM   10  C21 UNL     1      71.390  51.335  13.971  1.00  0.00     0.046 C 
ENDROOT
BRANCH   5  11
HETATM   11  C9  UNL     1      70.682  49.555   9.242  1.00  0.00     0.254 C 
HETATM   12  O2  UNL     1      70.561  48.273   9.170  1.00  0.00    -0.268 OA
HETATM   13  N2  UNL     1      71.188  50.230   8.132  1.00  0.00    -0.352 N 
ATOM     14  H2  UNL     1      71.303  51.243   8.166  1.00  0.00     0.163 HD
BRANCH  13  15
HETATM   15  C10 UNL     1      71.556  49.497   6.917  1.00  0.00     0.084 C 
HETATM   16  C11 UNL     1      70.803  49.915   5.716  1.00  0.00     0.025 C 
HETATM   17  C12 UNL     1      71.641  49.934   4.450  1.00  0.00     0.002 C 
HETATM   18  C13 UNL     1      72.191  48.579   4.139  1.00  0.00     0.000 C 
HETATM   19  C14 UNL     1      73.629  48.522   4.624  1.00  0.00     0.000 C 
HETATM   20  C15 UNL     1      73.618  48.331   6.127  1.00  0.00     0.002 C 
HETATM   21  C16 UNL     1      73.068  49.621   6.736  1.00  0.00     0.025 C 
ENDBRANCH  13  15
ENDBRANCH   5  11
BRANCH   1  22
HETATM   22  S1  UNL     1      67.581  50.738   9.597  1.00  0.00    -0.112 SA
BRANCH  22  23
HETATM   23  C4  UNL     1      66.171  50.209  10.593  1.00  0.00     0.182 C 
BRANCH  23  24
HETATM   24  C3  UNL     1      65.199  51.310  10.861  1.00  0.00     0.227 C 
HETATM   25  N1  UNL     1      63.862  51.247  10.421  1.00  0.00    -0.361 N 
ATOM     26  H1  UNL     1      63.535  50.433   9.902  1.00  0.00     0.162 HD
HETATM   27  O1  UNL     1      65.582  52.316  11.493  1.00  0.00    -0.273 OA
BRANCH  25  28
HETATM   28  C2  UNL     1      62.959  52.329  10.703  1.00  0.00     0.118 C 
HETATM   29  C1  UNL     1      62.053  51.944  11.866  1.00  0.00     0.026 C 
ENDBRANCH  25  28
ENDBRANCH  23  24
ENDBRANCH  22  23
ENDBRANCH   1  22
TORSDOF 6
ENDMDL
MODEL 5
REMARK VINA RESULT: -7.730339347      2.095      3.314
REMARK  6 active torsions:
REMARK  status: ('A' for Active; 'I' for Inactive)
REMARK    1  A    between atoms: C2_2  and  N1_3 
REMARK       I    between atoms: N1_3  and  C3_5 
REMARK    2  A    between atoms: C3_5  and  C4_7 
REMARK    3  A    between atoms: C4_7  and  S1_8 
REMARK    4  A    between atoms: S1_8  and  C5_9 
REMARK    5  A    between atoms: C8_13  and  C9_14 
REMARK       I    between atoms: C9_14  and  N2_16 
REMARK    6  A    between atoms: N2_16  and  C10_18 
ROOT
HETATM    1  C5  UNL     1      71.880  46.995   7.660  1.00  0.00     0.058 A 
HETATM    2  S2  UNL     1      72.869  46.690   6.282  1.00  0.00    -0.086 SA
HETATM    3  C6  UNL     1      72.670  48.159   5.482  1.00  0.00    -0.009 A 
HETATM    4  C7  UNL     1      71.837  48.875   6.290  1.00  0.00    -0.027 A 
HETATM    5  C8  UNL     1      71.416  48.261   7.441  1.00  0.00     0.063 A 
HETATM    6  C17 UNL     1      71.447  50.298   5.908  1.00  0.00     0.041 C 
HETATM    7  C18 UNL     1      70.687  50.295   4.625  1.00  0.00     0.005 C 
HETATM    8  C19 UNL     1      71.693  50.296   3.469  1.00  0.00     0.001 C 
HETATM    9  C20 UNL     1      72.204  48.890   3.200  1.00  0.00     0.005 C 
HETATM   10  C21 UNL     1      73.304  48.541   4.160  1.00  0.00     0.046 C 
ENDROOT
BRANCH   5  11
HETATM   11  C9  UNL     1      70.494  48.951   8.399  1.00  0.00     0.254 C 
HETATM   12  O2  UNL     1      69.223  48.894   8.191  1.00  0.00    -0.268 OA
HETATM   13  N2  UNL     1      70.946  49.662   9.511  1.00  0.00    -0.352 N 
ATOM     14  H2  UNL     1      71.947  49.732   9.693  1.00  0.00     0.163 HD
BRANCH  13  15
HETATM   15  C10 UNL     1      69.995  50.311  10.419  1.00  0.00     0.084 C 
HETATM   16  C11 UNL     1      70.304  50.109  11.850  1.00  0.00     0.025 C 
HETATM   17  C12 UNL     1      70.029  51.331  12.708  1.00  0.00     0.002 C 
HETATM   18  C13 UNL     1      68.589  51.726  12.651  1.00  0.00     0.000 C 
HETATM   19  C14 UNL     1      68.443  52.870  11.663  1.00  0.00     0.000 C 
HETATM   20  C15 UNL     1      68.492  52.298  10.261  1.00  0.00     0.002 C 
HETATM   21  C16 UNL     1      69.915  51.788  10.037  1.00  0.00     0.025 C 
ENDBRANCH  13  15
ENDBRANCH   5  11
BRANCH   1  22
HETATM   22  S1  UNL     1      71.502  45.825   8.994  1.00  0.00    -0.112 SA
BRANCH  22  23
HETATM   23  C4  UNL     1      70.604  44.439   8.264  1.00  0.00     0.182 C 
BRANCH  23  24
HETATM   24  C3  UNL     1      69.197  44.782   7.901  1.00  0.00     0.227 C 
HETATM   25  N1  UNL     1      68.506  45.842   8.519  1.00  0.00    -0.361 N 
ATOM     26  H1  UNL     1      68.967  46.400   9.238  1.00  0.00     0.162 HD
HETATM   27  O1  UNL     1      68.616  44.109   7.025  1.00  0.00    -0.273 OA
BRANCH  25  28
HETATM   28  C2  UNL     1      67.152  46.139   8.138  1.00  0.00     0.118 C 
HETATM   29  C1  UNL     1      66.478  46.941   9.244  1.00  0.00     0.026 C 
ENDBRANCH  25  28
ENDBRANCH  23  24
ENDBRANCH  22  23
ENDBRANCH   1  22
TORSDOF 6
ENDMDL
