MODEL 1
REMARK VINA RESULT: -8.171120658      0.000      0.000
REMARK  9 active torsions:
REMARK  status: ('A' for Active; 'I' for Inactive)
REMARK    1  A    between atoms: O1_2  and  C2_3 
REMARK    2  A    between atoms: C2_3  and  C3_4 
REMARK    3  A    between atoms: C2_3  and  C4_9 
REMARK    4  A    between atoms: C3_4  and  N1_5 
REMARK    5  A    between atoms: C4_9  and  C5_10 
REMARK    6  A    between atoms: C5_10  and  C6_11 
REMARK    7  A    between atoms: C6_11  and  C8_13 
REMARK    8  A    between atoms: C11_16  and  C12_17 
REMARK    9  A    between atoms: C12_17  and  O2_19 
ROOT
HETATM    1  C8  UNL     1      70.487  49.945   8.068  1.00  0.00     0.025 C 
HETATM    2  C9  UNL     1      69.165  49.293   7.594  1.00  0.00     0.009 C 
HETATM    3  C10 UNL     1      69.414  47.822   7.776  1.00  0.00     0.011 C 
HETATM    4  C11 UNL     1      70.152  47.810   9.107  1.00  0.00     0.049 C 
HETATM    5  C14 UNL     1      70.558  49.223   9.404  1.00  0.00     0.075 C 
HETATM    6  C15 UNL     1      71.796  49.454  10.147  1.00  0.00     0.073 C 
HETATM    7  C16 UNL     1      71.703  49.667  11.610  1.00  0.00    -0.074 C 
HETATM    8  C17 UNL     1      72.832  49.317  12.202  1.00  0.00    -0.023 C 
HETATM    9  C18 UNL     1      73.207  49.346  13.611  1.00  0.00     0.027 C 
HETATM   10  C19 UNL     1      72.076  49.930  14.418  1.00  0.00     0.004 C 
HETATM   11  C20 UNL     1      71.786  51.335  13.976  1.00  0.00     0.001 C 
HETATM   12  C21 UNL     1      70.659  51.441  13.006  1.00  0.00     0.012 C 
HETATM   13  C22 UNL     1      70.464  50.208  12.157  1.00  0.00     0.048 C 
HETATM   14  C23 UNL     1      69.491  50.566  11.056  1.00  0.00     0.062 C 
HETATM   15  C24 UNL     1      69.536  52.012  10.663  1.00  0.00     0.046 C 
HETATM   16  C25 UNL     1      68.113  50.467  11.767  1.00  0.00     0.046 C 
HETATM   17  O3  UNL     1      69.410  49.740  10.039  1.00  0.00    -0.368 OA
ENDROOT
BRANCH   1  18
HETATM   18  C6  UNL     1      71.423  49.756   7.010  1.00  0.00    -0.012 C 
HETATM   19  C7  UNL     1      70.687  50.028   5.702  1.00  0.00     0.010 C 
BRANCH  18  20
HETATM   20  C5  UNL     1      72.656  50.594   6.905  1.00  0.00     0.007 C 
BRANCH  20  21
HETATM   21  C4  UNL     1      73.865  49.908   7.519  1.00  0.00     0.034 C 
BRANCH  21  22
HETATM   22  C2  UNL     1      74.017  48.569   6.783  1.00  0.00     0.146 C 
BRANCH  22  23
HETATM   23  O1  UNL     1      74.702  48.721   5.587  1.00  0.00    -0.389 OA
HETATM   24  C1  UNL     1      74.005  48.144   4.513  1.00  0.00     0.202 C 
ENDBRANCH  22  23
BRANCH  22  25
HETATM   25  C3  UNL     1      74.798  47.589   7.635  1.00  0.00     0.261 C 
BRANCH  25  26
HETATM   26  N1  UNL     1      75.595  48.278   8.636  1.00  0.00    -0.077 N 
ATOM     27  H13 UNL     1      75.195  49.186   8.874  1.00  0.00     0.274 HD
ATOM     28  H12 UNL     1      75.518  47.829   9.549  1.00  0.00     0.274 HD
ATOM     29  H11 UNL     1      76.568  48.363   8.342  1.00  0.00     0.274 HD
ENDBRANCH  25  26
ENDBRANCH  22  25
ENDBRANCH  21  22
ENDBRANCH  20  21
ENDBRANCH  18  20
ENDBRANCH   1  18
BRANCH   4  30
HETATM   30  C12 UNL     1      71.193  46.745   9.085  1.00  0.00     0.121 C 
HETATM   31  C13 UNL     1      71.221  46.316   7.589  1.00  0.00     0.040 C 
BRANCH  30  32
HETATM   32  O2  UNL     1      70.752  45.553   9.678  1.00  0.00    -0.395 OA
ATOM     33  H2  UNL     1      70.140  45.078   9.128  1.00  0.00     0.210 HD
ENDBRANCH  30  32
ENDBRANCH   4  30
TORSDOF 9
ENDMDL
MODEL 2
REMARK VINA RESULT: -7.906870596      2.885      6.932
REMARK  9 active torsions:
REMARK  status: ('A' for Active; 'I' for Inactive)
REMARK    1  A    between atoms: O1_2  and  C2_3 
REMARK    2  A    between atoms: C2_3  and  C3_4 
REMARK    3  A    between atoms: C2_3  and  C4_9 
REMARK    4  A    between atoms: C3_4  and  N1_5 
REMARK    5  A    between atoms: C4_9  and  C5_10 
REMARK    6  A    between atoms: C5_10  and  C6_11 
REMARK    7  A    between atoms: C6_11  and  C8_13 
REMARK    8  A    between atoms: C11_16  and  C12_17 
REMARK    9  A    between atoms: C12_17  and  O2_19 
ROOT
HETATM    1  C8  UNL     1      70.207  48.968   9.399  1.00  0.00     0.025 C 
HETATM    2  C9  UNL     1      69.514  47.693   9.938  1.00  0.00     0.009 C 
HETATM    3  C10 UNL     1      68.195  47.680   9.220  1.00  0.00     0.011 C 
HETATM    4  C11 UNL     1      68.614  48.116   7.823  1.00  0.00     0.049 C 
HETATM    5  C14 UNL     1      70.010  48.653   7.925  1.00  0.00     0.075 C 
HETATM    6  C15 UNL     1      70.413  49.731   7.020  1.00  0.00     0.073 C 
HETATM    7  C16 UNL     1      71.142  49.367   5.784  1.00  0.00    -0.074 C 
HETATM    8  C17 UNL     1      70.956  50.285   4.850  1.00  0.00    -0.023 C 
HETATM    9  C18 UNL     1      71.465  50.359   3.485  1.00  0.00     0.027 C 
HETATM   10  C19 UNL     1      72.370  49.183   3.225  1.00  0.00     0.004 C 
HETATM   11  C20 UNL     1      73.539  49.200   4.167  1.00  0.00     0.001 C 
HETATM   12  C21 UNL     1      73.362  48.327   5.363  1.00  0.00     0.012 C 
HETATM   13  C22 UNL     1      71.921  48.135   5.771  1.00  0.00     0.048 C 
HETATM   14  C23 UNL     1      71.922  47.475   7.132  1.00  0.00     0.062 C 
HETATM   15  C24 UNL     1      73.125  47.812   7.962  1.00  0.00     0.046 C 
HETATM   16  C25 UNL     1      72.174  45.981   6.792  1.00  0.00     0.046 C 
HETATM   17  O3  UNL     1      70.793  47.487   7.802  1.00  0.00    -0.368 OA
ENDROOT
BRANCH   1  18
HETATM   18  C6  UNL     1      69.592  50.066  10.068  1.00  0.00    -0.012 C 
HETATM   19  C7  UNL     1      70.031  50.009  11.527  1.00  0.00     0.010 C 
BRANCH  18  20
HETATM   20  C5  UNL     1      69.873  51.478   9.666  1.00  0.00     0.007 C 
BRANCH  20  21
HETATM   21  C4  UNL     1      68.600  52.294   9.525  1.00  0.00     0.034 C 
BRANCH  21  22
HETATM   22  C2  UNL     1      68.680  53.399  10.590  1.00  0.00     0.146 C 
BRANCH  22  23
HETATM   23  O1  UNL     1      69.180  54.579  10.061  1.00  0.00    -0.389 OA
HETATM   24  C1  UNL     1      68.151  55.472   9.719  1.00  0.00     0.202 C 
ENDBRANCH  22  23
BRANCH  22  25
HETATM   25  C3  UNL     1      67.300  53.695  11.140  1.00  0.00     0.261 C 
BRANCH  25  26
HETATM   26  N1  UNL     1      66.591  52.471  11.478  1.00  0.00    -0.077 N 
ATOM     27  H13 UNL     1      67.107  51.644  11.176  1.00  0.00     0.274 HD
ATOM     28  H12 UNL     1      66.598  52.301  12.484  1.00  0.00     0.274 HD
ATOM     29  H11 UNL     1      65.642  52.477  11.106  1.00  0.00     0.274 HD
ENDBRANCH  25  26
ENDBRANCH  22  25
ENDBRANCH  21  22
ENDBRANCH  20  21
ENDBRANCH  18  20
ENDBRANCH   1  18
BRANCH   4  30
HETATM   30  C12 UNL     1      67.547  48.970   7.231  1.00  0.00     0.121 C 
HETATM   31  C13 UNL     1      66.387  48.842   8.260  1.00  0.00     0.040 C 
BRANCH  30  32
HETATM   32  O2  UNL     1      66.950  48.381   6.107  1.00  0.00    -0.395 OA
ATOM     33  H2  UNL     1      66.001  48.373   6.162  1.00  0.00     0.210 HD
ENDBRANCH  30  32
ENDBRANCH   4  30
TORSDOF 9
ENDMDL
MODEL 3
REMARK VINA RESULT: -7.781516485      1.058      1.156
REMARK  9 active torsions:
REMARK  status: ('A' for Active; 'I' for Inactive)
REMARK    1  A    between atoms: O1_2  and  C2_3 
REMARK    2  A    between atoms: C2_3  and  C3_4 
REMARK    3  A    between atoms: C2_3  and  C4_9 
REMARK    4  A    between atoms: C3_4  and  N1_5 
REMARK    5  A    between atoms: C4_9  and  C5_10 
REMARK    6  A    between atoms: C5_10  and  C6_11 
REMARK    7  A    between atoms: C6_11  and  C8_13 
REMARK    8  A    between atoms: C11_16  and  C12_17 
REMARK    9  A    between atoms: C12_17  and  O2_19 
ROOT
HETATM    1  C8  UNL     1      70.280  49.654   7.911  1.00  0.00     0.025 C 
HETATM    2  C9  UNL     1      68.921  49.016   7.533  1.00  0.00     0.009 C 
HETATM    3  C10 UNL     1      69.149  47.547   7.754  1.00  0.00     0.011 C 
HETATM    4  C11 UNL     1      69.959  47.564   9.042  1.00  0.00     0.049 C 
HETATM    5  C14 UNL     1      70.409  48.977   9.266  1.00  0.00     0.075 C 
HETATM    6  C15 UNL     1      71.691  49.205   9.933  1.00  0.00     0.073 C 
HETATM    7  C16 UNL     1      71.683  49.470  11.389  1.00  0.00    -0.074 C 
HETATM    8  C17 UNL     1      72.836  49.114  11.931  1.00  0.00    -0.023 C 
HETATM    9  C18 UNL     1      73.288  49.184  13.316  1.00  0.00     0.027 C 
HETATM   10  C19 UNL     1      72.215  49.820  14.162  1.00  0.00     0.004 C 
HETATM   11  C20 UNL     1      71.931  51.215  13.687  1.00  0.00     0.001 C 
HETATM   12  C21 UNL     1      70.754  51.314  12.776  1.00  0.00     0.012 C 
HETATM   13  C22 UNL     1      70.488  50.057  11.983  1.00  0.00     0.048 C 
HETATM   14  C23 UNL     1      69.463  50.399  10.925  1.00  0.00     0.062 C 
HETATM   15  C24 UNL     1      69.516  51.830  10.479  1.00  0.00     0.046 C 
HETATM   16  C25 UNL     1      68.125  50.357  11.713  1.00  0.00     0.046 C 
HETATM   17  O3  UNL     1      69.309  49.541   9.943  1.00  0.00    -0.368 OA
ENDROOT
BRANCH   1  18
HETATM   18  C6  UNL     1      71.152  49.408   6.811  1.00  0.00    -0.012 C 
HETATM   19  C7  UNL     1      70.588  50.159   5.610  1.00  0.00     0.010 C 
BRANCH  18  20
HETATM   20  C5  UNL     1      72.588  49.824   6.849  1.00  0.00     0.007 C 
BRANCH  20  21
HETATM   21  C4  UNL     1      73.528  48.633   6.780  1.00  0.00     0.034 C 
BRANCH  21  22
HETATM   22  C2  UNL     1      73.184  47.891   5.480  1.00  0.00     0.146 C 
BRANCH  22  23
HETATM   23  O1  UNL     1      73.672  48.561   4.368  1.00  0.00    -0.389 OA
HETATM   24  C1  UNL     1      72.723  48.611   3.334  1.00  0.00     0.202 C 
ENDBRANCH  22  23
BRANCH  22  25
HETATM   25  C3  UNL     1      73.803  46.508   5.488  1.00  0.00     0.261 C 
BRANCH  25  26
HETATM   26  N1  UNL     1      75.089  46.500   4.812  1.00  0.00    -0.077 N 
ATOM     27  H13 UNL     1      75.846  46.763   5.444  1.00  0.00     0.274 HD
ATOM     28  H12 UNL     1      75.391  45.551   4.592  1.00  0.00     0.274 HD
ATOM     29  H11 UNL     1      75.075  47.090   3.980  1.00  0.00     0.274 HD
ENDBRANCH  25  26
ENDBRANCH  22  25
ENDBRANCH  21  22
ENDBRANCH  20  21
ENDBRANCH  18  20
ENDBRANCH   1  18
BRANCH   4  30
HETATM   30  C12 UNL     1      70.974  46.475   9.001  1.00  0.00     0.121 C 
HETATM   31  C13 UNL     1      70.822  45.911   7.559  1.00  0.00     0.040 C 
BRANCH  30  32
HETATM   32  O2  UNL     1      70.588  45.354   9.751  1.00  0.00    -0.395 OA
ATOM     33  H2  UNL     1      71.000  44.554   9.445  1.00  0.00     0.210 HD
ENDBRANCH  30  32
ENDBRANCH   4  30
TORSDOF 9
ENDMDL
MODEL 4
REMARK VINA RESULT: -7.780294012      1.094      1.378
REMARK  9 active torsions:
REMARK  status: ('A' for Active; 'I' for Inactive)
REMARK    1  A    between atoms: O1_2  and  C2_3 
REMARK    2  A    between atoms: C2_3  and  C3_4 
REMARK    3  A    between atoms: C2_3  and  C4_9 
REMARK    4  A    between atoms: C3_4  and  N1_5 
REMARK    5  A    between atoms: C4_9  and  C5_10 
REMARK    6  A    between atoms: C5_10  and  C6_11 
REMARK    7  A    between atoms: C6_11  and  C8_13 
REMARK    8  A    between atoms: C11_16  and  C12_17 
REMARK    9  A    between atoms: C12_17  and  O2_19 
ROOT
HETATM    1  C8  UNL     1      70.371  49.571   7.893  1.00  0.00     0.025 C 
HETATM    2  C9  UNL     1      69.013  48.939   7.501  1.00  0.00     0.009 C 
HETATM    3  C10 UNL     1      69.220  47.474   7.759  1.00  0.00     0.011 C 
HETATM    4  C11 UNL     1      70.003  47.511   9.063  1.00  0.00     0.049 C 
HETATM    5  C14 UNL     1      70.464  48.923   9.266  1.00  0.00     0.075 C 
HETATM    6  C15 UNL     1      71.735  49.153   9.954  1.00  0.00     0.073 C 
HETATM    7  C16 UNL     1      71.699  49.450  11.404  1.00  0.00    -0.074 C 
HETATM    8  C17 UNL     1      72.836  49.095  11.978  1.00  0.00    -0.023 C 
HETATM    9  C18 UNL     1      73.260  49.190  13.371  1.00  0.00     0.027 C 
HETATM   10  C19 UNL     1      72.177  49.856  14.179  1.00  0.00     0.004 C 
HETATM   11  C20 UNL     1      71.917  51.243  13.667  1.00  0.00     0.001 C 
HETATM   12  C21 UNL     1      70.762  51.334  12.730  1.00  0.00     0.012 C 
HETATM   13  C22 UNL     1      70.498  50.063  11.960  1.00  0.00     0.048 C 
HETATM   14  C23 UNL     1      69.500  50.392  10.873  1.00  0.00     0.062 C 
HETATM   15  C24 UNL     1      69.578  51.812  10.396  1.00  0.00     0.046 C 
HETATM   16  C25 UNL     1      68.145  50.381  11.632  1.00  0.00     0.046 C 
HETATM   17  O3  UNL     1      69.357  49.514   9.907  1.00  0.00    -0.368 OA
ENDROOT
BRANCH   1  18
HETATM   18  C6  UNL     1      71.263  49.291   6.818  1.00  0.00    -0.012 C 
HETATM   19  C7  UNL     1      70.787  50.097   5.615  1.00  0.00     0.010 C 
BRANCH  18  20
HETATM   20  C5  UNL     1      72.719  49.619   6.911  1.00  0.00     0.007 C 
BRANCH  20  21
HETATM   21  C4  UNL     1      73.526  48.939   5.818  1.00  0.00     0.034 C 
BRANCH  21  22
HETATM   22  C2  UNL     1      74.538  48.032   6.535  1.00  0.00     0.146 C 
BRANCH  22  23
HETATM   23  O1  UNL     1      74.333  48.028   7.907  1.00  0.00    -0.389 OA
HETATM   24  C1  UNL     1      75.371  47.365   8.584  1.00  0.00     0.202 C 
ENDBRANCH  22  23
BRANCH  22  25
HETATM   25  C3  UNL     1      74.398  46.605   6.048  1.00  0.00     0.261 C 
BRANCH  25  26
HETATM   26  N1  UNL     1      75.136  46.391   4.815  1.00  0.00    -0.077 N 
ATOM     27  H13 UNL     1      74.852  47.051   4.090  1.00  0.00     0.274 HD
ATOM     28  H12 UNL     1      76.112  46.673   4.910  1.00  0.00     0.274 HD
ATOM     29  H11 UNL     1      75.054  45.426   4.495  1.00  0.00     0.274 HD
ENDBRANCH  25  26
ENDBRANCH  22  25
ENDBRANCH  21  22
ENDBRANCH  20  21
ENDBRANCH  18  20
ENDBRANCH   1  18
BRANCH   4  30
HETATM   30  C12 UNL     1      71.007  46.411   9.068  1.00  0.00     0.121 C 
HETATM   31  C13 UNL     1      71.084  46.003   7.568  1.00  0.00     0.040 C 
BRANCH  30  32
HETATM   32  O2  UNL     1      70.502  45.226   9.624  1.00  0.00    -0.395 OA
ATOM     33  H2  UNL     1      71.155  44.537   9.666  1.00  0.00     0.210 HD
ENDBRANCH  30  32
ENDBRANCH   4  30
TORSDOF 9
ENDMDL
MODEL 5
REMARK VINA RESULT: -7.750814145      2.896      6.975
REMARK  9 active torsions:
REMARK  status: ('A' for Active; 'I' for Inactive)
REMARK    1  A    between atoms: O1_2  and  C2_3 
REMARK    2  A    between atoms: C2_3  and  C3_4 
REMARK    3  A    between atoms: C2_3  and  C4_9 
REMARK    4  A    between atoms: C3_4  and  N1_5 
REMARK    5  A    between atoms: C4_9  and  C5_10 
REMARK    6  A    between atoms: C5_10  and  C6_11 
REMARK    7  A    between atoms: C6_11  and  C8_13 
REMARK    8  A    between atoms: C11_16  and  C12_17 
REMARK    9  A    between atoms: C12_17  and  O2_19 
ROOT
HETATM    1  C8  UNL     1      70.233  49.300   9.484  1.00  0.00     0.025 C 
HETATM    2  C9  UNL     1      69.540  48.075  10.131  1.00  0.00     0.009 C 
HETATM    3  C10 UNL     1      68.241  47.972   9.384  1.00  0.00     0.011 C 
HETATM    4  C11 UNL     1      68.692  48.271   7.961  1.00  0.00     0.049 C 
HETATM    5  C14 UNL     1      70.079  48.835   8.044  1.00  0.00     0.075 C 
HETATM    6  C15 UNL     1      70.494  49.822   7.046  1.00  0.00     0.073 C 
HETATM    7  C16 UNL     1      71.260  49.346   5.872  1.00  0.00    -0.074 C 
HETATM    8  C17 UNL     1      71.089  50.163   4.846  1.00  0.00    -0.023 C 
HETATM    9  C18 UNL     1      71.634  50.106   3.494  1.00  0.00     0.027 C 
HETATM   10  C19 UNL     1      72.559  48.923   3.377  1.00  0.00     0.004 C 
HETATM   11  C20 UNL     1      73.701  49.052   4.342  1.00  0.00     0.001 C 
HETATM   12  C21 UNL     1      73.502  48.301   5.615  1.00  0.00     0.012 C 
HETATM   13  C22 UNL     1      72.053  48.130   6.004  1.00  0.00     0.048 C 
HETATM   14  C23 UNL     1      72.025  47.611   7.423  1.00  0.00     0.062 C 
HETATM   15  C24 UNL     1      73.201  48.046   8.246  1.00  0.00     0.046 C 
HETATM   16  C25 UNL     1      72.303  46.093   7.242  1.00  0.00     0.046 C 
HETATM   17  O3  UNL     1      70.878  47.674   8.060  1.00  0.00    -0.368 OA
ENDROOT
BRANCH   1  18
HETATM   18  C6  UNL     1      69.587  50.450  10.022  1.00  0.00    -0.012 C 
HETATM   19  C7  UNL     1      69.825  50.438  11.529  1.00  0.00     0.010 C 
BRANCH  18  20
HETATM   20  C5  UNL     1      69.987  51.830   9.611  1.00  0.00     0.007 C 
BRANCH  20  21
HETATM   21  C4  UNL     1      69.513  52.880  10.602  1.00  0.00     0.034 C 
BRANCH  21  22
HETATM   22  C2  UNL     1      68.159  53.381  10.079  1.00  0.00     0.146 C 
BRANCH  22  23
HETATM   23  O1  UNL     1      67.103  52.816  10.777  1.00  0.00    -0.389 OA
HETATM   24  C1  UNL     1      66.422  53.770  11.551  1.00  0.00     0.202 C 
ENDBRANCH  22  23
BRANCH  22  25
HETATM   25  C3  UNL     1      68.060  54.884  10.241  1.00  0.00     0.261 C 
BRANCH  25  26
HETATM   26  N1  UNL     1      68.093  55.559   8.954  1.00  0.00    -0.077 N 
ATOM     27  H13 UNL     1      67.681  54.983   8.219  1.00  0.00     0.274 HD
ATOM     28  H12 UNL     1      67.439  56.342   8.925  1.00  0.00     0.274 HD
ATOM     29  H11 UNL     1      69.040  55.852   8.713  1.00  0.00     0.274 HD
ENDBRANCH  25  26
ENDBRANCH  22  25
ENDBRANCH  21  22
ENDBRANCH  20  21
ENDBRANCH  18  20
ENDBRANCH   1  18
BRANCH   4  30
HETATM   30  C12 UNL     1      67.633  49.046   7.259  1.00  0.00     0.121 C 
HETATM   31  C13 UNL     1      66.441  48.993   8.259  1.00  0.00     0.040 C 
BRANCH  30  32
HETATM   32  O2  UNL     1      67.082  48.344   6.177  1.00  0.00    -0.395 OA
ATOM     33  H2  UNL     1      67.527  47.520   6.015  1.00  0.00     0.210 HD
ENDBRANCH  30  32
ENDBRANCH   4  30
TORSDOF 9
ENDMDL
