MODEL 1
REMARK VINA RESULT: -7.742756707      0.000      0.000
REMARK  8 active torsions:
REMARK  status: ('A' for Active; 'I' for Inactive)
REMARK    1  A    between atoms: C5_5  and  C6_6 
REMARK    2  A    between atoms: C6_6  and  C7_7 
REMARK    3  A    between atoms: C6_6  and  N1_10 
REMARK    4  A    between atoms: N1_10  and  O1_11 
REMARK    5  A    between atoms: N1_10  and  C10_13 
REMARK    6  A    between atoms: N2_23  and  C20_24 
REMARK    7  A    between atoms: C20_24  and  C21_25 
REMARK    8  A    between atoms: C20_24  and  C22_28 
ROOT
HETATM    1  C6  UNL     1      69.507  51.065  10.527  1.00  0.00     0.046 C 
ENDROOT
BRANCH   1   2
HETATM    2  C5  UNL     1      68.654  52.298  10.630  1.00  0.00     0.059 A 
HETATM    3  C4  UNL     1      69.108  53.585  10.247  1.00  0.00     0.033 A 
HETATM    4  C3  UNL     1      68.112  54.494  10.464  1.00  0.00     0.027 A 
HETATM    5  C2  UNL     1      67.079  53.778  10.966  1.00  0.00     0.013 A 
HETATM    6  C1  UNL     1      65.776  54.406  11.337  1.00  0.00     0.068 C 
HETATM    7  N2  UNL     1      67.404  52.429  11.073  1.00  0.00    -0.311 N 
BRANCH   7   8
HETATM    8  C20 UNL     1      66.484  51.484  11.601  1.00  0.00     0.098 C 
BRANCH   8   9
HETATM    9  C21 UNL     1      65.467  51.031  10.626  1.00  0.00     0.223 C 
HETATM   10  O2  UNL     1      64.284  51.358  10.624  1.00  0.00    -0.643 OA
HETATM   11  O3  UNL     1      65.895  50.163   9.638  1.00  0.00    -0.643 OA
ENDBRANCH   8   9
BRANCH   8  12
HETATM   12  C22 UNL     1      66.031  51.609  13.013  1.00  0.00     0.043 A 
HETATM   13  C23 UNL     1      66.899  50.762  14.005  1.00  0.00     0.011 A 
HETATM   14  C24 UNL     1      65.477  50.527  13.852  1.00  0.00     0.011 A 
ENDBRANCH   8  12
ENDBRANCH   7   8
ENDBRANCH   1   2
BRANCH   1  15
HETATM   15  C7  UNL     1      69.766  50.391  11.820  1.00  0.00     0.035 A 
HETATM   16  C8  UNL     1      70.415  51.370  12.854  1.00  0.00     0.011 A 
HETATM   17  C9  UNL     1      71.231  50.293  12.369  1.00  0.00     0.011 A 
ENDBRANCH   1  15
BRANCH   1  18
HETATM   18  N1  UNL     1      69.200  50.310   9.379  1.00  0.00    -0.157 NA
BRANCH  18  19
HETATM   19  O1  UNL     1      68.493  51.146   8.571  1.00  0.00    -0.307 OA
ATOM     20  H1  UNL     1      67.875  50.591   8.109  1.00  0.00     0.237 HD
ENDBRANCH  18  19
BRANCH  18  21
HETATM   21  C10 UNL     1      70.177  49.686   8.587  1.00  0.00     0.044 C 
HETATM   22  C11 UNL     1      70.782  48.448   9.213  1.00  0.00     0.032 C 
HETATM   23  C12 UNL     1      71.997  47.979   8.477  1.00  0.00    -0.012 C 
HETATM   24  C13 UNL     1      73.122  48.990   8.505  1.00  0.00     0.009 C 
HETATM   25  C17 UNL     1      71.574  47.695   7.059  1.00  0.00     0.009 C 
HETATM   26  C14 UNL     1      72.537  50.253   7.868  1.00  0.00    -0.012 C 
HETATM   27  C15 UNL     1      72.259  49.943   6.428  1.00  0.00     0.009 C 
HETATM   28  C19 UNL     1      71.379  50.688   8.678  1.00  0.00     0.032 C 
HETATM   29  C16 UNL     1      71.108  48.954   6.410  1.00  0.00    -0.012 C 
HETATM   30  C18 UNL     1      69.953  49.620   7.120  1.00  0.00     0.032 C 
ENDBRANCH  18  21
ENDBRANCH   1  18
TORSDOF 8
ENDMDL
MODEL 2
REMARK VINA RESULT: -7.652385574      3.423      6.246
REMARK  8 active torsions:
REMARK  status: ('A' for Active; 'I' for Inactive)
REMARK    1  A    between atoms: C5_5  and  C6_6 
REMARK    2  A    between atoms: C6_6  and  C7_7 
REMARK    3  A    between atoms: C6_6  and  N1_10 
REMARK    4  A    between atoms: N1_10  and  O1_11 
REMARK    5  A    between atoms: N1_10  and  C10_13 
REMARK    6  A    between atoms: N2_23  and  C20_24 
REMARK    7  A    between atoms: C20_24  and  C21_25 
REMARK    8  A    between atoms: C20_24  and  C22_28 
ROOT
HETATM    1  C6  UNL     1      64.782  49.695  11.239  1.00  0.00     0.046 C 
ENDROOT
BRANCH   1   2
HETATM    2  C5  UNL     1      64.427  48.567  12.166  1.00  0.00     0.059 A 
HETATM    3  C4  UNL     1      64.400  48.705  13.576  1.00  0.00     0.033 A 
HETATM    4  C3  UNL     1      64.051  47.509  14.136  1.00  0.00     0.027 A 
HETATM    5  C2  UNL     1      63.870  46.666  13.094  1.00  0.00     0.013 A 
HETATM    6  C1  UNL     1      63.468  45.240  13.278  1.00  0.00     0.068 C 
HETATM    7  N2  UNL     1      64.100  47.307  11.879  1.00  0.00    -0.311 N 
BRANCH   7   8
HETATM    8  C20 UNL     1      63.997  46.614  10.643  1.00  0.00     0.098 C 
BRANCH   8   9
HETATM    9  C21 UNL     1      65.267  46.001  10.195  1.00  0.00     0.223 C 
HETATM   10  O2  UNL     1      66.209  46.601   9.686  1.00  0.00    -0.643 OA
HETATM   11  O3  UNL     1      65.394  44.634  10.365  1.00  0.00    -0.643 OA
ENDBRANCH   8   9
BRANCH   8  12
HETATM   12  C22 UNL     1      63.111  47.146   9.574  1.00  0.00     0.043 A 
HETATM   13  C23 UNL     1      62.060  46.095   9.079  1.00  0.00     0.011 A 
HETATM   14  C24 UNL     1      63.041  46.668   8.178  1.00  0.00     0.011 A 
ENDBRANCH   8  12
ENDBRANCH   7   8
ENDBRANCH   1   2
BRANCH   1  15
HETATM   15  C7  UNL     1      64.383  51.035  11.726  1.00  0.00     0.035 A 
HETATM   16  C8  UNL     1      62.846  51.272  11.552  1.00  0.00     0.011 A 
HETATM   17  C9  UNL     1      63.728  52.061  10.739  1.00  0.00     0.011 A 
ENDBRANCH   1  15
BRANCH   1  18
HETATM   18  N1  UNL     1      66.039  49.502  10.634  1.00  0.00    -0.157 NA
BRANCH  18  19
HETATM   19  O1  UNL     1      65.820  49.610   9.295  1.00  0.00    -0.307 OA
ATOM     20  H1  UNL     1      66.666  49.811   8.914  1.00  0.00     0.237 HD
ENDBRANCH  18  19
BRANCH  18  21
HETATM   21  C10 UNL     1      67.166  50.280  10.940  1.00  0.00     0.044 C 
HETATM   22  C11 UNL     1      67.425  51.404   9.960  1.00  0.00     0.032 C 
HETATM   23  C12 UNL     1      68.771  52.027  10.157  1.00  0.00    -0.012 C 
HETATM   24  C13 UNL     1      69.904  51.057   9.908  1.00  0.00     0.009 C 
HETATM   25  C17 UNL     1      68.817  52.545  11.571  1.00  0.00     0.009 C 
HETATM   26  C14 UNL     1      69.670  49.910  10.895  1.00  0.00    -0.012 C 
HETATM   27  C15 UNL     1      69.857  50.461  12.277  1.00  0.00     0.009 C 
HETATM   28  C19 UNL     1      68.351  49.310  10.605  1.00  0.00     0.032 C 
HETATM   29  C16 UNL     1      68.698  51.408  12.529  1.00  0.00    -0.012 C 
HETATM   30  C18 UNL     1      67.433  50.597  12.366  1.00  0.00     0.032 C 
ENDBRANCH  18  21
ENDBRANCH   1  18
TORSDOF 8
ENDMDL
MODEL 3
REMARK VINA RESULT: -7.609976212      0.798      1.704
REMARK  8 active torsions:
REMARK  status: ('A' for Active; 'I' for Inactive)
REMARK    1  A    between atoms: C5_5  and  C6_6 
REMARK    2  A    between atoms: C6_6  and  C7_7 
REMARK    3  A    between atoms: C6_6  and  N1_10 
REMARK    4  A    between atoms: N1_10  and  O1_11 
REMARK    5  A    between atoms: N1_10  and  C10_13 
REMARK    6  A    between atoms: N2_23  and  C20_24 
REMARK    7  A    between atoms: C20_24  and  C21_25 
REMARK    8  A    between atoms: C20_24  and  C22_28 
ROOT
HETATM    1  C6  UNL     1      69.025  51.447  11.043  1.00  0.00     0.046 C 
ENDROOT
BRANCH   1   2
HETATM    2  C5  UNL     1      67.951  52.489  11.182  1.00  0.00     0.059 A 
HETATM    3  C4  UNL     1      68.193  53.875  11.018  1.00  0.00     0.033 A 
HETATM    4  C3  UNL     1      67.027  54.560  11.212  1.00  0.00     0.027 A 
HETATM    5  C2  UNL     1      66.099  53.614  11.486  1.00  0.00     0.013 A 
HETATM    6  C1  UNL     1      64.670  53.949  11.757  1.00  0.00     0.068 C 
HETATM    7  N2  UNL     1      66.658  52.338  11.471  1.00  0.00    -0.311 N 
BRANCH   7   8
HETATM    8  C20 UNL     1      65.881  51.184  11.758  1.00  0.00     0.098 C 
BRANCH   8   9
HETATM    9  C21 UNL     1      65.126  50.669  10.595  1.00  0.00     0.223 C 
HETATM   10  O2  UNL     1      65.619  50.251   9.552  1.00  0.00    -0.643 OA
HETATM   11  O3  UNL     1      63.747  50.663  10.701  1.00  0.00    -0.643 OA
ENDBRANCH   8   9
BRANCH   8  12
HETATM   12  C22 UNL     1      65.216  51.057  13.083  1.00  0.00     0.043 A 
HETATM   13  C23 UNL     1      66.208  50.637  14.221  1.00  0.00     0.011 A 
HETATM   14  C24 UNL     1      65.065  49.816  13.870  1.00  0.00     0.011 A 
ENDBRANCH   8  12
ENDBRANCH   7   8
ENDBRANCH   1   2
BRANCH   1  15
HETATM   15  C7  UNL     1      69.421  50.803  12.316  1.00  0.00     0.035 A 
HETATM   16  C8  UNL     1      69.941  51.856  13.352  1.00  0.00     0.011 A 
HETATM   17  C9  UNL     1      70.898  50.923  12.827  1.00  0.00     0.011 A 
ENDBRANCH   1  15
BRANCH   1  18
HETATM   18  N1  UNL     1      68.862  50.678   9.876  1.00  0.00    -0.157 NA
BRANCH  18  19
HETATM   19  O1  UNL     1      68.387  51.538   8.935  1.00  0.00    -0.307 OA
ATOM     20  H1  UNL     1      68.133  50.996   8.198  1.00  0.00     0.237 HD
ENDBRANCH  18  19
BRANCH  18  21
HETATM   21  C10 UNL     1      69.905  49.945   9.287  1.00  0.00     0.044 C 
HETATM   22  C11 UNL     1      71.151  50.758   9.010  1.00  0.00     0.032 C 
HETATM   23  C12 UNL     1      72.123  50.023   8.141  1.00  0.00    -0.012 C 
HETATM   24  C13 UNL     1      71.566  49.727   6.767  1.00  0.00     0.009 C 
HETATM   25  C17 UNL     1      72.479  48.746   8.856  1.00  0.00     0.009 C 
HETATM   26  C14 UNL     1      70.305  48.897   7.018  1.00  0.00    -0.012 C 
HETATM   27  C15 UNL     1      70.738  47.589   7.610  1.00  0.00     0.009 C 
HETATM   28  C19 UNL     1      69.372  49.704   7.833  1.00  0.00     0.032 C 
HETATM   29  C16 UNL     1      71.264  47.892   9.001  1.00  0.00    -0.012 C 
HETATM   30  C18 UNL     1      70.135  48.554   9.756  1.00  0.00     0.032 C 
ENDBRANCH  18  21
ENDBRANCH   1  18
TORSDOF 8
ENDMDL
MODEL 4
REMARK VINA RESULT: -7.517838798      1.987      3.835
REMARK  8 active torsions:
REMARK  status: ('A' for Active; 'I' for Inactive)
REMARK    1  A    between atoms: C5_5  and  C6_6 
REMARK    2  A    between atoms: C6_6  and  C7_7 
REMARK    3  A    between atoms: C6_6  and  N1_10 
REMARK    4  A    between atoms: N1_10  and  O1_11 
REMARK    5  A    between atoms: N1_10  and  C10_13 
REMARK    6  A    between atoms: N2_23  and  C20_24 
REMARK    7  A    between atoms: C20_24  and  C21_25 
REMARK    8  A    between atoms: C20_24  and  C22_28 
ROOT
HETATM    1  C6  UNL     1      70.365  48.656  10.038  1.00  0.00     0.046 C 
ENDROOT
BRANCH   1   2
HETATM    2  C5  UNL     1      70.760  49.438  11.259  1.00  0.00     0.059 A 
HETATM    3  C4  UNL     1      71.980  49.227  11.949  1.00  0.00     0.033 A 
HETATM    4  C3  UNL     1      72.046  50.081  13.014  1.00  0.00     0.027 A 
HETATM    5  C2  UNL     1      70.896  50.792  12.972  1.00  0.00     0.013 A 
HETATM    6  C1  UNL     1      70.575  51.854  13.971  1.00  0.00     0.068 C 
HETATM    7  N2  UNL     1      70.100  50.403  11.898  1.00  0.00    -0.311 N 
BRANCH   7   8
HETATM    8  C20 UNL     1      68.828  50.993  11.665  1.00  0.00     0.098 C 
BRANCH   8   9
HETATM    9  C21 UNL     1      68.886  52.244  10.877  1.00  0.00     0.223 C 
HETATM   10  O2  UNL     1      69.066  53.368  11.335  1.00  0.00    -0.643 OA
HETATM   11  O3  UNL     1      68.718  52.127   9.509  1.00  0.00    -0.643 OA
ENDBRANCH   8   9
BRANCH   8  12
HETATM   12  C22 UNL     1      67.784  50.930  12.723  1.00  0.00     0.043 A 
HETATM   13  C23 UNL     1      66.491  50.180  12.253  1.00  0.00     0.011 A 
HETATM   14  C24 UNL     1      66.452  51.566  12.675  1.00  0.00     0.011 A 
ENDBRANCH   8  12
ENDBRANCH   7   8
ENDBRANCH   1   2
BRANCH   1  15
HETATM   15  C7  UNL     1      68.934  48.279   9.991  1.00  0.00     0.035 A 
HETATM   16  C8  UNL     1      68.617  47.399   8.735  1.00  0.00     0.011 A 
HETATM   17  C9  UNL     1      68.050  48.718   8.773  1.00  0.00     0.011 A 
ENDBRANCH   1  15
BRANCH   1  18
HETATM   18  N1  UNL     1      71.016  49.125   8.882  1.00  0.00    -0.157 NA
BRANCH  18  19
HETATM   19  O1  UNL     1      71.137  50.470   9.051  1.00  0.00    -0.307 OA
ATOM     20  H1  UNL     1      72.056  50.622   9.239  1.00  0.00     0.237 HD
ENDBRANCH  18  19
BRANCH  18  21
HETATM   21  C10 UNL     1      72.262  48.642   8.453  1.00  0.00     0.044 C 
HETATM   22  C11 UNL     1      73.353  49.692   8.416  1.00  0.00     0.032 C 
HETATM   23  C12 UNL     1      74.575  49.211   7.699  1.00  0.00    -0.012 C 
HETATM   24  C13 UNL     1      74.312  48.905   6.241  1.00  0.00     0.009 C 
HETATM   25  C17 UNL     1      75.058  47.981   8.421  1.00  0.00     0.009 C 
HETATM   26  C14 UNL     1      73.215  47.837   6.250  1.00  0.00    -0.012 C 
HETATM   27  C15 UNL     1      73.798  46.599   6.863  1.00  0.00     0.009 C 
HETATM   28  C19 UNL     1      72.025  48.400   6.923  1.00  0.00     0.032 C 
HETATM   29  C16 UNL     1      74.027  46.906   8.332  1.00  0.00    -0.012 C 
HETATM   30  C18 UNL     1      72.685  47.292   8.908  1.00  0.00     0.032 C 
ENDBRANCH  18  21
ENDBRANCH   1  18
TORSDOF 8
ENDMDL
MODEL 5
REMARK VINA RESULT: -7.505085869      1.588      2.532
REMARK  8 active torsions:
REMARK  status: ('A' for Active; 'I' for Inactive)
REMARK    1  A    between atoms: C5_5  and  C6_6 
REMARK    2  A    between atoms: C6_6  and  C7_7 
REMARK    3  A    between atoms: C6_6  and  N1_10 
REMARK    4  A    between atoms: N1_10  and  O1_11 
REMARK    5  A    between atoms: N1_10  and  C10_13 
REMARK    6  A    between atoms: N2_23  and  C20_24 
REMARK    7  A    between atoms: C20_24  and  C21_25 
REMARK    8  A    between atoms: C20_24  and  C22_28 
ROOT
HETATM    1  C6  UNL     1      68.699  51.519  11.135  1.00  0.00     0.046 C 
ENDROOT
BRANCH   1   2
HETATM    2  C5  UNL     1      67.584  52.500  11.367  1.00  0.00     0.059 A 
HETATM    3  C4  UNL     1      67.747  53.901  11.230  1.00  0.00     0.033 A 
HETATM    4  C3  UNL     1      66.562  54.520  11.512  1.00  0.00     0.027 A 
HETATM    5  C2  UNL     1      65.701  53.520  11.812  1.00  0.00     0.013 A 
HETATM    6  C1  UNL     1      64.276  53.775  12.176  1.00  0.00     0.068 C 
HETATM    7  N2  UNL     1      66.320  52.276  11.727  1.00  0.00    -0.311 N 
BRANCH   7   8
HETATM    8  C20 UNL     1      65.620  51.077  12.025  1.00  0.00     0.098 C 
BRANCH   8   9
HETATM    9  C21 UNL     1      65.664  50.700  13.455  1.00  0.00     0.223 C 
HETATM   10  O2  UNL     1      66.678  50.622  14.142  1.00  0.00    -0.643 OA
HETATM   11  O3  UNL     1      64.455  50.410  14.060  1.00  0.00    -0.643 OA
ENDBRANCH   8   9
BRANCH   8  12
HETATM   12  C22 UNL     1      65.637  49.954  11.049  1.00  0.00     0.043 A 
HETATM   13  C23 UNL     1      64.204  49.572  10.542  1.00  0.00     0.011 A 
HETATM   14  C24 UNL     1      65.039  48.618  11.244  1.00  0.00     0.011 A 
ENDBRANCH   8  12
ENDBRANCH   7   8
ENDBRANCH   1   2
BRANCH   1  15
HETATM   15  C7  UNL     1      69.214  50.877  12.365  1.00  0.00     0.035 A 
HETATM   16  C8  UNL     1      69.845  51.929  13.338  1.00  0.00     0.011 A 
HETATM   17  C9  UNL     1      70.736  50.986  12.724  1.00  0.00     0.011 A 
ENDBRANCH   1  15
BRANCH   1  18
HETATM   18  N1  UNL     1      68.495  50.760   9.966  1.00  0.00    -0.157 NA
BRANCH  18  19
HETATM   19  O1  UNL     1      68.295  51.668   8.972  1.00  0.00    -0.307 OA
ATOM     20  H1  UNL     1      67.750  51.228   8.331  1.00  0.00     0.237 HD
ENDBRANCH  18  19
BRANCH  18  21
HETATM   21  C10 UNL     1      69.418  49.815   9.494  1.00  0.00     0.044 C 
HETATM   22  C11 UNL     1      70.779  50.393   9.164  1.00  0.00     0.032 C 
HETATM   23  C12 UNL     1      71.636  49.424   8.410  1.00  0.00    -0.012 C 
HETATM   24  C13 UNL     1      71.055  49.061   7.062  1.00  0.00     0.009 C 
HETATM   25  C17 UNL     1      71.782  48.198   9.273  1.00  0.00     0.009 C 
HETATM   26  C14 UNL     1      69.678  48.466   7.368  1.00  0.00    -0.012 C 
HETATM   27  C15 UNL     1      69.898  47.184   8.113  1.00  0.00     0.009 C 
HETATM   28  C19 UNL     1      68.872  49.493   8.060  1.00  0.00     0.032 C 
HETATM   29  C16 UNL     1      70.449  47.561   9.477  1.00  0.00    -0.012 C 
HETATM   30  C18 UNL     1      69.427  48.469  10.121  1.00  0.00     0.032 C 
ENDBRANCH  18  21
ENDBRANCH   1  18
TORSDOF 8
ENDMDL
