MODEL 1
REMARK VINA RESULT: -8.020017538      0.000      0.000
REMARK  7 active torsions:
REMARK  status: ('A' for Active; 'I' for Inactive)
REMARK    1  A    between atoms: C2_2  and  C3_3 
REMARK    2  A    between atoms: C3_3  and  C4_4 
REMARK    3  A    between atoms: C4_4  and  S1_5 
REMARK    4  A    between atoms: S1_5  and  C5_6 
REMARK    5  A    between atoms: C7_8  and  O1_9 
REMARK    6  A    between atoms: C19_23  and  C20_24 
REMARK    7  A    between atoms: C20_24  and  O3_25 
ROOT
HETATM    1  C5  UNL     1      70.817  49.067   8.555  1.00  0.00     0.034 C 
HETATM    2  C6  UNL     1      72.217  49.684   8.675  1.00  0.00     0.030 C 
HETATM    3  C7  UNL     1      70.920  47.640   8.984  1.00  0.00     0.136 C 
HETATM    4  C8  UNL     1      69.542  47.058   8.765  1.00  0.00     0.034 C 
HETATM    5  C9  UNL     1      68.480  47.719   9.561  1.00  0.00     0.008 C 
HETATM    6  C10 UNL     1      68.760  49.091  10.050  1.00  0.00    -0.004 C 
HETATM    7  C11 UNL     1      67.575  49.947   9.657  1.00  0.00    -0.005 C 
HETATM    8  C12 UNL     1      66.325  49.282  10.205  1.00  0.00     0.006 C 
HETATM    9  C13 UNL     1      65.351  50.367  10.600  1.00  0.00     0.018 C 
HETATM   10  C14 UNL     1      65.974  51.154  11.716  1.00  0.00     0.027 C 
HETATM   11  C15 UNL     1      66.108  50.222  12.906  1.00  0.00     0.024 C 
HETATM   12  C16 UNL     1      65.006  52.212  12.124  1.00  0.00     0.136 C 
HETATM   13  O2  UNL     1      63.863  51.971  12.434  1.00  0.00    -0.297 OA
HETATM   14  C17 UNL     1      65.660  53.521  12.080  1.00  0.00     0.080 C 
HETATM   15  C18 UNL     1      66.845  53.302  11.210  1.00  0.00     0.020 C 
HETATM   16  C19 UNL     1      67.246  51.823  11.330  1.00  0.00    -0.001 C 
HETATM   17  C21 UNL     1      67.665  51.387   9.952  1.00  0.00     0.002 C 
HETATM   18  C22 UNL     1      68.946  51.930   9.458  1.00  0.00     0.006 C 
HETATM   19  C23 UNL     1      70.176  51.145   9.670  1.00  0.00     0.007 C 
HETATM   20  C24 UNL     1      70.074  49.683   9.826  1.00  0.00     0.011 C 
ENDROOT
BRANCH   1  21
HETATM   21  S1  UNL     1      69.948  49.492   7.140  1.00  0.00    -0.156 SA
BRANCH  21  22
HETATM   22  C4  UNL     1      70.490  49.956   5.601  1.00  0.00     0.075 C 
BRANCH  22  23
HETATM   23  C3  UNL     1      71.767  49.597   4.957  1.00  0.00     0.010 C 
BRANCH  23  24
HETATM   24  C2  UNL     1      71.778  49.739   3.488  1.00  0.00    -0.004 C 
HETATM   25  C1  UNL     1      70.958  50.961   3.034  1.00  0.00     0.005 C 
ENDBRANCH  23  24
ENDBRANCH  22  23
ENDBRANCH  21  22
ENDBRANCH   1  21
BRANCH   3  26
HETATM   26  O1  UNL     1      71.230  47.498  10.358  1.00  0.00    -0.394 OA
ATOM     27  H1  UNL     1      71.266  46.591  10.638  1.00  0.00     0.210 HD
ENDBRANCH   3  26
BRANCH  16  28
HETATM   28  C20 UNL     1      68.303  51.800  12.370  1.00  0.00     0.175 C 
BRANCH  28  29
HETATM   29  O3  UNL     1      68.935  53.069  12.331  1.00  0.00    -0.400 OA
ATOM     30  H3  UNL     1      69.778  52.939  11.911  1.00  0.00     0.209 HD
ENDBRANCH  28  29
ENDBRANCH  16  28
TORSDOF 7
ENDMDL
MODEL 2
REMARK VINA RESULT: -7.830487307      2.731      6.224
REMARK  7 active torsions:
REMARK  status: ('A' for Active; 'I' for Inactive)
REMARK    1  A    between atoms: C2_2  and  C3_3 
REMARK    2  A    between atoms: C3_3  and  C4_4 
REMARK    3  A    between atoms: C4_4  and  S1_5 
REMARK    4  A    between atoms: S1_5  and  C5_6 
REMARK    5  A    between atoms: C7_8  and  O1_9 
REMARK    6  A    between atoms: C19_23  and  C20_24 
REMARK    7  A    between atoms: C20_24  and  O3_25 
ROOT
HETATM    1  C5  UNL     1      69.048  52.354  11.219  1.00  0.00     0.034 C 
HETATM    2  C6  UNL     1      70.358  52.998  10.745  1.00  0.00     0.030 C 
HETATM    3  C7  UNL     1      67.965  53.366  11.050  1.00  0.00     0.136 C 
HETATM    4  C8  UNL     1      66.720  52.715  11.609  1.00  0.00     0.034 C 
HETATM    5  C9  UNL     1      66.325  51.474  10.901  1.00  0.00     0.008 C 
HETATM    6  C10 UNL     1      67.379  50.776  10.125  1.00  0.00    -0.004 C 
HETATM    7  C11 UNL     1      67.350  49.324  10.553  1.00  0.00    -0.005 C 
HETATM    8  C12 UNL     1      65.932  48.817  10.363  1.00  0.00     0.006 C 
HETATM    9  C13 UNL     1      66.005  47.366   9.950  1.00  0.00     0.018 C 
HETATM   10  C14 UNL     1      66.691  47.306   8.616  1.00  0.00     0.027 C 
HETATM   11  C15 UNL     1      65.794  48.010   7.614  1.00  0.00     0.024 C 
HETATM   12  C16 UNL     1      66.744  45.877   8.194  1.00  0.00     0.136 C 
HETATM   13  O2  UNL     1      65.763  45.174   8.136  1.00  0.00    -0.297 OA
HETATM   14  C17 UNL     1      68.126  45.508   7.880  1.00  0.00     0.080 C 
HETATM   15  C18 UNL     1      68.939  46.551   8.557  1.00  0.00     0.020 C 
HETATM   16  C19 UNL     1      68.085  47.826   8.644  1.00  0.00    -0.001 C 
HETATM   17  C21 UNL     1      68.383  48.440   9.986  1.00  0.00     0.002 C 
HETATM   18  C22 UNL     1      69.719  49.051  10.140  1.00  0.00     0.006 C 
HETATM   19  C23 UNL     1      69.874  50.492   9.867  1.00  0.00     0.007 C 
HETATM   20  C24 UNL     1      68.704  51.377  10.004  1.00  0.00     0.011 C 
ENDROOT
BRANCH   1  21
HETATM   21  S1  UNL     1      69.165  51.432  12.659  1.00  0.00    -0.156 SA
BRANCH  21  22
HETATM   22  C4  UNL     1      70.291  51.491  13.927  1.00  0.00     0.075 C 
BRANCH  22  23
HETATM   23  C3  UNL     1      71.762  51.491  13.819  1.00  0.00     0.010 C 
BRANCH  23  24
HETATM   24  C2  UNL     1      72.394  50.173  14.018  1.00  0.00    -0.004 C 
HETATM   25  C1  UNL     1      72.503  49.395  12.694  1.00  0.00     0.005 C 
ENDBRANCH  23  24
ENDBRANCH  22  23
ENDBRANCH  21  22
ENDBRANCH   1  21
BRANCH   3  26
HETATM   26  O1  UNL     1      67.709  53.682   9.694  1.00  0.00    -0.394 OA
ATOM     27  H1  UNL     1      66.994  54.297   9.584  1.00  0.00     0.210 HD
ENDBRANCH   3  26
BRANCH  16  28
HETATM   28  C20 UNL     1      68.477  48.627   7.459  1.00  0.00     0.175 C 
BRANCH  28  29
HETATM   29  O3  UNL     1      69.725  48.116   7.021  1.00  0.00    -0.400 OA
ATOM     30  H3  UNL     1      70.154  48.820   6.549  1.00  0.00     0.209 HD
ENDBRANCH  28  29
ENDBRANCH  16  28
TORSDOF 7
ENDMDL
MODEL 3
REMARK VINA RESULT: -7.701782480      2.747      7.078
REMARK  7 active torsions:
REMARK  status: ('A' for Active; 'I' for Inactive)
REMARK    1  A    between atoms: C2_2  and  C3_3 
REMARK    2  A    between atoms: C3_3  and  C4_4 
REMARK    3  A    between atoms: C4_4  and  S1_5 
REMARK    4  A    between atoms: S1_5  and  C5_6 
REMARK    5  A    between atoms: C7_8  and  O1_9 
REMARK    6  A    between atoms: C19_23  and  C20_24 
REMARK    7  A    between atoms: C20_24  and  O3_25 
ROOT
HETATM    1  C5  UNL     1      67.713  50.739  10.259  1.00  0.00     0.034 C 
HETATM    2  C6  UNL     1      67.643  52.255  10.036  1.00  0.00     0.030 C 
HETATM    3  C7  UNL     1      66.550  50.128   9.550  1.00  0.00     0.136 C 
HETATM    4  C8  UNL     1      66.616  48.653   9.873  1.00  0.00     0.034 C 
HETATM    5  C9  UNL     1      67.858  47.993   9.405  1.00  0.00     0.008 C 
HETATM    6  C10 UNL     1      69.031  48.866   9.153  1.00  0.00    -0.004 C 
HETATM    7  C11 UNL     1      70.201  48.253   9.893  1.00  0.00    -0.005 C 
HETATM    8  C12 UNL     1      70.329  46.810   9.438  1.00  0.00     0.006 C 
HETATM    9  C13 UNL     1      71.796  46.451   9.425  1.00  0.00     0.018 C 
HETATM   10  C14 UNL     1      72.468  47.314   8.397  1.00  0.00     0.027 C 
HETATM   11  C15 UNL     1      71.903  46.926   7.043  1.00  0.00     0.024 C 
HETATM   12  C16 UNL     1      73.912  46.946   8.366  1.00  0.00     0.136 C 
HETATM   13  O2  UNL     1      74.296  45.812   8.205  1.00  0.00    -0.297 OA
HETATM   14  C17 UNL     1      74.730  48.146   8.557  1.00  0.00     0.080 C 
HETATM   15  C18 UNL     1      73.793  49.127   9.163  1.00  0.00     0.020 C 
HETATM   16  C19 UNL     1      72.374  48.769   8.693  1.00  0.00    -0.001 C 
HETATM   17  C21 UNL     1      71.469  49.002   9.874  1.00  0.00     0.002 C 
HETATM   18  C22 UNL     1      71.235  50.411  10.248  1.00  0.00     0.006 C 
HETATM   19  C23 UNL     1      70.061  51.106   9.690  1.00  0.00     0.007 C 
HETATM   20  C24 UNL     1      68.892  50.313   9.271  1.00  0.00     0.011 C 
ENDROOT
BRANCH   1  21
HETATM   21  S1  UNL     1      68.118  50.252  11.852  1.00  0.00    -0.156 SA
BRANCH  21  22
HETATM   22  C4  UNL     1      68.696  51.145  13.174  1.00  0.00     0.075 C 
BRANCH  22  23
HETATM   23  C3  UNL     1      69.939  51.935  13.244  1.00  0.00     0.010 C 
BRANCH  23  24
HETATM   24  C2  UNL     1      70.845  51.563  14.348  1.00  0.00    -0.004 C 
HETATM   25  C1  UNL     1      72.130  50.897  13.823  1.00  0.00     0.005 C 
ENDBRANCH  23  24
ENDBRANCH  22  23
ENDBRANCH  21  22
ENDBRANCH   1  21
BRANCH   3  26
HETATM   26  O1  UNL     1      66.629  50.261   8.143  1.00  0.00    -0.394 OA
ATOM     27  H1  UNL     1      65.782  50.399   7.736  1.00  0.00     0.210 HD
ENDBRANCH   3  26
BRANCH  16  28
HETATM   28  C20 UNL     1      72.136  49.632   7.511  1.00  0.00     0.175 C 
BRANCH  28  29
HETATM   29  O3  UNL     1      73.131  50.642   7.543  1.00  0.00    -0.400 OA
ATOM     30  H3  UNL     1      73.805  50.378   6.927  1.00  0.00     0.209 HD
ENDBRANCH  28  29
ENDBRANCH  16  28
TORSDOF 7
ENDMDL
MODEL 4
REMARK VINA RESULT: -7.693867950      2.397      7.059
REMARK  7 active torsions:
REMARK  status: ('A' for Active; 'I' for Inactive)
REMARK    1  A    between atoms: C2_2  and  C3_3 
REMARK    2  A    between atoms: C3_3  and  C4_4 
REMARK    3  A    between atoms: C4_4  and  S1_5 
REMARK    4  A    between atoms: S1_5  and  C5_6 
REMARK    5  A    between atoms: C7_8  and  O1_9 
REMARK    6  A    between atoms: C19_23  and  C20_24 
REMARK    7  A    between atoms: C20_24  and  O3_25 
ROOT
HETATM    1  C5  UNL     1      67.936  51.667  11.022  1.00  0.00     0.034 C 
HETATM    2  C6  UNL     1      66.516  51.626  10.442  1.00  0.00     0.030 C 
HETATM    3  C7  UNL     1      67.826  51.432  12.492  1.00  0.00     0.136 C 
HETATM    4  C8  UNL     1      69.234  51.569  13.024  1.00  0.00     0.034 C 
HETATM    5  C9  UNL     1      70.186  50.586  12.455  1.00  0.00     0.008 C 
HETATM    6  C10 UNL     1      69.820  49.964  11.159  1.00  0.00    -0.004 C 
HETATM    7  C11 UNL     1      71.017  50.116  10.246  1.00  0.00    -0.005 C 
HETATM    8  C12 UNL     1      72.219  49.521  10.958  1.00  0.00     0.006 C 
HETATM    9  C13 UNL     1      73.115  48.891   9.919  1.00  0.00     0.018 C 
HETATM   10  C14 UNL     1      72.356  47.760   9.287  1.00  0.00     0.027 C 
HETATM   11  C15 UNL     1      72.120  46.717  10.364  1.00  0.00     0.024 C 
HETATM   12  C16 UNL     1      73.247  47.121   8.277  1.00  0.00     0.136 C 
HETATM   13  O2  UNL     1      74.355  46.720   8.540  1.00  0.00    -0.297 OA
HETATM   14  C17 UNL     1      72.566  47.074   6.981  1.00  0.00     0.080 C 
HETATM   15  C18 UNL     1      71.488  48.090   7.104  1.00  0.00     0.020 C 
HETATM   16  C19 UNL     1      71.116  48.198   8.591  1.00  0.00    -0.001 C 
HETATM   17  C21 UNL     1      70.858  49.657   8.855  1.00  0.00     0.002 C 
HETATM   18  C22 UNL     1      69.623  50.218   8.271  1.00  0.00     0.006 C 
HETATM   19  C23 UNL     1      68.399  50.241   9.092  1.00  0.00     0.007 C 
HETATM   20  C24 UNL     1      68.522  50.256  10.560  1.00  0.00     0.011 C 
ENDROOT
BRANCH   1  21
HETATM   21  S1  UNL     1      68.940  52.915  10.410  1.00  0.00    -0.156 SA
BRANCH  21  22
HETATM   22  C4  UNL     1      68.558  54.456   9.813  1.00  0.00     0.075 C 
BRANCH  22  23
HETATM   23  C3  UNL     1      67.446  55.328  10.235  1.00  0.00     0.010 C 
BRANCH  23  24
HETATM   24  C2  UNL     1      67.077  55.211  11.658  1.00  0.00    -0.004 C 
HETATM   25  C1  UNL     1      65.588  54.853  11.827  1.00  0.00     0.005 C 
ENDBRANCH  23  24
ENDBRANCH  22  23
ENDBRANCH  21  22
ENDBRANCH   1  21
BRANCH   3  26
HETATM   26  O1  UNL     1      67.374  50.129  12.810  1.00  0.00    -0.394 OA
ATOM     27  H1  UNL     1      67.729  49.463  12.234  1.00  0.00     0.210 HD
ENDBRANCH   3  26
BRANCH  16  28
HETATM   28  C20 UNL     1      69.954  47.291   8.759  1.00  0.00     0.175 C 
BRANCH  28  29
HETATM   29  O3  UNL     1      69.463  47.020   7.456  1.00  0.00    -0.400 OA
ATOM     30  H3  UNL     1      68.539  46.823   7.551  1.00  0.00     0.209 HD
ENDBRANCH  28  29
ENDBRANCH  16  28
TORSDOF 7
ENDMDL
MODEL 5
REMARK VINA RESULT: -7.680443935      3.227      6.315
REMARK  7 active torsions:
REMARK  status: ('A' for Active; 'I' for Inactive)
REMARK    1  A    between atoms: C2_2  and  C3_3 
REMARK    2  A    between atoms: C3_3  and  C4_4 
REMARK    3  A    between atoms: C4_4  and  S1_5 
REMARK    4  A    between atoms: S1_5  and  C5_6 
REMARK    5  A    between atoms: C7_8  and  O1_9 
REMARK    6  A    between atoms: C19_23  and  C20_24 
REMARK    7  A    between atoms: C20_24  and  O3_25 
ROOT
HETATM    1  C5  UNL     1      67.168  52.456  11.712  1.00  0.00     0.034 C 
HETATM    2  C6  UNL     1      68.051  53.517  11.043  1.00  0.00     0.030 C 
HETATM    3  C7  UNL     1      65.855  53.096  12.019  1.00  0.00     0.136 C 
HETATM    4  C8  UNL     1      65.058  52.039  12.751  1.00  0.00     0.034 C 
HETATM    5  C9  UNL     1      64.816  50.814  11.953  1.00  0.00     0.008 C 
HETATM    6  C10 UNL     1      65.733  50.556  10.816  1.00  0.00    -0.004 C 
HETATM    7  C11 UNL     1      66.223  49.132  10.961  1.00  0.00    -0.005 C 
HETATM    8  C12 UNL     1      65.004  48.233  11.055  1.00  0.00     0.006 C 
HETATM    9  C13 UNL     1      65.333  46.924  10.376  1.00  0.00     0.018 C 
HETATM   10  C14 UNL     1      65.575  47.212   8.923  1.00  0.00     0.027 C 
HETATM   11  C15 UNL     1      64.265  47.701   8.335  1.00  0.00     0.024 C 
HETATM   12  C16 UNL     1      65.878  45.919   8.246  1.00  0.00     0.136 C 
HETATM   13  O2  UNL     1      65.152  44.956   8.315  1.00  0.00    -0.297 OA
HETATM   14  C17 UNL     1      67.148  46.028   7.523  1.00  0.00     0.080 C 
HETATM   15  C18 UNL     1      67.817  47.199   8.147  1.00  0.00     0.020 C 
HETATM   16  C19 UNL     1      66.721  48.132   8.686  1.00  0.00    -0.001 C 
HETATM   17  C21 UNL     1      67.234  48.672   9.994  1.00  0.00     0.002 C 
HETATM   18  C22 UNL     1      68.339  49.647   9.908  1.00  0.00     0.006 C 
HETATM   19  C23 UNL     1      68.014  51.085   9.874  1.00  0.00     0.007 C 
HETATM   20  C24 UNL     1      66.748  51.546  10.470  1.00  0.00     0.011 C 
ENDROOT
BRANCH   1  21
HETATM   21  S1  UNL     1      67.956  51.477  12.878  1.00  0.00    -0.156 SA
BRANCH  21  22
HETATM   22  C4  UNL     1      69.577  51.430  13.377  1.00  0.00     0.075 C 
BRANCH  22  23
HETATM   23  C3  UNL     1      70.773  51.316  12.521  1.00  0.00     0.010 C 
BRANCH  23  24
HETATM   24  C2  UNL     1      71.176  49.932  12.207  1.00  0.00    -0.004 C 
HETATM   25  C1  UNL     1      72.469  49.540  12.945  1.00  0.00     0.005 C 
ENDBRANCH  23  24
ENDBRANCH  22  23
ENDBRANCH  21  22
ENDBRANCH   1  21
BRANCH   3  26
HETATM   26  O1  UNL     1      65.128  53.450  10.857  1.00  0.00    -0.394 OA
ATOM     27  H1  UNL     1      64.215  53.640  11.034  1.00  0.00     0.210 HD
ENDBRANCH   3  26
BRANCH  16  28
HETATM   28  C20 UNL     1      66.508  49.129   7.608  1.00  0.00     0.175 C 
BRANCH  28  29
HETATM   29  O3  UNL     1      67.587  48.979   6.701  1.00  0.00    -0.400 OA
ATOM     30  H3  UNL     1      67.683  49.812   6.255  1.00  0.00     0.209 HD
ENDBRANCH  28  29
ENDBRANCH  16  28
TORSDOF 7
ENDMDL
