MODEL 1
REMARK VINA RESULT: -8.085258843      0.000      0.000
REMARK  7 active torsions:
REMARK  status: ('A' for Active; 'I' for Inactive)
REMARK    1  A    between atoms: C2_2  and  N1_3 
REMARK    2  A    between atoms: N1_3  and  C3_4 
REMARK    3  A    between atoms: N1_3  and  C5_6 
REMARK    4  A    between atoms: C5_6  and  C6_7 
REMARK    5  A    between atoms: C6_7  and  C7_8 
REMARK    6  A    between atoms: N2_13  and  C12_14 
REMARK    7  A    between atoms: C22_26  and  N4_27 
ROOT
HETATM    1  C7  UNL     1      69.964  49.491  10.117  1.00  0.00     0.030 C 
HETATM    2  C8  UNL     1      68.801  48.501  10.242  1.00  0.00     0.020 C 
HETATM    3  C9  UNL     1      67.728  48.799   9.223  1.00  0.00    -0.031 C 
HETATM    4  C10 UNL     1      67.345  47.574   8.446  1.00  0.00     0.040 C 
HETATM    5  C11 UNL     1      65.899  47.576   7.982  1.00  0.00     0.273 C 
HETATM    6  N2  UNL     1      64.955  47.796   9.022  1.00  0.00     0.093 N 
HETATM    7  C18 UNL     1      65.603  48.065  10.269  1.00  0.00     0.273 C 
HETATM    8  C19 UNL     1      66.519  49.271   9.999  1.00  0.00     0.040 C 
HETATM    9  C20 UNL     1      68.124  49.894   8.271  1.00  0.00     0.067 C 
HETATM   10  C21 UNL     1      69.488  49.534   7.699  1.00  0.00     0.025 A 
HETATM   11  N3  UNL     1      69.883  49.395   6.479  1.00  0.00    -0.340 N 
ATOM     12  H3  UNL     1      69.229  49.534   5.709  1.00  0.00     0.168 HD
HETATM   13  C22 UNL     1      71.149  49.070   6.233  1.00  0.00     0.142 A 
HETATM   14  S1  UNL     1      71.823  48.953   7.800  1.00  0.00    -0.057 SA
HETATM   15  C23 UNL     1      70.431  49.329   8.703  1.00  0.00     0.013 A 
ENDROOT
BRANCH   1  16
HETATM   16  C6  UNL     1      70.956  49.191  11.153  1.00  0.00     0.040 C 
BRANCH  16  17
HETATM   17  C5  UNL     1      71.621  50.364  11.815  1.00  0.00     0.273 C 
BRANCH  17  18
HETATM   18  N1  UNL     1      71.018  50.691  13.082  1.00  0.00     0.087 N 
BRANCH  18  19
HETATM   19  C2  UNL     1      70.007  51.703  12.961  1.00  0.00     0.268 C 
HETATM   20  C1  UNL     1      68.608  51.144  13.154  1.00  0.00     0.037 C 
ENDBRANCH  18  19
BRANCH  18  21
HETATM   21  C3  UNL     1      71.982  51.020  14.087  1.00  0.00     0.268 C 
HETATM   22  C4  UNL     1      73.118  50.016  14.092  1.00  0.00     0.037 C 
ENDBRANCH  18  21
ENDBRANCH  17  18
ENDBRANCH  16  17
ENDBRANCH   1  16
BRANCH   6  23
HETATM   23  C12 UNL     1      63.844  46.916   9.067  1.00  0.00     0.223 C 
HETATM   24  C13 UNL     1      63.557  46.524  10.502  1.00  0.00     0.036 C 
HETATM   25  C14 UNL     1      62.123  46.038  10.540  1.00  0.00     0.002 C 
HETATM   26  C15 UNL     1      61.635  45.631   9.183  1.00  0.00     0.000 C 
HETATM   27  C16 UNL     1      62.669  44.915   8.359  1.00  0.00     0.002 C 
HETATM   28  C17 UNL     1      63.992  45.636   8.294  1.00  0.00     0.036 C 
ENDBRANCH   6  23
BRANCH  13  29
HETATM   29  N4  UNL     1      71.704  48.893   5.052  1.00  0.00    -0.380 N 
ATOM     30  H42 UNL     1      72.275  49.524   4.490  1.00  0.00     0.158 HD
ATOM     31  H41 UNL     1      71.655  48.056   4.471  1.00  0.00     0.158 HD
ENDBRANCH  13  29
TORSDOF 7
ENDMDL
MODEL 2
REMARK VINA RESULT: -7.948280497      3.115      7.011
REMARK  7 active torsions:
REMARK  status: ('A' for Active; 'I' for Inactive)
REMARK    1  A    between atoms: C2_2  and  N1_3 
REMARK    2  A    between atoms: N1_3  and  C3_4 
REMARK    3  A    between atoms: N1_3  and  C5_6 
REMARK    4  A    between atoms: C5_6  and  C6_7 
REMARK    5  A    between atoms: C6_7  and  C7_8 
REMARK    6  A    between atoms: N2_13  and  C12_14 
REMARK    7  A    between atoms: C22_26  and  N4_27 
ROOT
HETATM    1  C7  UNL     1      68.103  50.735  11.422  1.00  0.00     0.030 C 
HETATM    2  C8  UNL     1      68.763  50.971  10.058  1.00  0.00     0.020 C 
HETATM    3  C9  UNL     1      68.967  49.667   9.325  1.00  0.00    -0.031 C 
HETATM    4  C10 UNL     1      68.424  49.725   7.928  1.00  0.00     0.040 C 
HETATM    5  C11 UNL     1      69.175  48.841   6.948  1.00  0.00     0.273 C 
HETATM    6  N2  UNL     1      70.579  49.060   6.924  1.00  0.00     0.093 N 
HETATM    7  C18 UNL     1      70.977  50.012   7.916  1.00  0.00     0.273 C 
HETATM    8  C19 UNL     1      70.462  49.448   9.250  1.00  0.00     0.040 C 
HETATM    9  C20 UNL     1      68.363  48.497  10.051  1.00  0.00     0.067 C 
HETATM   10  C21 UNL     1      66.916  48.849  10.368  1.00  0.00     0.025 A 
HETATM   11  N3  UNL     1      65.816  48.242  10.078  1.00  0.00    -0.340 N 
ATOM     12  H3  UNL     1      65.834  47.370   9.549  1.00  0.00     0.168 HD
HETATM   13  C22 UNL     1      64.657  48.762  10.474  1.00  0.00     0.142 A 
HETATM   14  S1  UNL     1      65.138  50.179  11.299  1.00  0.00    -0.057 SA
HETATM   15  C23 UNL     1      66.820  50.035  11.090  1.00  0.00     0.013 A 
ENDROOT
BRANCH   1  16
HETATM   16  C6  UNL     1      67.967  52.020  12.112  1.00  0.00     0.040 C 
BRANCH  16  17
HETATM   17  C5  UNL     1      68.191  53.258  11.291  1.00  0.00     0.273 C 
BRANCH  17  18
HETATM   18  N1  UNL     1      67.205  54.275  11.553  1.00  0.00     0.087 N 
BRANCH  18  19
HETATM   19  C2  UNL     1      65.910  53.721  11.828  1.00  0.00     0.268 C 
HETATM   20  C1  UNL     1      64.794  54.723  11.589  1.00  0.00     0.037 C 
ENDBRANCH  18  19
BRANCH  18  21
HETATM   21  C3  UNL     1      67.151  55.273  10.529  1.00  0.00     0.268 C 
HETATM   22  C4  UNL     1      68.395  55.224   9.663  1.00  0.00     0.037 C 
ENDBRANCH  18  21
ENDBRANCH  17  18
ENDBRANCH  16  17
ENDBRANCH   1  16
BRANCH   6  23
HETATM   23  C12 UNL     1      71.179  49.194   5.646  1.00  0.00     0.223 C 
HETATM   24  C13 UNL     1      72.687  49.113   5.775  1.00  0.00     0.036 C 
HETATM   25  C14 UNL     1      73.220  48.750   4.404  1.00  0.00     0.002 C 
HETATM   26  C15 UNL     1      72.236  49.071   3.319  1.00  0.00     0.000 C 
HETATM   27  C16 UNL     1      71.492  50.359   3.541  1.00  0.00     0.002 C 
HETATM   28  C17 UNL     1      70.880  50.472   4.914  1.00  0.00     0.036 C 
ENDBRANCH   6  23
BRANCH  13  29
HETATM   29  N4  UNL     1      63.455  48.267  10.261  1.00  0.00    -0.380 N 
ATOM     30  H42 UNL     1      63.066  47.354  10.497  1.00  0.00     0.158 HD
ATOM     31  H41 UNL     1      62.673  48.734   9.800  1.00  0.00     0.158 HD
ENDBRANCH  13  29
TORSDOF 7
ENDMDL
MODEL 3
REMARK VINA RESULT: -7.929093711      0.425      1.441
REMARK  7 active torsions:
REMARK  status: ('A' for Active; 'I' for Inactive)
REMARK    1  A    between atoms: C2_2  and  N1_3 
REMARK    2  A    between atoms: N1_3  and  C3_4 
REMARK    3  A    between atoms: N1_3  and  C5_6 
REMARK    4  A    between atoms: C5_6  and  C6_7 
REMARK    5  A    between atoms: C6_7  and  C7_8 
REMARK    6  A    between atoms: N2_13  and  C12_14 
REMARK    7  A    between atoms: C22_26  and  N4_27 
ROOT
HETATM    1  C7  UNL     1      70.269  49.655   9.863  1.00  0.00     0.030 C 
HETATM    2  C8  UNL     1      69.115  48.666  10.062  1.00  0.00     0.020 C 
HETATM    3  C9  UNL     1      68.024  48.901   9.046  1.00  0.00    -0.031 C 
HETATM    4  C10 UNL     1      67.636  47.633   8.345  1.00  0.00     0.040 C 
HETATM    5  C11 UNL     1      66.183  47.601   7.906  1.00  0.00     0.273 C 
HETATM    6  N2  UNL     1      65.255  47.872   8.948  1.00  0.00     0.093 N 
HETATM    7  C18 UNL     1      65.922  48.213  10.168  1.00  0.00     0.273 C 
HETATM    8  C19 UNL     1      66.824  49.408   9.816  1.00  0.00     0.040 C 
HETATM    9  C20 UNL     1      68.396  49.945   8.029  1.00  0.00     0.067 C 
HETATM   10  C21 UNL     1      69.753  49.563   7.454  1.00  0.00     0.025 A 
HETATM   11  N3  UNL     1      70.128  49.359   6.238  1.00  0.00    -0.340 N 
ATOM     12  H3  UNL     1      69.460  49.452   5.472  1.00  0.00     0.168 HD
HETATM   13  C22 UNL     1      71.392  49.028   5.988  1.00  0.00     0.142 A 
HETATM   14  S1  UNL     1      72.092  49.002   7.547  1.00  0.00    -0.057 SA
HETATM   15  C23 UNL     1      70.714  49.418   8.452  1.00  0.00     0.013 A 
ENDROOT
BRANCH   1  16
HETATM   16  C6  UNL     1      71.281  49.418  10.896  1.00  0.00     0.040 C 
BRANCH  16  17
HETATM   17  C5  UNL     1      70.893  49.740  12.312  1.00  0.00     0.273 C 
BRANCH  17  18
HETATM   18  N1  UNL     1      71.105  51.128  12.635  1.00  0.00     0.087 N 
BRANCH  18  19
HETATM   19  C2  UNL     1      71.763  51.300  13.899  1.00  0.00     0.268 C 
HETATM   20  C1  UNL     1      72.943  50.358  14.067  1.00  0.00     0.037 C 
ENDBRANCH  18  19
BRANCH  18  21
HETATM   21  C3  UNL     1      69.909  51.908  12.547  1.00  0.00     0.268 C 
HETATM   22  C4  UNL     1      68.706  51.103  12.996  1.00  0.00     0.037 C 
ENDBRANCH  18  21
ENDBRANCH  17  18
ENDBRANCH  16  17
ENDBRANCH   1  16
BRANCH   6  23
HETATM   23  C12 UNL     1      64.151  46.989   9.061  1.00  0.00     0.223 C 
HETATM   24  C13 UNL     1      63.984  46.556  10.504  1.00  0.00     0.036 C 
HETATM   25  C14 UNL     1      62.557  46.066  10.647  1.00  0.00     0.002 C 
HETATM   26  C15 UNL     1      61.958  45.696   9.323  1.00  0.00     0.000 C 
HETATM   27  C16 UNL     1      62.920  45.005   8.397  1.00  0.00     0.002 C 
HETATM   28  C17 UNL     1      64.234  45.730   8.243  1.00  0.00     0.036 C 
ENDBRANCH   6  23
BRANCH  13  29
HETATM   29  N4  UNL     1      71.928  48.790   4.809  1.00  0.00    -0.380 N 
ATOM     30  H42 UNL     1      71.572  48.253   4.018  1.00  0.00     0.158 HD
ATOM     31  H41 UNL     1      72.834  49.116   4.471  1.00  0.00     0.158 HD
ENDBRANCH  13  29
TORSDOF 7
ENDMDL
MODEL 4
REMARK VINA RESULT: -7.891973664      3.098      7.073
REMARK  7 active torsions:
REMARK  status: ('A' for Active; 'I' for Inactive)
REMARK    1  A    between atoms: C2_2  and  N1_3 
REMARK    2  A    between atoms: N1_3  and  C3_4 
REMARK    3  A    between atoms: N1_3  and  C5_6 
REMARK    4  A    between atoms: C5_6  and  C6_7 
REMARK    5  A    between atoms: C6_7  and  C7_8 
REMARK    6  A    between atoms: N2_13  and  C12_14 
REMARK    7  A    between atoms: C22_26  and  N4_27 
ROOT
HETATM    1  C7  UNL     1      68.086  50.650  11.444  1.00  0.00     0.030 C 
HETATM    2  C8  UNL     1      68.745  50.906  10.084  1.00  0.00     0.020 C 
HETATM    3  C9  UNL     1      68.956  49.613   9.335  1.00  0.00    -0.031 C 
HETATM    4  C10 UNL     1      68.414  49.685   7.939  1.00  0.00     0.040 C 
HETATM    5  C11 UNL     1      69.169  48.817   6.948  1.00  0.00     0.273 C 
HETATM    6  N2  UNL     1      70.573  49.043   6.928  1.00  0.00     0.093 N 
HETATM    7  C18 UNL     1      70.965  49.985   7.931  1.00  0.00     0.273 C 
HETATM    8  C19 UNL     1      70.452  49.401   9.259  1.00  0.00     0.040 C 
HETATM    9  C20 UNL     1      68.357  48.430  10.047  1.00  0.00     0.067 C 
HETATM   10  C21 UNL     1      66.908  48.771  10.366  1.00  0.00     0.025 A 
HETATM   11  N3  UNL     1      65.812  48.163  10.068  1.00  0.00    -0.340 N 
ATOM     12  H3  UNL     1      65.835  47.297   9.529  1.00  0.00     0.168 HD
HETATM   13  C22 UNL     1      64.650  48.671  10.470  1.00  0.00     0.142 A 
HETATM   14  S1  UNL     1      65.124  50.081  11.313  1.00  0.00    -0.057 SA
HETATM   15  C23 UNL     1      66.807  49.948  11.104  1.00  0.00     0.013 A 
ENDROOT
BRANCH   1  16
HETATM   16  C6  UNL     1      67.943  51.925  12.151  1.00  0.00     0.040 C 
BRANCH  16  17
HETATM   17  C5  UNL     1      68.196  53.174  11.353  1.00  0.00     0.273 C 
BRANCH  17  18
HETATM   18  N1  UNL     1      66.977  53.857  11.005  1.00  0.00     0.087 N 
BRANCH  18  19
HETATM   19  C2  UNL     1      67.190  55.250  10.731  1.00  0.00     0.268 C 
HETATM   20  C1  UNL     1      68.268  55.472   9.685  1.00  0.00     0.037 C 
ENDBRANCH  18  19
BRANCH  18  21
HETATM   21  C3  UNL     1      65.934  53.658  11.965  1.00  0.00     0.268 C 
HETATM   22  C4  UNL     1      64.783  54.613  11.716  1.00  0.00     0.037 C 
ENDBRANCH  18  21
ENDBRANCH  17  18
ENDBRANCH  16  17
ENDBRANCH   1  16
BRANCH   6  23
HETATM   23  C12 UNL     1      71.172  49.196   5.652  1.00  0.00     0.223 C 
HETATM   24  C13 UNL     1      72.680  49.118   5.780  1.00  0.00     0.036 C 
HETATM   25  C14 UNL     1      73.215  48.776   4.404  1.00  0.00     0.002 C 
HETATM   26  C15 UNL     1      72.230  49.108   3.324  1.00  0.00     0.000 C 
HETATM   27  C16 UNL     1      71.482  50.390   3.562  1.00  0.00     0.002 C 
HETATM   28  C17 UNL     1      70.869  50.483   4.937  1.00  0.00     0.036 C 
ENDBRANCH   6  23
BRANCH  13  29
HETATM   29  N4  UNL     1      63.451  48.173  10.250  1.00  0.00    -0.380 N 
ATOM     30  H42 UNL     1      63.075  47.245  10.446  1.00  0.00     0.158 HD
ATOM     31  H41 UNL     1      62.657  48.653   9.825  1.00  0.00     0.158 HD
ENDBRANCH  13  29
TORSDOF 7
ENDMDL
MODEL 5
REMARK VINA RESULT: -7.703019697      1.229      1.840
REMARK  7 active torsions:
REMARK  status: ('A' for Active; 'I' for Inactive)
REMARK    1  A    between atoms: C2_2  and  N1_3 
REMARK    2  A    between atoms: N1_3  and  C3_4 
REMARK    3  A    between atoms: N1_3  and  C5_6 
REMARK    4  A    between atoms: C5_6  and  C6_7 
REMARK    5  A    between atoms: C6_7  and  C7_8 
REMARK    6  A    between atoms: N2_13  and  C12_14 
REMARK    7  A    between atoms: C22_26  and  N4_27 
ROOT
HETATM    1  C7  UNL     1      69.916  49.631  10.096  1.00  0.00     0.030 C 
HETATM    2  C8  UNL     1      68.680  48.772  10.384  1.00  0.00     0.020 C 
HETATM    3  C9  UNL     1      67.825  48.626   9.148  1.00  0.00    -0.031 C 
HETATM    4  C10 UNL     1      67.496  47.190   8.868  1.00  0.00     0.040 C 
HETATM    5  C11 UNL     1      66.157  46.997   8.178  1.00  0.00     0.273 C 
HETATM    6  N2  UNL     1      65.064  47.617   8.844  1.00  0.00     0.093 N 
HETATM    7  C18 UNL     1      65.503  48.371   9.978  1.00  0.00     0.273 C 
HETATM    8  C19 UNL     1      66.537  49.368   9.427  1.00  0.00     0.040 C 
HETATM    9  C20 UNL     1      68.460  49.242   7.932  1.00  0.00     0.067 C 
HETATM   10  C21 UNL     1      69.873  48.687   7.819  1.00  0.00     0.025 A 
HETATM   11  N3  UNL     1      70.463  48.066   6.855  1.00  0.00    -0.340 N 
ATOM     12  H3  UNL     1      69.965  47.878   5.985  1.00  0.00     0.168 HD
HETATM   13  C22 UNL     1      71.725  47.674   7.003  1.00  0.00     0.142 A 
HETATM   14  S1  UNL     1      72.106  48.207   8.583  1.00  0.00    -0.057 SA
HETATM   15  C23 UNL     1      70.609  48.911   8.980  1.00  0.00     0.013 A 
ENDROOT
BRANCH   1  16
HETATM   16  C6  UNL     1      70.688  49.781  11.332  1.00  0.00     0.040 C 
BRANCH  16  17
HETATM   17  C5  UNL     1      70.402  50.999  12.166  1.00  0.00     0.273 C 
BRANCH  17  18
HETATM   18  N1  UNL     1      69.025  51.411  12.079  1.00  0.00     0.087 N 
BRANCH  18  19
HETATM   19  C2  UNL     1      68.889  52.782  11.676  1.00  0.00     0.268 C 
HETATM   20  C1  UNL     1      68.427  52.915  10.236  1.00  0.00     0.037 C 
ENDBRANCH  18  19
BRANCH  18  21
HETATM   21  C3  UNL     1      68.285  51.130  13.271  1.00  0.00     0.268 C 
HETATM   22  C4  UNL     1      66.835  50.829  12.946  1.00  0.00     0.037 C 
ENDBRANCH  18  21
ENDBRANCH  17  18
ENDBRANCH  16  17
ENDBRANCH   1  16
BRANCH   6  23
HETATM   23  C12 UNL     1      63.901  46.826   9.027  1.00  0.00     0.223 C 
HETATM   24  C13 UNL     1      63.812  46.369  10.469  1.00  0.00     0.036 C 
HETATM   25  C14 UNL     1      62.364  45.996  10.716  1.00  0.00     0.002 C 
HETATM   26  C15 UNL     1      61.633  45.714   9.438  1.00  0.00     0.000 C 
HETATM   27  C16 UNL     1      62.458  44.971   8.423  1.00  0.00     0.002 C 
HETATM   28  C17 UNL     1      63.812  45.588   8.179  1.00  0.00     0.036 C 
ENDBRANCH   6  23
BRANCH  13  29
HETATM   29  N4  UNL     1      72.464  47.035   6.119  1.00  0.00    -0.380 N 
ATOM     30  H42 UNL     1      72.993  46.168   6.206  1.00  0.00     0.158 HD
ATOM     31  H41 UNL     1      72.641  47.313   5.154  1.00  0.00     0.158 HD
ENDBRANCH  13  29
TORSDOF 7
ENDMDL
