MODEL 1
REMARK VINA RESULT: -9.392694875      0.000      0.000
REMARK  8 active torsions:
REMARK  status: ('A' for Active; 'I' for Inactive)
REMARK    1  A    between atoms: C2_2  and  O1_5 
REMARK    2  A    between atoms: O1_5  and  C5_6 
REMARK       I    between atoms: C5_6  and  N1_8 
REMARK    3  A    between atoms: N1_8  and  C6_10 
REMARK       I    between atoms: N2_14  and  C10_15 
REMARK    4  A    between atoms: C10_15  and  C11_17 
REMARK    5  A    between atoms: C11_17  and  O4_18 
REMARK    6  A    between atoms: O4_18  and  C12_19 
REMARK       I    between atoms: C12_19  and  N3_21 
REMARK    7  A    between atoms: C18_27  and  O6_28 
REMARK    8  A    between atoms: C22_35  and  O7_36 
ROOT
HETATM    1  O4  UNL     1      67.911  51.628  10.131  1.00  0.00    -0.295 OA
ENDROOT
BRANCH   1   2
HETATM    2  C11 UNL     1      67.616  51.761  11.494  1.00  0.00     0.283 C 
BRANCH   2   3
HETATM    3  C10 UNL     1      66.586  52.812  11.619  1.00  0.00     0.244 C 
HETATM    4  N2  UNL     1      65.220  52.486  11.589  1.00  0.00    -0.348 N 
HETATM    5  C9  UNL     1      64.176  53.507  11.732  1.00  0.00     0.126 C 
HETATM    6  C23 UNL     1      64.759  51.133  11.434  1.00  0.00     0.151 C 
HETATM    7  C8  UNL     1      63.638  53.306  13.145  1.00  0.00     0.022 C 
HETATM    8  C7  UNL     1      63.969  51.888  13.598  1.00  0.00     0.028 C 
HETATM    9  C6  UNL     1      63.602  50.986  12.431  1.00  0.00     0.104 C 
HETATM   10  O3  UNL     1      66.890  54.033  11.763  1.00  0.00    -0.271 OA
BRANCH   9  11
HETATM   11  N1  UNL     1      63.487  49.602  12.785  1.00  0.00    -0.331 N 
HETATM   12  C5  UNL     1      62.796  48.720  11.903  1.00  0.00     0.361 C 
HETATM   13  O2  UNL     1      62.273  49.104  10.829  1.00  0.00    -0.238 OA
ATOM     14  H1  UNL     1      63.892  49.253  13.654  1.00  0.00     0.165 HD
BRANCH  12  15
HETATM   15  O1  UNL     1      62.695  47.386  12.241  1.00  0.00    -0.294 OA
BRANCH  15  16
HETATM   16  C2  UNL     1      63.484  46.408  11.556  1.00  0.00     0.061 C 
HETATM   17  C1  UNL     1      63.320  46.565  10.051  1.00  0.00     0.046 C 
HETATM   18  C3  UNL     1      64.940  46.611  11.906  1.00  0.00     0.046 C 
HETATM   19  C4  UNL     1      63.035  45.048  12.019  1.00  0.00     0.046 C 
ENDBRANCH  15  16
ENDBRANCH  12  15
ENDBRANCH   9  11
ENDBRANCH   2   3
ENDBRANCH   1   2
BRANCH   1  20
HETATM   20  C12 UNL     1      67.772  50.480   9.370  1.00  0.00     0.363 C 
HETATM   21  O5  UNL     1      66.602  50.135   9.045  1.00  0.00    -0.238 OA
HETATM   22  N3  UNL     1      68.918  49.758   8.997  1.00  0.00    -0.328 N 
HETATM   23  C13 UNL     1      68.796  48.545   8.219  1.00  0.00     0.129 C 
HETATM   24  C17 UNL     1      70.223  50.257   9.400  1.00  0.00     0.129 C 
HETATM   25  C14 UNL     1      69.926  47.636   8.666  1.00  0.00     0.035 C 
HETATM   26  C15 UNL     1      71.292  48.215   8.434  1.00  0.00     0.020 C 
HETATM   27  C16 UNL     1      71.298  49.735   8.463  1.00  0.00     0.035 C 
HETATM   28  C18 UNL     1      71.781  47.776   7.088  1.00  0.00     0.129 C 
HETATM   29  C22 UNL     1      72.189  47.780   9.575  1.00  0.00     0.201 C 
HETATM   30  C19 UNL     1      72.213  46.329   7.067  1.00  0.00     0.038 C 
HETATM   31  C20 UNL     1      73.272  46.080   8.095  1.00  0.00     0.084 C 
HETATM   32  C21 UNL     1      72.711  46.392   9.463  1.00  0.00     0.270 C 
HETATM   33  F1  UNL     1      73.773  46.273  10.358  1.00  0.00    -0.203 F 
HETATM   34  F2  UNL     1      71.787  45.428   9.821  1.00  0.00    -0.203 F 
BRANCH  28  35
HETATM   35  O6  UNL     1      72.818  48.564   6.641  1.00  0.00    -0.395 OA
ATOM     36  H6  UNL     1      72.764  48.719   5.705  1.00  0.00     0.210 HD
ENDBRANCH  28  35
BRANCH  29  37
HETATM   37  O7  UNL     1      73.240  48.671   9.746  1.00  0.00    -0.389 OA
ATOM     38  H7  UNL     1      73.411  48.819  10.668  1.00  0.00     0.210 HD
ENDBRANCH  29  37
ENDBRANCH   1  20
TORSDOF 8
ENDMDL
MODEL 2
REMARK VINA RESULT: -9.353076198      1.478      1.862
REMARK  8 active torsions:
REMARK  status: ('A' for Active; 'I' for Inactive)
REMARK    1  A    between atoms: C2_2  and  O1_5 
REMARK    2  A    between atoms: O1_5  and  C5_6 
REMARK       I    between atoms: C5_6  and  N1_8 
REMARK    3  A    between atoms: N1_8  and  C6_10 
REMARK       I    between atoms: N2_14  and  C10_15 
REMARK    4  A    between atoms: C10_15  and  C11_17 
REMARK    5  A    between atoms: C11_17  and  O4_18 
REMARK    6  A    between atoms: O4_18  and  C12_19 
REMARK       I    between atoms: C12_19  and  N3_21 
REMARK    7  A    between atoms: C18_27  and  O6_28 
REMARK    8  A    between atoms: C22_35  and  O7_36 
ROOT
HETATM    1  O4  UNL     1      67.870  51.580  10.161  1.00  0.00    -0.295 OA
ENDROOT
BRANCH   1   2
HETATM    2  C11 UNL     1      67.449  51.748  11.485  1.00  0.00     0.283 C 
BRANCH   2   3
HETATM    3  C10 UNL     1      66.533  52.906  11.512  1.00  0.00     0.244 C 
HETATM    4  N2  UNL     1      65.141  52.720  11.471  1.00  0.00    -0.348 N 
HETATM    5  C9  UNL     1      64.207  53.851  11.517  1.00  0.00     0.126 C 
HETATM    6  C23 UNL     1      64.544  51.413  11.402  1.00  0.00     0.151 C 
HETATM    7  C8  UNL     1      63.628  53.809  12.927  1.00  0.00     0.022 C 
HETATM    8  C7  UNL     1      63.801  52.401  13.488  1.00  0.00     0.028 C 
HETATM    9  C6  UNL     1      63.362  51.459  12.379  1.00  0.00     0.104 C 
HETATM   10  O3  UNL     1      66.959  54.096  11.576  1.00  0.00    -0.271 OA
BRANCH   9  11
HETATM   11  N1  UNL     1      63.098  50.123  12.827  1.00  0.00    -0.331 N 
HETATM   12  C5  UNL     1      61.769  49.774  13.208  1.00  0.00     0.361 C 
HETATM   13  O2  UNL     1      60.816  50.590  13.178  1.00  0.00    -0.238 OA
ATOM     14  H1  UNL     1      63.848  49.434  12.872  1.00  0.00     0.165 HD
BRANCH  12  15
HETATM   15  O1  UNL     1      61.515  48.485  13.629  1.00  0.00    -0.294 OA
BRANCH  15  16
HETATM   16  C2  UNL     1      61.916  48.063  14.936  1.00  0.00     0.061 C 
HETATM   17  C1  UNL     1      62.343  49.266  15.766  1.00  0.00     0.046 C 
HETATM   18  C3  UNL     1      60.748  47.394  15.622  1.00  0.00     0.046 C 
HETATM   19  C4  UNL     1      63.043  47.079  14.776  1.00  0.00     0.046 C 
ENDBRANCH  15  16
ENDBRANCH  12  15
ENDBRANCH   9  11
ENDBRANCH   2   3
ENDBRANCH   1   2
BRANCH   1  20
HETATM   20  C12 UNL     1      67.738  50.433   9.397  1.00  0.00     0.363 C 
HETATM   21  O5  UNL     1      66.569  50.079   9.076  1.00  0.00    -0.238 OA
HETATM   22  N3  UNL     1      68.888  49.721   9.016  1.00  0.00    -0.328 N 
HETATM   23  C13 UNL     1      68.772  48.510   8.236  1.00  0.00     0.129 C 
HETATM   24  C17 UNL     1      70.191  50.230   9.415  1.00  0.00     0.129 C 
HETATM   25  C14 UNL     1      69.912  47.609   8.674  1.00  0.00     0.035 C 
HETATM   26  C15 UNL     1      71.272  48.200   8.438  1.00  0.00     0.020 C 
HETATM   27  C16 UNL     1      71.265  49.720   8.470  1.00  0.00     0.035 C 
HETATM   28  C18 UNL     1      71.758  47.769   7.088  1.00  0.00     0.129 C 
HETATM   29  C22 UNL     1      72.177  47.769   9.573  1.00  0.00     0.201 C 
HETATM   30  C19 UNL     1      72.202  46.326   7.061  1.00  0.00     0.038 C 
HETATM   31  C20 UNL     1      73.268  46.083   8.083  1.00  0.00     0.084 C 
HETATM   32  C21 UNL     1      72.711  46.386   9.454  1.00  0.00     0.270 C 
HETATM   33  F1  UNL     1      73.778  46.273  10.344  1.00  0.00    -0.203 F 
HETATM   34  F2  UNL     1      71.796  45.413   9.814  1.00  0.00    -0.203 F 
BRANCH  28  35
HETATM   35  O6  UNL     1      72.786  48.567   6.638  1.00  0.00    -0.395 OA
ATOM     36  H6  UNL     1      73.208  49.032   7.351  1.00  0.00     0.210 HD
ENDBRANCH  28  35
BRANCH  29  37
HETATM   37  O7  UNL     1      73.222  48.669   9.742  1.00  0.00    -0.389 OA
ATOM     38  H7  UNL     1      73.208  49.043  10.614  1.00  0.00     0.210 HD
ENDBRANCH  29  37
ENDBRANCH   1  20
TORSDOF 8
ENDMDL
MODEL 3
REMARK VINA RESULT: -9.343181935      2.612      5.240
REMARK  8 active torsions:
REMARK  status: ('A' for Active; 'I' for Inactive)
REMARK    1  A    between atoms: C2_2  and  O1_5 
REMARK    2  A    between atoms: O1_5  and  C5_6 
REMARK       I    between atoms: C5_6  and  N1_8 
REMARK    3  A    between atoms: N1_8  and  C6_10 
REMARK       I    between atoms: N2_14  and  C10_15 
REMARK    4  A    between atoms: C10_15  and  C11_17 
REMARK    5  A    between atoms: C11_17  and  O4_18 
REMARK    6  A    between atoms: O4_18  and  C12_19 
REMARK       I    between atoms: C12_19  and  N3_21 
REMARK    7  A    between atoms: C18_27  and  O6_28 
REMARK    8  A    between atoms: C22_35  and  O7_36 
ROOT
HETATM    1  O4  UNL     1      66.179  45.544   7.797  1.00  0.00    -0.295 OA
ENDROOT
BRANCH   1   2
HETATM    2  C11 UNL     1      65.864  44.646   8.824  1.00  0.00     0.283 C 
BRANCH   2   3
HETATM    3  C10 UNL     1      64.411  44.394   8.756  1.00  0.00     0.244 C 
HETATM    4  N2  UNL     1      63.540  44.952   9.708  1.00  0.00    -0.348 N 
HETATM    5  C9  UNL     1      62.090  44.736   9.652  1.00  0.00     0.126 C 
HETATM    6  C23 UNL     1      64.012  45.784  10.782  1.00  0.00     0.151 C 
HETATM    7  C8  UNL     1      61.526  46.062   9.154  1.00  0.00     0.022 C 
HETATM    8  C7  UNL     1      62.543  47.164   9.434  1.00  0.00     0.028 C 
HETATM    9  C6  UNL     1      63.009  46.942  10.864  1.00  0.00     0.104 C 
HETATM   10  O3  UNL     1      63.897  43.678   7.847  1.00  0.00    -0.271 OA
BRANCH   9  11
HETATM   11  N1  UNL     1      63.674  48.074  11.437  1.00  0.00    -0.331 N 
HETATM   12  C5  UNL     1      62.963  48.900  12.356  1.00  0.00     0.361 C 
HETATM   13  O2  UNL     1      61.771  48.686  12.681  1.00  0.00    -0.238 OA
ATOM     14  H1  UNL     1      64.642  48.285  11.192  1.00  0.00     0.165 HD
BRANCH  12  15
HETATM   15  O1  UNL     1      63.610  49.983  12.914  1.00  0.00    -0.294 OA
BRANCH  15  16
HETATM   16  C2  UNL     1      63.681  51.224  12.204  1.00  0.00     0.061 C 
HETATM   17  C1  UNL     1      62.718  51.206  11.025  1.00  0.00     0.046 C 
HETATM   18  C3  UNL     1      63.287  52.350  13.131  1.00  0.00     0.046 C 
HETATM   19  C4  UNL     1      65.103  51.413  11.750  1.00  0.00     0.046 C 
ENDBRANCH  15  16
ENDBRANCH  12  15
ENDBRANCH   9  11
ENDBRANCH   2   3
ENDBRANCH   1   2
BRANCH   1  20
HETATM   20  C12 UNL     1      66.695  46.820   7.953  1.00  0.00     0.363 C 
HETATM   21  O5  UNL     1      65.882  47.785   7.916  1.00  0.00    -0.238 OA
HETATM   22  N3  UNL     1      68.078  46.986   8.141  1.00  0.00    -0.328 N 
HETATM   23  C13 UNL     1      68.641  48.310   8.285  1.00  0.00     0.129 C 
HETATM   24  C17 UNL     1      68.925  45.805   8.195  1.00  0.00     0.129 C 
HETATM   25  C14 UNL     1      70.023  48.256   7.662  1.00  0.00     0.035 C 
HETATM   26  C15 UNL     1      70.944  47.272   8.324  1.00  0.00     0.020 C 
HETATM   27  C16 UNL     1      70.201  46.108   8.961  1.00  0.00     0.035 C 
HETATM   28  C18 UNL     1      71.711  47.976   9.401  1.00  0.00     0.129 C 
HETATM   29  C22 UNL     1      71.826  46.659   7.256  1.00  0.00     0.201 C 
HETATM   30  C19 UNL     1      72.797  48.871   8.855  1.00  0.00     0.038 C 
HETATM   31  C20 UNL     1      73.739  48.091   7.991  1.00  0.00     0.084 C 
HETATM   32  C21 UNL     1      72.970  47.508   6.829  1.00  0.00     0.270 C 
HETATM   33  F1  UNL     1      73.864  46.688   6.141  1.00  0.00    -0.203 F 
HETATM   34  F2  UNL     1      72.609  48.516   5.953  1.00  0.00    -0.203 F 
BRANCH  28  35
HETATM   35  O6  UNL     1      72.264  47.088  10.296  1.00  0.00    -0.395 OA
ATOM     36  H6  UNL     1      73.039  46.667   9.940  1.00  0.00     0.210 HD
ENDBRANCH  28  35
BRANCH  29  37
HETATM   37  O7  UNL     1      72.283  45.408   7.648  1.00  0.00    -0.389 OA
ATOM     38  H7  UNL     1      72.737  44.974   6.936  1.00  0.00     0.210 HD
ENDBRANCH  29  37
ENDBRANCH   1  20
TORSDOF 8
ENDMDL
MODEL 4
REMARK VINA RESULT: -9.316667024      3.590      9.152
REMARK  8 active torsions:
REMARK  status: ('A' for Active; 'I' for Inactive)
REMARK    1  A    between atoms: C2_2  and  O1_5 
REMARK    2  A    between atoms: O1_5  and  C5_6 
REMARK       I    between atoms: C5_6  and  N1_8 
REMARK    3  A    between atoms: N1_8  and  C6_10 
REMARK       I    between atoms: N2_14  and  C10_15 
REMARK    4  A    between atoms: C10_15  and  C11_17 
REMARK    5  A    between atoms: C11_17  and  O4_18 
REMARK    6  A    between atoms: O4_18  and  C12_19 
REMARK       I    between atoms: C12_19  and  N3_21 
REMARK    7  A    between atoms: C18_27  and  O6_28 
REMARK    8  A    between atoms: C22_35  and  O7_36 
ROOT
HETATM    1  O4  UNL     1      69.792  49.316   8.157  1.00  0.00    -0.295 OA
ENDROOT
BRANCH   1   2
HETATM    2  C11 UNL     1      71.083  49.858   8.137  1.00  0.00     0.283 C 
BRANCH   2   3
HETATM    3  C10 UNL     1      71.961  48.928   8.876  1.00  0.00     0.244 C 
HETATM    4  N2  UNL     1      71.976  47.557   8.568  1.00  0.00    -0.348 N 
HETATM    5  C9  UNL     1      72.853  46.615   9.272  1.00  0.00     0.126 C 
HETATM    6  C23 UNL     1      71.150  46.996   7.533  1.00  0.00     0.151 C 
HETATM    7  C8  UNL     1      73.958  46.301   8.269  1.00  0.00     0.022 C 
HETATM    8  C7  UNL     1      73.450  46.613   6.866  1.00  0.00     0.028 C 
HETATM    9  C6  UNL     1      72.057  46.008   6.787  1.00  0.00     0.104 C 
HETATM   10  O3  UNL     1      72.727  49.325   9.802  1.00  0.00    -0.271 OA
BRANCH   9  11
HETATM   11  N1  UNL     1      71.563  45.867   5.449  1.00  0.00    -0.331 N 
HETATM   12  C5  UNL     1      71.552  44.573   4.851  1.00  0.00     0.361 C 
HETATM   13  O2  UNL     1      71.966  43.547   5.442  1.00  0.00    -0.238 OA
ATOM     14  H1  UNL     1      71.225  46.680   4.933  1.00  0.00     0.165 HD
BRANCH  12  15
HETATM   15  O1  UNL     1      71.067  44.438   3.567  1.00  0.00    -0.294 OA
BRANCH  15  16
HETATM   16  C2  UNL     1      71.653  45.183   2.494  1.00  0.00     0.061 C 
HETATM   17  C1  UNL     1      70.854  44.973   1.215  1.00  0.00     0.046 C 
HETATM   18  C3  UNL     1      71.631  46.653   2.840  1.00  0.00     0.046 C 
HETATM   19  C4  UNL     1      73.076  44.718   2.335  1.00  0.00     0.046 C 
ENDBRANCH  15  16
ENDBRANCH  12  15
ENDBRANCH   9  11
ENDBRANCH   2   3
ENDBRANCH   1   2
BRANCH   1  20
HETATM   20  C12 UNL     1      68.801  49.591   9.084  1.00  0.00     0.363 C 
HETATM   21  O5  UNL     1      69.030  50.502   9.928  1.00  0.00    -0.238 OA
HETATM   22  N3  UNL     1      67.603  48.858   9.050  1.00  0.00    -0.328 N 
HETATM   23  C13 UNL     1      66.563  49.114  10.021  1.00  0.00     0.129 C 
HETATM   24  C17 UNL     1      67.428  47.847   8.019  1.00  0.00     0.129 C 
HETATM   25  C14 UNL     1      65.880  47.783  10.276  1.00  0.00     0.035 C 
HETATM   26  C15 UNL     1      65.251  47.184   9.051  1.00  0.00     0.020 C 
HETATM   27  C16 UNL     1      65.951  47.603   7.767  1.00  0.00     0.035 C 
HETATM   28  C18 UNL     1      63.825  47.637   8.969  1.00  0.00     0.129 C 
HETATM   29  C22 UNL     1      65.405  45.679   9.129  1.00  0.00     0.201 C 
HETATM   30  C19 UNL     1      62.933  46.938   9.967  1.00  0.00     0.038 C 
HETATM   31  C20 UNL     1      63.003  45.453   9.788  1.00  0.00     0.084 C 
HETATM   32  C21 UNL     1      64.425  44.998  10.018  1.00  0.00     0.270 C 
HETATM   33  F1  UNL     1      64.456  43.640   9.707  1.00  0.00    -0.203 F 
HETATM   34  F2  UNL     1      64.739  45.101  11.361  1.00  0.00    -0.203 F 
BRANCH  28  35
HETATM   35  O6  UNL     1      63.309  47.467   7.704  1.00  0.00    -0.395 OA
ATOM     36  H6  UNL     1      62.604  46.830   7.695  1.00  0.00     0.210 HD
ENDBRANCH  28  35
BRANCH  29  37
HETATM   37  O7  UNL     1      65.373  45.111   7.863  1.00  0.00    -0.389 OA
ATOM     38  H7  UNL     1      66.110  45.405   7.341  1.00  0.00     0.210 HD
ENDBRANCH  29  37
ENDBRANCH   1  20
TORSDOF 8
ENDMDL
MODEL 5
REMARK VINA RESULT: -9.280193038      3.736      8.895
REMARK  8 active torsions:
REMARK  status: ('A' for Active; 'I' for Inactive)
REMARK    1  A    between atoms: C2_2  and  O1_5 
REMARK    2  A    between atoms: O1_5  and  C5_6 
REMARK       I    between atoms: C5_6  and  N1_8 
REMARK    3  A    between atoms: N1_8  and  C6_10 
REMARK       I    between atoms: N2_14  and  C10_15 
REMARK    4  A    between atoms: C10_15  and  C11_17 
REMARK    5  A    between atoms: C11_17  and  O4_18 
REMARK    6  A    between atoms: O4_18  and  C12_19 
REMARK       I    between atoms: C12_19  and  N3_21 
REMARK    7  A    between atoms: C18_27  and  O6_28 
REMARK    8  A    between atoms: C22_35  and  O7_36 
ROOT
HETATM    1  O4  UNL     1      69.737  49.387   8.622  1.00  0.00    -0.295 OA
ENDROOT
BRANCH   1   2
HETATM    2  C11 UNL     1      70.762  48.510   8.998  1.00  0.00     0.283 C 
BRANCH   2   3
HETATM    3  C10 UNL     1      71.922  48.792   8.128  1.00  0.00     0.244 C 
HETATM    4  N2  UNL     1      72.553  47.757   7.417  1.00  0.00    -0.348 N 
HETATM    5  C9  UNL     1      73.693  48.011   6.529  1.00  0.00     0.126 C 
HETATM    6  C23 UNL     1      72.111  46.391   7.498  1.00  0.00     0.151 C 
HETATM    7  C8  UNL     1      73.115  47.893   5.123  1.00  0.00     0.022 C 
HETATM    8  C7  UNL     1      71.833  47.070   5.187  1.00  0.00     0.028 C 
HETATM    9  C6  UNL     1      72.158  45.867   6.057  1.00  0.00     0.104 C 
HETATM   10  O3  UNL     1      72.385  49.961   7.987  1.00  0.00    -0.271 OA
BRANCH   9  11
HETATM   11  N1  UNL     1      71.214  44.795   5.937  1.00  0.00    -0.331 N 
HETATM   12  C5  UNL     1      71.619  43.587   5.297  1.00  0.00     0.361 C 
HETATM   13  O2  UNL     1      72.769  43.421   4.822  1.00  0.00    -0.238 OA
ATOM     14  H1  UNL     1      70.267  44.895   6.304  1.00  0.00     0.165 HD
BRANCH  12  15
HETATM   15  O1  UNL     1      70.712  42.553   5.192  1.00  0.00    -0.294 OA
BRANCH  15  16
HETATM   16  C2  UNL     1      70.351  41.792   6.349  1.00  0.00     0.061 C 
HETATM   17  C1  UNL     1      71.525  41.724   7.316  1.00  0.00     0.046 C 
HETATM   18  C3  UNL     1      69.191  42.465   7.044  1.00  0.00     0.046 C 
HETATM   19  C4  UNL     1      69.940  40.420   5.887  1.00  0.00     0.046 C 
ENDBRANCH  15  16
ENDBRANCH  12  15
ENDBRANCH   9  11
ENDBRANCH   2   3
ENDBRANCH   1   2
BRANCH   1  20
HETATM   20  C12 UNL     1      68.624  49.719   9.376  1.00  0.00     0.363 C 
HETATM   21  O5  UNL     1      68.716  50.719  10.141  1.00  0.00    -0.238 OA
HETATM   22  N3  UNL     1      67.458  48.942   9.262  1.00  0.00    -0.328 N 
HETATM   23  C13 UNL     1      66.291  49.258  10.055  1.00  0.00     0.129 C 
HETATM   24  C17 UNL     1      67.448  47.825   8.331  1.00  0.00     0.129 C 
HETATM   25  C14 UNL     1      65.611  47.936  10.357  1.00  0.00     0.035 C 
HETATM   26  C15 UNL     1      65.167  47.191   9.131  1.00  0.00     0.020 C 
HETATM   27  C16 UNL     1      66.024  47.502   7.914  1.00  0.00     0.035 C 
HETATM   28  C18 UNL     1      63.756  47.580   8.813  1.00  0.00     0.129 C 
HETATM   29  C22 UNL     1      65.344  45.709   9.389  1.00  0.00     0.201 C 
HETATM   30  C19 UNL     1      62.753  46.954   9.753  1.00  0.00     0.038 C 
HETATM   31  C20 UNL     1      62.881  45.463   9.745  1.00  0.00     0.084 C 
HETATM   32  C21 UNL     1      64.269  45.087  10.207  1.00  0.00     0.270 C 
HETATM   33  F1  UNL     1      64.373  43.706  10.050  1.00  0.00    -0.203 F 
HETATM   34  F2  UNL     1      64.395  45.338  11.561  1.00  0.00    -0.203 F 
BRANCH  28  35
HETATM   35  O6  UNL     1      63.419  47.262   7.517  1.00  0.00    -0.395 OA
ATOM     36  H6  UNL     1      62.680  46.666   7.481  1.00  0.00     0.210 HD
ENDBRANCH  28  35
BRANCH  29  37
HETATM   37  O7  UNL     1      65.496  45.014   8.197  1.00  0.00    -0.389 OA
ATOM     38  H7  UNL     1      66.412  44.822   8.032  1.00  0.00     0.210 HD
ENDBRANCH  29  37
ENDBRANCH   1  20
TORSDOF 8
ENDMDL
