MODEL 1
REMARK VINA RESULT: -7.533869101      0.000      0.000
REMARK  6 active torsions:
REMARK  status: ('A' for Active; 'I' for Inactive)
REMARK    1  A    between atoms: O1_2  and  C2_3 
REMARK    2  A    between atoms: C9_11  and  C10_12 
REMARK    3  A    between atoms: C13_17  and  C14_18 
REMARK    4  A    between atoms: C17_22  and  O5_23 
REMARK    5  A    between atoms: O5_23  and  C18_24 
REMARK    6  A    between atoms: C20_27  and  O7_28 
ROOT
HETATM    1  C2  UNL     1      72.838  41.828   8.210  1.00  0.00     0.136 C 
HETATM    2  C3  UNL     1      72.277  41.401   9.552  1.00  0.00     0.034 C 
HETATM    3  C4  UNL     1      73.410  41.361  10.585  1.00  0.00     0.014 C 
HETATM    4  C5  UNL     1      74.145  42.661  10.360  1.00  0.00    -0.020 C 
HETATM    5  C6  UNL     1      75.614  42.477  10.200  1.00  0.00     0.017 C 
HETATM    6  C7  UNL     1      74.070  43.315  11.772  1.00  0.00     0.017 C 
HETATM    7  C8  UNL     1      73.448  43.639   9.484  1.00  0.00     0.146 C 
HETATM    8  O2  UNL     1      73.981  44.837   9.529  1.00  0.00    -0.367 OA
HETATM    9  C9  UNL     1      73.327  45.922   8.953  1.00  0.00     0.232 C 
HETATM   10  C11 UNL     1      72.474  45.666   7.761  1.00  0.00     0.014 C 
HETATM   11  C12 UNL     1      71.166  46.446   7.993  1.00  0.00     0.020 C 
HETATM   12  C13 UNL     1      73.108  46.363   6.612  1.00  0.00     0.004 C 
HETATM   13  C15 UNL     1      72.355  46.392   5.321  1.00  0.00     0.021 C 
HETATM   14  C16 UNL     1      73.212  45.245   4.849  1.00  0.00     0.027 C 
HETATM   15  C17 UNL     1      72.314  44.059   4.938  1.00  0.00     0.166 C 
HETATM   16  C20 UNL     1      71.575  43.899   6.176  1.00  0.00     0.158 C 
HETATM   17  C21 UNL     1      72.063  44.220   7.535  1.00  0.00     0.011 C 
HETATM   18  C22 UNL     1      70.778  43.872   8.300  1.00  0.00     0.020 C 
HETATM   19  C23 UNL     1      73.135  43.262   8.046  1.00  0.00     0.041 C 
HETATM   20  C24 UNL     1      74.307  43.334   7.122  1.00  0.00    -0.015 C 
HETATM   21  C25 UNL     1      74.895  44.551   6.640  1.00  0.00    -0.024 C 
HETATM   22  C26 UNL     1      74.162  45.585   5.905  1.00  0.00     0.026 C 
ENDROOT
BRANCH  15  23
HETATM   23  O5  UNL     1      71.363  44.336   3.875  1.00  0.00    -0.313 OA
BRANCH  23  24
HETATM   24  C18 UNL     1      71.668  44.800   2.641  1.00  0.00     0.255 C 
HETATM   25  C19 UNL     1      70.918  45.855   1.916  1.00  0.00     0.126 C 
HETATM   26  O6  UNL     1      72.676  44.293   2.053  1.00  0.00    -0.266 OA
ENDBRANCH  23  24
ENDBRANCH  15  23
BRANCH  16  27
HETATM   27  O7  UNL     1      70.220  44.268   5.943  1.00  0.00    -0.392 OA
ATOM     28  H7  UNL     1      69.748  44.216   6.766  1.00  0.00     0.210 HD
ENDBRANCH  16  27
BRANCH  12  29
HETATM   29  C14 UNL     1      73.542  47.792   6.846  1.00  0.00     0.233 C 
HETATM   30  F1  UNL     1      73.351  48.549   5.660  1.00  0.00    -0.255 F 
ENDBRANCH  12  29
BRANCH   9  31
HETATM   31  C10 UNL     1      72.816  46.843   9.996  1.00  0.00     0.204 C 
HETATM   32  O3  UNL     1      72.169  46.458  11.033  1.00  0.00    -0.646 OA
HETATM   33  O4  UNL     1      72.935  48.213  10.057  1.00  0.00    -0.646 OA
ENDBRANCH   9  31
BRANCH   1  34
HETATM   34  O1  UNL     1      72.422  41.056   7.182  1.00  0.00    -0.390 OA
HETATM   35  C1  UNL     1      71.340  40.280   7.270  1.00  0.00     0.202 C 
ENDBRANCH   1  34
TORSDOF 6
ENDMDL
MODEL 2
REMARK VINA RESULT: -7.430364419      2.186      5.250
REMARK  6 active torsions:
REMARK  status: ('A' for Active; 'I' for Inactive)
REMARK    1  A    between atoms: O1_2  and  C2_3 
REMARK    2  A    between atoms: C9_11  and  C10_12 
REMARK    3  A    between atoms: C13_17  and  C14_18 
REMARK    4  A    between atoms: C17_22  and  O5_23 
REMARK    5  A    between atoms: O5_23  and  C18_24 
REMARK    6  A    between atoms: C20_27  and  O7_28 
ROOT
HETATM    1  C2  UNL     1      72.282  45.721   5.387  1.00  0.00     0.136 C 
HETATM    2  C3  UNL     1      73.372  46.702   5.002  1.00  0.00     0.034 C 
HETATM    3  C4  UNL     1      73.137  48.031   5.729  1.00  0.00     0.014 C 
HETATM    4  C5  UNL     1      72.850  47.614   7.152  1.00  0.00    -0.020 C 
HETATM    5  C6  UNL     1      71.609  48.229   7.699  1.00  0.00     0.017 C 
HETATM    6  C7  UNL     1      73.948  48.393   7.936  1.00  0.00     0.017 C 
HETATM    7  C8  UNL     1      73.140  46.191   7.466  1.00  0.00     0.146 C 
HETATM    8  O2  UNL     1      73.133  45.938   8.753  1.00  0.00    -0.367 OA
HETATM    9  C9  UNL     1      73.603  44.719   9.234  1.00  0.00     0.232 C 
HETATM   10  C11 UNL     1      73.445  43.522   8.366  1.00  0.00     0.014 C 
HETATM   11  C12 UNL     1      74.791  42.774   8.418  1.00  0.00     0.020 C 
HETATM   12  C13 UNL     1      72.498  42.605   9.052  1.00  0.00     0.004 C 
HETATM   13  C15 UNL     1      72.294  41.250   8.456  1.00  0.00     0.021 C 
HETATM   14  C16 UNL     1      71.028  41.771   7.822  1.00  0.00     0.027 C 
HETATM   15  C17 UNL     1      71.389  41.959   6.389  1.00  0.00     0.166 C 
HETATM   16  C20 UNL     1      72.630  42.662   6.121  1.00  0.00     0.158 C 
HETATM   17  C21 UNL     1      73.177  43.798   6.895  1.00  0.00     0.011 C 
HETATM   18  C22 UNL     1      74.484  43.969   6.106  1.00  0.00     0.020 C 
HETATM   19  C23 UNL     1      72.398  45.096   6.716  1.00  0.00     0.041 C 
HETATM   20  C24 UNL     1      70.998  44.870   7.185  1.00  0.00    -0.015 C 
HETATM   21  C25 UNL     1      70.641  44.224   8.416  1.00  0.00    -0.024 C 
HETATM   22  C26 UNL     1      71.058  42.869   8.785  1.00  0.00     0.026 C 
ENDROOT
BRANCH  15  23
HETATM   23  O5  UNL     1      71.543  40.583   5.947  1.00  0.00    -0.313 OA
BRANCH  23  24
HETATM   24  C18 UNL     1      70.569  39.644   5.926  1.00  0.00     0.255 C 
HETATM   25  C19 UNL     1      70.608  38.357   6.662  1.00  0.00     0.126 C 
HETATM   26  O6  UNL     1      69.537  39.881   5.220  1.00  0.00    -0.266 OA
ENDBRANCH  23  24
ENDBRANCH  15  23
BRANCH  16  27
HETATM   27  O7  UNL     1      73.608  41.711   5.713  1.00  0.00    -0.392 OA
ATOM     28  H7  UNL     1      73.218  40.845   5.747  1.00  0.00     0.210 HD
ENDBRANCH  16  27
BRANCH  12  29
HETATM   29  C14 UNL     1      72.749  42.354  10.521  1.00  0.00     0.233 C 
HETATM   30  F1  UNL     1      72.095  41.158  10.919  1.00  0.00    -0.255 F 
ENDBRANCH  12  29
BRANCH   9  31
HETATM   31  C10 UNL     1      74.884  44.898   9.958  1.00  0.00     0.204 C 
HETATM   32  O3  UNL     1      75.916  45.465   9.452  1.00  0.00    -0.646 OA
HETATM   33  O4  UNL     1      75.198  44.518  11.244  1.00  0.00    -0.646 OA
ENDBRANCH   9  31
BRANCH   1  34
HETATM   34  O1  UNL     1      71.743  45.074   4.331  1.00  0.00    -0.390 OA
HETATM   35  C1  UNL     1      71.744  45.595   3.102  1.00  0.00     0.202 C 
ENDBRANCH   1  34
TORSDOF 6
ENDMDL
MODEL 3
REMARK VINA RESULT: -7.342527574      2.119      3.386
REMARK  6 active torsions:
REMARK  status: ('A' for Active; 'I' for Inactive)
REMARK    1  A    between atoms: O1_2  and  C2_3 
REMARK    2  A    between atoms: C9_11  and  C10_12 
REMARK    3  A    between atoms: C13_17  and  C14_18 
REMARK    4  A    between atoms: C17_22  and  O5_23 
REMARK    5  A    between atoms: O5_23  and  C18_24 
REMARK    6  A    between atoms: C20_27  and  O7_28 
ROOT
HETATM    1  C2  UNL     1      73.679  43.077  10.068  1.00  0.00     0.136 C 
HETATM    2  C3  UNL     1      73.900  43.945  11.291  1.00  0.00     0.034 C 
HETATM    3  C4  UNL     1      75.366  44.394  11.333  1.00  0.00     0.014 C 
HETATM    4  C5  UNL     1      75.641  44.851   9.920  1.00  0.00    -0.020 C 
HETATM    5  C6  UNL     1      76.872  44.244   9.343  1.00  0.00     0.017 C 
HETATM    6  C7  UNL     1      76.103  46.321  10.148  1.00  0.00     0.017 C 
HETATM    7  C8  UNL     1      74.441  44.992   9.055  1.00  0.00     0.146 C 
HETATM    8  O2  UNL     1      74.686  45.636   7.939  1.00  0.00    -0.367 OA
HETATM    9  C9  UNL     1      73.641  46.054   7.121  1.00  0.00     0.232 C 
HETATM   10  C11 UNL     1      72.402  45.231   7.103  1.00  0.00     0.014 C 
HETATM   11  C12 UNL     1      71.226  46.222   7.195  1.00  0.00     0.020 C 
HETATM   12  C13 UNL     1      72.279  44.654   5.738  1.00  0.00     0.004 C 
HETATM   13  C15 UNL     1      71.024  43.911   5.414  1.00  0.00     0.021 C 
HETATM   14  C16 UNL     1      71.770  42.628   5.678  1.00  0.00     0.027 C 
HETATM   15  C17 UNL     1      71.269  42.183   7.010  1.00  0.00     0.166 C 
HETATM   16  C20 UNL     1      71.237  43.187   8.057  1.00  0.00     0.158 C 
HETATM   17  C21 UNL     1      72.226  44.267   8.265  1.00  0.00     0.011 C 
HETATM   18  C22 UNL     1      71.539  44.943   9.460  1.00  0.00     0.020 C 
HETATM   19  C23 UNL     1      73.577  43.774   8.774  1.00  0.00     0.041 C 
HETATM   20  C24 UNL     1      74.146  42.837   7.759  1.00  0.00    -0.015 C 
HETATM   21  C25 UNL     1      74.192  43.089   6.347  1.00  0.00    -0.024 C 
HETATM   22  C26 UNL     1      73.014  43.378   5.524  1.00  0.00     0.026 C 
ENDROOT
BRANCH  15  23
HETATM   23  O5  UNL     1      69.900  41.813   6.694  1.00  0.00    -0.313 OA
BRANCH  23  24
HETATM   24  C18 UNL     1      69.450  40.556   6.473  1.00  0.00     0.255 C 
HETATM   25  C19 UNL     1      68.953  39.631   7.522  1.00  0.00     0.126 C 
HETATM   26  O6  UNL     1      69.452  40.131   5.274  1.00  0.00    -0.266 OA
ENDBRANCH  23  24
ENDBRANCH  15  23
BRANCH  16  27
HETATM   27  O7  UNL     1      69.886  43.590   8.252  1.00  0.00    -0.392 OA
ATOM     28  H7  UNL     1      69.355  42.813   8.380  1.00  0.00     0.210 HD
ENDBRANCH  16  27
BRANCH  12  29
HETATM   29  C14 UNL     1      72.481  45.608   4.584  1.00  0.00     0.233 C 
HETATM   30  F1  UNL     1      73.595  45.189   3.810  1.00  0.00    -0.255 F 
ENDBRANCH  12  29
BRANCH   9  31
HETATM   31  C10 UNL     1      73.503  47.529   7.155  1.00  0.00     0.204 C 
HETATM   32  O3  UNL     1      73.656  48.235   8.214  1.00  0.00    -0.646 OA
HETATM   33  O4  UNL     1      73.207  48.383   6.116  1.00  0.00    -0.646 OA
ENDBRANCH   9  31
BRANCH   1  34
HETATM   34  O1  UNL     1      72.994  41.942  10.331  1.00  0.00    -0.390 OA
HETATM   35  C1  UNL     1      72.895  41.442  11.564  1.00  0.00     0.202 C 
ENDBRANCH   1  34
TORSDOF 6
ENDMDL
MODEL 4
REMARK VINA RESULT: -7.176074390      2.561      4.433
REMARK  6 active torsions:
REMARK  status: ('A' for Active; 'I' for Inactive)
REMARK    1  A    between atoms: O1_2  and  C2_3 
REMARK    2  A    between atoms: C9_11  and  C10_12 
REMARK    3  A    between atoms: C13_17  and  C14_18 
REMARK    4  A    between atoms: C17_22  and  O5_23 
REMARK    5  A    between atoms: O5_23  and  C18_24 
REMARK    6  A    between atoms: C20_27  and  O7_28 
ROOT
HETATM    1  C2  UNL     1      71.086  43.978   6.560  1.00  0.00     0.136 C 
HETATM    2  C3  UNL     1      71.694  42.653   6.976  1.00  0.00     0.034 C 
HETATM    3  C4  UNL     1      72.943  42.382   6.130  1.00  0.00     0.014 C 
HETATM    4  C5  UNL     1      73.690  43.694   6.164  1.00  0.00    -0.020 C 
HETATM    5  C6  UNL     1      74.084  44.173   4.810  1.00  0.00     0.017 C 
HETATM    6  C7  UNL     1      75.068  43.258   6.746  1.00  0.00     0.017 C 
HETATM    7  C8  UNL     1      73.190  44.682   7.154  1.00  0.00     0.146 C 
HETATM    8  O2  UNL     1      74.014  45.686   7.339  1.00  0.00    -0.367 OA
HETATM    9  C9  UNL     1      73.814  46.579   8.387  1.00  0.00     0.232 C 
HETATM   10  C11 UNL     1      72.415  46.838   8.822  1.00  0.00     0.014 C 
HETATM   11  C12 UNL     1      72.429  46.790  10.362  1.00  0.00     0.020 C 
HETATM   12  C13 UNL     1      72.115  48.259   8.510  1.00  0.00     0.004 C 
HETATM   13  C15 UNL     1      70.816  48.814   8.998  1.00  0.00     0.021 C 
HETATM   14  C16 UNL     1      70.255  48.594   7.616  1.00  0.00     0.027 C 
HETATM   15  C17 UNL     1      69.390  47.389   7.762  1.00  0.00     0.166 C 
HETATM   16  C20 UNL     1      69.972  46.255   8.455  1.00  0.00     0.158 C 
HETATM   17  C21 UNL     1      71.382  45.813   8.382  1.00  0.00     0.011 C 
HETATM   18  C22 UNL     1      71.281  44.649   9.378  1.00  0.00     0.020 C 
HETATM   19  C23 UNL     1      71.763  45.194   7.041  1.00  0.00     0.041 C 
HETATM   20  C24 UNL     1      71.562  46.223   5.976  1.00  0.00    -0.015 C 
HETATM   21  C25 UNL     1      72.009  47.584   6.058  1.00  0.00    -0.024 C 
HETATM   22  C26 UNL     1      71.629  48.513   7.126  1.00  0.00     0.026 C 
ENDROOT
BRANCH  15  23
HETATM   23  O5  UNL     1      68.305  47.910   8.576  1.00  0.00    -0.313 OA
BRANCH  23  24
HETATM   24  C18 UNL     1      67.126  48.387   8.113  1.00  0.00     0.255 C 
HETATM   25  C19 UNL     1      66.200  49.262   8.875  1.00  0.00     0.126 C 
HETATM   26  O6  UNL     1      66.782  48.063   6.932  1.00  0.00    -0.266 OA
ENDBRANCH  23  24
ENDBRANCH  15  23
BRANCH  16  27
HETATM   27  O7  UNL     1      69.409  46.189   9.761  1.00  0.00    -0.392 OA
ATOM     28  H7  UNL     1      69.513  45.303  10.089  1.00  0.00     0.210 HD
ENDBRANCH  16  27
BRANCH  12  29
HETATM   29  C14 UNL     1      73.156  49.274   8.923  1.00  0.00     0.233 C 
HETATM   30  F1  UNL     1      72.691  50.582   8.627  1.00  0.00    -0.255 F 
ENDBRANCH  12  29
BRANCH   9  31
HETATM   31  C10 UNL     1      74.854  46.408   9.430  1.00  0.00     0.204 C 
HETATM   32  O3  UNL     1      75.695  47.319   9.754  1.00  0.00    -0.646 OA
HETATM   33  O4  UNL     1      75.102  45.304  10.213  1.00  0.00    -0.646 OA
ENDBRANCH   9  31
BRANCH   1  34
HETATM   34  O1  UNL     1      69.748  43.922   6.378  1.00  0.00    -0.390 OA
HETATM   35  C1  UNL     1      68.981  43.033   7.012  1.00  0.00     0.202 C 
ENDBRANCH   1  34
TORSDOF 6
ENDMDL
MODEL 5
REMARK VINA RESULT: -7.017155199      8.481     10.943
REMARK  6 active torsions:
REMARK  status: ('A' for Active; 'I' for Inactive)
REMARK    1  A    between atoms: O1_2  and  C2_3 
REMARK    2  A    between atoms: C9_11  and  C10_12 
REMARK    3  A    between atoms: C13_17  and  C14_18 
REMARK    4  A    between atoms: C17_22  and  O5_23 
REMARK    5  A    between atoms: O5_23  and  C18_24 
REMARK    6  A    between atoms: C20_27  and  O7_28 
ROOT
HETATM    1  C2  UNL     1      65.318  48.106  10.352  1.00  0.00     0.136 C 
HETATM    2  C3  UNL     1      65.553  48.834  11.660  1.00  0.00     0.034 C 
HETATM    3  C4  UNL     1      64.707  50.112  11.687  1.00  0.00     0.014 C 
HETATM    4  C5  UNL     1      63.348  49.651  11.219  1.00  0.00    -0.020 C 
HETATM    5  C6  UNL     1      62.798  50.490  10.118  1.00  0.00     0.017 C 
HETATM    6  C7  UNL     1      62.441  50.079  12.411  1.00  0.00     0.017 C 
HETATM    7  C8  UNL     1      63.166  48.178  11.153  1.00  0.00     0.146 C 
HETATM    8  O2  UNL     1      61.913  47.822  11.003  1.00  0.00    -0.367 OA
HETATM    9  C9  UNL     1      61.536  46.490  11.149  1.00  0.00     0.232 C 
HETATM   10  C11 UNL     1      62.526  45.444  10.779  1.00  0.00     0.014 C 
HETATM   11  C12 UNL     1      62.490  44.399  11.912  1.00  0.00     0.020 C 
HETATM   12  C13 UNL     1      61.979  44.717   9.604  1.00  0.00     0.004 C 
HETATM   13  C15 UNL     1      62.717  43.506   9.136  1.00  0.00     0.021 C 
HETATM   14  C16 UNL     1      63.350  44.361   8.068  1.00  0.00     0.027 C 
HETATM   15  C17 UNL     1      64.740  44.584   8.557  1.00  0.00     0.166 C 
HETATM   16  C20 UNL     1      64.880  44.998   9.940  1.00  0.00     0.158 C 
HETATM   17  C21 UNL     1      63.972  45.902  10.681  1.00  0.00     0.011 C 
HETATM   18  C22 UNL     1      64.681  45.831  12.041  1.00  0.00     0.020 C 
HETATM   19  C23 UNL     1      64.055  47.358  10.233  1.00  0.00     0.041 C 
HETATM   20  C24 UNL     1      63.673  47.426   8.790  1.00  0.00    -0.015 C 
HETATM   21  C25 UNL     1      62.531  46.776   8.213  1.00  0.00    -0.024 C 
HETATM   22  C26 UNL     1      62.282  45.333   8.284  1.00  0.00     0.026 C 
ENDROOT
BRANCH  15  23
HETATM   23  O5  UNL     1      65.311  43.255   8.421  1.00  0.00    -0.313 OA
BRANCH  23  24
HETATM   24  C18 UNL     1      66.575  42.972   8.030  1.00  0.00     0.255 C 
HETATM   25  C19 UNL     1      67.170  41.613   7.981  1.00  0.00     0.126 C 
HETATM   26  O6  UNL     1      67.314  43.945   7.675  1.00  0.00    -0.266 OA
ENDBRANCH  23  24
ENDBRANCH  15  23
BRANCH  16  27
HETATM   27  O7  UNL     1      65.338  43.884  10.700  1.00  0.00    -0.392 OA
ATOM     28  H7  UNL     1      65.579  43.189  10.099  1.00  0.00     0.210 HD
ENDBRANCH  16  27
BRANCH  12  29
HETATM   29  C14 UNL     1      60.532  44.287   9.692  1.00  0.00     0.233 C 
HETATM   30  F1  UNL     1      60.175  43.571   8.519  1.00  0.00    -0.255 F 
ENDBRANCH  12  29
BRANCH   9  31
HETATM   31  C10 UNL     1      60.741  46.300  12.386  1.00  0.00     0.204 C 
HETATM   32  O3  UNL     1      61.159  46.612  13.557  1.00  0.00    -0.646 OA
HETATM   33  O4  UNL     1      59.470  45.786  12.513  1.00  0.00    -0.646 OA
ENDBRANCH   9  31
BRANCH   1  34
HETATM   34  O1  UNL     1      66.457  47.697   9.750  1.00  0.00    -0.390 OA
HETATM   35  C1  UNL     1      67.428  48.549   9.416  1.00  0.00     0.202 C 
ENDBRANCH   1  34
TORSDOF 6
ENDMDL
