MODEL 1
REMARK VINA RESULT: -6.967608409      0.000      0.000
REMARK  6 active torsions:
REMARK  status: ('A' for Active; 'I' for Inactive)
REMARK    1  A    between atoms: C2_2  and  C3_3 
REMARK    2  A    between atoms: C7_8  and  C8_9 
REMARK    3  A    between atoms: C13_15  and  C14_16 
REMARK    4  A    between atoms: C14_16  and  O3_18 
REMARK    5  A    between atoms: C16_20  and  O4_21 
REMARK    6  A    between atoms: C18_24  and  O5_26 
ROOT
HETATM    1  C3  UNL     1      72.169  46.736   7.630  1.00  0.00     0.051 C 
HETATM    2  C4  UNL     1      71.351  45.526   7.377  1.00  0.00     0.076 C 
HETATM    3  C5  UNL     1      71.765  44.971   6.011  1.00  0.00     0.048 C 
HETATM    4  C6  UNL     1      73.280  45.248   6.110  1.00  0.00     0.161 C 
HETATM    5  O1  UNL     1      73.744  44.632   7.120  1.00  0.00    -0.346 OA
HETATM    6  C7  UNL     1      74.615  43.685   7.398  1.00  0.00     0.177 C 
HETATM    7  O2  UNL     1      75.875  44.290   7.558  1.00  0.00    -0.324 OA
HETATM    8  C11 UNL     1      76.768  43.905   8.427  1.00  0.00     0.265 C 
HETATM    9  C12 UNL     1      77.007  45.009   9.477  1.00  0.00     0.078 C 
HETATM   10  C13 UNL     1      75.578  44.956  10.088  1.00  0.00     0.042 C 
HETATM   11  C16 UNL     1      74.945  46.194   9.684  1.00  0.00     0.134 C 
HETATM   12  C17 UNL     1      73.526  46.490   9.898  1.00  0.00     0.071 C 
HETATM   13  C18 UNL     1      72.676  47.127   8.900  1.00  0.00     0.071 C 
HETATM   14  C19 UNL     1      73.284  48.544   8.765  1.00  0.00     0.047 C 
HETATM   15  C20 UNL     1      75.177  43.612   9.753  1.00  0.00     0.148 C 
HETATM   16  O6  UNL     1      76.422  42.977   9.428  1.00  0.00    -0.354 OA
HETATM   17  C21 UNL     1      74.295  43.092   8.718  1.00  0.00     0.083 C 
HETATM   18  C22 UNL     1      72.904  42.813   9.150  1.00  0.00     0.004 C 
HETATM   19  C23 UNL     1      72.696  41.379   9.696  1.00  0.00     0.011 C 
HETATM   20  C24 UNL     1      71.778  43.100   8.264  1.00  0.00     0.056 C 
HETATM   21  C25 UNL     1      70.599  42.157   8.591  1.00  0.00     0.018 C 
HETATM   22  C26 UNL     1      71.230  44.487   8.383  1.00  0.00     0.136 C 
HETATM   23  O7  UNL     1      70.637  44.737   9.418  1.00  0.00    -0.297 OA
HETATM   24  C27 UNL     1      73.045  46.747   6.414  1.00  0.00     0.215 C 
HETATM   25  F1  UNL     1      74.073  47.550   6.305  1.00  0.00    -0.245 F 
ENDROOT
BRANCH  10  26
HETATM   26  C14 UNL     1      75.830  44.939  11.583  1.00  0.00     0.128 C 
HETATM   27  C15 UNL     1      75.183  43.987  12.451  1.00  0.00     0.040 C 
BRANCH  26  28
HETATM   28  O3  UNL     1      77.240  44.903  11.781  1.00  0.00    -0.395 OA
ATOM     29  H3  UNL     1      77.444  45.488  12.501  1.00  0.00     0.210 HD
ENDBRANCH  26  28
ENDBRANCH  10  26
BRANCH  11  30
HETATM   30  O4  UNL     1      75.722  47.246  10.241  1.00  0.00    -0.395 OA
ATOM     31  H4  UNL     1      75.428  48.048   9.824  1.00  0.00     0.210 HD
ENDBRANCH  11  30
BRANCH  13  32
HETATM   32  O5  UNL     1      71.492  47.450   9.667  1.00  0.00    -0.389 OA
ATOM     33  H5  UNL     1      71.173  46.606   9.965  1.00  0.00     0.210 HD
ENDBRANCH  13  32
BRANCH   6  34
HETATM   34  C8  UNL     1      74.849  42.726   6.275  1.00  0.00     0.041 C 
HETATM   35  C9  UNL     1      73.626  42.215   5.554  1.00  0.00     0.015 C 
HETATM   36  C10 UNL     1      75.449  41.398   6.808  1.00  0.00     0.015 C 
ENDBRANCH   6  34
BRANCH   1  37
HETATM   37  C2  UNL     1      71.179  47.883   7.280  1.00  0.00    -0.021 C 
HETATM   38  C1  UNL     1      71.012  48.296   6.056  1.00  0.00     0.008 C 
ENDBRANCH   1  37
TORSDOF 6
ENDMDL
MODEL 2
REMARK VINA RESULT: -6.936952817      2.133      4.988
REMARK  6 active torsions:
REMARK  status: ('A' for Active; 'I' for Inactive)
REMARK    1  A    between atoms: C2_2  and  C3_3 
REMARK    2  A    between atoms: C7_8  and  C8_9 
REMARK    3  A    between atoms: C13_15  and  C14_16 
REMARK    4  A    between atoms: C14_16  and  O3_18 
REMARK    5  A    between atoms: C16_20  and  O4_21 
REMARK    6  A    between atoms: C18_24  and  O5_26 
ROOT
HETATM    1  C3  UNL     1      72.547  46.293   8.285  1.00  0.00     0.051 C 
HETATM    2  C4  UNL     1      74.009  46.144   8.090  1.00  0.00     0.076 C 
HETATM    3  C5  UNL     1      74.654  46.106   9.478  1.00  0.00     0.048 C 
HETATM    4  C6  UNL     1      73.572  45.278  10.203  1.00  0.00     0.161 C 
HETATM    5  O1  UNL     1      73.455  44.156   9.618  1.00  0.00    -0.346 OA
HETATM    6  C7  UNL     1      73.606  42.874   9.877  1.00  0.00     0.177 C 
HETATM    7  O2  UNL     1      72.393  42.394  10.404  1.00  0.00    -0.324 OA
HETATM    8  C11 UNL     1      71.909  41.207  10.163  1.00  0.00     0.265 C 
HETATM    9  C12 UNL     1      70.586  41.317   9.378  1.00  0.00     0.078 C 
HETATM   10  C13 UNL     1      71.216  41.932   8.096  1.00  0.00     0.042 C 
HETATM   11  C16 UNL     1      70.751  43.302   8.063  1.00  0.00     0.134 C 
HETATM   12  C17 UNL     1      71.239  44.304   7.111  1.00  0.00     0.071 C 
HETATM   13  C18 UNL     1      71.550  45.681   7.477  1.00  0.00     0.071 C 
HETATM   14  C19 UNL     1      70.173  46.262   7.881  1.00  0.00     0.047 C 
HETATM   15  C20 UNL     1      72.577  41.465   8.198  1.00  0.00     0.148 C 
HETATM   16  O6  UNL     1      72.481  40.404   9.158  1.00  0.00    -0.354 OA
HETATM   17  C21 UNL     1      73.803  42.134   8.609  1.00  0.00     0.083 C 
HETATM   18  C22 UNL     1      74.644  42.655   7.504  1.00  0.00     0.004 C 
HETATM   19  C23 UNL     1      75.676  41.632   6.970  1.00  0.00     0.011 C 
HETATM   20  C24 UNL     1      75.338  43.934   7.637  1.00  0.00     0.056 C 
HETATM   21  C25 UNL     1      76.605  43.938   6.752  1.00  0.00     0.018 C 
HETATM   22  C26 UNL     1      74.541  45.123   7.205  1.00  0.00     0.136 C 
HETATM   23  O7  UNL     1      74.337  45.220   6.007  1.00  0.00    -0.297 OA
HETATM   24  C27 UNL     1      72.454  46.262   9.780  1.00  0.00     0.215 C 
HETATM   25  F1  UNL     1      71.306  46.170  10.404  1.00  0.00    -0.245 F 
ENDROOT
BRANCH  10  26
HETATM   26  C14 UNL     1      70.598  41.123   6.972  1.00  0.00     0.128 C 
HETATM   27  C15 UNL     1      71.402  40.530   5.932  1.00  0.00     0.040 C 
BRANCH  26  28
HETATM   28  O3  UNL     1      69.758  40.136   7.564  1.00  0.00    -0.395 OA
ATOM     29  H3  UNL     1      69.197  39.789   6.880  1.00  0.00     0.210 HD
ENDBRANCH  26  28
ENDBRANCH  10  26
BRANCH  11  30
HETATM   30  O4  UNL     1      69.333  43.247   7.983  1.00  0.00    -0.395 OA
ATOM     31  H4  UNL     1      69.118  42.441   7.529  1.00  0.00     0.210 HD
ENDBRANCH  11  30
BRANCH  13  32
HETATM   32  O5  UNL     1      71.705  46.314   6.186  1.00  0.00    -0.389 OA
ATOM     33  H5  UNL     1      70.826  46.319   5.824  1.00  0.00     0.210 HD
ENDBRANCH  13  32
BRANCH   6  34
HETATM   34  C8  UNL     1      74.580  42.588  10.975  1.00  0.00     0.041 C 
HETATM   35  C9  UNL     1      75.382  41.315  10.855  1.00  0.00     0.015 C 
HETATM   36  C10 UNL     1      73.835  42.337  12.313  1.00  0.00     0.015 C 
ENDBRANCH   6  34
BRANCH   1  37
HETATM   37  C2  UNL     1      72.332  47.810   8.017  1.00  0.00    -0.021 C 
HETATM   38  C1  UNL     1      72.731  48.720   8.859  1.00  0.00     0.008 C 
ENDBRANCH   1  37
TORSDOF 6
ENDMDL
MODEL 3
REMARK VINA RESULT: -6.854677416      2.255      5.157
REMARK  6 active torsions:
REMARK  status: ('A' for Active; 'I' for Inactive)
REMARK    1  A    between atoms: C2_2  and  C3_3 
REMARK    2  A    between atoms: C7_8  and  C8_9 
REMARK    3  A    between atoms: C13_15  and  C14_16 
REMARK    4  A    between atoms: C14_16  and  O3_18 
REMARK    5  A    between atoms: C16_20  and  O4_21 
REMARK    6  A    between atoms: C18_24  and  O5_26 
ROOT
HETATM    1  C3  UNL     1      71.623  41.496   7.329  1.00  0.00     0.051 C 
HETATM    2  C4  UNL     1      71.303  42.222   6.077  1.00  0.00     0.076 C 
HETATM    3  C5  UNL     1      70.021  43.021   6.325  1.00  0.00     0.048 C 
HETATM    4  C6  UNL     1      70.306  43.452   7.779  1.00  0.00     0.161 C 
HETATM    5  O1  UNL     1      71.387  44.121   7.803  1.00  0.00    -0.346 OA
HETATM    6  C7  UNL     1      71.805  45.332   8.108  1.00  0.00     0.177 C 
HETATM    7  O2  UNL     1      72.109  45.350   9.482  1.00  0.00    -0.324 OA
HETATM    8  C11 UNL     1      73.097  46.021  10.006  1.00  0.00     0.265 C 
HETATM    9  C12 UNL     1      74.134  45.057  10.618  1.00  0.00     0.078 C 
HETATM   10  C13 UNL     1      74.556  44.405   9.271  1.00  0.00     0.042 C 
HETATM   11  C16 UNL     1      74.035  43.055   9.322  1.00  0.00     0.134 C 
HETATM   12  C17 UNL     1      74.054  42.132   8.185  1.00  0.00     0.071 C 
HETATM   13  C18 UNL     1      72.935  41.268   7.828  1.00  0.00     0.071 C 
HETATM   14  C19 UNL     1      72.835  40.298   9.029  1.00  0.00     0.047 C 
HETATM   15  C20 UNL     1      74.214  45.446   8.333  1.00  0.00     0.148 C 
HETATM   16  O6  UNL     1      74.073  46.600   9.172  1.00  0.00    -0.354 OA
HETATM   17  C21 UNL     1      73.090  45.598   7.421  1.00  0.00     0.083 C 
HETATM   18  C22 UNL     1      73.347  45.179   6.021  1.00  0.00     0.004 C 
HETATM   19  C23 UNL     1      73.906  46.310   5.124  1.00  0.00     0.011 C 
HETATM   20  C24 UNL     1      72.313  44.492   5.249  1.00  0.00     0.056 C 
HETATM   21  C25 UNL     1      72.514  44.767   3.742  1.00  0.00     0.018 C 
HETATM   22  C26 UNL     1      72.317  43.003   5.390  1.00  0.00     0.136 C 
HETATM   23  O7  UNL     1      73.258  42.422   4.877  1.00  0.00    -0.297 OA
HETATM   24  C27 UNL     1      70.530  41.989   8.230  1.00  0.00     0.215 C 
HETATM   25  F1  UNL     1      70.531  41.751   9.518  1.00  0.00    -0.245 F 
ENDROOT
BRANCH  10  26
HETATM   26  C14 UNL     1      76.071  44.403   9.334  1.00  0.00     0.128 C 
HETATM   27  C15 UNL     1      76.881  44.314   8.144  1.00  0.00     0.040 C 
BRANCH  26  28
HETATM   28  O3  UNL     1      76.469  45.527  10.114  1.00  0.00    -0.395 OA
ATOM     29  H3  UNL     1      76.448  45.265  11.027  1.00  0.00     0.210 HD
ENDBRANCH  26  28
ENDBRANCH  10  26
BRANCH  11  30
HETATM   30  O4  UNL     1      74.655  42.423  10.435  1.00  0.00    -0.395 OA
ATOM     31  H4  UNL     1      74.212  42.747  11.211  1.00  0.00     0.210 HD
ENDBRANCH  11  30
BRANCH  13  32
HETATM   32  O5  UNL     1      73.531  40.379   6.854  1.00  0.00    -0.389 OA
ATOM     33  H5  UNL     1      74.068  39.793   7.375  1.00  0.00     0.210 HD
ENDBRANCH  13  32
BRANCH   6  34
HETATM   34  C8  UNL     1      70.752  46.386   7.988  1.00  0.00     0.041 C 
HETATM   35  C9  UNL     1      71.213  47.758   7.559  1.00  0.00     0.015 C 
HETATM   36  C10 UNL     1      70.140  46.706   9.378  1.00  0.00     0.015 C 
ENDBRANCH   6  34
BRANCH   1  37
HETATM   37  C2  UNL     1      71.111  40.061   7.018  1.00  0.00    -0.021 C 
HETATM   38  C1  UNL     1      70.333  39.815   6.002  1.00  0.00     0.008 C 
ENDBRANCH   1  37
TORSDOF 6
ENDMDL
MODEL 4
REMARK VINA RESULT: -6.823169268      2.190      4.964
REMARK  6 active torsions:
REMARK  status: ('A' for Active; 'I' for Inactive)
REMARK    1  A    between atoms: C2_2  and  C3_3 
REMARK    2  A    between atoms: C7_8  and  C8_9 
REMARK    3  A    between atoms: C13_15  and  C14_16 
REMARK    4  A    between atoms: C14_16  and  O3_18 
REMARK    5  A    between atoms: C16_20  and  O4_21 
REMARK    6  A    between atoms: C18_24  and  O5_26 
ROOT
HETATM    1  C3  UNL     1      71.584  47.897   8.502  1.00  0.00     0.051 C 
HETATM    2  C4  UNL     1      72.548  47.465   9.543  1.00  0.00     0.076 C 
HETATM    3  C5  UNL     1      71.822  46.473  10.457  1.00  0.00     0.048 C 
HETATM    4  C6  UNL     1      70.998  45.740   9.377  1.00  0.00     0.161 C 
HETATM    5  O1  UNL     1      71.796  45.228   8.530  1.00  0.00    -0.346 OA
HETATM    6  C7  UNL     1      72.138  44.043   8.070  1.00  0.00     0.177 C 
HETATM    7  O2  UNL     1      71.274  43.728   7.004  1.00  0.00    -0.324 OA
HETATM    8  C11 UNL     1      71.638  43.081   5.933  1.00  0.00     0.265 C 
HETATM    9  C12 UNL     1      71.521  43.989   4.692  1.00  0.00     0.078 C 
HETATM   10  C13 UNL     1      72.618  44.999   5.132  1.00  0.00     0.042 C 
HETATM   11  C16 UNL     1      71.906  46.218   5.454  1.00  0.00     0.134 C 
HETATM   12  C17 UNL     1      72.534  47.386   6.077  1.00  0.00     0.071 C 
HETATM   13  C18 UNL     1      71.914  48.162   7.145  1.00  0.00     0.071 C 
HETATM   14  C19 UNL     1      70.677  48.788   6.458  1.00  0.00     0.047 C 
HETATM   15  C20 UNL     1      73.414  44.184   6.016  1.00  0.00     0.148 C 
HETATM   16  O6  UNL     1      73.004  42.852   5.679  1.00  0.00    -0.354 OA
HETATM   17  C21 UNL     1      73.490  44.118   7.468  1.00  0.00     0.083 C 
HETATM   18  C22 UNL     1      74.594  44.895   8.083  1.00  0.00     0.004 C 
HETATM   19  C23 UNL     1      75.913  44.098   8.227  1.00  0.00     0.011 C 
HETATM   20  C24 UNL     1      74.388  45.613   9.339  1.00  0.00     0.056 C 
HETATM   21  C25 UNL     1      75.729  45.742  10.095  1.00  0.00     0.018 C 
HETATM   22  C26 UNL     1      73.879  47.011   9.181  1.00  0.00     0.136 C 
HETATM   23  O7  UNL     1      74.665  47.813   8.710  1.00  0.00    -0.297 OA
HETATM   24  C27 UNL     1      70.389  47.065   8.859  1.00  0.00     0.215 C 
HETATM   25  F1  UNL     1      69.344  46.980   8.075  1.00  0.00    -0.245 F 
ENDROOT
BRANCH  10  26
HETATM   26  C14 UNL     1      73.460  45.177   3.884  1.00  0.00     0.128 C 
HETATM   27  C15 UNL     1      72.974  44.800   2.579  1.00  0.00     0.040 C 
BRANCH  26  28
HETATM   28  O3  UNL     1      73.919  46.525   3.864  1.00  0.00    -0.395 OA
ATOM     29  H3  UNL     1      74.711  46.551   3.340  1.00  0.00     0.210 HD
ENDBRANCH  26  28
ENDBRANCH  10  26
BRANCH  11  30
HETATM   30  O4  UNL     1      71.251  46.632   4.262  1.00  0.00    -0.395 OA
ATOM     31  H4  UNL     1      71.820  47.271   3.849  1.00  0.00     0.210 HD
ENDBRANCH  11  30
BRANCH  13  32
HETATM   32  O5  UNL     1      72.766  49.329   7.210  1.00  0.00    -0.389 OA
ATOM     33  H5  UNL     1      73.056  49.453   6.314  1.00  0.00     0.210 HD
ENDBRANCH  13  32
BRANCH   6  34
HETATM   34  C8  UNL     1      71.897  42.925   9.033  1.00  0.00     0.041 C 
HETATM   35  C9  UNL     1      72.935  41.831   9.075  1.00  0.00     0.015 C 
HETATM   36  C10 UNL     1      70.638  42.115   8.623  1.00  0.00     0.015 C 
ENDBRANCH   6  34
BRANCH   1  37
HETATM   37  C2  UNL     1      71.132  49.288   9.030  1.00  0.00    -0.021 C 
HETATM   38  C1  UNL     1      69.905  49.515   9.405  1.00  0.00     0.008 C 
ENDBRANCH   1  37
TORSDOF 6
ENDMDL
MODEL 5
REMARK VINA RESULT: -6.746542131      1.626      2.028
REMARK  6 active torsions:
REMARK  status: ('A' for Active; 'I' for Inactive)
REMARK    1  A    between atoms: C2_2  and  C3_3 
REMARK    2  A    between atoms: C7_8  and  C8_9 
REMARK    3  A    between atoms: C13_15  and  C14_16 
REMARK    4  A    between atoms: C14_16  and  O3_18 
REMARK    5  A    between atoms: C16_20  and  O4_21 
REMARK    6  A    between atoms: C18_24  and  O5_26 
ROOT
HETATM    1  C3  UNL     1      72.225  45.956   7.712  1.00  0.00     0.051 C 
HETATM    2  C4  UNL     1      71.980  44.958   6.643  1.00  0.00     0.076 C 
HETATM    3  C5  UNL     1      73.127  45.076   5.635  1.00  0.00     0.048 C 
HETATM    4  C6  UNL     1      74.275  45.325   6.635  1.00  0.00     0.161 C 
HETATM    5  O1  UNL     1      74.342  44.341   7.436  1.00  0.00    -0.346 OA
HETATM    6  C7  UNL     1      75.188  43.394   7.787  1.00  0.00     0.177 C 
HETATM    7  O2  UNL     1      76.007  43.904   8.811  1.00  0.00    -0.324 OA
HETATM    8  C11 UNL     1      76.440  43.201   9.821  1.00  0.00     0.265 C 
HETATM    9  C12 UNL     1      75.846  43.734  11.140  1.00  0.00     0.078 C 
HETATM   10  C13 UNL     1      74.371  43.375  10.805  1.00  0.00     0.042 C 
HETATM   11  C16 UNL     1      73.709  44.645  10.592  1.00  0.00     0.134 C 
HETATM   12  C17 UNL     1      72.340  44.774  10.086  1.00  0.00     0.071 C 
HETATM   13  C18 UNL     1      71.938  45.761   9.090  1.00  0.00     0.071 C 
HETATM   14  C19 UNL     1      72.139  47.109   9.823  1.00  0.00     0.047 C 
HETATM   15  C20 UNL     1      74.550  42.306   9.854  1.00  0.00     0.148 C 
HETATM   16  O6  UNL     1      75.914  41.917  10.062  1.00  0.00    -0.354 OA
HETATM   17  C21 UNL     1      74.444  42.271   8.403  1.00  0.00     0.083 C 
HETATM   18  C22 UNL     1      73.145  41.788   7.872  1.00  0.00     0.004 C 
HETATM   19  C23 UNL     1      73.088  40.255   7.663  1.00  0.00     0.011 C 
HETATM   20  C24 UNL     1      72.552  42.404   6.686  1.00  0.00     0.056 C 
HETATM   21  C25 UNL     1      71.656  41.378   5.955  1.00  0.00     0.018 C 
HETATM   22  C26 UNL     1      71.670  43.578   6.970  1.00  0.00     0.136 C 
HETATM   23  O7  UNL     1      70.612  43.328   7.520  1.00  0.00    -0.297 OA
HETATM   24  C27 UNL     1      73.538  46.529   7.271  1.00  0.00     0.215 C 
HETATM   25  F1  UNL     1      74.240  47.327   8.035  1.00  0.00    -0.245 F 
ENDROOT
BRANCH  10  26
HETATM   26  C14 UNL     1      73.870  42.708  12.070  1.00  0.00     0.128 C 
HETATM   27  C15 UNL     1      73.148  41.460  12.036  1.00  0.00     0.040 C 
BRANCH  26  28
HETATM   28  O3  UNL     1      74.970  42.612  12.970  1.00  0.00    -0.395 OA
ATOM     29  H3  UNL     1      74.652  42.841  13.836  1.00  0.00     0.210 HD
ENDBRANCH  26  28
ENDBRANCH  10  26
BRANCH  11  30
HETATM   30  O4  UNL     1      73.815  45.366  11.813  1.00  0.00    -0.395 OA
ATOM     31  H4  UNL     1      73.896  44.719  12.504  1.00  0.00     0.210 HD
ENDBRANCH  11  30
BRANCH  13  32
HETATM   32  O5  UNL     1      70.494  45.677   9.141  1.00  0.00    -0.389 OA
ATOM     33  H5  UNL     1      70.326  44.827   9.530  1.00  0.00     0.210 HD
ENDBRANCH  13  32
BRANCH   6  34
HETATM   34  C8  UNL     1      76.175  43.037   6.722  1.00  0.00     0.041 C 
HETATM   35  C9  UNL     1      76.608  41.593   6.656  1.00  0.00     0.015 C 
HETATM   36  C10 UNL     1      77.535  43.737   6.982  1.00  0.00     0.015 C 
ENDBRANCH   6  34
BRANCH   1  37
HETATM   37  C2  UNL     1      71.262  47.110   7.313  1.00  0.00    -0.021 C 
HETATM   38  C1  UNL     1      71.548  47.942   6.352  1.00  0.00     0.008 C 
ENDBRANCH   1  37
TORSDOF 6
ENDMDL
