MODEL 1
REMARK VINA RESULT: -9.290025403      0.000      0.000
REMARK  7 active torsions:
REMARK  status: ('A' for Active; 'I' for Inactive)
REMARK    1  A    between atoms: C4_4  and  C5_5 
REMARK    2  A    between atoms: C5_5  and  O2_7 
REMARK    3  A    between atoms: O2_7  and  C6_8 
REMARK    4  A    between atoms: C6_8  and  C7_9 
REMARK    5  A    between atoms: C16_20  and  O5_21 
REMARK    6  A    between atoms: C22_28  and  O6_29 
REMARK    7  A    between atoms: C26_35  and  O7_37 
ROOT
HETATM    1  C7  UNL     1      73.629  46.344   4.985  1.00  0.00     0.155 C 
HETATM    2  C8  UNL     1      72.260  46.976   5.153  1.00  0.00     0.106 C 
HETATM    3  C9  UNL     1      72.471  46.616   6.632  1.00  0.00     0.207 C 
HETATM    4  O3  UNL     1      73.323  45.657   6.202  1.00  0.00    -0.344 OA
HETATM    5  O4  UNL     1      71.323  46.220   7.293  1.00  0.00    -0.334 OA
HETATM    6  C10 UNL     1      71.251  46.962   8.507  1.00  0.00     0.133 C 
HETATM    7  C11 UNL     1      69.867  47.136   8.993  1.00  0.00     0.031 C 
HETATM    8  C12 UNL     1      68.929  46.600   7.897  1.00  0.00     0.009 C 
HETATM    9  C13 UNL     1      67.619  46.411   8.584  1.00  0.00     0.012 C 
HETATM   10  C14 UNL     1      67.090  47.661   9.147  1.00  0.00    -0.014 C 
HETATM   11  C15 UNL     1      66.073  47.372  10.256  1.00  0.00     0.018 C 
HETATM   12  C16 UNL     1      66.388  48.486   8.060  1.00  0.00     0.127 C 
HETATM   13  C17 UNL     1      67.555  49.463   8.180  1.00  0.00     0.038 C 
HETATM   14  C18 UNL     1      68.007  48.765   9.420  1.00  0.00     0.003 C 
HETATM   15  C19 UNL     1      69.464  48.436   9.540  1.00  0.00    -0.002 C 
HETATM   16  C20 UNL     1      70.229  49.652   9.088  1.00  0.00     0.009 C 
HETATM   17  C21 UNL     1      71.732  49.377   8.913  1.00  0.00     0.045 C 
HETATM   18  C22 UNL     1      71.764  48.266   7.991  1.00  0.00     0.133 C 
HETATM   19  C23 UNL     1      73.040  47.825   7.351  1.00  0.00     0.193 C 
HETATM   20  F1  UNL     1      73.455  48.813   6.500  1.00  0.00    -0.234 F 
HETATM   21  C24 UNL     1      74.057  47.417   8.365  1.00  0.00     0.055 C 
HETATM   22  C25 UNL     1      73.580  46.206   9.096  1.00  0.00     0.044 C 
HETATM   23  C26 UNL     1      72.117  46.214   9.446  1.00  0.00     0.089 C 
HETATM   24  C27 UNL     1      72.008  46.535  10.906  1.00  0.00     0.049 C 
ENDROOT
BRANCH   1  25
HETATM   25  C6  UNL     1      73.684  45.425   3.810  1.00  0.00     0.211 C 
BRANCH  25  26
HETATM   26  O2  UNL     1      72.835  45.590   2.774  1.00  0.00    -0.316 OA
BRANCH  26  27
HETATM   27  C5  UNL     1      71.616  45.046   2.561  1.00  0.00     0.283 C 
HETATM   28  O1  UNL     1      71.144  44.223   3.365  1.00  0.00    -0.260 OA
BRANCH  27  29
HETATM   29  C4  UNL     1      70.773  45.368   1.402  1.00  0.00     0.084 C 
HETATM   30  C2  UNL     1      71.023  44.970   0.184  1.00  0.00    -0.082 C 
HETATM   31  C1  UNL     1      70.034  45.408  -0.872  1.00  0.00     0.043 C 
HETATM   32  C3  UNL     1      72.152  44.151  -0.256  1.00  0.00     0.043 C 
ENDBRANCH  27  29
ENDBRANCH  26  27
ENDBRANCH  25  26
ENDBRANCH   1  25
BRANCH  18  33
HETATM   33  O6  UNL     1      70.916  48.600   6.898  1.00  0.00    -0.383 OA
ATOM     34  H6  UNL     1      70.065  48.241   7.122  1.00  0.00     0.210 HD
ENDBRANCH  18  33
BRANCH  23  35
HETATM   35  O7  UNL     1      71.696  44.857   9.341  1.00  0.00    -0.387 OA
ATOM     36  H7  UNL     1      71.837  44.485  10.204  1.00  0.00     0.210 HD
ENDBRANCH  23  35
BRANCH  12  37
HETATM   37  O5  UNL     1      65.162  48.999   8.437  1.00  0.00    -0.395 OA
ATOM     38  H5  UNL     1      64.938  49.824   8.022  1.00  0.00     0.210 HD
ENDBRANCH  12  37
TORSDOF 7
ENDMDL
MODEL 2
REMARK VINA RESULT: -9.074160691      2.781      7.532
REMARK  7 active torsions:
REMARK  status: ('A' for Active; 'I' for Inactive)
REMARK    1  A    between atoms: C4_4  and  C5_5 
REMARK    2  A    between atoms: C5_5  and  O2_7 
REMARK    3  A    between atoms: O2_7  and  C6_8 
REMARK    4  A    between atoms: C6_8  and  C7_9 
REMARK    5  A    between atoms: C16_20  and  O5_21 
REMARK    6  A    between atoms: C22_28  and  O6_29 
REMARK    7  A    between atoms: C26_35  and  O7_37 
ROOT
HETATM    1  C7  UNL     1      69.414  49.280   8.277  1.00  0.00     0.155 C 
HETATM    2  C8  UNL     1      70.073  48.385   9.309  1.00  0.00     0.106 C 
HETATM    3  C9  UNL     1      70.809  47.815   8.085  1.00  0.00     0.207 C 
HETATM    4  O3  UNL     1      69.764  48.253   7.344  1.00  0.00    -0.344 OA
HETATM    5  O4  UNL     1      71.042  46.454   8.142  1.00  0.00    -0.334 OA
HETATM    6  C10 UNL     1      72.416  46.243   7.828  1.00  0.00     0.133 C 
HETATM    7  C11 UNL     1      72.960  45.009   8.432  1.00  0.00     0.031 C 
HETATM    8  C12 UNL     1      71.880  44.448   9.373  1.00  0.00     0.009 C 
HETATM    9  C13 UNL     1      72.293  43.036   9.617  1.00  0.00     0.012 C 
HETATM   10  C14 UNL     1      73.620  42.934  10.240  1.00  0.00    -0.014 C 
HETATM   11  C15 UNL     1      74.230  41.549  10.001  1.00  0.00     0.018 C 
HETATM   12  C16 UNL     1      73.522  43.157  11.755  1.00  0.00     0.127 C 
HETATM   13  C17 UNL     1      74.243  44.480  11.513  1.00  0.00     0.038 C 
HETATM   14  C18 UNL     1      74.553  44.052  10.117  1.00  0.00     0.003 C 
HETATM   15  C19 UNL     1      74.305  45.038   9.016  1.00  0.00    -0.002 C 
HETATM   16  C20 UNL     1      74.834  46.366   9.488  1.00  0.00     0.009 C 
HETATM   17  C21 UNL     1      74.421  47.530   8.570  1.00  0.00     0.045 C 
HETATM   18  C22 UNL     1      72.981  47.432   8.532  1.00  0.00     0.133 C 
HETATM   19  C23 UNL     1      72.144  48.522   7.946  1.00  0.00     0.193 C 
HETATM   20  F1  UNL     1      72.257  49.625   8.748  1.00  0.00    -0.234 F 
HETATM   21  C24 UNL     1      72.476  48.765   6.511  1.00  0.00     0.055 C 
HETATM   22  C25 UNL     1      72.124  47.562   5.702  1.00  0.00     0.044 C 
HETATM   23  C26 UNL     1      72.459  46.245   6.348  1.00  0.00     0.089 C 
HETATM   24  C27 UNL     1      73.697  45.723   5.683  1.00  0.00     0.049 C 
ENDROOT
BRANCH   1  25
HETATM   25  C6  UNL     1      67.939  49.384   8.482  1.00  0.00     0.211 C 
BRANCH  25  26
HETATM   26  O2  UNL     1      67.415  49.295   9.723  1.00  0.00    -0.316 OA
BRANCH  26  27
HETATM   27  C5  UNL     1      66.566  50.129  10.364  1.00  0.00     0.283 C 
HETATM   28  O1  UNL     1      65.722  49.680  11.159  1.00  0.00    -0.260 OA
BRANCH  27  29
HETATM   29  C4  UNL     1      66.569  51.586  10.185  1.00  0.00     0.084 C 
HETATM   30  C2  UNL     1      67.576  52.358  10.493  1.00  0.00    -0.082 C 
HETATM   31  C1  UNL     1      67.382  53.836  10.233  1.00  0.00     0.043 C 
HETATM   32  C3  UNL     1      68.859  51.942  11.059  1.00  0.00     0.043 C 
ENDBRANCH  27  29
ENDBRANCH  26  27
ENDBRANCH  25  26
ENDBRANCH   1  25
BRANCH  18  33
HETATM   33  O6  UNL     1      72.530  47.323   9.878  1.00  0.00    -0.383 OA
ATOM     34  H6  UNL     1      73.281  47.552  10.414  1.00  0.00     0.210 HD
ENDBRANCH  18  33
BRANCH  23  35
HETATM   35  O7  UNL     1      71.426  45.352   5.944  1.00  0.00    -0.387 OA
ATOM     36  H7  UNL     1      71.461  44.633   6.564  1.00  0.00     0.210 HD
ENDBRANCH  23  35
BRANCH  12  37
HETATM   37  O5  UNL     1      74.228  42.242  12.512  1.00  0.00    -0.395 OA
ATOM     38  H5  UNL     1      73.708  41.792  13.168  1.00  0.00     0.210 HD
ENDBRANCH  12  37
TORSDOF 7
ENDMDL
MODEL 3
REMARK VINA RESULT: -8.853689060      2.787      7.871
REMARK  7 active torsions:
REMARK  status: ('A' for Active; 'I' for Inactive)
REMARK    1  A    between atoms: C4_4  and  C5_5 
REMARK    2  A    between atoms: C5_5  and  O2_7 
REMARK    3  A    between atoms: O2_7  and  C6_8 
REMARK    4  A    between atoms: C6_8  and  C7_9 
REMARK    5  A    between atoms: C16_20  and  O5_21 
REMARK    6  A    between atoms: C22_28  and  O6_29 
REMARK    7  A    between atoms: C26_35  and  O7_37 
ROOT
HETATM    1  C7  UNL     1      69.234  47.844   9.003  1.00  0.00     0.155 C 
HETATM    2  C8  UNL     1      69.849  46.462   9.110  1.00  0.00     0.106 C 
HETATM    3  C9  UNL     1      70.716  46.950   7.938  1.00  0.00     0.207 C 
HETATM    4  O3  UNL     1      69.717  47.818   7.655  1.00  0.00    -0.344 OA
HETATM    5  O4  UNL     1      71.017  45.976   7.005  1.00  0.00    -0.334 OA
HETATM    6  C10 UNL     1      72.422  46.026   6.773  1.00  0.00     0.133 C 
HETATM    7  C11 UNL     1      72.977  44.729   6.333  1.00  0.00     0.031 C 
HETATM    8  C12 UNL     1      71.851  43.687   6.453  1.00  0.00     0.009 C 
HETATM    9  C13 UNL     1      72.316  42.536   5.627  1.00  0.00     0.012 C 
HETATM   10  C14 UNL     1      73.589  41.975   6.103  1.00  0.00    -0.014 C 
HETATM   11  C15 UNL     1      74.290  41.191   4.990  1.00  0.00     0.018 C 
HETATM   12  C16 UNL     1      73.349  41.020   7.280  1.00  0.00     0.127 C 
HETATM   13  C17 UNL     1      74.016  42.079   8.154  1.00  0.00     0.038 C 
HETATM   14  C18 UNL     1      74.468  42.801   6.928  1.00  0.00     0.003 C 
HETATM   15  C19 UNL     1      74.263  44.285   6.880  1.00  0.00    -0.002 C 
HETATM   16  C20 UNL     1      74.678  44.830   8.221  1.00  0.00     0.009 C 
HETATM   17  C21 UNL     1      74.284  46.305   8.410  1.00  0.00     0.045 C 
HETATM   18  C22 UNL     1      72.859  46.304   8.173  1.00  0.00     0.133 C 
HETATM   19  C23 UNL     1      72.019  47.497   8.491  1.00  0.00     0.193 C 
HETATM   20  F1  UNL     1      72.003  47.658   9.850  1.00  0.00    -0.234 F 
HETATM   21  C24 UNL     1      72.459  48.705   7.732  1.00  0.00     0.055 C 
HETATM   22  C25 UNL     1      72.242  48.487   6.271  1.00  0.00     0.044 C 
HETATM   23  C26 UNL     1      72.591  47.109   5.778  1.00  0.00     0.089 C 
HETATM   24  C27 UNL     1      73.908  47.207   5.068  1.00  0.00     0.049 C 
ENDROOT
BRANCH   1  25
HETATM   25  C6  UNL     1      67.744  47.804   9.073  1.00  0.00     0.211 C 
BRANCH  25  26
HETATM   26  O2  UNL     1      67.084  48.526  10.004  1.00  0.00    -0.316 OA
BRANCH  26  27
HETATM   27  C5  UNL     1      66.361  49.660   9.864  1.00  0.00     0.283 C 
HETATM   28  O1  UNL     1      65.656  49.837   8.855  1.00  0.00    -0.260 OA
BRANCH  27  29
HETATM   29  C4  UNL     1      66.346  50.742  10.856  1.00  0.00     0.084 C 
HETATM   30  C2  UNL     1      67.372  51.505  11.121  1.00  0.00    -0.082 C 
HETATM   31  C1  UNL     1      67.155  52.564  12.179  1.00  0.00     0.043 C 
HETATM   32  C3  UNL     1      68.696  51.439  10.503  1.00  0.00     0.043 C 
ENDBRANCH  27  29
ENDBRANCH  26  27
ENDBRANCH  25  26
ENDBRANCH   1  25
BRANCH  18  33
HETATM   33  O6  UNL     1      72.302  45.257   8.958  1.00  0.00    -0.383 OA
ATOM     34  H6  UNL     1      73.046  44.771   9.296  1.00  0.00     0.210 HD
ENDBRANCH  18  33
BRANCH  23  35
HETATM   35  O7  UNL     1      71.645  46.824   4.752  1.00  0.00    -0.387 OA
ATOM     36  H7  UNL     1      72.151  46.802   3.947  1.00  0.00     0.210 HD
ENDBRANCH  23  35
BRANCH  12  37
HETATM   37  O5  UNL     1      74.036  39.824   7.193  1.00  0.00    -0.395 OA
ATOM     38  H5  UNL     1      74.237  39.426   8.031  1.00  0.00     0.210 HD
ENDBRANCH  12  37
TORSDOF 7
ENDMDL
MODEL 4
REMARK VINA RESULT: -8.815623621      3.069      7.477
REMARK  7 active torsions:
REMARK  status: ('A' for Active; 'I' for Inactive)
REMARK    1  A    between atoms: C4_4  and  C5_5 
REMARK    2  A    between atoms: C5_5  and  O2_7 
REMARK    3  A    between atoms: O2_7  and  C6_8 
REMARK    4  A    between atoms: C6_8  and  C7_9 
REMARK    5  A    between atoms: C16_20  and  O5_21 
REMARK    6  A    between atoms: C22_28  and  O6_29 
REMARK    7  A    between atoms: C26_35  and  O7_37 
ROOT
HETATM    1  C7  UNL     1      70.519  49.179   8.907  1.00  0.00     0.155 C 
HETATM    2  C8  UNL     1      70.331  47.708   9.229  1.00  0.00     0.106 C 
HETATM    3  C9  UNL     1      71.214  47.505   7.987  1.00  0.00     0.207 C 
HETATM    4  O3  UNL     1      70.792  48.725   7.578  1.00  0.00    -0.344 OA
HETATM    5  O4  UNL     1      70.877  46.407   7.219  1.00  0.00    -0.334 OA
HETATM    6  C10 UNL     1      72.074  45.676   6.971  1.00  0.00     0.133 C 
HETATM    7  C11 UNL     1      71.830  44.237   6.739  1.00  0.00     0.031 C 
HETATM    8  C12 UNL     1      70.342  43.974   7.033  1.00  0.00     0.009 C 
HETATM    9  C13 UNL     1      70.063  42.654   6.398  1.00  0.00     0.012 C 
HETATM   10  C14 UNL     1      70.894  41.574   6.947  1.00  0.00    -0.014 C 
HETATM   11  C15 UNL     1      70.980  40.400   5.967  1.00  0.00     0.018 C 
HETATM   12  C16 UNL     1      70.301  41.054   8.263  1.00  0.00     0.127 C 
HETATM   13  C17 UNL     1      71.498  41.704   8.952  1.00  0.00     0.038 C 
HETATM   14  C18 UNL     1      72.145  41.910   7.622  1.00  0.00     0.003 C 
HETATM   15  C19 UNL     1      72.740  43.256   7.340  1.00  0.00    -0.002 C 
HETATM   16  C20 UNL     1      73.498  43.670   8.573  1.00  0.00     0.009 C 
HETATM   17  C21 UNL     1      73.949  45.140   8.528  1.00  0.00     0.045 C 
HETATM   18  C22 UNL     1      72.718  45.862   8.305  1.00  0.00     0.133 C 
HETATM   19  C23 UNL     1      72.655  47.348   8.436  1.00  0.00     0.193 C 
HETATM   20  F1  UNL     1      72.849  47.670   9.752  1.00  0.00    -0.234 F 
HETATM   21  C24 UNL     1      73.589  48.028   7.490  1.00  0.00     0.055 C 
HETATM   22  C25 UNL     1      73.158  47.768   6.085  1.00  0.00     0.044 C 
HETATM   23  C26 UNL     1      72.692  46.364   5.815  1.00  0.00     0.089 C 
HETATM   24  C27 UNL     1      73.796  45.657   5.088  1.00  0.00     0.049 C 
ENDROOT
BRANCH   1  25
HETATM   25  C6  UNL     1      69.239  49.942   8.996  1.00  0.00     0.211 C 
BRANCH  25  26
HETATM   26  O2  UNL     1      68.216  49.474   9.742  1.00  0.00    -0.316 OA
BRANCH  26  27
HETATM   27  C5  UNL     1      66.913  49.834   9.743  1.00  0.00     0.283 C 
HETATM   28  O1  UNL     1      66.200  49.624   8.745  1.00  0.00    -0.260 OA
BRANCH  27  29
HETATM   29  C4  UNL     1      66.249  50.481  10.881  1.00  0.00     0.084 C 
HETATM   30  C2  UNL     1      66.487  51.706  11.266  1.00  0.00    -0.082 C 
HETATM   31  C1  UNL     1      65.700  52.190  12.463  1.00  0.00     0.043 C 
HETATM   32  C3  UNL     1      67.429  52.647  10.661  1.00  0.00     0.043 C 
ENDBRANCH  27  29
ENDBRANCH  26  27
ENDBRANCH  25  26
ENDBRANCH   1  25
BRANCH  18  33
HETATM   33  O6  UNL     1      71.771  45.381   9.252  1.00  0.00    -0.383 OA
ATOM     34  H6  UNL     1      71.471  44.548   8.908  1.00  0.00     0.210 HD
ENDBRANCH  18  33
BRANCH  23  35
HETATM   35  O7  UNL     1      71.647  46.490   4.855  1.00  0.00    -0.387 OA
ATOM     36  H7  UNL     1      71.442  45.601   4.592  1.00  0.00     0.210 HD
ENDBRANCH  23  35
BRANCH  12  37
HETATM   37  O5  UNL     1      70.252  39.677   8.362  1.00  0.00    -0.395 OA
ATOM     38  H5  UNL     1      70.775  39.316   9.068  1.00  0.00     0.210 HD
ENDBRANCH  12  37
TORSDOF 7
ENDMDL
MODEL 5
REMARK VINA RESULT: -8.772553979      2.627      7.805
REMARK  7 active torsions:
REMARK  status: ('A' for Active; 'I' for Inactive)
REMARK    1  A    between atoms: C4_4  and  C5_5 
REMARK    2  A    between atoms: C5_5  and  O2_7 
REMARK    3  A    between atoms: O2_7  and  C6_8 
REMARK    4  A    between atoms: C6_8  and  C7_9 
REMARK    5  A    between atoms: C16_20  and  O5_21 
REMARK    6  A    between atoms: C22_28  and  O6_29 
REMARK    7  A    between atoms: C26_35  and  O7_37 
ROOT
HETATM    1  C7  UNL     1      68.972  47.845   8.936  1.00  0.00     0.155 C 
HETATM    2  C8  UNL     1      69.881  46.798   9.553  1.00  0.00     0.106 C 
HETATM    3  C9  UNL     1      70.600  46.879   8.197  1.00  0.00     0.207 C 
HETATM    4  O3  UNL     1      69.428  47.323   7.684  1.00  0.00    -0.344 OA
HETATM    5  O4  UNL     1      71.095  45.672   7.741  1.00  0.00    -0.334 OA
HETATM    6  C10 UNL     1      72.451  45.886   7.356  1.00  0.00     0.133 C 
HETATM    7  C11 UNL     1      73.274  44.662   7.451  1.00  0.00     0.031 C 
HETATM    8  C12 UNL     1      72.410  43.583   8.128  1.00  0.00     0.009 C 
HETATM    9  C13 UNL     1      73.107  42.301   7.824  1.00  0.00     0.012 C 
HETATM   10  C14 UNL     1      74.479  42.264   8.350  1.00  0.00    -0.014 C 
HETATM   11  C15 UNL     1      75.320  41.222   7.606  1.00  0.00     0.018 C 
HETATM   12  C16 UNL     1      74.475  41.898   9.840  1.00  0.00     0.127 C 
HETATM   13  C17 UNL     1      74.903  43.339  10.100  1.00  0.00     0.038 C 
HETATM   14  C18 UNL     1      75.164  43.521   8.642  1.00  0.00     0.003 C 
HETATM   15  C19 UNL     1      74.635  44.762   7.990  1.00  0.00    -0.002 C 
HETATM   16  C20 UNL     1      74.938  45.910   8.916  1.00  0.00     0.009 C 
HETATM   17  C21 UNL     1      74.228  47.210   8.501  1.00  0.00     0.045 C 
HETATM   18  C22 UNL     1      72.836  46.830   8.446  1.00  0.00     0.133 C 
HETATM   19  C23 UNL     1      71.756  47.854   8.317  1.00  0.00     0.193 C 
HETATM   20  F1  UNL     1      71.725  48.590   9.470  1.00  0.00    -0.234 F 
HETATM   21  C24 UNL     1      71.906  48.664   7.072  1.00  0.00     0.055 C 
HETATM   22  C25 UNL     1      71.722  47.789   5.877  1.00  0.00     0.044 C 
HETATM   23  C26 UNL     1      72.361  46.431   5.983  1.00  0.00     0.089 C 
HETATM   24  C27 UNL     1      73.612  46.460   5.157  1.00  0.00     0.049 C 
ENDROOT
BRANCH   1  25
HETATM   25  C6  UNL     1      67.529  47.552   9.182  1.00  0.00     0.211 C 
BRANCH  25  26
HETATM   26  O2  UNL     1      66.806  48.334  10.011  1.00  0.00    -0.316 OA
BRANCH  26  27
HETATM   27  C5  UNL     1      66.259  49.551   9.792  1.00  0.00     0.283 C 
HETATM   28  O1  UNL     1      65.649  49.787   8.734  1.00  0.00    -0.260 OA
BRANCH  27  29
HETATM   29  C4  UNL     1      66.334  50.660  10.751  1.00  0.00     0.084 C 
HETATM   30  C2  UNL     1      67.412  51.363  10.972  1.00  0.00    -0.082 C 
HETATM   31  C1  UNL     1      67.286  52.464  12.001  1.00  0.00     0.043 C 
HETATM   32  C3  UNL     1      68.716  51.193  10.331  1.00  0.00     0.043 C 
ENDBRANCH  27  29
ENDBRANCH  26  27
ENDBRANCH  25  26
ENDBRANCH   1  25
BRANCH  18  33
HETATM   33  O6  UNL     1      72.537  46.149   9.659  1.00  0.00    -0.383 OA
ATOM     34  H6  UNL     1      72.906  46.688  10.349  1.00  0.00     0.210 HD
ENDBRANCH  18  33
BRANCH  23  35
HETATM   35  O7  UNL     1      71.487  45.547   5.286  1.00  0.00    -0.387 OA
ATOM     36  H7  UNL     1      71.617  45.742   4.366  1.00  0.00     0.210 HD
ENDBRANCH  23  35
BRANCH  12  37
HETATM   37  O5  UNL     1      75.408  40.943  10.195  1.00  0.00    -0.395 OA
ATOM     38  H5  UNL     1      76.307  41.249  10.178  1.00  0.00     0.210 HD
ENDBRANCH  12  37
TORSDOF 7
ENDMDL
