MODEL 1
REMARK VINA RESULT: -8.949800213      0.000      0.000
REMARK  9 active torsions:
REMARK  status: ('A' for Active; 'I' for Inactive)
REMARK    1  A    between atoms: C10_10  and  O1_11 
REMARK    2  A    between atoms: C11_13  and  O2_14 
REMARK    3  A    between atoms: C13_17  and  O3_18 
REMARK    4  A    between atoms: O3_18  and  S1_19 
REMARK    5  A    between atoms: C17_26  and  C19_28 
REMARK    6  A    between atoms: C19_28  and  O8_30 
REMARK    7  A    between atoms: O8_30  and  C20_31 
REMARK    8  A    between atoms: C20_31  and  C21_32 
REMARK    9  A    between atoms: C22_33  and  C23_34 
ROOT
HETATM    1  C1  UNL     1      71.986  50.124   9.006  1.00  0.00     0.013 C 
HETATM    2  C2  UNL     1      71.212  49.310   8.541  1.00  0.00    -0.106 C 
HETATM    3  C3  UNL     1      70.242  48.315   7.993  1.00  0.00     0.040 C 
HETATM    4  C4  UNL     1      69.928  48.827   6.626  1.00  0.00     0.031 C 
HETATM    5  C5  UNL     1      69.101  48.175   8.929  1.00  0.00     0.014 C 
HETATM    6  C6  UNL     1      68.161  49.404   8.886  1.00  0.00     0.008 C 
HETATM    7  C7  UNL     1      67.312  49.212  10.091  1.00  0.00     0.015 C 
HETATM    8  C8  UNL     1      66.264  48.147   9.745  1.00  0.00     0.018 C 
HETATM    9  C9  UNL     1      65.613  47.856  11.068  1.00  0.00     0.021 C 
HETATM   10  C10 UNL     1      65.269  48.885   8.870  1.00  0.00     0.158 C 
HETATM   11  C11 UNL     1      65.277  48.236   7.536  1.00  0.00     0.150 C 
HETATM   12  C12 UNL     1      66.370  47.212   7.556  1.00  0.00     0.075 C 
HETATM   13  C13 UNL     1      66.820  47.003   8.995  1.00  0.00     0.099 C 
HETATM   14  C14 UNL     1      68.375  46.919   9.046  1.00  0.00     0.028 C 
HETATM   15  C15 UNL     1      68.758  45.810   8.104  1.00  0.00     0.009 C 
HETATM   16  C16 UNL     1      70.082  45.906   7.471  1.00  0.00     0.022 C 
HETATM   17  C17 UNL     1      70.969  47.020   7.924  1.00  0.00     0.063 C 
HETATM   18  C18 UNL     1      71.622  46.727   9.259  1.00  0.00     0.028 C 
ENDROOT
BRANCH  17  19
HETATM   19  C19 UNL     1      72.047  47.164   6.885  1.00  0.00     0.269 C 
HETATM   20  O7  UNL     1      73.284  47.141   7.207  1.00  0.00    -0.264 OA
BRANCH  19  21
HETATM   21  O8  UNL     1      71.796  47.328   5.541  1.00  0.00    -0.309 OA
BRANCH  21  22
HETATM   22  C20 UNL     1      72.713  46.891   4.555  1.00  0.00     0.272 C 
BRANCH  22  23
HETATM   23  C21 UNL     1      72.057  46.272   3.429  1.00  0.00    -0.077 C 
HETATM   24  C22 UNL     1      71.521  45.739   2.491  1.00  0.00    -0.073 C 
BRANCH  24  25
HETATM   25  C23 UNL     1      70.880  45.069   1.356  1.00  0.00     0.315 C 
HETATM   26  F1  UNL     1      70.882  45.857   0.232  1.00  0.00    -0.242 F 
ENDBRANCH  24  25
ENDBRANCH  22  23
ENDBRANCH  21  22
ENDBRANCH  19  21
ENDBRANCH  17  19
BRANCH  13  27
HETATM   27  O3  UNL     1      66.418  45.826   9.452  1.00  0.00    -0.244 OA
BRANCH  27  28
HETATM   28  S1  UNL     1      65.279  44.819   9.214  1.00  0.00     0.252 S 
HETATM   29  O4  UNL     1      63.897  45.227   8.786  1.00  0.00    -0.572 OA
HETATM   30  O5  UNL     1      64.971  44.119  10.564  1.00  0.00    -0.572 OA
HETATM   31  O6  UNL     1      65.725  43.416   8.292  1.00  0.00    -0.572 OA
ENDBRANCH  27  28
ENDBRANCH  13  27
BRANCH  10  32
HETATM   32  O1  UNL     1      64.006  48.974   9.379  1.00  0.00    -0.392 OA
ATOM     33  H1  UNL     1      63.314  49.038   8.730  1.00  0.00     0.210 HD
ENDBRANCH  10  32
BRANCH  11  34
HETATM   34  O2  UNL     1      64.042  47.697   7.166  1.00  0.00    -0.393 OA
ATOM     35  H2  UNL     1      64.022  47.362   6.277  1.00  0.00     0.210 HD
ENDBRANCH  11  34
TORSDOF 9
ENDMDL
MODEL 2
REMARK VINA RESULT: -8.702513641      1.713      1.832
REMARK  9 active torsions:
REMARK  status: ('A' for Active; 'I' for Inactive)
REMARK    1  A    between atoms: C10_10  and  O1_11 
REMARK    2  A    between atoms: C11_13  and  O2_14 
REMARK    3  A    between atoms: C13_17  and  O3_18 
REMARK    4  A    between atoms: O3_18  and  S1_19 
REMARK    5  A    between atoms: C17_26  and  C19_28 
REMARK    6  A    between atoms: C19_28  and  O8_30 
REMARK    7  A    between atoms: O8_30  and  C20_31 
REMARK    8  A    between atoms: C20_31  and  C21_32 
REMARK    9  A    between atoms: C22_33  and  C23_34 
ROOT
HETATM    1  C1  UNL     1      72.404  49.932   9.000  1.00  0.00     0.013 C 
HETATM    2  C2  UNL     1      71.591  49.135   8.572  1.00  0.00    -0.106 C 
HETATM    3  C3  UNL     1      70.573  48.165   8.068  1.00  0.00     0.040 C 
HETATM    4  C4  UNL     1      70.356  48.571   6.647  1.00  0.00     0.031 C 
HETATM    5  C5  UNL     1      69.388  48.192   8.957  1.00  0.00     0.014 C 
HETATM    6  C6  UNL     1      68.544  49.475   8.760  1.00  0.00     0.008 C 
HETATM    7  C7  UNL     1      67.634  49.454   9.935  1.00  0.00     0.015 C 
HETATM    8  C8  UNL     1      66.525  48.439   9.633  1.00  0.00     0.018 C 
HETATM    9  C9  UNL     1      65.799  48.316  10.944  1.00  0.00     0.021 C 
HETATM   10  C10 UNL     1      65.624  49.161   8.650  1.00  0.00     0.158 C 
HETATM   11  C11 UNL     1      65.640  48.394   7.380  1.00  0.00     0.150 C 
HETATM   12  C12 UNL     1      66.652  47.302   7.544  1.00  0.00     0.075 C 
HETATM   13  C13 UNL     1      67.024  47.194   9.015  1.00  0.00     0.099 C 
HETATM   14  C14 UNL     1      68.566  47.006   9.148  1.00  0.00     0.028 C 
HETATM   15  C15 UNL     1      68.904  45.792   8.327  1.00  0.00     0.009 C 
HETATM   16  C16 UNL     1      70.256  45.736   7.753  1.00  0.00     0.022 C 
HETATM   17  C17 UNL     1      71.205  46.821   8.148  1.00  0.00     0.063 C 
HETATM   18  C18 UNL     1      71.777  46.606   9.534  1.00  0.00     0.028 C 
ENDROOT
BRANCH  17  19
HETATM   19  C19 UNL     1      72.332  46.794   7.154  1.00  0.00     0.269 C 
HETATM   20  O7  UNL     1      73.549  46.920   7.528  1.00  0.00    -0.264 OA
BRANCH  19  21
HETATM   21  O8  UNL     1      72.152  46.634   5.798  1.00  0.00    -0.309 OA
BRANCH  21  22
HETATM   22  C20 UNL     1      72.801  45.602   5.079  1.00  0.00     0.272 C 
BRANCH  22  23
HETATM   23  C21 UNL     1      72.239  44.302   5.354  1.00  0.00    -0.077 C 
HETATM   24  C22 UNL     1      71.761  43.224   5.602  1.00  0.00    -0.073 C 
BRANCH  24  25
HETATM   25  C23 UNL     1      71.162  41.924   5.918  1.00  0.00     0.315 C 
HETATM   26  F1  UNL     1      69.794  42.001   5.999  1.00  0.00    -0.242 F 
ENDBRANCH  24  25
ENDBRANCH  22  23
ENDBRANCH  21  22
ENDBRANCH  19  21
ENDBRANCH  17  19
BRANCH  13  27
HETATM   27  O3  UNL     1      66.517  46.095   9.554  1.00  0.00    -0.244 OA
BRANCH  27  28
HETATM   28  S1  UNL     1      65.345  45.125   9.321  1.00  0.00     0.252 S 
HETATM   29  O4  UNL     1      63.971  45.580   8.914  1.00  0.00    -0.572 OA
HETATM   30  O5  UNL     1      65.033  44.421  10.667  1.00  0.00    -0.572 OA
HETATM   31  O6  UNL     1      65.738  43.720   8.379  1.00  0.00    -0.572 OA
ENDBRANCH  27  28
ENDBRANCH  13  27
BRANCH  10  32
HETATM   32  O1  UNL     1      64.352  49.385   9.088  1.00  0.00    -0.392 OA
ATOM     33  H1  UNL     1      64.261  50.091   9.717  1.00  0.00     0.210 HD
ENDBRANCH  10  32
BRANCH  11  34
HETATM   34  O2  UNL     1      64.384  47.913   7.000  1.00  0.00    -0.393 OA
ATOM     35  H2  UNL     1      64.275  46.979   7.139  1.00  0.00     0.210 HD
ENDBRANCH  11  34
TORSDOF 9
ENDMDL
MODEL 3
REMARK VINA RESULT: -8.505865816      2.768      3.630
REMARK  9 active torsions:
REMARK  status: ('A' for Active; 'I' for Inactive)
REMARK    1  A    between atoms: C10_10  and  O1_11 
REMARK    2  A    between atoms: C11_13  and  O2_14 
REMARK    3  A    between atoms: C13_17  and  O3_18 
REMARK    4  A    between atoms: O3_18  and  S1_19 
REMARK    5  A    between atoms: C17_26  and  C19_28 
REMARK    6  A    between atoms: C19_28  and  O8_30 
REMARK    7  A    between atoms: O8_30  and  C20_31 
REMARK    8  A    between atoms: C20_31  and  C21_32 
REMARK    9  A    between atoms: C22_33  and  C23_34 
ROOT
HETATM    1  C1  UNL     1      72.441  49.783   9.056  1.00  0.00     0.013 C 
HETATM    2  C2  UNL     1      71.618  49.002   8.618  1.00  0.00    -0.106 C 
HETATM    3  C3  UNL     1      70.588  48.051   8.102  1.00  0.00     0.040 C 
HETATM    4  C4  UNL     1      70.394  48.462   6.679  1.00  0.00     0.031 C 
HETATM    5  C5  UNL     1      69.393  48.100   8.977  1.00  0.00     0.014 C 
HETATM    6  C6  UNL     1      68.576  49.399   8.773  1.00  0.00     0.008 C 
HETATM    7  C7  UNL     1      67.653  49.394   9.937  1.00  0.00     0.015 C 
HETATM    8  C8  UNL     1      66.528  48.400   9.622  1.00  0.00     0.018 C 
HETATM    9  C9  UNL     1      65.785  48.290  10.925  1.00  0.00     0.021 C 
HETATM   10  C10 UNL     1      65.653  49.140   8.630  1.00  0.00     0.158 C 
HETATM   11  C11 UNL     1      65.668  48.373   7.359  1.00  0.00     0.150 C 
HETATM   12  C12 UNL     1      66.658  47.262   7.533  1.00  0.00     0.075 C 
HETATM   13  C13 UNL     1      67.011  47.147   9.009  1.00  0.00     0.099 C 
HETATM   14  C14 UNL     1      68.547  46.930   9.159  1.00  0.00     0.028 C 
HETATM   15  C15 UNL     1      68.871  45.709   8.341  1.00  0.00     0.009 C 
HETATM   16  C16 UNL     1      70.229  45.629   7.782  1.00  0.00     0.022 C 
HETATM   17  C17 UNL     1      71.193  46.696   8.188  1.00  0.00     0.063 C 
HETATM   18  C18 UNL     1      71.746  46.469   9.580  1.00  0.00     0.028 C 
ENDROOT
BRANCH  17  19
HETATM   19  C19 UNL     1      72.331  46.648   7.207  1.00  0.00     0.269 C 
HETATM   20  O7  UNL     1      72.118  46.616   5.946  1.00  0.00    -0.264 OA
BRANCH  19  21
HETATM   21  O8  UNL     1      73.658  46.635   7.575  1.00  0.00    -0.309 OA
BRANCH  21  22
HETATM   22  C20 UNL     1      74.392  45.428   7.669  1.00  0.00     0.272 C 
BRANCH  22  23
HETATM   23  C21 UNL     1      75.237  45.387   8.837  1.00  0.00    -0.077 C 
HETATM   24  C22 UNL     1      75.946  45.373   9.811  1.00  0.00    -0.073 C 
BRANCH  24  25
HETATM   25  C23 UNL     1      76.805  45.382  10.999  1.00  0.00     0.315 C 
HETATM   26  F1  UNL     1      77.591  46.507  11.049  1.00  0.00    -0.242 F 
ENDBRANCH  24  25
ENDBRANCH  22  23
ENDBRANCH  21  22
ENDBRANCH  19  21
ENDBRANCH  17  19
BRANCH  13  27
HETATM   27  O3  UNL     1      66.478  46.058   9.541  1.00  0.00    -0.244 OA
BRANCH  27  28
HETATM   28  S1  UNL     1      65.316  45.085   9.269  1.00  0.00     0.252 S 
HETATM   29  O4  UNL     1      63.957  45.536   8.811  1.00  0.00    -0.572 OA
HETATM   30  O5  UNL     1      64.955  44.386  10.607  1.00  0.00    -0.572 OA
HETATM   31  O6  UNL     1      65.744  43.676   8.349  1.00  0.00    -0.572 OA
ENDBRANCH  27  28
ENDBRANCH  13  27
BRANCH  10  32
HETATM   32  O1  UNL     1      64.379  49.388   9.053  1.00  0.00    -0.392 OA
ATOM     33  H1  UNL     1      63.709  48.849   8.649  1.00  0.00     0.210 HD
ENDBRANCH  10  32
BRANCH  11  34
HETATM   34  O2  UNL     1      64.408  47.916   6.965  1.00  0.00    -0.393 OA
ATOM     35  H2  UNL     1      63.749  48.599   6.923  1.00  0.00     0.210 HD
ENDBRANCH  11  34
TORSDOF 9
ENDMDL
MODEL 4
REMARK VINA RESULT: -8.431871542      2.816      3.306
REMARK  9 active torsions:
REMARK  status: ('A' for Active; 'I' for Inactive)
REMARK    1  A    between atoms: C10_10  and  O1_11 
REMARK    2  A    between atoms: C11_13  and  O2_14 
REMARK    3  A    between atoms: C13_17  and  O3_18 
REMARK    4  A    between atoms: O3_18  and  S1_19 
REMARK    5  A    between atoms: C17_26  and  C19_28 
REMARK    6  A    between atoms: C19_28  and  O8_30 
REMARK    7  A    between atoms: O8_30  and  C20_31 
REMARK    8  A    between atoms: C20_31  and  C21_32 
REMARK    9  A    between atoms: C22_33  and  C23_34 
ROOT
HETATM    1  C1  UNL     1      70.522  50.671   9.596  1.00  0.00     0.013 C 
HETATM    2  C2  UNL     1      69.918  49.756   9.071  1.00  0.00    -0.106 C 
HETATM    3  C3  UNL     1      69.156  48.632   8.448  1.00  0.00     0.040 C 
HETATM    4  C4  UNL     1      68.765  49.157   7.105  1.00  0.00     0.031 C 
HETATM    5  C5  UNL     1      68.052  48.228   9.351  1.00  0.00     0.014 C 
HETATM    6  C6  UNL     1      66.900  49.261   9.358  1.00  0.00     0.008 C 
HETATM    7  C7  UNL     1      66.090  48.845  10.532  1.00  0.00     0.015 C 
HETATM    8  C8  UNL     1      65.262  47.626  10.105  1.00  0.00     0.018 C 
HETATM    9  C9  UNL     1      64.663  47.142  11.397  1.00  0.00     0.021 C 
HETATM   10  C10 UNL     1      64.155  48.216   9.253  1.00  0.00     0.158 C 
HETATM   11  C11 UNL     1      64.297  47.659   7.885  1.00  0.00     0.150 C 
HETATM   12  C12 UNL     1      65.563  46.857   7.871  1.00  0.00     0.075 C 
HETATM   13  C13 UNL     1      66.029  46.651   9.305  1.00  0.00     0.099 C 
HETATM   14  C14 UNL     1      67.572  46.854   9.383  1.00  0.00     0.028 C 
HETATM   15  C15 UNL     1      68.164  45.893   8.388  1.00  0.00     0.009 C 
HETATM   16  C16 UNL     1      69.453  46.270   7.789  1.00  0.00     0.022 C 
HETATM   17  C17 UNL     1      70.113  47.501   8.322  1.00  0.00     0.063 C 
HETATM   18  C18 UNL     1      70.795  47.256   9.652  1.00  0.00     0.028 C 
ENDROOT
BRANCH  17  19
HETATM   19  C19 UNL     1      71.155  47.904   7.315  1.00  0.00     0.269 C 
HETATM   20  O7  UNL     1      71.009  47.645   6.071  1.00  0.00    -0.264 OA
BRANCH  19  21
HETATM   21  O8  UNL     1      72.317  48.566   7.641  1.00  0.00    -0.309 OA
BRANCH  21  22
HETATM   22  C20 UNL     1      73.590  48.030   7.331  1.00  0.00     0.272 C 
BRANCH  22  23
HETATM   23  C21 UNL     1      74.050  47.092   8.327  1.00  0.00    -0.077 C 
HETATM   24  C22 UNL     1      74.432  46.324   9.172  1.00  0.00    -0.073 C 
BRANCH  24  25
HETATM   25  C23 UNL     1      74.888  45.405  10.219  1.00  0.00     0.315 C 
HETATM   26  F1  UNL     1      73.888  45.120  11.116  1.00  0.00    -0.242 F 
ENDBRANCH  24  25
ENDBRANCH  22  23
ENDBRANCH  21  22
ENDBRANCH  19  21
ENDBRANCH  17  19
BRANCH  13  27
HETATM   27  O3  UNL     1      65.849  45.395   9.687  1.00  0.00    -0.244 OA
BRANCH  27  28
HETATM   28  S1  UNL     1      64.918  44.211   9.372  1.00  0.00     0.252 S 
HETATM   29  O4  UNL     1      63.462  44.376   9.039  1.00  0.00    -0.572 OA
HETATM   30  O5  UNL     1      64.828  43.324  10.641  1.00  0.00    -0.572 OA
HETATM   31  O6  UNL     1      65.580  43.033   8.281  1.00  0.00    -0.572 OA
ENDBRANCH  27  28
ENDBRANCH  13  27
BRANCH  10  32
HETATM   32  O1  UNL     1      62.893  48.039   9.740  1.00  0.00    -0.392 OA
ATOM     33  H1  UNL     1      62.342  47.457   9.229  1.00  0.00     0.210 HD
ENDBRANCH  10  32
BRANCH  11  34
HETATM   34  O2  UNL     1      63.188  46.924   7.460  1.00  0.00    -0.393 OA
ATOM     35  H2  UNL     1      62.378  47.169   7.893  1.00  0.00     0.210 HD
ENDBRANCH  11  34
TORSDOF 9
ENDMDL
MODEL 5
REMARK VINA RESULT: -8.315363189      5.150      8.421
REMARK  9 active torsions:
REMARK  status: ('A' for Active; 'I' for Inactive)
REMARK    1  A    between atoms: C10_10  and  O1_11 
REMARK    2  A    between atoms: C11_13  and  O2_14 
REMARK    3  A    between atoms: C13_17  and  O3_18 
REMARK    4  A    between atoms: O3_18  and  S1_19 
REMARK    5  A    between atoms: C17_26  and  C19_28 
REMARK    6  A    between atoms: C19_28  and  O8_30 
REMARK    7  A    between atoms: O8_30  and  C20_31 
REMARK    8  A    between atoms: C20_31  and  C21_32 
REMARK    9  A    between atoms: C22_33  and  C23_34 
ROOT
HETATM    1  C1  UNL     1      61.401  49.890  13.552  1.00  0.00     0.013 C 
HETATM    2  C2  UNL     1      62.255  50.163  12.730  1.00  0.00    -0.106 C 
HETATM    3  C3  UNL     1      63.311  50.469  11.719  1.00  0.00     0.040 C 
HETATM    4  C4  UNL     1      62.563  51.105  10.593  1.00  0.00     0.031 C 
HETATM    5  C5  UNL     1      64.062  49.231  11.404  1.00  0.00     0.014 C 
HETATM    6  C6  UNL     1      63.235  48.257  10.530  1.00  0.00     0.008 C 
HETATM    7  C7  UNL     1      64.016  46.996  10.612  1.00  0.00     0.015 C 
HETATM    8  C8  UNL     1      65.216  47.141   9.668  1.00  0.00     0.018 C 
HETATM    9  C9  UNL     1      66.058  45.936   9.988  1.00  0.00     0.021 C 
HETATM   10  C10 UNL     1      64.619  46.958   8.286  1.00  0.00     0.158 C 
HETATM   11  C11 UNL     1      64.831  48.221   7.536  1.00  0.00     0.150 C 
HETATM   12  C12 UNL     1      65.417  49.207   8.499  1.00  0.00     0.075 C 
HETATM   13  C13 UNL     1      65.866  48.464   9.749  1.00  0.00     0.099 C 
HETATM   14  C14 UNL     1      65.463  49.282  11.013  1.00  0.00     0.028 C 
HETATM   15  C15 UNL     1      66.082  50.642  10.837  1.00  0.00     0.009 C 
HETATM   16  C16 UNL     1      65.397  51.770  11.485  1.00  0.00     0.022 C 
HETATM   17  C17 UNL     1      64.233  51.441  12.363  1.00  0.00     0.063 C 
HETATM   18  C18 UNL     1      64.666  50.917  13.717  1.00  0.00     0.028 C 
ENDROOT
BRANCH  17  19
HETATM   19  C19 UNL     1      63.469  52.720  12.566  1.00  0.00     0.269 C 
HETATM   20  O7  UNL     1      63.082  53.084  13.730  1.00  0.00    -0.264 OA
BRANCH  19  21
HETATM   21  O8  UNL     1      63.135  53.581  11.545  1.00  0.00    -0.309 OA
BRANCH  21  22
HETATM   22  C20 UNL     1      63.543  54.937  11.551  1.00  0.00     0.272 C 
BRANCH  22  23
HETATM   23  C21 UNL     1      64.879  55.111  11.034  1.00  0.00    -0.077 C 
HETATM   24  C22 UNL     1      65.995  55.236  10.599  1.00  0.00    -0.073 C 
BRANCH  24  25
HETATM   25  C23 UNL     1      67.352  55.366  10.059  1.00  0.00     0.315 C 
HETATM   26  F1  UNL     1      68.034  54.175  10.107  1.00  0.00    -0.242 F 
ENDBRANCH  24  25
ENDBRANCH  22  23
ENDBRANCH  21  22
ENDBRANCH  19  21
ENDBRANCH  17  19
BRANCH  13  27
HETATM   27  O3  UNL     1      67.188  48.401   9.814  1.00  0.00    -0.244 OA
BRANCH  27  28
HETATM   28  S1  UNL     1      68.387  48.225   8.865  1.00  0.00     0.252 S 
HETATM   29  O4  UNL     1      69.180  46.952   8.771  1.00  0.00    -0.572 OA
HETATM   30  O5  UNL     1      69.492  49.224   9.301  1.00  0.00    -0.572 OA
HETATM   31  O6  UNL     1      68.132  48.811   7.250  1.00  0.00    -0.572 OA
ENDBRANCH  27  28
ENDBRANCH  13  27
BRANCH  10  32
HETATM   32  O1  UNL     1      65.082  45.877   7.594  1.00  0.00    -0.392 OA
ATOM     33  H1  UNL     1      65.967  45.963   7.258  1.00  0.00     0.210 HD
ENDBRANCH  10  32
BRANCH  11  34
HETATM   34  O2  UNL     1      65.607  48.066   6.384  1.00  0.00    -0.393 OA
ATOM     35  H2  UNL     1      66.302  47.424   6.476  1.00  0.00     0.210 HD
ENDBRANCH  11  34
TORSDOF 9
ENDMDL
