MODEL 1
REMARK VINA RESULT: -9.217504840      0.000      0.000
REMARK  11 active torsions:
REMARK  status: ('A' for Active; 'I' for Inactive)
REMARK    1  A    between atoms: C2_2  and  O2_4 
REMARK    2  A    between atoms: O2_4  and  C3_5 
REMARK    3  A    between atoms: C4_6  and  C5_7 
REMARK    4  A    between atoms: C4_6  and  C19_25 
REMARK    5  A    between atoms: C5_7  and  C6_8 
REMARK    6  A    between atoms: C6_8  and  C7_9 
REMARK    7  A    between atoms: C7_9  and  C8_10 
REMARK    8  A    between atoms: C8_10  and  C10_12 
REMARK    9  A    between atoms: C13_15  and  C15_17 
REMARK   10  A    between atoms: C16_20  and  O5_21 
REMARK   11  A    between atoms: C27_33  and  O6_34 
ROOT
HETATM    1  C3  UNL     1      15.882 -41.106  10.756  1.00  0.00     0.153 C 
HETATM    2  C4  UNL     1      17.322 -41.083  10.722  1.00  0.00    -0.033 C 
ENDROOT
BRANCH   2   3
HETATM    3  C5  UNL     1      17.979 -40.018  11.610  1.00  0.00     0.041 C 
BRANCH   3   4
HETATM    4  C6  UNL     1      17.374 -39.601  12.846  1.00  0.00     0.005 C 
BRANCH   4   5
HETATM    5  C7  UNL     1      16.943 -38.304  13.321  1.00  0.00     0.005 C 
BRANCH   5   6
HETATM    6  C8  UNL     1      15.841 -37.575  12.680  1.00  0.00    -0.011 C 
HETATM    7  C9  UNL     1      15.995 -37.162  11.264  1.00  0.00     0.010 C 
BRANCH   6   8
HETATM    8  C10 UNL     1      14.591 -38.442  12.745  1.00  0.00     0.018 C 
HETATM    9  C11 UNL     1      14.260 -38.956  14.069  1.00  0.00    -0.024 C 
HETATM   10  C12 UNL     1      13.089 -39.609  14.174  1.00  0.00    -0.008 C 
HETATM   11  C13 UNL     1      12.177 -39.805  13.023  1.00  0.00     0.088 C 
HETATM   12  C14 UNL     1      12.478 -41.177  12.411  1.00  0.00     0.034 C 
HETATM   13  C16 UNL     1      12.327 -38.795  11.943  1.00  0.00     0.145 C 
HETATM   14  C17 UNL     1      13.366 -37.724  12.228  1.00  0.00     0.020 C 
HETATM   15  C18 UNL     1      12.890 -36.750  13.279  1.00  0.00     0.013 C 
BRANCH  11  16
HETATM   16  C15 UNL     1      10.764 -39.857  13.460  1.00  0.00     0.188 C 
HETATM   17  O3  UNL     1      10.483 -40.050  14.666  1.00  0.00    -0.647 OA
HETATM   18  O4  UNL     1       9.727 -39.697  12.559  1.00  0.00    -0.647 OA
ENDBRANCH  11  16
BRANCH  13  19
HETATM   19  O5  UNL     1      12.665 -39.367  10.717  1.00  0.00    -0.394 OA
ATOM     20  H5  UNL     1      12.797 -40.306  10.777  1.00  0.00     0.210 HD
ENDBRANCH  13  19
ENDBRANCH   6   8
ENDBRANCH   5   6
ENDBRANCH   4   5
ENDBRANCH   3   4
ENDBRANCH   2   3
BRANCH   2  21
HETATM   21  C19 UNL     1      18.137 -41.306   9.517  1.00  0.00    -0.063 C 
HETATM   22  C20 UNL     1      18.581 -40.014   8.861  1.00  0.00     0.036 C 
HETATM   23  C21 UNL     1      19.217 -40.727   7.617  1.00  0.00     0.011 C 
HETATM   24  C22 UNL     1      20.188 -41.543   8.453  1.00  0.00     0.007 C 
HETATM   25  C23 UNL     1      21.190 -42.111   7.595  1.00  0.00    -0.035 C 
HETATM   26  C33 UNL     1      19.276 -42.252   9.387  1.00  0.00    -0.014 C 
HETATM   27  C24 UNL     1      22.309 -42.904   8.201  1.00  0.00     0.016 C 
HETATM   28  C25 UNL     1      21.888 -40.901   6.932  1.00  0.00     0.012 C 
HETATM   29  C29 UNL     1      20.630 -42.919   6.459  1.00  0.00    -0.002 C 
HETATM   30  C26 UNL     1      21.728 -40.837   5.461  1.00  0.00     0.032 C 
HETATM   31  C27 UNL     1      22.309 -42.060   4.774  1.00  0.00     0.118 C 
HETATM   32  C28 UNL     1      21.657 -43.248   5.373  1.00  0.00     0.037 C 
HETATM   33  C30 UNL     1      19.942 -44.164   6.785  1.00  0.00     0.025 C 
HETATM   34  C31 UNL     1      19.697 -44.489   8.223  1.00  0.00     0.083 C 
HETATM   35 CL1  UNL     1      18.790 -46.071   8.132  1.00  0.00    -0.125 Cl
HETATM   36  C32 UNL     1      18.725 -43.538   8.789  1.00  0.00     0.034 C 
HETATM   37  C34 UNL     1      19.955 -42.685  10.654  1.00  0.00     0.020 C 
BRANCH  31  38
HETATM   38  O6  UNL     1      22.045 -41.918   3.404  1.00  0.00    -0.396 OA
ATOM     39  H6  UNL     1      22.832 -41.563   3.009  1.00  0.00     0.210 HD
ENDBRANCH  31  38
ENDBRANCH   2  21
BRANCH   1  40
HETATM   40  O2  UNL     1      15.145 -42.070  10.065  1.00  0.00    -0.291 OA
BRANCH  40  41
HETATM   41  C2  UNL     1      14.393 -41.835   8.924  1.00  0.00     0.259 C 
HETATM   42  C1  UNL     1      15.091 -41.646   7.639  1.00  0.00     0.126 C 
HETATM   43  O1  UNL     1      13.166 -41.788   8.998  1.00  0.00    -0.265 OA
ENDBRANCH  40  41
ENDBRANCH   1  40
TORSDOF 11
ENDMDL
MODEL 2
REMARK VINA RESULT: -9.122640972      2.579      5.156
REMARK  11 active torsions:
REMARK  status: ('A' for Active; 'I' for Inactive)
REMARK    1  A    between atoms: C2_2  and  O2_4 
REMARK    2  A    between atoms: O2_4  and  C3_5 
REMARK    3  A    between atoms: C4_6  and  C5_7 
REMARK    4  A    between atoms: C4_6  and  C19_25 
REMARK    5  A    between atoms: C5_7  and  C6_8 
REMARK    6  A    between atoms: C6_8  and  C7_9 
REMARK    7  A    between atoms: C7_9  and  C8_10 
REMARK    8  A    between atoms: C8_10  and  C10_12 
REMARK    9  A    between atoms: C13_15  and  C15_17 
REMARK   10  A    between atoms: C16_20  and  O5_21 
REMARK   11  A    between atoms: C27_33  and  O6_34 
ROOT
HETATM    1  C3  UNL     1      19.570 -40.321  12.313  1.00  0.00     0.153 C 
HETATM    2  C4  UNL     1      18.354 -39.856  11.697  1.00  0.00    -0.033 C 
ENDROOT
BRANCH   2   3
HETATM    3  C5  UNL     1      17.738 -38.603  12.332  1.00  0.00     0.041 C 
BRANCH   3   4
HETATM    4  C6  UNL     1      17.318 -37.488  11.527  1.00  0.00     0.005 C 
BRANCH   4   5
HETATM    5  C7  UNL     1      16.006 -37.010  11.150  1.00  0.00     0.005 C 
BRANCH   5   6
HETATM    6  C8  UNL     1      15.134 -36.312  12.105  1.00  0.00    -0.011 C 
HETATM    7  C9  UNL     1      14.803 -34.889  11.851  1.00  0.00     0.010 C 
BRANCH   6   8
HETATM    8  C10 UNL     1      13.810 -37.059  12.180  1.00  0.00     0.018 C 
HETATM    9  C11 UNL     1      13.733 -38.269  11.368  1.00  0.00    -0.024 C 
HETATM   10  C12 UNL     1      12.625 -39.016  11.524  1.00  0.00    -0.008 C 
HETATM   11  C13 UNL     1      11.538 -38.647  12.460  1.00  0.00     0.088 C 
HETATM   12  C14 UNL     1      10.475 -37.878  11.668  1.00  0.00     0.034 C 
HETATM   13  C16 UNL     1      11.967 -37.778  13.586  1.00  0.00     0.145 C 
HETATM   14  C17 UNL     1      13.450 -37.450  13.595  1.00  0.00     0.020 C 
HETATM   15  C18 UNL     1      14.283 -38.642  14.000  1.00  0.00     0.013 C 
BRANCH  11  16
HETATM   16  C15 UNL     1      10.857 -39.848  12.993  1.00  0.00     0.188 C 
HETATM   17  O3  UNL     1      10.220 -39.786  14.070  1.00  0.00    -0.647 OA
HETATM   18  O4  UNL     1      10.906 -41.058  12.325  1.00  0.00    -0.647 OA
ENDBRANCH  11  16
BRANCH  13  19
HETATM   19  O5  UNL     1      11.286 -36.561  13.614  1.00  0.00    -0.394 OA
ATOM     20  H5  UNL     1      11.600 -35.982  14.299  1.00  0.00     0.210 HD
ENDBRANCH  13  19
ENDBRANCH   6   8
ENDBRANCH   5   6
ENDBRANCH   4   5
ENDBRANCH   3   4
ENDBRANCH   2   3
BRANCH   2  21
HETATM   21  C19 UNL     1      17.291 -40.729  11.173  1.00  0.00    -0.063 C 
HETATM   22  C20 UNL     1      15.936 -40.436  11.785  1.00  0.00     0.036 C 
HETATM   23  C21 UNL     1      15.229 -41.653  11.092  1.00  0.00     0.011 C 
HETATM   24  C22 UNL     1      15.562 -41.177   9.688  1.00  0.00     0.007 C 
HETATM   25  C23 UNL     1      14.772 -41.912   8.740  1.00  0.00    -0.035 C 
HETATM   26  C33 UNL     1      17.042 -41.053   9.744  1.00  0.00    -0.014 C 
HETATM   27  C24 UNL     1      14.872 -41.570   7.284  1.00  0.00     0.016 C 
HETATM   28  C25 UNL     1      13.304 -41.603   9.110  1.00  0.00     0.012 C 
HETATM   29  C29 UNL     1      14.910 -43.404   8.862  1.00  0.00    -0.002 C 
HETATM   30  C26 UNL     1      12.526 -42.785   9.550  1.00  0.00     0.032 C 
HETATM   31  C27 UNL     1      12.451 -43.848   8.469  1.00  0.00     0.118 C 
HETATM   32  C28 UNL     1      13.843 -44.184   8.090  1.00  0.00     0.037 C 
HETATM   33  C30 UNL     1      16.199 -43.998   8.524  1.00  0.00     0.025 C 
HETATM   34  C31 UNL     1      17.348 -43.089   8.229  1.00  0.00     0.083 C 
HETATM   35 CL1  UNL     1      18.719 -44.257   7.922  1.00  0.00    -0.125 Cl
HETATM   36  C32 UNL     1      17.743 -42.372   9.454  1.00  0.00     0.034 C 
HETATM   37  C34 UNL     1      17.589 -40.101   8.720  1.00  0.00     0.020 C 
BRANCH  31  38
HETATM   38  O6  UNL     1      11.751 -44.933   9.017  1.00  0.00    -0.396 OA
ATOM     39  H6  UNL     1      12.366 -45.656   9.072  1.00  0.00     0.210 HD
ENDBRANCH  31  38
ENDBRANCH   2  21
BRANCH   1  40
HETATM   40  O2  UNL     1      20.291 -41.401  11.798  1.00  0.00    -0.291 OA
BRANCH  40  41
HETATM   41  C2  UNL     1      21.072 -41.366  10.653  1.00  0.00     0.259 C 
HETATM   42  C1  UNL     1      21.095 -40.134   9.844  1.00  0.00     0.126 C 
HETATM   43  O1  UNL     1      21.730 -42.354  10.331  1.00  0.00    -0.265 OA
ENDBRANCH  40  41
ENDBRANCH   1  40
TORSDOF 11
ENDMDL
MODEL 3
REMARK VINA RESULT: -9.034593578      0.965      1.025
REMARK  11 active torsions:
REMARK  status: ('A' for Active; 'I' for Inactive)
REMARK    1  A    between atoms: C2_2  and  O2_4 
REMARK    2  A    between atoms: O2_4  and  C3_5 
REMARK    3  A    between atoms: C4_6  and  C5_7 
REMARK    4  A    between atoms: C4_6  and  C19_25 
REMARK    5  A    between atoms: C5_7  and  C6_8 
REMARK    6  A    between atoms: C6_8  and  C7_9 
REMARK    7  A    between atoms: C7_9  and  C8_10 
REMARK    8  A    between atoms: C8_10  and  C10_12 
REMARK    9  A    between atoms: C13_15  and  C15_17 
REMARK   10  A    between atoms: C16_20  and  O5_21 
REMARK   11  A    between atoms: C27_33  and  O6_34 
ROOT
HETATM    1  C3  UNL     1      15.771 -40.640  10.309  1.00  0.00     0.153 C 
HETATM    2  C4  UNL     1      17.068 -40.093  10.004  1.00  0.00    -0.033 C 
ENDROOT
BRANCH   2   3
HETATM    3  C5  UNL     1      17.179 -38.568  10.132  1.00  0.00     0.041 C 
BRANCH   3   4
HETATM    4  C6  UNL     1      17.394 -37.940  11.407  1.00  0.00     0.005 C 
BRANCH   4   5
HETATM    5  C7  UNL     1      16.665 -38.013  12.654  1.00  0.00     0.005 C 
BRANCH   5   6
HETATM    6  C8  UNL     1      15.371 -37.341  12.832  1.00  0.00    -0.011 C 
HETATM    7  C9  UNL     1      14.972 -36.304  11.850  1.00  0.00     0.010 C 
BRANCH   6   8
HETATM    8  C10 UNL     1      14.276 -38.399  12.815  1.00  0.00     0.018 C 
HETATM    9  C11 UNL     1      14.239 -39.273  13.983  1.00  0.00    -0.024 C 
HETATM   10  C12 UNL     1      13.198 -40.122  14.052  1.00  0.00    -0.008 C 
HETATM   11  C13 UNL     1      12.144 -40.181  13.013  1.00  0.00     0.088 C 
HETATM   12  C14 UNL     1      12.521 -41.287  12.020  1.00  0.00     0.034 C 
HETATM   13  C16 UNL     1      11.979 -38.925  12.235  1.00  0.00     0.145 C 
HETATM   14  C17 UNL     1      12.898 -37.796  12.668  1.00  0.00     0.020 C 
HETATM   15  C18 UNL     1      12.476 -37.208  13.993  1.00  0.00     0.013 C 
BRANCH  11  16
HETATM   16  C15 UNL     1      10.841 -40.581  13.591  1.00  0.00     0.188 C 
HETATM   17  O3  UNL     1      10.118 -39.732  14.162  1.00  0.00    -0.647 OA
HETATM   18  O4  UNL     1      10.394 -41.887  13.518  1.00  0.00    -0.647 OA
ENDBRANCH  11  16
BRANCH  13  19
HETATM   19  O5  UNL     1      12.184 -39.110  10.868  1.00  0.00    -0.394 OA
ATOM     20  H5  UNL     1      11.430 -38.855  10.349  1.00  0.00     0.210 HD
ENDBRANCH  13  19
ENDBRANCH   6   8
ENDBRANCH   5   6
ENDBRANCH   4   5
ENDBRANCH   3   4
ENDBRANCH   2   3
BRANCH   2  21
HETATM   21  C19 UNL     1      17.951 -40.575   8.929  1.00  0.00    -0.063 C 
HETATM   22  C20 UNL     1      18.267 -39.503   7.906  1.00  0.00     0.036 C 
HETATM   23  C21 UNL     1      19.030 -40.481   6.945  1.00  0.00     0.011 C 
HETATM   24  C22 UNL     1      20.056 -40.873   7.995  1.00  0.00     0.007 C 
HETATM   25  C23 UNL     1      21.151 -41.550   7.357  1.00  0.00    -0.035 C 
HETATM   26  C33 UNL     1      19.197 -41.367   9.101  1.00  0.00    -0.014 C 
HETATM   27  C24 UNL     1      22.329 -41.973   8.181  1.00  0.00     0.016 C 
HETATM   28  C25 UNL     1      21.729 -40.527   6.352  1.00  0.00     0.012 C 
HETATM   29  C29 UNL     1      20.734 -42.731   6.527  1.00  0.00    -0.002 C 
HETATM   30  C26 UNL     1      21.620 -40.939   4.933  1.00  0.00     0.032 C 
HETATM   31  C27 UNL     1      22.367 -42.233   4.661  1.00  0.00     0.118 C 
HETATM   32  C28 UNL     1      21.835 -43.249   5.599  1.00  0.00     0.037 C 
HETATM   33  C30 UNL     1      20.184 -43.890   7.223  1.00  0.00     0.025 C 
HETATM   34  C31 UNL     1      19.922 -43.784   8.691  1.00  0.00     0.083 C 
HETATM   35 CL1  UNL     1      19.209 -45.416   9.094  1.00  0.00    -0.125 Cl
HETATM   36  C32 UNL     1      18.823 -42.832   8.932  1.00  0.00     0.034 C 
HETATM   37  C34 UNL     1      19.870 -41.302  10.442  1.00  0.00     0.020 C 
BRANCH  31  38
HETATM   38  O6  UNL     1      22.142 -42.553   3.314  1.00  0.00    -0.396 OA
ATOM     39  H6  UNL     1      22.422 -43.453   3.197  1.00  0.00     0.210 HD
ENDBRANCH  31  38
ENDBRANCH   2  21
BRANCH   1  40
HETATM   40  O2  UNL     1      15.536 -42.017  10.317  1.00  0.00    -0.291 OA
BRANCH  40  41
HETATM   41  C2  UNL     1      14.799 -42.708   9.367  1.00  0.00     0.259 C 
HETATM   42  C1  UNL     1      14.983 -42.372   7.943  1.00  0.00     0.126 C 
HETATM   43  O1  UNL     1      14.010 -43.582   9.722  1.00  0.00    -0.265 OA
ENDBRANCH  40  41
ENDBRANCH   1  40
TORSDOF 11
ENDMDL
MODEL 4
REMARK VINA RESULT: -8.960696461      2.445      3.637
REMARK  11 active torsions:
REMARK  status: ('A' for Active; 'I' for Inactive)
REMARK    1  A    between atoms: C2_2  and  O2_4 
REMARK    2  A    between atoms: O2_4  and  C3_5 
REMARK    3  A    between atoms: C4_6  and  C5_7 
REMARK    4  A    between atoms: C4_6  and  C19_25 
REMARK    5  A    between atoms: C5_7  and  C6_8 
REMARK    6  A    between atoms: C6_8  and  C7_9 
REMARK    7  A    between atoms: C7_9  and  C8_10 
REMARK    8  A    between atoms: C8_10  and  C10_12 
REMARK    9  A    between atoms: C13_15  and  C15_17 
REMARK   10  A    between atoms: C16_20  and  O5_21 
REMARK   11  A    between atoms: C27_33  and  O6_34 
ROOT
HETATM    1  C3  UNL     1      18.841 -40.462  12.120  1.00  0.00     0.153 C 
HETATM    2  C4  UNL     1      18.820 -40.208  10.702  1.00  0.00    -0.033 C 
ENDROOT
BRANCH   2   3
HETATM    3  C5  UNL     1      17.521 -39.589  10.170  1.00  0.00     0.041 C 
BRANCH   3   4
HETATM    4  C6  UNL     1      17.092 -38.282  10.587  1.00  0.00     0.005 C 
BRANCH   4   5
HETATM    5  C7  UNL     1      15.782 -37.669  10.648  1.00  0.00     0.005 C 
BRANCH   5   6
HETATM    6  C8  UNL     1      15.226 -37.163  11.910  1.00  0.00    -0.011 C 
HETATM    7  C9  UNL     1      15.062 -35.698  12.074  1.00  0.00     0.010 C 
BRANCH   6   8
HETATM    8  C10 UNL     1      13.846 -37.778  12.105  1.00  0.00     0.018 C 
HETATM    9  C11 UNL     1      13.624 -39.039  11.405  1.00  0.00    -0.024 C 
HETATM   10  C12 UNL     1      12.464 -39.666  11.673  1.00  0.00    -0.008 C 
HETATM   11  C13 UNL     1      11.461 -39.123  12.618  1.00  0.00     0.088 C 
HETATM   12  C14 UNL     1      10.431 -38.328  11.808  1.00  0.00     0.034 C 
HETATM   13  C16 UNL     1      12.021 -38.206  13.645  1.00  0.00     0.145 C 
HETATM   14  C17 UNL     1      13.525 -38.016  13.563  1.00  0.00     0.020 C 
HETATM   15  C18 UNL     1      14.270 -39.242  14.034  1.00  0.00     0.013 C 
BRANCH  11  16
HETATM   16  C15 UNL     1      10.705 -40.209  13.281  1.00  0.00     0.188 C 
HETATM   17  O3  UNL     1       9.871 -39.940  14.177  1.00  0.00    -0.647 OA
HETATM   18  O4  UNL     1      10.898 -41.534  12.935  1.00  0.00    -0.647 OA
ENDBRANCH  11  16
BRANCH  13  19
HETATM   19  O5  UNL     1      11.450 -36.934  13.597  1.00  0.00    -0.394 OA
ATOM     20  H5  UNL     1      11.908 -36.353  13.001  1.00  0.00     0.210 HD
ENDBRANCH  13  19
ENDBRANCH   6   8
ENDBRANCH   5   6
ENDBRANCH   4   5
ENDBRANCH   3   4
ENDBRANCH   2   3
BRANCH   2  21
HETATM   21  C19 UNL     1      19.414 -41.088   9.683  1.00  0.00    -0.063 C 
HETATM   22  C20 UNL     1      18.394 -41.602   8.686  1.00  0.00     0.036 C 
HETATM   23  C21 UNL     1      19.406 -42.564   7.970  1.00  0.00     0.011 C 
HETATM   24  C22 UNL     1      20.359 -41.443   7.591  1.00  0.00     0.007 C 
HETATM   25  C23 UNL     1      21.292 -41.927   6.611  1.00  0.00    -0.035 C 
HETATM   26  C33 UNL     1      20.657 -40.828   8.910  1.00  0.00    -0.014 C 
HETATM   27  C24 UNL     1      22.294 -40.978   6.025  1.00  0.00     0.016 C 
HETATM   28  C25 UNL     1      20.425 -42.365   5.409  1.00  0.00     0.012 C 
HETATM   29  C29 UNL     1      22.036 -43.160   7.038  1.00  0.00    -0.002 C 
HETATM   30  C26 UNL     1      20.496 -43.813   5.103  1.00  0.00     0.032 C 
HETATM   31  C27 UNL     1      21.909 -44.250   4.759  1.00  0.00     0.118 C 
HETATM   32  C28 UNL     1      22.776 -43.858   5.894  1.00  0.00     0.037 C 
HETATM   33  C30 UNL     1      22.981 -43.037   8.143  1.00  0.00     0.025 C 
HETATM   34  C31 UNL     1      23.044 -41.742   8.887  1.00  0.00     0.083 C 
HETATM   35 CL1  UNL     1      24.296 -42.075  10.174  1.00  0.00    -0.125 Cl
HETATM   36  C32 UNL     1      21.791 -41.536   9.635  1.00  0.00     0.034 C 
HETATM   37  C34 UNL     1      21.110 -39.400   8.803  1.00  0.00     0.020 C 
BRANCH  31  38
HETATM   38  O6  UNL     1      21.864 -45.637   4.553  1.00  0.00    -0.396 OA
ATOM     39  H6  UNL     1      22.750 -45.959   4.664  1.00  0.00     0.210 HD
ENDBRANCH  31  38
ENDBRANCH   2  21
BRANCH   1  40
HETATM   40  O2  UNL     1      19.982 -40.946  12.764  1.00  0.00    -0.291 OA
BRANCH  40  41
HETATM   41  C2  UNL     1      20.303 -40.726  14.095  1.00  0.00     0.259 C 
HETATM   42  C1  UNL     1      20.164 -39.364  14.644  1.00  0.00     0.126 C 
HETATM   43  O1  UNL     1      20.694 -41.659  14.793  1.00  0.00    -0.265 OA
ENDBRANCH  40  41
ENDBRANCH   1  40
TORSDOF 11
ENDMDL
MODEL 5
REMARK VINA RESULT: -8.898752084      2.588      4.410
REMARK  11 active torsions:
REMARK  status: ('A' for Active; 'I' for Inactive)
REMARK    1  A    between atoms: C2_2  and  O2_4 
REMARK    2  A    between atoms: O2_4  and  C3_5 
REMARK    3  A    between atoms: C4_6  and  C5_7 
REMARK    4  A    between atoms: C4_6  and  C19_25 
REMARK    5  A    between atoms: C5_7  and  C6_8 
REMARK    6  A    between atoms: C6_8  and  C7_9 
REMARK    7  A    between atoms: C7_9  and  C8_10 
REMARK    8  A    between atoms: C8_10  and  C10_12 
REMARK    9  A    between atoms: C13_15  and  C15_17 
REMARK   10  A    between atoms: C16_20  and  O5_21 
REMARK   11  A    between atoms: C27_33  and  O6_34 
ROOT
HETATM    1  C3  UNL     1      18.188 -38.887  12.999  1.00  0.00     0.153 C 
HETATM    2  C4  UNL     1      18.218 -39.216  11.597  1.00  0.00    -0.033 C 
ENDROOT
BRANCH   2   3
HETATM    3  C5  UNL     1      17.594 -38.168  10.666  1.00  0.00     0.041 C 
BRANCH   3   4
HETATM    4  C6  UNL     1      16.982 -36.977  11.189  1.00  0.00     0.005 C 
BRANCH   4   5
HETATM    5  C7  UNL     1      15.607 -36.527  11.209  1.00  0.00     0.005 C 
BRANCH   5   6
HETATM    6  C8  UNL     1      14.811 -36.535  12.444  1.00  0.00    -0.011 C 
HETATM    7  C9  UNL     1      14.099 -35.294  12.834  1.00  0.00     0.010 C 
BRANCH   6   8
HETATM    8  C10 UNL     1      13.752 -37.623  12.324  1.00  0.00     0.018 C 
HETATM    9  C11 UNL     1      13.954 -38.569  11.233  1.00  0.00    -0.024 C 
HETATM   10  C12 UNL     1      13.109 -39.615  11.193  1.00  0.00    -0.008 C 
HETATM   11  C13 UNL     1      12.030 -39.809  12.189  1.00  0.00     0.088 C 
HETATM   12  C14 UNL     1      10.744 -39.205  11.616  1.00  0.00     0.034 C 
HETATM   13  C16 UNL     1      12.282 -39.155  13.500  1.00  0.00     0.145 C 
HETATM   14  C17 UNL     1      13.614 -38.432  13.593  1.00  0.00     0.020 C 
HETATM   15  C18 UNL     1      14.769 -39.399  13.686  1.00  0.00     0.013 C 
BRANCH  11  16
HETATM   16  C15 UNL     1      11.746 -41.246  12.399  1.00  0.00     0.188 C 
HETATM   17  O3  UNL     1      11.914 -41.763  13.528  1.00  0.00    -0.647 OA
HETATM   18  O4  UNL     1      11.293 -42.047  11.367  1.00  0.00    -0.647 OA
ENDBRANCH  11  16
BRANCH  13  19
HETATM   19  O5  UNL     1      11.295 -38.227  13.833  1.00  0.00    -0.394 OA
ATOM     20  H5  UNL     1      11.323 -37.978  14.750  1.00  0.00     0.210 HD
ENDBRANCH  13  19
ENDBRANCH   6   8
ENDBRANCH   5   6
ENDBRANCH   4   5
ENDBRANCH   3   4
ENDBRANCH   2   3
BRANCH   2  21
HETATM   21  C19 UNL     1      18.011 -40.565  11.047  1.00  0.00    -0.063 C 
HETATM   22  C20 UNL     1      16.637 -40.744  10.433  1.00  0.00     0.036 C 
HETATM   23  C21 UNL     1      16.824 -42.279  10.171  1.00  0.00     0.011 C 
HETATM   24  C22 UNL     1      18.045 -42.081   9.288  1.00  0.00     0.007 C 
HETATM   25  C23 UNL     1      18.319 -43.302   8.581  1.00  0.00    -0.035 C 
HETATM   26  C33 UNL     1      18.955 -41.318  10.180  1.00  0.00    -0.014 C 
HETATM   27  C24 UNL     1      19.440 -43.334   7.586  1.00  0.00     0.016 C 
HETATM   28  C25 UNL     1      17.050 -43.578   7.742  1.00  0.00     0.012 C 
HETATM   29  C29 UNL     1      18.475 -44.499   9.474  1.00  0.00    -0.002 C 
HETATM   30  C26 UNL     1      16.338 -44.824   8.108  1.00  0.00     0.032 C 
HETATM   31  C27 UNL     1      17.213 -46.051   7.926  1.00  0.00     0.118 C 
HETATM   32  C28 UNL     1      18.441 -45.833   8.725  1.00  0.00     0.037 C 
HETATM   33  C30 UNL     1      19.632 -44.540  10.362  1.00  0.00     0.025 C 
HETATM   34  C31 UNL     1      20.508 -43.331  10.449  1.00  0.00     0.083 C 
HETATM   35 CL1  UNL     1      21.756 -43.823  11.688  1.00  0.00    -0.125 Cl
HETATM   36  C32 UNL     1      19.769 -42.227  11.088  1.00  0.00     0.034 C 
HETATM   37  C34 UNL     1      19.979 -40.519   9.427  1.00  0.00     0.020 C 
BRANCH  31  38
HETATM   38  O6  UNL     1      16.461 -47.152   8.359  1.00  0.00    -0.396 OA
ATOM     39  H6  UNL     1      17.052 -47.713   8.848  1.00  0.00     0.210 HD
ENDBRANCH  31  38
ENDBRANCH   2  21
BRANCH   1  40
HETATM   40  O2  UNL     1      18.788 -39.702  13.960  1.00  0.00    -0.291 OA
BRANCH  40  41
HETATM   41  C2  UNL     1      19.902 -39.362  14.714  1.00  0.00     0.259 C 
HETATM   42  C1  UNL     1      20.809 -40.433  15.165  1.00  0.00     0.126 C 
HETATM   43  O1  UNL     1      20.116 -38.183  14.992  1.00  0.00    -0.265 OA
ENDBRANCH  40  41
ENDBRANCH   1  40
TORSDOF 11
ENDMDL
