MODEL 1
REMARK VINA RESULT: -9.191083307      0.000      0.000
REMARK  14 active torsions:
REMARK  status: ('A' for Active; 'I' for Inactive)
REMARK    1  A    between atoms: C4_4  and  C5_5 
REMARK    2  A    between atoms: C10_10  and  C11_11 
REMARK    3  A    between atoms: C11_11  and  C12_12 
REMARK    4  A    between atoms: C12_12  and  C13_13 
REMARK    5  A    between atoms: C13_13  and  O1_14 
REMARK    6  A    between atoms: C13_13  and  C14_16 
REMARK    7  A    between atoms: C14_16  and  C15_17 
REMARK    8  A    between atoms: C15_17  and  C16_18 
REMARK    9  A    between atoms: C16_18  and  C17_19 
REMARK   10  A    between atoms: C18_20  and  C19_21 
REMARK   11  A    between atoms: C19_21  and  O2_22 
REMARK   12  A    between atoms: C19_21  and  C20_24 
REMARK   13  A    between atoms: C25_29  and  O3_30 
REMARK   14  A    between atoms: C35_41  and  C36_42 
REMARK       I    between atoms: C36_42  and  N1_44 
ROOT
HETATM    1  C14 UNL     1      16.468 -37.654  10.167  1.00  0.00     0.005 C 
ENDROOT
BRANCH   1   2
HETATM    2  C13 UNL     1      16.351 -36.626  11.171  1.00  0.00     0.151 C 
BRANCH   2   3
HETATM    3  C12 UNL     1      15.534 -36.883  12.424  1.00  0.00     0.116 C 
BRANCH   3   4
HETATM    4  C11 UNL     1      15.410 -38.022  12.868  1.00  0.00    -0.171 C 
BRANCH   4   5
HETATM    5  C10 UNL     1      15.245 -39.327  13.374  1.00  0.00     0.086 C 
HETATM    6  C9  UNL     1      13.986 -39.706  14.015  1.00  0.00    -0.052 C 
HETATM    7  C5  UNL     1      12.979 -39.883  12.983  1.00  0.00     0.031 C 
HETATM    8  C8  UNL     1      13.563 -40.074  15.235  1.00  0.00    -0.021 C 
HETATM    9  C6  UNL     1      12.155 -41.021  13.584  1.00  0.00     0.027 C 
HETATM   10  C35 UNL     1      13.839 -40.355  11.745  1.00  0.00     0.006 C 
HETATM   11  C7  UNL     1      12.178 -40.578  15.073  1.00  0.00     0.029 C 
HETATM   12  C34 UNL     1      15.252 -40.352  12.166  1.00  0.00     0.062 C 
BRANCH   7  13
HETATM   13  C4  UNL     1      12.123 -38.837  12.508  1.00  0.00    -0.006 C 
HETATM   14  C2  UNL     1      11.748 -37.614  12.591  1.00  0.00    -0.090 C 
HETATM   15  C1  UNL     1      10.579 -37.337  11.549  1.00  0.00     0.042 C 
HETATM   16  C3  UNL     1      12.033 -36.417  13.373  1.00  0.00     0.042 C 
ENDBRANCH   7  13
BRANCH  10  17
HETATM   17  C36 UNL     1      13.255 -41.391  10.985  1.00  0.00     0.246 C 
HETATM   18  O4  UNL     1      12.616 -42.342  11.312  1.00  0.00    -0.268 OA
HETATM   19  N1  UNL     1      13.485 -41.288   9.497  1.00  0.00    -0.357 N 
HETATM   20  C37 UNL     1      14.304 -40.246   8.953  1.00  0.00     0.152 C 
HETATM   21  C38 UNL     1      12.808 -42.290   8.717  1.00  0.00     0.152 C 
ENDBRANCH  10  17
ENDBRANCH   4   5
ENDBRANCH   3   4
ENDBRANCH   2   3
BRANCH   2  22
HETATM   22  O1  UNL     1      15.822 -35.427  10.592  1.00  0.00    -0.391 OA
ATOM     23  H1  UNL     1      15.726 -34.810  11.308  1.00  0.00     0.210 HD
ENDBRANCH   2  22
ENDBRANCH   1   2
BRANCH   1  24
HETATM   24  C15 UNL     1      17.727 -38.224   9.916  1.00  0.00    -0.005 C 
BRANCH  24  25
HETATM   25  C16 UNL     1      17.852 -39.558   9.565  1.00  0.00    -0.017 C 
BRANCH  25  26
HETATM   26  C17 UNL     1      18.093 -40.850  10.066  1.00  0.00     0.045 C 
HETATM   27  C18 UNL     1      19.124 -41.489  10.752  1.00  0.00    -0.033 C 
HETATM   28  C26 UNL     1      19.799 -42.419   9.696  1.00  0.00     0.027 C 
HETATM   29  C27 UNL     1      18.966 -43.767   9.701  1.00  0.00     0.010 C 
HETATM   30  C30 UNL     1      19.269 -41.902   8.390  1.00  0.00    -0.025 A 
HETATM   31  C28 UNL     1      17.608 -43.153   9.389  1.00  0.00     0.007 C 
HETATM   32  C29 UNL     1      17.873 -41.816   8.811  1.00  0.00     0.007 C 
HETATM   33  C31 UNL     1      19.647 -42.477   7.082  1.00  0.00     0.016 A 
HETATM   34  C32 UNL     1      20.008 -41.052   7.499  1.00  0.00    -0.008 A 
HETATM   35  C33 UNL     1      21.439 -40.767   7.695  1.00  0.00     0.011 C 
BRANCH  27  36
HETATM   36  C19 UNL     1      20.106 -41.337  11.810  1.00  0.00     0.082 C 
BRANCH  36  37
HETATM   37  O2  UNL     1      21.441 -41.343  11.510  1.00  0.00    -0.359 OA
ATOM     38  H2  UNL     1      21.810 -42.053  10.999  1.00  0.00     0.217 HD
ENDBRANCH  36  37
BRANCH  36  39
HETATM   39  C20 UNL     1      19.731 -40.434  12.934  1.00  0.00     0.030 A 
HETATM   40  C21 UNL     1      18.994 -39.319  12.839  1.00  0.00     0.017 A 
HETATM   41  C22 UNL     1      18.687 -38.509  13.919  1.00  0.00     0.001 A 
HETATM   42  C23 UNL     1      19.122 -38.781  15.172  1.00  0.00     0.003 A 
HETATM   43  C24 UNL     1      19.928 -39.948  15.314  1.00  0.00     0.037 A 
HETATM   44  C25 UNL     1      20.243 -40.762  14.263  1.00  0.00     0.078 A 
BRANCH  44  45
HETATM   45  O3  UNL     1      20.988 -41.861  14.445  1.00  0.00    -0.360 OA
ATOM     46  H3  UNL     1      21.843 -41.796  14.855  1.00  0.00     0.217 HD
ENDBRANCH  44  45
ENDBRANCH  36  39
ENDBRANCH  27  36
ENDBRANCH  25  26
ENDBRANCH  24  25
ENDBRANCH   1  24
TORSDOF 14
ENDMDL
MODEL 2
REMARK VINA RESULT: -9.036557781      2.880      6.046
REMARK  14 active torsions:
REMARK  status: ('A' for Active; 'I' for Inactive)
REMARK    1  A    between atoms: C4_4  and  C5_5 
REMARK    2  A    between atoms: C10_10  and  C11_11 
REMARK    3  A    between atoms: C11_11  and  C12_12 
REMARK    4  A    between atoms: C12_12  and  C13_13 
REMARK    5  A    between atoms: C13_13  and  O1_14 
REMARK    6  A    between atoms: C13_13  and  C14_16 
REMARK    7  A    between atoms: C14_16  and  C15_17 
REMARK    8  A    between atoms: C15_17  and  C16_18 
REMARK    9  A    between atoms: C16_18  and  C17_19 
REMARK   10  A    between atoms: C18_20  and  C19_21 
REMARK   11  A    between atoms: C19_21  and  O2_22 
REMARK   12  A    between atoms: C19_21  and  C20_24 
REMARK   13  A    between atoms: C25_29  and  O3_30 
REMARK   14  A    between atoms: C35_41  and  C36_42 
REMARK       I    between atoms: C36_42  and  N1_44 
ROOT
HETATM    1  C14 UNL     1      19.235 -40.329   7.876  1.00  0.00     0.005 C 
ENDROOT
BRANCH   1   2
HETATM    2  C13 UNL     1      18.100 -39.472   7.640  1.00  0.00     0.151 C 
BRANCH   2   3
HETATM    3  C12 UNL     1      16.942 -39.465   8.621  1.00  0.00     0.116 C 
BRANCH   3   4
HETATM    4  C11 UNL     1      17.075 -39.927   9.752  1.00  0.00    -0.171 C 
BRANCH   4   5
HETATM    5  C10 UNL     1      17.250 -40.449  11.049  1.00  0.00     0.086 C 
HETATM    6  C9  UNL     1      17.742 -39.585  12.122  1.00  0.00    -0.052 C 
HETATM    7  C5  UNL     1      16.668 -38.696  12.527  1.00  0.00     0.031 C 
HETATM    8  C8  UNL     1      18.826 -39.499  12.911  1.00  0.00    -0.021 C 
HETATM    9  C6  UNL     1      16.953 -38.569  14.023  1.00  0.00     0.027 C 
HETATM   10  C35 UNL     1      15.380 -39.563  12.234  1.00  0.00     0.006 C 
HETATM   11  C7  UNL     1      18.505 -38.512  13.970  1.00  0.00     0.029 C 
HETATM   12  C34 UNL     1      15.832 -40.835  11.643  1.00  0.00     0.062 C 
BRANCH   7  13
HETATM   13  C4  UNL     1      16.430 -37.406  11.948  1.00  0.00    -0.006 C 
HETATM   14  C2  UNL     1      15.711 -36.346  11.907  1.00  0.00    -0.090 C 
HETATM   15  C1  UNL     1      16.277 -35.355  10.799  1.00  0.00     0.042 C 
HETATM   16  C3  UNL     1      14.514 -35.793  12.528  1.00  0.00     0.042 C 
ENDBRANCH   7  13
BRANCH  10  17
HETATM   17  C36 UNL     1      14.376 -39.475  13.222  1.00  0.00     0.246 C 
HETATM   18  O4  UNL     1      14.412 -39.666  14.398  1.00  0.00    -0.268 OA
HETATM   19  N1  UNL     1      13.013 -39.085  12.706  1.00  0.00    -0.357 N 
HETATM   20  C37 UNL     1      12.787 -38.903  11.303  1.00  0.00     0.152 C 
HETATM   21  C38 UNL     1      12.016 -38.904  13.727  1.00  0.00     0.152 C 
ENDBRANCH  10  17
ENDBRANCH   4   5
ENDBRANCH   3   4
ENDBRANCH   2   3
BRANCH   2  22
HETATM   22  O1  UNL     1      17.531 -39.747   6.355  1.00  0.00    -0.391 OA
ATOM     23  H1  UNL     1      18.091 -39.315   5.721  1.00  0.00     0.210 HD
ENDBRANCH   2  22
ENDBRANCH   1   2
BRANCH   1  24
HETATM   24  C15 UNL     1      20.475 -39.749   8.192  1.00  0.00    -0.005 C 
BRANCH  24  25
HETATM   25  C16 UNL     1      21.656 -40.460   8.048  1.00  0.00    -0.017 C 
BRANCH  25  26
HETATM   26  C17 UNL     1      22.194 -41.730   7.777  1.00  0.00     0.045 C 
HETATM   27  C18 UNL     1      21.712 -42.950   7.303  1.00  0.00    -0.033 C 
HETATM   28  C26 UNL     1      21.679 -43.886   8.552  1.00  0.00     0.027 C 
HETATM   29  C27 UNL     1      23.131 -44.511   8.669  1.00  0.00     0.010 C 
HETATM   30  C30 UNL     1      21.816 -42.933   9.703  1.00  0.00    -0.025 A 
HETATM   31  C28 UNL     1      23.899 -43.198   8.747  1.00  0.00     0.007 C 
HETATM   32  C29 UNL     1      22.918 -42.159   9.137  1.00  0.00     0.007 C 
HETATM   33  C31 UNL     1      21.825 -43.371  11.115  1.00  0.00     0.016 A 
HETATM   34  C32 UNL     1      20.720 -42.496  10.523  1.00  0.00    -0.008 A 
HETATM   35  C33 UNL     1      19.382 -43.102  10.430  1.00  0.00     0.011 C 
BRANCH  27  36
HETATM   36  C19 UNL     1      20.822 -43.569   6.338  1.00  0.00     0.082 C 
BRANCH  36  37
HETATM   37  O2  UNL     1      19.736 -44.281   6.768  1.00  0.00    -0.359 OA
ATOM     38  H2  UNL     1      18.950 -43.827   7.047  1.00  0.00     0.217 HD
ENDBRANCH  36  37
BRANCH  36  39
HETATM   39  C20 UNL     1      20.606 -42.825   5.066  1.00  0.00     0.030 A 
HETATM   40  C21 UNL     1      20.669 -41.495   4.908  1.00  0.00     0.017 A 
HETATM   41  C22 UNL     1      20.446 -40.856   3.701  1.00  0.00     0.001 A 
HETATM   42  C23 UNL     1      20.135 -41.533   2.571  1.00  0.00     0.003 A 
HETATM   43  C24 UNL     1      20.038 -42.950   2.699  1.00  0.00     0.037 A 
HETATM   44  C25 UNL     1      20.254 -43.603   3.880  1.00  0.00     0.078 A 
BRANCH  44  45
HETATM   45  O3  UNL     1      20.171 -44.938   3.951  1.00  0.00    -0.360 OA
ATOM     46  H3  UNL     1      19.667 -45.421   3.306  1.00  0.00     0.217 HD
ENDBRANCH  44  45
ENDBRANCH  36  39
ENDBRANCH  27  36
ENDBRANCH  25  26
ENDBRANCH  24  25
ENDBRANCH   1  24
TORSDOF 14
ENDMDL
MODEL 3
REMARK VINA RESULT: -8.997138514      2.318      7.839
REMARK  14 active torsions:
REMARK  status: ('A' for Active; 'I' for Inactive)
REMARK    1  A    between atoms: C4_4  and  C5_5 
REMARK    2  A    between atoms: C10_10  and  C11_11 
REMARK    3  A    between atoms: C11_11  and  C12_12 
REMARK    4  A    between atoms: C12_12  and  C13_13 
REMARK    5  A    between atoms: C13_13  and  O1_14 
REMARK    6  A    between atoms: C13_13  and  C14_16 
REMARK    7  A    between atoms: C14_16  and  C15_17 
REMARK    8  A    between atoms: C15_17  and  C16_18 
REMARK    9  A    between atoms: C16_18  and  C17_19 
REMARK   10  A    between atoms: C18_20  and  C19_21 
REMARK   11  A    between atoms: C19_21  and  O2_22 
REMARK   12  A    between atoms: C19_21  and  C20_24 
REMARK   13  A    between atoms: C25_29  and  O3_30 
REMARK   14  A    between atoms: C35_41  and  C36_42 
REMARK       I    between atoms: C36_42  and  N1_44 
ROOT
HETATM    1  C14 UNL     1      14.823 -42.454   9.647  1.00  0.00     0.005 C 
ENDROOT
BRANCH   1   2
HETATM    2  C13 UNL     1      14.788 -42.233   8.223  1.00  0.00     0.151 C 
BRANCH   2   3
HETATM    3  C12 UNL     1      15.487 -41.023   7.629  1.00  0.00     0.116 C 
BRANCH   3   4
HETATM    4  C11 UNL     1      16.155 -40.275   8.338  1.00  0.00    -0.171 C 
BRANCH   4   5
HETATM    5  C10 UNL     1      16.940 -39.429   9.147  1.00  0.00     0.086 C 
HETATM    6  C9  UNL     1      17.543 -39.949  10.374  1.00  0.00    -0.052 C 
HETATM    7  C5  UNL     1      18.667 -40.795  10.012  1.00  0.00     0.031 C 
HETATM    8  C8  UNL     1      17.442 -39.740  11.697  1.00  0.00    -0.021 C 
HETATM    9  C6  UNL     1      19.619 -40.514  11.174  1.00  0.00     0.027 C 
HETATM   10  C35 UNL     1      19.163 -40.143   8.661  1.00  0.00     0.006 C 
HETATM   11  C7  UNL     1      18.580 -40.451  12.329  1.00  0.00     0.029 C 
HETATM   12  C34 UNL     1      18.250 -39.028   8.351  1.00  0.00     0.062 C 
BRANCH   7  13
HETATM   13  C4  UNL     1      18.567 -42.204   9.771  1.00  0.00    -0.006 C 
HETATM   14  C2  UNL     1      19.128 -43.356   9.797  1.00  0.00    -0.090 C 
HETATM   15  C1  UNL     1      18.119 -44.458   9.253  1.00  0.00     0.042 C 
HETATM   16  C3  UNL     1      20.415 -43.956  10.128  1.00  0.00     0.042 C 
ENDBRANCH   7  13
BRANCH  10  17
HETATM   17  C36 UNL     1      20.566 -40.062   8.528  1.00  0.00     0.246 C 
HETATM   18  O4  UNL     1      21.370 -39.379   9.082  1.00  0.00    -0.268 OA
HETATM   19  N1  UNL     1      21.157 -40.991   7.496  1.00  0.00    -0.357 N 
HETATM   20  C37 UNL     1      20.312 -41.817   6.685  1.00  0.00     0.152 C 
HETATM   21  C38 UNL     1      22.594 -40.975   7.432  1.00  0.00     0.152 C 
ENDBRANCH  10  17
ENDBRANCH   4   5
ENDBRANCH   3   4
ENDBRANCH   2   3
BRANCH   2  22
HETATM   22  O1  UNL     1      13.433 -42.174   7.764  1.00  0.00    -0.391 OA
ATOM     23  H1  UNL     1      12.992 -41.547   8.326  1.00  0.00     0.210 HD
ENDBRANCH   2  22
ENDBRANCH   1   2
BRANCH   1  24
HETATM   24  C15 UNL     1      13.657 -42.238  10.401  1.00  0.00    -0.005 C 
BRANCH  24  25
HETATM   25  C16 UNL     1      13.566 -41.179  11.290  1.00  0.00    -0.017 C 
BRANCH  25  26
HETATM   26  C17 UNL     1      13.012 -39.902  11.486  1.00  0.00     0.045 C 
HETATM   27  C18 UNL     1      13.232 -38.828  12.348  1.00  0.00    -0.033 C 
HETATM   28  C26 UNL     1      12.027 -38.851  13.341  1.00  0.00     0.027 C 
HETATM   29  C27 UNL     1      10.863 -38.040  12.636  1.00  0.00     0.010 C 
HETATM   30  C30 UNL     1      11.431 -40.212  13.131  1.00  0.00    -0.025 A 
HETATM   31  C28 UNL     1      10.792 -38.874  11.363  1.00  0.00     0.007 C 
HETATM   32  C29 UNL     1      11.445 -40.167  11.671  1.00  0.00     0.007 C 
HETATM   33  C31 UNL     1      10.251 -40.699  13.876  1.00  0.00     0.016 A 
HETATM   34  C32 UNL     1      11.638 -41.328  14.011  1.00  0.00    -0.008 A 
HETATM   35  C33 UNL     1      12.301 -41.183  15.317  1.00  0.00     0.011 C 
BRANCH  27  36
HETATM   36  C19 UNL     1      14.256 -38.039  13.008  1.00  0.00     0.082 C 
BRANCH  36  37
HETATM   37  O2  UNL     1      15.212 -38.657  13.767  1.00  0.00    -0.359 OA
ATOM     38  H2  UNL     1      15.768 -38.143  14.342  1.00  0.00     0.217 HD
ENDBRANCH  36  37
BRANCH  36  39
HETATM   39  C20 UNL     1      14.735 -36.833  12.276  1.00  0.00     0.030 A 
HETATM   40  C21 UNL     1      15.738 -36.795  11.388  1.00  0.00     0.017 A 
HETATM   41  C22 UNL     1      16.148 -35.639  10.747  1.00  0.00     0.001 A 
HETATM   42  C23 UNL     1      15.565 -34.439  10.976  1.00  0.00     0.003 A 
HETATM   43  C24 UNL     1      14.506 -34.431  11.931  1.00  0.00     0.037 A 
HETATM   44  C25 UNL     1      14.084 -35.560  12.575  1.00  0.00     0.078 A 
BRANCH  44  45
HETATM   45  O3  UNL     1      13.071 -35.510  13.452  1.00  0.00    -0.360 OA
ATOM     46  H3  UNL     1      12.303 -34.983  13.265  1.00  0.00     0.217 HD
ENDBRANCH  44  45
ENDBRANCH  36  39
ENDBRANCH  27  36
ENDBRANCH  25  26
ENDBRANCH  24  25
ENDBRANCH   1  24
TORSDOF 14
ENDMDL
MODEL 4
REMARK VINA RESULT: -8.900026307      2.779      8.193
REMARK  14 active torsions:
REMARK  status: ('A' for Active; 'I' for Inactive)
REMARK    1  A    between atoms: C4_4  and  C5_5 
REMARK    2  A    between atoms: C10_10  and  C11_11 
REMARK    3  A    between atoms: C11_11  and  C12_12 
REMARK    4  A    between atoms: C12_12  and  C13_13 
REMARK    5  A    between atoms: C13_13  and  O1_14 
REMARK    6  A    between atoms: C13_13  and  C14_16 
REMARK    7  A    between atoms: C14_16  and  C15_17 
REMARK    8  A    between atoms: C15_17  and  C16_18 
REMARK    9  A    between atoms: C16_18  and  C17_19 
REMARK   10  A    between atoms: C18_20  and  C19_21 
REMARK   11  A    between atoms: C19_21  and  O2_22 
REMARK   12  A    between atoms: C19_21  and  C20_24 
REMARK   13  A    between atoms: C25_29  and  O3_30 
REMARK   14  A    between atoms: C35_41  and  C36_42 
REMARK       I    between atoms: C36_42  and  N1_44 
ROOT
HETATM    1  C14 UNL     1      19.184 -39.466  14.629  1.00  0.00     0.005 C 
ENDROOT
BRANCH   1   2
HETATM    2  C13 UNL     1      20.438 -40.048  14.220  1.00  0.00     0.151 C 
BRANCH   2   3
HETATM    3  C12 UNL     1      20.454 -41.402  13.534  1.00  0.00     0.116 C 
BRANCH   3   4
HETATM    4  C11 UNL     1      20.411 -41.484  12.309  1.00  0.00    -0.171 C 
BRANCH   4   5
HETATM    5  C10 UNL     1      20.364 -41.556  10.902  1.00  0.00     0.086 C 
HETATM    6  C9  UNL     1      21.531 -42.027  10.157  1.00  0.00    -0.052 C 
HETATM    7  C5  UNL     1      21.629 -43.467  10.316  1.00  0.00     0.031 C 
HETATM    8  C8  UNL     1      22.411 -41.531   9.271  1.00  0.00    -0.021 C 
HETATM    9  C6  UNL     1      22.183 -43.866   8.949  1.00  0.00     0.027 C 
HETATM   10  C35 UNL     1      20.118 -43.893  10.497  1.00  0.00     0.006 C 
HETATM   11  C7  UNL     1      23.171 -42.686   8.733  1.00  0.00     0.029 C 
HETATM   12  C34 UNL     1      19.309 -42.661  10.479  1.00  0.00     0.062 C 
BRANCH   7  13
HETATM   13  C4  UNL     1      22.362 -44.112  11.365  1.00  0.00    -0.006 C 
HETATM   14  C2  UNL     1      23.496 -44.481  11.835  1.00  0.00    -0.090 C 
HETATM   15  C1  UNL     1      23.285 -45.244  13.213  1.00  0.00     0.042 C 
HETATM   16  C3  UNL     1      24.907 -44.455  11.471  1.00  0.00     0.042 C 
ENDBRANCH   7  13
BRANCH  10  17
HETATM   17  C36 UNL     1      19.755 -45.074   9.815  1.00  0.00     0.246 C 
HETATM   18  O4  UNL     1      19.474 -45.267   8.673  1.00  0.00    -0.268 OA
HETATM   19  N1  UNL     1      19.697 -46.310  10.678  1.00  0.00    -0.357 N 
HETATM   20  C37 UNL     1      19.927 -46.228  12.090  1.00  0.00     0.152 C 
HETATM   21  C38 UNL     1      19.421 -47.527   9.962  1.00  0.00     0.152 C 
ENDBRANCH  10  17
ENDBRANCH   4   5
ENDBRANCH   3   4
ENDBRANCH   2   3
BRANCH   2  22
HETATM   22  O1  UNL     1      21.320 -40.161  15.342  1.00  0.00    -0.391 OA
ATOM     23  H1  UNL     1      20.796 -39.965  16.110  1.00  0.00     0.210 HD
ENDBRANCH   2  22
ENDBRANCH   1   2
BRANCH   1  24
HETATM   24  C15 UNL     1      18.435 -38.730  13.695  1.00  0.00    -0.005 C 
BRANCH  24  25
HETATM   25  C16 UNL     1      17.748 -39.363  12.672  1.00  0.00    -0.017 C 
BRANCH  25  26
HETATM   26  C17 UNL     1      16.475 -39.773  12.239  1.00  0.00     0.045 C 
HETATM   27  C18 UNL     1      15.787 -39.817  11.027  1.00  0.00    -0.033 C 
HETATM   28  C26 UNL     1      14.732 -38.670  11.117  1.00  0.00     0.027 C 
HETATM   29  C27 UNL     1      13.471 -39.291  11.850  1.00  0.00     0.010 C 
HETATM   30  C30 UNL     1      15.210 -37.850  12.280  1.00  0.00    -0.025 A 
HETATM   31  C28 UNL     1      14.188 -39.741  13.116  1.00  0.00     0.007 C 
HETATM   32  C29 UNL     1      15.454 -38.976  13.177  1.00  0.00     0.007 C 
HETATM   33  C31 UNL     1      14.519 -36.629  12.744  1.00  0.00     0.016 A 
HETATM   34  C32 UNL     1      15.929 -36.612  12.153  1.00  0.00    -0.008 A 
HETATM   35  C33 UNL     1      16.090 -35.930  10.858  1.00  0.00     0.011 C 
BRANCH  27  36
HETATM   36  C19 UNL     1      15.914 -40.107   9.611  1.00  0.00     0.082 C 
BRANCH  36  37
HETATM   37  O2  UNL     1      14.878 -39.834   8.760  1.00  0.00    -0.359 OA
ATOM     38  H2  UNL     1      14.128 -40.416   8.723  1.00  0.00     0.217 HD
ENDBRANCH  36  37
BRANCH  36  39
HETATM   39  C20 UNL     1      17.267 -39.912   9.016  1.00  0.00     0.030 A 
HETATM   40  C21 UNL     1      18.145 -38.955   9.347  1.00  0.00     0.017 A 
HETATM   41  C22 UNL     1      19.386 -38.814   8.750  1.00  0.00     0.001 A 
HETATM   42  C23 UNL     1      19.811 -39.639   7.765  1.00  0.00     0.003 A 
HETATM   43  C24 UNL     1      18.898 -40.660   7.367  1.00  0.00     0.037 A 
HETATM   44  C25 UNL     1      17.669 -40.818   7.943  1.00  0.00     0.078 A 
BRANCH  44  45
HETATM   45  O3  UNL     1      16.850 -41.803   7.551  1.00  0.00    -0.360 OA
ATOM     46  H3  UNL     1      16.803 -42.050   6.634  1.00  0.00     0.217 HD
ENDBRANCH  44  45
ENDBRANCH  36  39
ENDBRANCH  27  36
ENDBRANCH  25  26
ENDBRANCH  24  25
ENDBRANCH   1  24
TORSDOF 14
ENDMDL
MODEL 5
REMARK VINA RESULT: -8.841853073      2.757      8.117
REMARK  14 active torsions:
REMARK  status: ('A' for Active; 'I' for Inactive)
REMARK    1  A    between atoms: C4_4  and  C5_5 
REMARK    2  A    between atoms: C10_10  and  C11_11 
REMARK    3  A    between atoms: C11_11  and  C12_12 
REMARK    4  A    between atoms: C12_12  and  C13_13 
REMARK    5  A    between atoms: C13_13  and  O1_14 
REMARK    6  A    between atoms: C13_13  and  C14_16 
REMARK    7  A    between atoms: C14_16  and  C15_17 
REMARK    8  A    between atoms: C15_17  and  C16_18 
REMARK    9  A    between atoms: C16_18  and  C17_19 
REMARK   10  A    between atoms: C18_20  and  C19_21 
REMARK   11  A    between atoms: C19_21  and  O2_22 
REMARK   12  A    between atoms: C19_21  and  C20_24 
REMARK   13  A    between atoms: C25_29  and  O3_30 
REMARK   14  A    between atoms: C35_41  and  C36_42 
REMARK       I    between atoms: C36_42  and  N1_44 
ROOT
HETATM    1  C14 UNL     1      14.682 -40.987   7.840  1.00  0.00     0.005 C 
ENDROOT
BRANCH   1   2
HETATM    2  C13 UNL     1      15.346 -42.252   8.028  1.00  0.00     0.151 C 
BRANCH   2   3
HETATM    3  C12 UNL     1      16.835 -42.287   8.326  1.00  0.00     0.116 C 
BRANCH   3   4
HETATM    4  C11 UNL     1      17.554 -41.334   8.037  1.00  0.00    -0.171 C 
BRANCH   4   5
HETATM    5  C10 UNL     1      18.396 -40.255   7.702  1.00  0.00     0.086 C 
HETATM    6  C9  UNL     1      19.674 -40.086   8.395  1.00  0.00    -0.052 C 
HETATM    7  C5  UNL     1      20.604 -41.083   7.897  1.00  0.00     0.031 C 
HETATM    8  C8  UNL     1      20.246 -39.194   9.221  1.00  0.00    -0.021 C 
HETATM    9  C6  UNL     1      21.917 -40.304   7.963  1.00  0.00     0.027 C 
HETATM   10  C35 UNL     1      20.109 -41.299   6.413  1.00  0.00     0.006 C 
HETATM   11  C7  UNL     1      21.684 -39.548   9.300  1.00  0.00     0.029 C 
HETATM   12  C34 UNL     1      18.919 -40.452   6.219  1.00  0.00     0.062 C 
BRANCH   7  13
HETATM   13  C4  UNL     1      20.763 -42.389   8.467  1.00  0.00    -0.006 C 
HETATM   14  C2  UNL     1      20.673 -43.147   9.496  1.00  0.00    -0.090 C 
HETATM   15  C1  UNL     1      21.150 -44.618   9.125  1.00  0.00     0.042 C 
HETATM   16  C3  UNL     1      20.312 -43.064  10.906  1.00  0.00     0.042 C 
ENDBRANCH   7  13
BRANCH  10  17
HETATM   17  C36 UNL     1      21.144 -41.419   5.460  1.00  0.00     0.246 C 
HETATM   18  O4  UNL     1      21.863 -40.602   4.974  1.00  0.00    -0.268 OA
HETATM   19  N1  UNL     1      21.378 -42.821   4.954  1.00  0.00    -0.357 N 
HETATM   20  C37 UNL     1      20.539 -43.902   5.379  1.00  0.00     0.152 C 
HETATM   21  C38 UNL     1      22.495 -42.954   4.057  1.00  0.00     0.152 C 
ENDBRANCH  10  17
ENDBRANCH   4   5
ENDBRANCH   3   4
ENDBRANCH   2   3
BRANCH   2  22
HETATM   22  O1  UNL     1      15.152 -43.088   6.882  1.00  0.00    -0.391 OA
ATOM     23  H1  UNL     1      15.332 -43.976   7.170  1.00  0.00     0.210 HD
ENDBRANCH   2  22
ENDBRANCH   1   2
BRANCH   1  24
HETATM   24  C15 UNL     1      14.034 -40.386   8.932  1.00  0.00    -0.005 C 
BRANCH  24  25
HETATM   25  C16 UNL     1      14.755 -39.777   9.946  1.00  0.00    -0.017 C 
BRANCH  25  26
HETATM   26  C17 UNL     1      15.431 -40.004  11.157  1.00  0.00     0.045 C 
HETATM   27  C18 UNL     1      15.194 -39.753  12.507  1.00  0.00    -0.033 C 
HETATM   28  C26 UNL     1      16.156 -38.582  12.879  1.00  0.00     0.027 C 
HETATM   29  C27 UNL     1      17.541 -39.254  13.253  1.00  0.00     0.010 C 
HETATM   30  C30 UNL     1      16.587 -38.050  11.542  1.00  0.00    -0.025 A 
HETATM   31  C28 UNL     1      17.752 -40.001  11.942  1.00  0.00     0.007 C 
HETATM   32  C29 UNL     1      16.875 -39.350  10.942  1.00  0.00     0.007 C 
HETATM   33  C31 UNL     1      17.510 -36.907  11.389  1.00  0.00     0.016 A 
HETATM   34  C32 UNL     1      16.051 -36.863  10.936  1.00  0.00    -0.008 A 
HETATM   35  C33 UNL     1      15.164 -35.943  11.665  1.00  0.00     0.011 C 
BRANCH  27  36
HETATM   36  C19 UNL     1      14.178 -39.755  13.544  1.00  0.00     0.082 C 
BRANCH  36  37
HETATM   37  O2  UNL     1      14.500 -39.377  14.819  1.00  0.00    -0.359 OA
ATOM     38  H2  UNL     1      14.097 -39.813  15.561  1.00  0.00     0.217 HD
ENDBRANCH  36  37
BRANCH  36  39
HETATM   39  C20 UNL     1      12.800 -39.376  13.120  1.00  0.00     0.030 A 
HETATM   40  C21 UNL     1      12.475 -38.354  12.317  1.00  0.00     0.017 A 
HETATM   41  C22 UNL     1      11.173 -38.040  11.966  1.00  0.00     0.001 A 
HETATM   42  C23 UNL     1      10.112 -38.748  12.420  1.00  0.00     0.003 A 
HETATM   43  C24 UNL     1      10.413 -39.833  13.295  1.00  0.00     0.037 A 
HETATM   44  C25 UNL     1      11.690 -40.161  13.654  1.00  0.00     0.078 A 
BRANCH  44  45
HETATM   45  O3  UNL     1      11.929 -41.201  14.465  1.00  0.00    -0.360 OA
ATOM     46  H3  UNL     1      11.240 -41.829  14.652  1.00  0.00     0.217 HD
ENDBRANCH  44  45
ENDBRANCH  36  39
ENDBRANCH  27  36
ENDBRANCH  25  26
ENDBRANCH  24  25
ENDBRANCH   1  24
TORSDOF 14
ENDMDL
