MODEL 1
REMARK VINA RESULT: -7.403061216      0.000      0.000
REMARK  12 active torsions:
REMARK  status: ('A' for Active; 'I' for Inactive)
REMARK    1  A    between atoms: C5_5  and  O1_6 
REMARK    2  A    between atoms: N1_21  and  N2_23 
REMARK    3  A    between atoms: N2_23  and  C18_25 
REMARK    4  A    between atoms: C18_25  and  N3_27 
REMARK    5  A    between atoms: N3_27  and  C19_29 
REMARK    6  A    between atoms: C19_29  and  C20_30 
REMARK    7  A    between atoms: C20_30  and  C21_31 
REMARK    8  A    between atoms: C21_31  and  C22_32 
REMARK    9  A    between atoms: C22_32  and  C23_33 
REMARK   10  A    between atoms: C23_33  and  C24_34 
REMARK   11  A    between atoms: C24_34  and  C25_35 
REMARK   12  A    between atoms: C25_35  and  C26_36 
ROOT
HETATM    1  C1  UNL     1      17.020 -39.432  12.799  1.00  0.00     0.016 C 
HETATM    2  C2  UNL     1      16.007 -39.819  11.748  1.00  0.00    -0.035 C 
HETATM    3  C3  UNL     1      16.521 -41.136  11.149  1.00  0.00     0.012 C 
HETATM    4  C4  UNL     1      17.862 -40.962  10.513  1.00  0.00     0.032 C 
HETATM    5  C5  UNL     1      18.052 -39.715   9.730  1.00  0.00     0.118 C 
HETATM    6  C6  UNL     1      17.416 -38.487  10.302  1.00  0.00     0.037 C 
HETATM    7  C7  UNL     1      15.963 -38.848  10.597  1.00  0.00     0.003 C 
HETATM    8  C8  UNL     1      15.087 -37.670  10.818  1.00  0.00     0.084 C 
HETATM    9  C9  UNL     1      14.591 -37.569  12.230  1.00  0.00     0.132 C 
HETATM   10  O2  UNL     1      14.435 -36.440  12.652  1.00  0.00    -0.298 OA
HETATM   11  C10 UNL     1      14.298 -38.715  13.085  1.00  0.00     0.069 C 
HETATM   12  C11 UNL     1      14.692 -40.039  12.416  1.00  0.00     0.006 C 
HETATM   13  C12 UNL     1      13.669 -40.533  11.461  1.00  0.00     0.007 C 
HETATM   14  C13 UNL     1      12.267 -40.505  11.928  1.00  0.00     0.011 C 
HETATM   15  C14 UNL     1      11.879 -39.359  12.788  1.00  0.00    -0.031 C 
HETATM   16  C15 UNL     1      11.272 -38.268  11.890  1.00  0.00     0.016 C 
HETATM   17  C16 UNL     1      10.698 -39.809  13.637  1.00  0.00     0.064 C 
HETATM   18  C17 UNL     1      11.089 -40.910  14.528  1.00  0.00     0.004 C 
HETATM   19  N1  UNL     1      10.222 -41.795  14.873  1.00  0.00    -0.307 N 
ATOM     20  H1  UNL     1      10.501 -42.556  15.491  1.00  0.00     0.186 HD
HETATM   21  C27 UNL     1      12.493 -40.929  14.991  1.00  0.00     0.055 C 
HETATM   22  C28 UNL     1      13.091 -39.548  15.002  1.00  0.00     0.016 C 
HETATM   23  C29 UNL     1      12.938 -38.810  13.682  1.00  0.00    -0.025 C 
HETATM   24  C30 UNL     1      12.488 -37.408  14.091  1.00  0.00     0.016 C 
ENDROOT
BRANCH  19  25
HETATM   25  N2  UNL     1       8.896 -41.727  14.412  1.00  0.00    -0.277 N 
ATOM     26  H2  UNL     1       8.542 -40.867  13.995  1.00  0.00     0.189 HD
BRANCH  25  27
HETATM   27  C18 UNL     1       8.063 -42.847  14.526  1.00  0.00     0.186 C 
HETATM   28  S1  UNL     1       7.085 -42.957  15.844  1.00  0.00    -0.040 SA
BRANCH  27  29
HETATM   29  N3  UNL     1       8.012 -43.884  13.578  1.00  0.00    -0.366 N 
ATOM     30  H3  UNL     1       7.223 -43.870  12.932  1.00  0.00     0.161 HD
BRANCH  29  31
HETATM   31  C19 UNL     1       8.947 -44.957  13.419  1.00  0.00     0.122 C 
BRANCH  31  32
HETATM   32  C20 UNL     1       9.869 -44.942  12.298  1.00  0.00     0.020 C 
BRANCH  32  33
HETATM   33  C21 UNL     1      11.042 -44.054  12.198  1.00  0.00     0.002 C 
BRANCH  33  34
HETATM   34  C22 UNL     1      11.871 -44.073  11.003  1.00  0.00     0.000 C 
BRANCH  34  35
HETATM   35  C23 UNL     1      11.628 -43.410   9.733  1.00  0.00     0.000 C 
BRANCH  35  36
HETATM   36  C24 UNL     1      12.731 -43.010   8.840  1.00  0.00     0.001 C 
BRANCH  36  37
HETATM   37  C25 UNL     1      14.111 -43.400   9.117  1.00  0.00     0.011 C 
BRANCH  37  38
HETATM   38  C26 UNL     1      15.071 -42.769   8.073  1.00  0.00     0.085 C 
HETATM   39 BR1  UNL     1      14.478 -40.966   7.715  1.00  0.00    -0.097 Br
ENDBRANCH  37  38
ENDBRANCH  36  37
ENDBRANCH  35  36
ENDBRANCH  34  35
ENDBRANCH  33  34
ENDBRANCH  32  33
ENDBRANCH  31  32
ENDBRANCH  29  31
ENDBRANCH  27  29
ENDBRANCH  25  27
ENDBRANCH  19  25
BRANCH   5  40
HETATM   40  O1  UNL     1      19.437 -39.453   9.630  1.00  0.00    -0.396 OA
ATOM     41  H1  UNL     1      19.883 -40.265   9.419  1.00  0.00     0.210 HD
ENDBRANCH   5  40
TORSDOF 12
ENDMDL
MODEL 2
REMARK VINA RESULT: -7.206125509      1.466      1.568
REMARK  12 active torsions:
REMARK  status: ('A' for Active; 'I' for Inactive)
REMARK    1  A    between atoms: C5_5  and  O1_6 
REMARK    2  A    between atoms: N1_21  and  N2_23 
REMARK    3  A    between atoms: N2_23  and  C18_25 
REMARK    4  A    between atoms: C18_25  and  N3_27 
REMARK    5  A    between atoms: N3_27  and  C19_29 
REMARK    6  A    between atoms: C19_29  and  C20_30 
REMARK    7  A    between atoms: C20_30  and  C21_31 
REMARK    8  A    between atoms: C21_31  and  C22_32 
REMARK    9  A    between atoms: C22_32  and  C23_33 
REMARK   10  A    between atoms: C23_33  and  C24_34 
REMARK   11  A    between atoms: C24_34  and  C25_35 
REMARK   12  A    between atoms: C25_35  and  C26_36 
ROOT
HETATM    1  C1  UNL     1      17.071 -39.443  12.826  1.00  0.00     0.016 C 
HETATM    2  C2  UNL     1      16.068 -39.770  11.746  1.00  0.00    -0.035 C 
HETATM    3  C3  UNL     1      16.534 -41.103  11.143  1.00  0.00     0.012 C 
HETATM    4  C4  UNL     1      17.898 -40.986  10.543  1.00  0.00     0.032 C 
HETATM    5  C5  UNL     1      18.166 -39.740   9.780  1.00  0.00     0.118 C 
HETATM    6  C6  UNL     1      17.575 -38.490  10.351  1.00  0.00     0.037 C 
HETATM    7  C7  UNL     1      16.099 -38.785  10.606  1.00  0.00     0.003 C 
HETATM    8  C8  UNL     1      15.274 -37.569  10.820  1.00  0.00     0.084 C 
HETATM    9  C9  UNL     1      14.748 -37.460  12.220  1.00  0.00     0.132 C 
HETATM   10  O2  UNL     1      14.635 -36.330  12.652  1.00  0.00    -0.298 OA
HETATM   11  C10 UNL     1      14.380 -38.601  13.054  1.00  0.00     0.069 C 
HETATM   12  C11 UNL     1      14.728 -39.934  12.379  1.00  0.00     0.006 C 
HETATM   13  C12 UNL     1      13.707 -40.369  11.392  1.00  0.00     0.007 C 
HETATM   14  C13 UNL     1      12.296 -40.279  11.825  1.00  0.00     0.011 C 
HETATM   15  C14 UNL     1      11.941 -39.126  12.688  1.00  0.00    -0.031 C 
HETATM   16  C15 UNL     1      11.409 -37.997  11.790  1.00  0.00     0.016 C 
HETATM   17  C16 UNL     1      10.719 -39.528  13.503  1.00  0.00     0.064 C 
HETATM   18  C17 UNL     1      11.035 -40.657  14.389  1.00  0.00     0.004 C 
HETATM   19  N1  UNL     1      10.118 -41.503  14.702  1.00  0.00    -0.307 N 
ATOM     20  H1  UNL     1      10.345 -42.284  15.317  1.00  0.00     0.186 HD
HETATM   21  C27 UNL     1      12.425 -40.748  14.887  1.00  0.00     0.055 C 
HETATM   22  C28 UNL     1      13.086 -39.397  14.930  1.00  0.00     0.016 C 
HETATM   23  C29 UNL     1      13.002 -38.638  13.616  1.00  0.00    -0.025 C 
HETATM   24  C30 UNL     1      12.609 -37.221  14.031  1.00  0.00     0.016 C 
ENDROOT
BRANCH  19  25
HETATM   25  N2  UNL     1       8.809 -41.368  14.208  1.00  0.00    -0.277 N 
ATOM     26  H2  UNL     1       8.583 -40.617  13.556  1.00  0.00     0.189 HD
BRANCH  25  27
HETATM   27  C18 UNL     1       7.817 -42.267  14.616  1.00  0.00     0.186 C 
HETATM   28  S1  UNL     1       6.958 -41.914  15.973  1.00  0.00    -0.040 SA
BRANCH  27  29
HETATM   29  N3  UNL     1       7.511 -43.456  13.932  1.00  0.00    -0.366 N 
ATOM     30  H3  UNL     1       6.647 -43.457  13.388  1.00  0.00     0.161 HD
BRANCH  29  31
HETATM   31  C19 UNL     1       8.277 -44.666  13.913  1.00  0.00     0.122 C 
BRANCH  31  32
HETATM   32  C20 UNL     1       9.166 -44.932  12.796  1.00  0.00     0.020 C 
BRANCH  32  33
HETATM   33  C21 UNL     1      10.636 -44.993  12.899  1.00  0.00     0.002 C 
BRANCH  33  34
HETATM   34  C22 UNL     1      11.449 -43.919  12.352  1.00  0.00     0.000 C 
BRANCH  34  35
HETATM   35  C23 UNL     1      12.086 -43.853  11.047  1.00  0.00     0.000 C 
BRANCH  35  36
HETATM   36  C24 UNL     1      11.436 -43.199   9.896  1.00  0.00     0.001 C 
BRANCH  36  37
HETATM   37  C25 UNL     1      11.423 -43.824   8.576  1.00  0.00     0.011 C 
BRANCH  37  38
HETATM   38  C26 UNL     1      11.507 -45.369   8.709  1.00  0.00     0.085 C 
HETATM   39 BR1  UNL     1       9.724 -46.049   9.008  1.00  0.00    -0.097 Br
ENDBRANCH  37  38
ENDBRANCH  36  37
ENDBRANCH  35  36
ENDBRANCH  34  35
ENDBRANCH  33  34
ENDBRANCH  32  33
ENDBRANCH  31  32
ENDBRANCH  29  31
ENDBRANCH  27  29
ENDBRANCH  25  27
ENDBRANCH  19  25
BRANCH   5  40
HETATM   40  O1  UNL     1      19.564 -39.544   9.718  1.00  0.00    -0.396 OA
ATOM     41  H1  UNL     1      19.952 -40.277   9.256  1.00  0.00     0.210 HD
ENDBRANCH   5  40
TORSDOF 12
ENDMDL
MODEL 3
REMARK VINA RESULT: -7.115543055      5.245      8.649
REMARK  12 active torsions:
REMARK  status: ('A' for Active; 'I' for Inactive)
REMARK    1  A    between atoms: C5_5  and  O1_6 
REMARK    2  A    between atoms: N1_21  and  N2_23 
REMARK    3  A    between atoms: N2_23  and  C18_25 
REMARK    4  A    between atoms: C18_25  and  N3_27 
REMARK    5  A    between atoms: N3_27  and  C19_29 
REMARK    6  A    between atoms: C19_29  and  C20_30 
REMARK    7  A    between atoms: C20_30  and  C21_31 
REMARK    8  A    between atoms: C21_31  and  C22_32 
REMARK    9  A    between atoms: C22_32  and  C23_33 
REMARK   10  A    between atoms: C23_33  and  C24_34 
REMARK   11  A    between atoms: C24_34  and  C25_35 
REMARK   12  A    between atoms: C25_35  and  C26_36 
ROOT
HETATM    1  C1  UNL     1      11.038 -43.221   8.351  1.00  0.00     0.016 C 
HETATM    2  C2  UNL     1      12.227 -43.863   9.026  1.00  0.00    -0.035 C 
HETATM    3  C3  UNL     1      12.398 -45.229   8.345  1.00  0.00     0.012 C 
HETATM    4  C4  UNL     1      11.190 -46.088   8.533  1.00  0.00     0.032 C 
HETATM    5  C5  UNL     1      10.569 -46.051   9.881  1.00  0.00     0.118 C 
HETATM    6  C6  UNL     1      10.549 -44.712  10.548  1.00  0.00     0.037 C 
HETATM    7  C7  UNL     1      11.975 -44.171  10.479  1.00  0.00     0.003 C 
HETATM    8  C8  UNL     1      12.231 -43.036  11.402  1.00  0.00     0.084 C 
HETATM    9  C9  UNL     1      12.478 -41.743  10.683  1.00  0.00     0.132 C 
HETATM   10  O2  UNL     1      12.086 -40.744  11.252  1.00  0.00    -0.298 OA
HETATM   11  C10 UNL     1      13.139 -41.635   9.387  1.00  0.00     0.069 C 
HETATM   12  C11 UNL     1      13.428 -43.013   8.778  1.00  0.00     0.006 C 
HETATM   13  C12 UNL     1      14.662 -43.639   9.317  1.00  0.00     0.007 C 
HETATM   14  C13 UNL     1      15.855 -42.771   9.399  1.00  0.00     0.011 C 
HETATM   15  C14 UNL     1      15.617 -41.350   9.756  1.00  0.00    -0.031 C 
HETATM   16  C15 UNL     1      15.791 -41.200  11.276  1.00  0.00     0.016 C 
HETATM   17  C16 UNL     1      16.776 -40.540   9.191  1.00  0.00     0.064 C 
HETATM   18  C17 UNL     1      16.802 -40.624   7.724  1.00  0.00     0.004 C 
HETATM   19  N1  UNL     1      17.922 -40.547   7.097  1.00  0.00    -0.307 N 
ATOM     20  H1  UNL     1      17.932 -40.607   6.079  1.00  0.00     0.186 HD
HETATM   21  C27 UNL     1      15.501 -40.790   7.041  1.00  0.00     0.055 C 
HETATM   22  C28 UNL     1      14.371 -40.227   7.860  1.00  0.00     0.016 C 
HETATM   23  C29 UNL     1      14.335 -40.753   9.286  1.00  0.00    -0.025 C 
HETATM   24  C30 UNL     1      14.090 -39.506  10.134  1.00  0.00     0.016 C 
ENDROOT
BRANCH  19  25
HETATM   25  N2  UNL     1      19.132 -40.382   7.793  1.00  0.00    -0.277 N 
ATOM     26  H2  UNL     1      19.237 -39.620   8.463  1.00  0.00     0.189 HD
BRANCH  25  27
HETATM   27  C18 UNL     1      20.192 -41.267   7.562  1.00  0.00     0.186 C 
HETATM   28  S1  UNL     1      21.032 -41.124   6.156  1.00  0.00    -0.040 SA
BRANCH  27  29
HETATM   29  N3  UNL     1      20.581 -42.272   8.465  1.00  0.00    -0.366 N 
ATOM     30  H3  UNL     1      21.582 -42.463   8.527  1.00  0.00     0.161 HD
BRANCH  29  31
HETATM   31  C19 UNL     1      19.729 -43.057   9.307  1.00  0.00     0.122 C 
BRANCH  31  32
HETATM   32  C20 UNL     1      19.499 -42.640  10.678  1.00  0.00     0.020 C 
BRANCH  32  33
HETATM   33  C21 UNL     1      20.182 -41.508  11.330  1.00  0.00     0.002 C 
BRANCH  33  34
HETATM   34  C22 UNL     1      19.444 -40.297  11.649  1.00  0.00     0.000 C 
BRANCH  34  35
HETATM   35  C23 UNL     1      18.911 -39.885  12.937  1.00  0.00     0.000 C 
BRANCH  35  36
HETATM   36  C24 UNL     1      18.176 -38.618  13.106  1.00  0.00     0.001 C 
BRANCH  36  37
HETATM   37  C25 UNL     1      16.811 -38.596  13.625  1.00  0.00     0.011 C 
BRANCH  37  38
HETATM   38  C26 UNL     1      15.918 -37.670  12.758  1.00  0.00     0.085 C 
HETATM   39 BR1  UNL     1      16.907 -37.184  11.172  1.00  0.00    -0.097 Br
ENDBRANCH  37  38
ENDBRANCH  36  37
ENDBRANCH  35  36
ENDBRANCH  34  35
ENDBRANCH  33  34
ENDBRANCH  32  33
ENDBRANCH  31  32
ENDBRANCH  29  31
ENDBRANCH  27  29
ENDBRANCH  25  27
ENDBRANCH  19  25
BRANCH   5  40
HETATM   40  O1  UNL     1       9.226 -46.475   9.770  1.00  0.00    -0.396 OA
ATOM     41  H1  UNL     1       8.815 -46.403  10.623  1.00  0.00     0.210 HD
ENDBRANCH   5  40
TORSDOF 12
ENDMDL
MODEL 4
REMARK VINA RESULT: -7.108760760      6.890      9.757
REMARK  12 active torsions:
REMARK  status: ('A' for Active; 'I' for Inactive)
REMARK    1  A    between atoms: C5_5  and  O1_6 
REMARK    2  A    between atoms: N1_21  and  N2_23 
REMARK    3  A    between atoms: N2_23  and  C18_25 
REMARK    4  A    between atoms: C18_25  and  N3_27 
REMARK    5  A    between atoms: N3_27  and  C19_29 
REMARK    6  A    between atoms: C19_29  and  C20_30 
REMARK    7  A    between atoms: C20_30  and  C21_31 
REMARK    8  A    between atoms: C21_31  and  C22_32 
REMARK    9  A    between atoms: C22_32  and  C23_33 
REMARK   10  A    between atoms: C23_33  and  C24_34 
REMARK   11  A    between atoms: C24_34  and  C25_35 
REMARK   12  A    between atoms: C25_35  and  C26_36 
ROOT
HETATM    1  C1  UNL     1      14.681 -39.206  13.335  1.00  0.00     0.016 C 
HETATM    2  C2  UNL     1      14.869 -38.465  12.032  1.00  0.00    -0.035 C 
HETATM    3  C3  UNL     1      14.967 -36.981  12.413  1.00  0.00     0.012 C 
HETATM    4  C4  UNL     1      13.720 -36.506  13.085  1.00  0.00     0.032 C 
HETATM    5  C5  UNL     1      12.443 -36.998  12.508  1.00  0.00     0.118 C 
HETATM    6  C6  UNL     1      12.450 -38.417  12.035  1.00  0.00     0.037 C 
HETATM    7  C7  UNL     1      13.668 -38.566  11.127  1.00  0.00     0.003 C 
HETATM    8  C8  UNL     1      13.637 -39.784  10.279  1.00  0.00     0.084 C 
HETATM    9  C9  UNL     1      14.695 -40.781  10.649  1.00  0.00     0.132 C 
HETATM   10  O2  UNL     1      14.393 -41.947  10.498  1.00  0.00    -0.298 OA
HETATM   11  C10 UNL     1      16.016 -40.428  11.161  1.00  0.00     0.069 C 
HETATM   12  C11 UNL     1      16.146 -38.920  11.409  1.00  0.00     0.006 C 
HETATM   13  C12 UNL     1      16.456 -38.153  10.176  1.00  0.00     0.007 C 
HETATM   14  C13 UNL     1      17.525 -38.701   9.315  1.00  0.00     0.011 C 
HETATM   15  C14 UNL     1      17.604 -40.180   9.219  1.00  0.00    -0.031 C 
HETATM   16  C15 UNL     1      16.810 -40.625   7.980  1.00  0.00     0.016 C 
HETATM   17  C16 UNL     1      19.041 -40.535   8.858  1.00  0.00     0.064 C 
HETATM   18  C17 UNL     1      19.962 -40.117   9.923  1.00  0.00     0.004 C 
HETATM   19  N1  UNL     1      21.167 -39.776   9.632  1.00  0.00    -0.307 N 
ATOM     20  H1  UNL     1      21.800 -39.486  10.376  1.00  0.00     0.186 HD
HETATM   21  C27 UNL     1      19.433 -40.120  11.304  1.00  0.00     0.055 C 
HETATM   22  C28 UNL     1      18.312 -41.111  11.464  1.00  0.00     0.016 C 
HETATM   23  C29 UNL     1      17.206 -40.948  10.433  1.00  0.00    -0.025 C 
HETATM   24  C30 UNL     1      16.911 -42.376   9.977  1.00  0.00     0.016 C 
ENDROOT
BRANCH  19  25
HETATM   25  N2  UNL     1      21.624 -39.797   8.303  1.00  0.00    -0.277 N 
ATOM     26  H2  UNL     1      21.536 -38.965   7.718  1.00  0.00     0.189 HD
BRANCH  25  27
HETATM   27  C18 UNL     1      22.201 -40.962   7.785  1.00  0.00     0.186 C 
HETATM   28  S1  UNL     1      22.911 -42.011   8.835  1.00  0.00    -0.040 SA
BRANCH  27  29
HETATM   29  N3  UNL     1      22.208 -41.291   6.418  1.00  0.00    -0.366 N 
ATOM     30  H3  UNL     1      22.974 -41.884   6.098  1.00  0.00     0.161 HD
BRANCH  29  31
HETATM   31  C19 UNL     1      21.259 -40.885   5.426  1.00  0.00     0.122 C 
BRANCH  31  32
HETATM   32  C20 UNL     1      20.614 -41.889   4.599  1.00  0.00     0.020 C 
BRANCH  32  33
HETATM   33  C21 UNL     1      20.295 -41.711   3.171  1.00  0.00     0.002 C 
BRANCH  33  34
HETATM   34  C22 UNL     1      19.888 -42.853   2.367  1.00  0.00     0.000 C 
BRANCH  34  35
HETATM   35  C23 UNL     1      19.642 -42.899   0.936  1.00  0.00     0.000 C 
BRANCH  35  36
HETATM   36  C24 UNL     1      20.555 -43.598   0.011  1.00  0.00     0.001 C 
BRANCH  36  37
HETATM   37  C25 UNL     1      20.787 -43.105  -1.343  1.00  0.00     0.011 C 
BRANCH  37  38
HETATM   38  C26 UNL     1      21.809 -44.011  -2.081  1.00  0.00     0.085 C 
HETATM   39 BR1  UNL     1      23.005 -42.880  -3.090  1.00  0.00    -0.097 Br
ENDBRANCH  37  38
ENDBRANCH  36  37
ENDBRANCH  35  36
ENDBRANCH  34  35
ENDBRANCH  33  34
ENDBRANCH  32  33
ENDBRANCH  31  32
ENDBRANCH  29  31
ENDBRANCH  27  29
ENDBRANCH  25  27
ENDBRANCH  19  25
BRANCH   5  40
HETATM   40  O1  UNL     1      11.436 -36.897  13.495  1.00  0.00    -0.396 OA
ATOM     41  H1  UNL     1      11.298 -35.979  13.693  1.00  0.00     0.210 HD
ENDBRANCH   5  40
TORSDOF 12
ENDMDL
MODEL 5
REMARK VINA RESULT: -7.042545581      4.868      7.448
REMARK  12 active torsions:
REMARK  status: ('A' for Active; 'I' for Inactive)
REMARK    1  A    between atoms: C5_5  and  O1_6 
REMARK    2  A    between atoms: N1_21  and  N2_23 
REMARK    3  A    between atoms: N2_23  and  C18_25 
REMARK    4  A    between atoms: C18_25  and  N3_27 
REMARK    5  A    between atoms: N3_27  and  C19_29 
REMARK    6  A    between atoms: C19_29  and  C20_30 
REMARK    7  A    between atoms: C20_30  and  C21_31 
REMARK    8  A    between atoms: C21_31  and  C22_32 
REMARK    9  A    between atoms: C22_32  and  C23_33 
REMARK   10  A    between atoms: C23_33  and  C24_34 
REMARK   11  A    between atoms: C24_34  and  C25_35 
REMARK   12  A    between atoms: C25_35  and  C26_36 
ROOT
HETATM    1  C1  UNL     1      12.751 -38.658  11.632  1.00  0.00     0.016 C 
HETATM    2  C2  UNL     1      13.586 -39.835  12.079  1.00  0.00    -0.035 C 
HETATM    3  C3  UNL     1      12.700 -41.071  11.868  1.00  0.00     0.012 C 
HETATM    4  C4  UNL     1      11.453 -40.998  12.689  1.00  0.00     0.032 C 
HETATM    5  C5  UNL     1      11.617 -40.482  14.072  1.00  0.00     0.118 C 
HETATM    6  C6  UNL     1      12.593 -39.359  14.233  1.00  0.00     0.037 C 
HETATM    7  C7  UNL     1      13.885 -39.807  13.555  1.00  0.00     0.003 C 
HETATM    8  C8  UNL     1      15.070 -38.994  13.928  1.00  0.00     0.084 C 
HETATM    9  C9  UNL     1      15.604 -38.182  12.786  1.00  0.00     0.132 C 
HETATM   10  O2  UNL     1      16.089 -37.109  13.085  1.00  0.00    -0.298 OA
HETATM   11  C10 UNL     1      15.569 -38.604  11.388  1.00  0.00     0.069 C 
HETATM   12  C11 UNL     1      14.795 -39.916  11.209  1.00  0.00     0.006 C 
HETATM   13  C12 UNL     1      15.610 -41.118  11.516  1.00  0.00     0.007 C 
HETATM   14  C13 UNL     1      16.970 -41.154  10.937  1.00  0.00     0.011 C 
HETATM   15  C14 UNL     1      17.691 -39.859  10.862  1.00  0.00    -0.031 C 
HETATM   16  C15 UNL     1      18.570 -39.724  12.117  1.00  0.00     0.016 C 
HETATM   17  C16 UNL     1      18.709 -39.972   9.735  1.00  0.00     0.064 C 
HETATM   18  C17 UNL     1      18.034 -40.172   8.445  1.00  0.00     0.004 C 
HETATM   19  N1  UNL     1      18.615 -40.843   7.515  1.00  0.00    -0.307 N 
ATOM     20  H1  UNL     1      18.140 -40.979   6.622  1.00  0.00     0.186 HD
HETATM   21  C27 UNL     1      16.695 -39.565   8.290  1.00  0.00     0.055 C 
HETATM   22  C28 UNL     1      16.524 -38.366   9.183  1.00  0.00     0.016 C 
HETATM   23  C29 UNL     1      16.856 -38.644  10.641  1.00  0.00    -0.025 C 
HETATM   24  C30 UNL     1      17.701 -37.443  11.064  1.00  0.00     0.016 C 
ENDROOT
BRANCH  19  25
HETATM   25  N2  UNL     1      19.893 -41.394   7.709  1.00  0.00    -0.277 N 
ATOM     26  H2  UNL     1      20.627 -40.841   8.152  1.00  0.00     0.189 HD
BRANCH  25  27
HETATM   27  C18 UNL     1      20.155 -42.706   7.294  1.00  0.00     0.186 C 
HETATM   28  S1  UNL     1      21.725 -43.178   7.156  1.00  0.00    -0.040 SA
BRANCH  27  29
HETATM   29  N3  UNL     1      19.154 -43.643   6.987  1.00  0.00    -0.366 N 
ATOM     30  H3  UNL     1      18.877 -43.707   6.007  1.00  0.00     0.161 HD
BRANCH  29  31
HETATM   31  C19 UNL     1      18.481 -44.520   7.898  1.00  0.00     0.122 C 
BRANCH  31  32
HETATM   32  C20 UNL     1      17.454 -43.987   8.776  1.00  0.00     0.020 C 
BRANCH  32  33
HETATM   33  C21 UNL     1      16.013 -43.983   8.464  1.00  0.00     0.002 C 
BRANCH  33  34
HETATM   34  C22 UNL     1      15.405 -42.814   7.848  1.00  0.00     0.000 C 
BRANCH  34  35
HETATM   35  C23 UNL     1      14.172 -42.142   8.224  1.00  0.00     0.000 C 
BRANCH  35  36
HETATM   36  C24 UNL     1      13.134 -42.814   9.028  1.00  0.00     0.001 C 
BRANCH  36  37
HETATM   37  C25 UNL     1      11.718 -42.683   8.700  1.00  0.00     0.011 C 
BRANCH  37  38
HETATM   38  C26 UNL     1      11.003 -44.055   8.833  1.00  0.00     0.085 C 
HETATM   39 BR1  UNL     1      12.046 -45.377   7.887  1.00  0.00    -0.097 Br
ENDBRANCH  37  38
ENDBRANCH  36  37
ENDBRANCH  35  36
ENDBRANCH  34  35
ENDBRANCH  33  34
ENDBRANCH  32  33
ENDBRANCH  31  32
ENDBRANCH  29  31
ENDBRANCH  27  29
ENDBRANCH  25  27
ENDBRANCH  19  25
BRANCH   5  40
HETATM   40  O1  UNL     1      10.365 -40.007  14.525  1.00  0.00    -0.396 OA
ATOM     41  H1  UNL     1      10.345 -40.065  15.473  1.00  0.00     0.210 HD
ENDBRANCH   5  40
TORSDOF 12
ENDMDL
