MODEL 1
REMARK VINA RESULT: -8.965582321      0.000      0.000
REMARK  14 active torsions:
REMARK  status: ('A' for Active; 'I' for Inactive)
REMARK    1  A    between atoms: C2_2  and  C4_4 
REMARK    2  A    between atoms: C4_4  and  C5_5 
REMARK    3  A    between atoms: C5_5  and  C6_6 
REMARK    4  A    between atoms: C6_6  and  C7_7 
REMARK    5  A    between atoms: C7_7  and  C8_8 
REMARK    6  A    between atoms: C7_7  and  C15_17 
REMARK    7  A    between atoms: C8_8  and  C9_9 
REMARK    8  A    between atoms: C9_9  and  C10_10 
REMARK    9  A    between atoms: C10_10  and  C12_12 
REMARK   10  A    between atoms: C12_12  and  O1_15 
REMARK   11  A    between atoms: C26_29  and  O2_30 
REMARK   12  A    between atoms: C27_32  and  C29_34 
REMARK   13  A    between atoms: C30_35  and  C31_36 
REMARK   14  A    between atoms: C35_42  and  O5_43 
ROOT
HETATM    1  C15 UNL     1      20.607  41.212  -8.448  1.00  0.00     0.000 C 
HETATM    2  C16 UNL     1      19.542  40.961  -7.382  1.00  0.00     0.027 C 
HETATM    3  C17 UNL     1      18.199  40.860  -8.104  1.00  0.00     0.096 C 
HETATM    4 CL1  UNL     1      17.386  39.389  -7.655  1.00  0.00    -0.124 Cl
HETATM    5  C18 UNL     1      18.453  41.139  -9.525  1.00  0.00     0.004 C 
HETATM    6  C19 UNL     1      18.251  42.627  -9.746  1.00  0.00     0.022 C 
HETATM    7  C20 UNL     1      17.670  40.490 -10.553  1.00  0.00    -0.064 C 
HETATM    8  C21 UNL     1      18.204  40.029 -11.668  1.00  0.00    -0.047 C 
HETATM    9  C22 UNL     1      19.662  40.127 -11.982  1.00  0.00     0.038 C 
HETATM   10  C23 UNL     1      20.377  41.031 -10.995  1.00  0.00     0.015 C 
HETATM   11  C24 UNL     1      19.910  40.737  -9.630  1.00  0.00    -0.027 C 
HETATM   12  C25 UNL     1      19.933  39.199  -9.509  1.00  0.00     0.016 C 
HETATM   13  C26 UNL     1      17.390  39.382 -12.723  1.00  0.00     0.159 C 
HETATM   14  C27 UNL     1      16.092  38.809 -12.278  1.00  0.00     0.004 C 
HETATM   15  C28 UNL     1      16.104  37.323 -12.572  1.00  0.00     0.022 C 
HETATM   16  C36 UNL     1      15.838  38.954 -10.798  1.00  0.00     0.020 C 
HETATM   17  C37 UNL     1      16.202  40.337 -10.387  1.00  0.00     0.036 C 
ENDROOT
BRANCH   1  18
HETATM   18  C7  UNL     1      21.245  42.512  -8.269  1.00  0.00    -0.010 C 
BRANCH  18  19
HETATM   19  C6  UNL     1      20.667  43.178  -7.009  1.00  0.00     0.005 C 
BRANCH  19  20
HETATM   20  C5  UNL     1      21.695  43.553  -5.997  1.00  0.00     0.001 C 
BRANCH  20  21
HETATM   21  C4  UNL     1      21.033  43.460  -4.620  1.00  0.00     0.004 C 
BRANCH  21  22
HETATM   22  C2  UNL     1      20.750  41.986  -4.320  1.00  0.00    -0.023 C 
HETATM   23  C1  UNL     1      20.088  41.847  -2.964  1.00  0.00     0.009 C 
HETATM   24  C3  UNL     1      21.992  41.157  -4.411  1.00  0.00     0.009 C 
ENDBRANCH  21  22
ENDBRANCH  20  21
ENDBRANCH  19  20
ENDBRANCH  18  19
BRANCH  18  25
HETATM   25  C8  UNL     1      22.710  42.594  -8.138  1.00  0.00     0.005 C 
BRANCH  25  26
HETATM   26  C9  UNL     1      23.423  42.399  -9.452  1.00  0.00     0.007 C 
BRANCH  26  27
HETATM   27  C10 UNL     1      23.880  43.730 -10.036  1.00  0.00     0.015 C 
HETATM   28  C11 UNL     1      23.006  44.206 -11.150  1.00  0.00     0.013 C 
BRANCH  27  29
HETATM   29  C12 UNL     1      25.260  43.483 -10.619  1.00  0.00     0.054 C 
HETATM   30  C13 UNL     1      26.346  43.994  -9.697  1.00  0.00     0.045 C 
HETATM   31  C14 UNL     1      25.459  44.131 -11.954  1.00  0.00     0.045 C 
BRANCH  29  32
HETATM   32  O1  UNL     1      25.435  42.089 -10.712  1.00  0.00    -0.390 OA
ATOM     33  H1  UNL     1      25.267  41.723  -9.852  1.00  0.00     0.210 HD
ENDBRANCH  29  32
ENDBRANCH  27  29
ENDBRANCH  26  27
ENDBRANCH  25  26
ENDBRANCH  18  25
ENDBRANCH   1  18
BRANCH  13  34
HETATM   34  O2  UNL     1      18.109  38.479 -13.507  1.00  0.00    -0.390 OA
ATOM     35  H2  UNL     1      17.562  37.843 -13.951  1.00  0.00     0.210 HD
ENDBRANCH  13  34
BRANCH  14  36
HETATM   36  C29 UNL     1      14.943  39.398 -13.003  1.00  0.00    -0.015 C 
HETATM   37  C30 UNL     1      13.721  39.036 -12.679  1.00  0.00    -0.002 C 
BRANCH  37  38
HETATM   38  C31 UNL     1      12.538  39.572 -13.348  1.00  0.00     0.016 C 
HETATM   39  C32 UNL     1      11.341  39.048 -13.186  1.00  0.00     0.048 C 
HETATM   40  C33 UNL     1      10.121  39.516 -13.809  1.00  0.00     0.292 C 
HETATM   41  C35 UNL     1      10.956  37.873 -12.345  1.00  0.00     0.181 C 
HETATM   42  O3  UNL     1      10.016  40.515 -14.593  1.00  0.00    -0.260 OA
HETATM   43  O4  UNL     1       9.072  38.675 -13.397  1.00  0.00    -0.315 OA
HETATM   44  C34 UNL     1       9.476  38.081 -12.155  1.00  0.00     0.215 C 
BRANCH  41  45
HETATM   45  O5  UNL     1      11.233  36.688 -13.009  1.00  0.00    -0.389 OA
ATOM     46  H5  UNL     1      11.981  36.253 -12.617  1.00  0.00     0.210 HD
ENDBRANCH  41  45
ENDBRANCH  37  38
ENDBRANCH  14  36
TORSDOF 14
ENDMDL
MODEL 2
REMARK VINA RESULT: -8.922100805      1.503      2.100
REMARK  14 active torsions:
REMARK  status: ('A' for Active; 'I' for Inactive)
REMARK    1  A    between atoms: C2_2  and  C4_4 
REMARK    2  A    between atoms: C4_4  and  C5_5 
REMARK    3  A    between atoms: C5_5  and  C6_6 
REMARK    4  A    between atoms: C6_6  and  C7_7 
REMARK    5  A    between atoms: C7_7  and  C8_8 
REMARK    6  A    between atoms: C7_7  and  C15_17 
REMARK    7  A    between atoms: C8_8  and  C9_9 
REMARK    8  A    between atoms: C9_9  and  C10_10 
REMARK    9  A    between atoms: C10_10  and  C12_12 
REMARK   10  A    between atoms: C12_12  and  O1_15 
REMARK   11  A    between atoms: C26_29  and  O2_30 
REMARK   12  A    between atoms: C27_32  and  C29_34 
REMARK   13  A    between atoms: C30_35  and  C31_36 
REMARK   14  A    between atoms: C35_42  and  O5_43 
ROOT
HETATM    1  C15 UNL     1      21.381  41.620  -8.441  1.00  0.00     0.000 C 
HETATM    2  C16 UNL     1      20.457  41.315  -7.264  1.00  0.00     0.027 C 
HETATM    3  C17 UNL     1      19.051  41.128  -7.834  1.00  0.00     0.096 C 
HETATM    4 CL1  UNL     1      18.381  39.615  -7.297  1.00  0.00    -0.124 Cl
HETATM    5  C18 UNL     1      19.131  41.410  -9.276  1.00  0.00     0.004 C 
HETATM    6  C19 UNL     1      18.817  42.882  -9.475  1.00  0.00     0.022 C 
HETATM    7  C20 UNL     1      18.281  40.707 -10.211  1.00  0.00    -0.064 C 
HETATM    8  C21 UNL     1      18.716  40.269 -11.376  1.00  0.00    -0.047 C 
HETATM    9  C22 UNL     1      20.123  40.452 -11.848  1.00  0.00     0.038 C 
HETATM   10  C23 UNL     1      20.886  41.405 -10.947  1.00  0.00     0.015 C 
HETATM   11  C24 UNL     1      20.589  41.094  -9.539  1.00  0.00    -0.027 C 
HETATM   12  C25 UNL     1      20.718  39.561  -9.418  1.00  0.00     0.016 C 
HETATM   13  C26 UNL     1      17.832  39.567 -12.335  1.00  0.00     0.159 C 
HETATM   14  C27 UNL     1      16.628  38.921 -11.750  1.00  0.00     0.004 C 
HETATM   15  C28 UNL     1      16.696  37.436 -12.040  1.00  0.00     0.022 C 
HETATM   16  C36 UNL     1      16.528  39.062 -10.251  1.00  0.00     0.020 C 
HETATM   17  C37 UNL     1      16.851  40.468  -9.885  1.00  0.00     0.036 C 
ENDROOT
BRANCH   1  18
HETATM   18  C7  UNL     1      21.956  42.957  -8.335  1.00  0.00    -0.010 C 
BRANCH  18  19
HETATM   19  C6  UNL     1      22.127  43.307  -6.847  1.00  0.00     0.005 C 
BRANCH  19  20
HETATM   20  C5  UNL     1      21.814  44.726  -6.520  1.00  0.00     0.001 C 
BRANCH  20  21
HETATM   21  C4  UNL     1      20.484  45.067  -7.198  1.00  0.00     0.004 C 
BRANCH  21  22
HETATM   22  C2  UNL     1      19.346  44.658  -6.259  1.00  0.00    -0.023 C 
HETATM   23  C1  UNL     1      18.046  45.294  -6.706  1.00  0.00     0.009 C 
HETATM   24  C3  UNL     1      19.659  44.993  -4.835  1.00  0.00     0.009 C 
ENDBRANCH  21  22
ENDBRANCH  20  21
ENDBRANCH  19  20
ENDBRANCH  18  19
BRANCH  18  25
HETATM   25  C8  UNL     1      23.251  43.247  -8.974  1.00  0.00     0.005 C 
BRANCH  25  26
HETATM   26  C9  UNL     1      23.202  44.466  -9.861  1.00  0.00     0.007 C 
BRANCH  26  27
HETATM   27  C10 UNL     1      23.414  44.093 -11.323  1.00  0.00     0.015 C 
HETATM   28  C11 UNL     1      24.728  44.562 -11.858  1.00  0.00     0.013 C 
BRANCH  27  29
HETATM   29  C12 UNL     1      22.327  44.812 -12.102  1.00  0.00     0.054 C 
HETATM   30  C13 UNL     1      22.863  46.061 -12.769  1.00  0.00     0.045 C 
HETATM   31  C14 UNL     1      21.164  45.218 -11.252  1.00  0.00     0.045 C 
BRANCH  29  32
HETATM   32  O1  UNL     1      21.911  43.952 -13.136  1.00  0.00    -0.390 OA
ATOM     33  H1  UNL     1      21.582  44.495 -13.843  1.00  0.00     0.210 HD
ENDBRANCH  29  32
ENDBRANCH  27  29
ENDBRANCH  26  27
ENDBRANCH  25  26
ENDBRANCH  18  25
ENDBRANCH   1  18
BRANCH  13  34
HETATM   34  O2  UNL     1      18.514  38.702 -13.191  1.00  0.00    -0.390 OA
ATOM     35  H2  UNL     1      18.186  38.713 -14.082  1.00  0.00     0.210 HD
ENDBRANCH  13  34
BRANCH  14  36
HETATM   36  C29 UNL     1      15.373  39.434 -12.345  1.00  0.00    -0.015 C 
HETATM   37  C30 UNL     1      14.406  38.593 -12.638  1.00  0.00    -0.002 C 
BRANCH  37  38
HETATM   38  C31 UNL     1      13.140  39.023 -13.227  1.00  0.00     0.016 C 
HETATM   39  C32 UNL     1      11.987  38.488 -12.885  1.00  0.00     0.048 C 
HETATM   40  C33 UNL     1      10.692  38.855 -13.418  1.00  0.00     0.292 C 
HETATM   41  C35 UNL     1      11.737  37.398 -11.892  1.00  0.00     0.181 C 
HETATM   42  O3  UNL     1      10.468  39.762 -14.284  1.00  0.00    -0.260 OA
HETATM   43  O4  UNL     1       9.724  38.033 -12.812  1.00  0.00    -0.315 OA
HETATM   44  C34 UNL     1      10.277  37.586 -11.567  1.00  0.00     0.215 C 
BRANCH  41  45
HETATM   45  O5  UNL     1      11.988  36.157 -12.457  1.00  0.00    -0.389 OA
ATOM     46  H5  UNL     1      11.799  35.464 -11.836  1.00  0.00     0.210 HD
ENDBRANCH  41  45
ENDBRANCH  37  38
ENDBRANCH  14  36
TORSDOF 14
ENDMDL
MODEL 3
REMARK VINA RESULT: -8.830214309      3.973     10.015
REMARK  14 active torsions:
REMARK  status: ('A' for Active; 'I' for Inactive)
REMARK    1  A    between atoms: C2_2  and  C4_4 
REMARK    2  A    between atoms: C4_4  and  C5_5 
REMARK    3  A    between atoms: C5_5  and  C6_6 
REMARK    4  A    between atoms: C6_6  and  C7_7 
REMARK    5  A    between atoms: C7_7  and  C8_8 
REMARK    6  A    between atoms: C7_7  and  C15_17 
REMARK    7  A    between atoms: C8_8  and  C9_9 
REMARK    8  A    between atoms: C9_9  and  C10_10 
REMARK    9  A    between atoms: C10_10  and  C12_12 
REMARK   10  A    between atoms: C12_12  and  O1_15 
REMARK   11  A    between atoms: C26_29  and  O2_30 
REMARK   12  A    between atoms: C27_32  and  C29_34 
REMARK   13  A    between atoms: C30_35  and  C31_36 
REMARK   14  A    between atoms: C35_42  and  O5_43 
ROOT
HETATM    1  C15 UNL     1      17.935  38.945 -10.633  1.00  0.00     0.000 C 
HETATM    2  C16 UNL     1      18.481  39.757 -11.806  1.00  0.00     0.027 C 
HETATM    3  C17 UNL     1      18.786  41.160 -11.278  1.00  0.00     0.096 C 
HETATM    4 CL1  UNL     1      20.421  41.605 -11.668  1.00  0.00    -0.124 Cl
HETATM    5  C18 UNL     1      18.343  41.196  -9.875  1.00  0.00     0.004 C 
HETATM    6  C19 UNL     1      16.911  41.700  -9.858  1.00  0.00     0.022 C 
HETATM    7  C20 UNL     1      19.045  42.004  -8.904  1.00  0.00    -0.064 C 
HETATM    8  C21 UNL     1      19.295  41.584  -7.678  1.00  0.00    -0.047 C 
HETATM    9  C22 UNL     1      18.884  40.240  -7.172  1.00  0.00     0.038 C 
HETATM   10  C23 UNL     1      17.943  39.550  -8.142  1.00  0.00     0.015 C 
HETATM   11  C24 UNL     1      18.438  39.728  -9.517  1.00  0.00    -0.027 C 
HETATM   12  C25 UNL     1      19.945  39.404  -9.457  1.00  0.00     0.016 C 
HETATM   13  C26 UNL     1      19.999  42.427  -6.685  1.00  0.00     0.159 C 
HETATM   14  C27 UNL     1      20.854  43.508  -7.244  1.00  0.00     0.004 C 
HETATM   15  C28 UNL     1      22.278  43.274  -6.784  1.00  0.00     0.022 C 
HETATM   16  C36 UNL     1      20.888  43.540  -8.752  1.00  0.00     0.020 C 
HETATM   17  C37 UNL     1      19.500  43.373  -9.261  1.00  0.00     0.036 C 
ENDROOT
BRANCH   1  18
HETATM   18  C7  UNL     1      16.554  38.535 -10.865  1.00  0.00    -0.010 C 
BRANCH  18  19
HETATM   19  C6  UNL     1      16.302  38.479 -12.381  1.00  0.00     0.005 C 
BRANCH  19  20
HETATM   20  C5  UNL     1      15.094  39.232 -12.822  1.00  0.00     0.001 C 
BRANCH  20  21
HETATM   21  C4  UNL     1      14.552  39.977 -11.599  1.00  0.00     0.004 C 
BRANCH  21  22
HETATM   22  C2  UNL     1      13.024  39.997 -11.685  1.00  0.00    -0.023 C 
HETATM   23  C1  UNL     1      12.581  39.910 -13.131  1.00  0.00     0.009 C 
HETATM   24  C3  UNL     1      12.449  41.200 -11.007  1.00  0.00     0.009 C 
ENDBRANCH  21  22
ENDBRANCH  20  21
ENDBRANCH  19  20
ENDBRANCH  18  19
BRANCH  18  25
HETATM   25  C8  UNL     1      16.073  37.252 -10.325  1.00  0.00     0.005 C 
BRANCH  25  26
HETATM   26  C9  UNL     1      15.690  36.272 -11.405  1.00  0.00     0.007 C 
BRANCH  26  27
HETATM   27  C10 UNL     1      14.843  35.137 -10.845  1.00  0.00     0.015 C 
HETATM   28  C11 UNL     1      15.565  33.829 -10.824  1.00  0.00     0.013 C 
BRANCH  27  29
HETATM   29  C12 UNL     1      13.664  34.986 -11.790  1.00  0.00     0.054 C 
HETATM   30  C13 UNL     1      14.074  34.303 -13.077  1.00  0.00     0.045 C 
HETATM   31  C14 UNL     1      13.030  36.292 -12.153  1.00  0.00     0.045 C 
BRANCH  29  32
HETATM   32  O1  UNL     1      12.730  34.137 -11.166  1.00  0.00    -0.390 OA
ATOM     33  H1  UNL     1      12.565  33.412 -11.756  1.00  0.00     0.210 HD
ENDBRANCH  29  32
ENDBRANCH  27  29
ENDBRANCH  26  27
ENDBRANCH  25  26
ENDBRANCH  18  25
ENDBRANCH   1  18
BRANCH  13  34
HETATM   34  O2  UNL     1      20.672  41.693  -5.708  1.00  0.00    -0.390 OA
ATOM     35  H2  UNL     1      21.228  42.225  -5.149  1.00  0.00     0.210 HD
ENDBRANCH  13  34
BRANCH  14  36
HETATM   36  C29 UNL     1      20.446  44.848  -6.764  1.00  0.00    -0.015 C 
HETATM   37  C30 UNL     1      19.340  44.974  -6.063  1.00  0.00    -0.002 C 
BRANCH  37  38
HETATM   38  C31 UNL     1      18.872  46.261  -5.556  1.00  0.00     0.016 C 
HETATM   39  C32 UNL     1      18.103  47.060  -6.267  1.00  0.00     0.048 C 
HETATM   40  C33 UNL     1      17.596  48.347  -5.841  1.00  0.00     0.292 C 
HETATM   41  C35 UNL     1      17.580  46.841  -7.651  1.00  0.00     0.181 C 
HETATM   42  O3  UNL     1      17.801  48.896  -4.710  1.00  0.00    -0.260 OA
HETATM   43  O4  UNL     1      16.838  48.886  -6.896  1.00  0.00    -0.315 OA
HETATM   44  C34 UNL     1      16.405  47.784  -7.705  1.00  0.00     0.215 C 
BRANCH  41  45
HETATM   45  O5  UNL     1      18.546  47.160  -8.592  1.00  0.00    -0.389 OA
ATOM     46  H5  UNL     1      19.195  47.744  -8.219  1.00  0.00     0.210 HD
ENDBRANCH  41  45
ENDBRANCH  37  38
ENDBRANCH  14  36
TORSDOF 14
ENDMDL
MODEL 4
REMARK VINA RESULT: -8.804641906      1.090      1.551
REMARK  14 active torsions:
REMARK  status: ('A' for Active; 'I' for Inactive)
REMARK    1  A    between atoms: C2_2  and  C4_4 
REMARK    2  A    between atoms: C4_4  and  C5_5 
REMARK    3  A    between atoms: C5_5  and  C6_6 
REMARK    4  A    between atoms: C6_6  and  C7_7 
REMARK    5  A    between atoms: C7_7  and  C8_8 
REMARK    6  A    between atoms: C7_7  and  C15_17 
REMARK    7  A    between atoms: C8_8  and  C9_9 
REMARK    8  A    between atoms: C9_9  and  C10_10 
REMARK    9  A    between atoms: C10_10  and  C12_12 
REMARK   10  A    between atoms: C12_12  and  O1_15 
REMARK   11  A    between atoms: C26_29  and  O2_30 
REMARK   12  A    between atoms: C27_32  and  C29_34 
REMARK   13  A    between atoms: C30_35  and  C31_36 
REMARK   14  A    between atoms: C35_42  and  O5_43 
ROOT
HETATM    1  C15 UNL     1      20.722  41.715  -8.117  1.00  0.00     0.000 C 
HETATM    2  C16 UNL     1      19.670  41.401  -7.055  1.00  0.00     0.027 C 
HETATM    3  C17 UNL     1      18.346  41.178  -7.786  1.00  0.00     0.096 C 
HETATM    4 CL1  UNL     1      17.650  39.656  -7.315  1.00  0.00    -0.124 Cl
HETATM    5  C18 UNL     1      18.592  41.449  -9.211  1.00  0.00     0.004 C 
HETATM    6  C19 UNL     1      18.273  42.911  -9.463  1.00  0.00     0.022 C 
HETATM    7  C20 UNL     1      17.874  40.719 -10.232  1.00  0.00    -0.064 C 
HETATM    8  C21 UNL     1      18.454  40.280 -11.333  1.00  0.00    -0.047 C 
HETATM    9  C22 UNL     1      19.902  40.489 -11.636  1.00  0.00     0.038 C 
HETATM   10  C23 UNL     1      20.533  41.467 -10.662  1.00  0.00     0.015 C 
HETATM   11  C24 UNL     1      20.076  41.163  -9.295  1.00  0.00    -0.027 C 
HETATM   12  C25 UNL     1      20.222  39.634  -9.143  1.00  0.00     0.016 C 
HETATM   13  C26 UNL     1      17.705  39.550 -12.381  1.00  0.00     0.159 C 
HETATM   14  C27 UNL     1      16.453  38.883 -11.936  1.00  0.00     0.004 C 
HETATM   15  C28 UNL     1      16.586  37.397 -12.199  1.00  0.00     0.022 C 
HETATM   16  C36 UNL     1      16.173  39.035 -10.461  1.00  0.00     0.020 C 
HETATM   17  C37 UNL     1      16.420  40.451 -10.075  1.00  0.00     0.036 C 
ENDROOT
BRANCH   1  18
HETATM   18  C7  UNL     1      21.251  43.066  -7.959  1.00  0.00    -0.010 C 
BRANCH  18  19
HETATM   19  C6  UNL     1      21.053  43.509  -6.500  1.00  0.00     0.005 C 
BRANCH  19  20
HETATM   20  C5  UNL     1      22.321  43.642  -5.730  1.00  0.00     0.001 C 
BRANCH  20  21
HETATM   21  C4  UNL     1      22.269  42.623  -4.589  1.00  0.00     0.004 C 
BRANCH  21  22
HETATM   22  C2  UNL     1      20.964  42.829  -3.818  1.00  0.00    -0.023 C 
HETATM   23  C1  UNL     1      21.202  43.721  -2.617  1.00  0.00     0.009 C 
HETATM   24  C3  UNL     1      20.347  41.525  -3.418  1.00  0.00     0.009 C 
ENDBRANCH  21  22
ENDBRANCH  20  21
ENDBRANCH  19  20
ENDBRANCH  18  19
BRANCH  18  25
HETATM   25  C8  UNL     1      22.663  43.338  -8.279  1.00  0.00     0.005 C 
BRANCH  25  26
HETATM   26  C9  UNL     1      22.829  44.452  -9.282  1.00  0.00     0.007 C 
BRANCH  26  27
HETATM   27  C10 UNL     1      23.158  43.906 -10.665  1.00  0.00     0.015 C 
HETATM   28  C11 UNL     1      24.586  44.118 -11.049  1.00  0.00     0.013 C 
BRANCH  27  29
HETATM   29  C12 UNL     1      22.305  44.695 -11.643  1.00  0.00     0.054 C 
HETATM   30  C13 UNL     1      23.056  45.893 -12.184  1.00  0.00     0.045 C 
HETATM   31  C14 UNL     1      21.029  45.195 -11.041  1.00  0.00     0.045 C 
BRANCH  29  32
HETATM   32  O1  UNL     1      22.041  43.857 -12.743  1.00  0.00    -0.390 OA
ATOM     33  H1  UNL     1      21.621  44.387 -13.410  1.00  0.00     0.210 HD
ENDBRANCH  29  32
ENDBRANCH  27  29
ENDBRANCH  26  27
ENDBRANCH  25  26
ENDBRANCH  18  25
ENDBRANCH   1  18
BRANCH  13  34
HETATM   34  O2  UNL     1      18.502  38.692 -13.140  1.00  0.00    -0.390 OA
ATOM     35  H2  UNL     1      18.724  37.885 -12.692  1.00  0.00     0.210 HD
ENDBRANCH  13  34
BRANCH  14  36
HETATM   36  C29 UNL     1      15.267  39.363 -12.682  1.00  0.00    -0.015 C 
HETATM   37  C30 UNL     1      14.090  38.830 -12.437  1.00  0.00    -0.002 C 
BRANCH  37  38
HETATM   38  C31 UNL     1      12.876  39.250 -13.132  1.00  0.00     0.016 C 
HETATM   39  C32 UNL     1      11.685  38.794 -12.804  1.00  0.00     0.048 C 
HETATM   40  C33 UNL     1      10.435  39.158 -13.439  1.00  0.00     0.292 C 
HETATM   41  C35 UNL     1      11.338  37.815 -11.728  1.00  0.00     0.181 C 
HETATM   42  O3  UNL     1      10.295  39.986 -14.396  1.00  0.00    -0.260 OA
HETATM   43  O4  UNL     1       9.403  38.436 -12.812  1.00  0.00    -0.315 OA
HETATM   44  C34 UNL     1       9.873  38.089 -11.502  1.00  0.00     0.215 C 
BRANCH  41  45
HETATM   45  O5  UNL     1      11.563  36.517 -12.160  1.00  0.00    -0.389 OA
ATOM     46  H5  UNL     1      10.920  36.267 -12.813  1.00  0.00     0.210 HD
ENDBRANCH  41  45
ENDBRANCH  37  38
ENDBRANCH  14  36
TORSDOF 14
ENDMDL
MODEL 5
REMARK VINA RESULT: -8.767666143      2.189      3.652
REMARK  14 active torsions:
REMARK  status: ('A' for Active; 'I' for Inactive)
REMARK    1  A    between atoms: C2_2  and  C4_4 
REMARK    2  A    between atoms: C4_4  and  C5_5 
REMARK    3  A    between atoms: C5_5  and  C6_6 
REMARK    4  A    between atoms: C6_6  and  C7_7 
REMARK    5  A    between atoms: C7_7  and  C8_8 
REMARK    6  A    between atoms: C7_7  and  C15_17 
REMARK    7  A    between atoms: C8_8  and  C9_9 
REMARK    8  A    between atoms: C9_9  and  C10_10 
REMARK    9  A    between atoms: C10_10  and  C12_12 
REMARK   10  A    between atoms: C12_12  and  O1_15 
REMARK   11  A    between atoms: C26_29  and  O2_30 
REMARK   12  A    between atoms: C27_32  and  C29_34 
REMARK   13  A    between atoms: C30_35  and  C31_36 
REMARK   14  A    between atoms: C35_42  and  O5_43 
ROOT
HETATM    1  C15 UNL     1      17.851  39.460  -8.630  1.00  0.00     0.000 C 
HETATM    2  C16 UNL     1      16.767  40.214  -7.862  1.00  0.00     0.027 C 
HETATM    3  C17 UNL     1      15.600  40.428  -8.826  1.00  0.00     0.096 C 
HETATM    4 CL1  UNL     1      14.122  39.850  -8.115  1.00  0.00    -0.124 Cl
HETATM    5  C18 UNL     1      16.023  39.907 -10.135  1.00  0.00     0.004 C 
HETATM    6  C19 UNL     1      16.635  41.059 -10.912  1.00  0.00     0.022 C 
HETATM    7  C20 UNL     1      15.061  39.308 -11.033  1.00  0.00    -0.064 C 
HETATM    8  C21 UNL     1      15.323  38.220 -11.732  1.00  0.00    -0.047 C 
HETATM    9  C22 UNL     1      16.631  37.499 -11.668  1.00  0.00     0.038 C 
HETATM   10  C23 UNL     1      17.670  38.309 -10.914  1.00  0.00     0.015 C 
HETATM   11  C24 UNL     1      17.059  38.890  -9.707  1.00  0.00    -0.027 C 
HETATM   12  C25 UNL     1      16.273  37.737  -9.048  1.00  0.00     0.016 C 
HETATM   13  C26 UNL     1      14.337  37.625 -12.663  1.00  0.00     0.159 C 
HETATM   14  C27 UNL     1      12.914  37.962 -12.400  1.00  0.00     0.004 C 
HETATM   15  C28 UNL     1      12.162  36.675 -12.135  1.00  0.00     0.022 C 
HETATM   16  C36 UNL     1      12.709  38.838 -11.188  1.00  0.00     0.020 C 
HETATM   17  C37 UNL     1      13.722  39.927 -11.213  1.00  0.00     0.036 C 
ENDROOT
BRANCH   1  18
HETATM   18  C7  UNL     1      19.064  40.259  -8.763  1.00  0.00    -0.010 C 
BRANCH  18  19
HETATM   19  C6  UNL     1      19.288  41.042  -7.458  1.00  0.00     0.005 C 
BRANCH  19  20
HETATM   20  C5  UNL     1      20.524  40.651  -6.723  1.00  0.00     0.001 C 
BRANCH  20  21
HETATM   21  C4  UNL     1      21.225  41.943  -6.295  1.00  0.00     0.004 C 
BRANCH  21  22
HETATM   22  C2  UNL     1      21.706  41.775  -4.852  1.00  0.00    -0.023 C 
HETATM   23  C1  UNL     1      20.538  41.444  -3.946  1.00  0.00     0.009 C 
HETATM   24  C3  UNL     1      22.446  42.984  -4.372  1.00  0.00     0.009 C 
ENDBRANCH  21  22
ENDBRANCH  20  21
ENDBRANCH  19  20
ENDBRANCH  18  19
BRANCH  18  25
HETATM   25  C8  UNL     1      20.345  39.597  -9.066  1.00  0.00     0.005 C 
BRANCH  25  26
HETATM   26  C9  UNL     1      21.062  40.222 -10.236  1.00  0.00     0.007 C 
BRANCH  26  27
HETATM   27  C10 UNL     1      20.130  41.121 -11.038  1.00  0.00     0.015 C 
HETATM   28  C11 UNL     1      20.065  40.748 -12.484  1.00  0.00     0.013 C 
BRANCH  27  29
HETATM   29  C12 UNL     1      20.720  42.518 -10.959  1.00  0.00     0.054 C 
HETATM   30  C13 UNL     1      21.996  42.531 -10.144  1.00  0.00     0.045 C 
HETATM   31  C14 UNL     1      19.786  43.517 -10.351  1.00  0.00     0.045 C 
BRANCH  29  32
HETATM   32  O1  UNL     1      21.075  42.900 -12.266  1.00  0.00    -0.390 OA
ATOM     33  H1  UNL     1      20.310  43.298 -12.664  1.00  0.00     0.210 HD
ENDBRANCH  29  32
ENDBRANCH  27  29
ENDBRANCH  26  27
ENDBRANCH  25  26
ENDBRANCH  18  25
ENDBRANCH   1  18
BRANCH  13  34
HETATM   34  O2  UNL     1      14.514  36.255 -12.860  1.00  0.00    -0.390 OA
ATOM     35  H2  UNL     1      13.961  35.718 -12.305  1.00  0.00     0.210 HD
ENDBRANCH  13  34
BRANCH  14  36
HETATM   36  C29 UNL     1      12.272  38.623 -13.559  1.00  0.00    -0.015 C 
HETATM   37  C30 UNL     1      12.974  39.454 -14.299  1.00  0.00    -0.002 C 
BRANCH  37  38
HETATM   38  C31 UNL     1      12.411  40.144 -15.457  1.00  0.00     0.016 C 
HETATM   39  C32 UNL     1      11.706  41.250 -15.343  1.00  0.00     0.048 C 
HETATM   40  C33 UNL     1      11.116  41.995 -16.435  1.00  0.00     0.292 C 
HETATM   41  C35 UNL     1      11.351  41.990 -14.093  1.00  0.00     0.181 C 
HETATM   42  O3  UNL     1      11.201  41.704 -17.672  1.00  0.00    -0.260 OA
HETATM   43  O4  UNL     1      10.430  43.095 -15.890  1.00  0.00    -0.315 OA
HETATM   44  C34 UNL     1      11.024  43.366 -14.613  1.00  0.00     0.215 C 
BRANCH  41  45
HETATM   45  O5  UNL     1      10.264  41.398 -13.469  1.00  0.00    -0.389 OA
ATOM     46  H5  UNL     1       9.637  41.090 -14.113  1.00  0.00     0.210 HD
ENDBRANCH  41  45
ENDBRANCH  37  38
ENDBRANCH  14  36
TORSDOF 14
ENDMDL
