MODEL 1
REMARK VINA RESULT: -8.902804536      0.000      0.000
REMARK  12 active torsions:
REMARK  status: ('A' for Active; 'I' for Inactive)
REMARK    1  A    between atoms: C2_2  and  C29_32 
REMARK    2  A    between atoms: C3_3  and  C4_4 
REMARK    3  A    between atoms: C5_5  and  C6_6 
REMARK    4  A    between atoms: C8_8  and  O1_9 
REMARK    5  A    between atoms: O1_9  and  C9_10 
REMARK    6  A    between atoms: C9_10  and  C10_12 
REMARK    7  A    between atoms: C29_32  and  N1_34 
REMARK    8  A    between atoms: N1_34  and  C31_36 
REMARK    9  A    between atoms: C31_36  and  C32_37 
REMARK   10  A    between atoms: C31_36  and  C35_42 
REMARK   11  A    between atoms: C32_37  and  C33_38 
REMARK   12  A    between atoms: C33_38  and  C34_39 
ROOT
HETATM    1  C6  UNL     1      20.017  41.458 -10.348  1.00  0.00     0.015 C 
HETATM    2  C7  UNL     1      20.005  42.868 -10.779  1.00  0.00     0.042 C 
HETATM    3  C8  UNL     1      21.214  43.706 -10.576  1.00  0.00     0.140 C 
HETATM    4  C11 UNL     1      21.396  44.469  -9.322  1.00  0.00    -0.017 C 
HETATM    5  C12 UNL     1      20.485  45.688  -9.327  1.00  0.00     0.018 C 
HETATM    6  C13 UNL     1      22.794  45.121  -9.522  1.00  0.00     0.018 C 
HETATM    7  C14 UNL     1      21.508  43.720  -8.043  1.00  0.00     0.005 C 
HETATM    8  C15 UNL     1      22.670  42.741  -8.284  1.00  0.00     0.007 C 
HETATM    9  C16 UNL     1      22.254  41.333  -8.474  1.00  0.00     0.011 C 
HETATM   10  C17 UNL     1      20.892  40.994  -7.968  1.00  0.00    -0.032 C 
HETATM   11  C18 UNL     1      21.027  39.538  -7.468  1.00  0.00     0.016 C 
HETATM   12  C19 UNL     1      19.767  41.119  -8.915  1.00  0.00     0.002 C 
HETATM   13  C20 UNL     1      18.608  41.983  -8.466  1.00  0.00     0.007 C 
HETATM   14  C21 UNL     1      19.020  43.204  -7.735  1.00  0.00     0.011 C 
HETATM   15  C22 UNL     1      20.428  43.215  -7.213  1.00  0.00    -0.028 C 
HETATM   16  C23 UNL     1      20.252  44.044  -5.917  1.00  0.00     0.011 C 
HETATM   17  C24 UNL     1      21.455  44.110  -5.068  1.00  0.00     0.001 C 
HETATM   18  C25 UNL     1      22.085  42.804  -4.790  1.00  0.00     0.001 C 
HETATM   19  C26 UNL     1      21.803  41.681  -5.708  1.00  0.00     0.011 C 
HETATM   20  C27 UNL     1      20.686  41.799  -6.663  1.00  0.00    -0.028 C 
HETATM   21  C28 UNL     1      19.494  41.174  -5.996  1.00  0.00     0.016 C 
ENDROOT
BRANCH   1  22
HETATM   22  C5  UNL     1      18.911  40.792 -11.133  1.00  0.00    -0.022 C 
HETATM   23  C4  UNL     1      18.598  39.533 -11.087  1.00  0.00    -0.003 C 
BRANCH  23  24
HETATM   24  C3  UNL     1      17.519  38.961 -11.871  1.00  0.00     0.004 C 
HETATM   25  C2  UNL     1      16.387  38.556 -11.350  1.00  0.00    -0.062 C 
HETATM   26  C1  UNL     1      16.144  38.667  -9.887  1.00  0.00     0.045 C 
BRANCH  25  27
HETATM   27  C29 UNL     1      15.319  38.006 -12.202  1.00  0.00     0.102 C 
HETATM   28  C30 UNL     1      15.064  38.949 -13.365  1.00  0.00     0.037 C 
BRANCH  27  29
HETATM   29  N1  UNL     1      15.454  36.645 -12.585  1.00  0.00    -0.401 N 
ATOM     30  H1  UNL     1      16.066  36.367 -13.352  1.00  0.00     0.154 HD
BRANCH  29  31
HETATM   31  C31 UNL     1      14.700  35.687 -11.852  1.00  0.00     0.179 C 
BRANCH  31  32
HETATM   32  C32 UNL     1      14.014  34.673 -12.756  1.00  0.00     0.046 C 
BRANCH  32  33
HETATM   33  C33 UNL     1      12.631  35.096 -13.130  1.00  0.00     0.116 C 
BRANCH  33  34
HETATM   34  C34 UNL     1      11.786  35.233 -11.920  1.00  0.00     0.172 C 
HETATM   35  O3  UNL     1      11.564  34.279 -11.149  1.00  0.00    -0.648 OA
HETATM   36  O4  UNL     1      11.228  36.470 -11.647  1.00  0.00    -0.648 OA
ENDBRANCH  33  34
ENDBRANCH  32  33
ENDBRANCH  31  32
BRANCH  31  37
HETATM   37  C35 UNL     1      15.574  34.915 -10.934  1.00  0.00     0.196 C 
HETATM   38  O5  UNL     1      16.815  35.068 -10.935  1.00  0.00    -0.646 OA
HETATM   39  O6  UNL     1      15.011  34.010 -10.058  1.00  0.00    -0.646 OA
ENDBRANCH  31  37
ENDBRANCH  29  31
ENDBRANCH  27  29
ENDBRANCH  25  27
ENDBRANCH  23  24
ENDBRANCH   1  22
BRANCH   3  40
HETATM   40  O1  UNL     1      21.108  44.753 -11.572  1.00  0.00    -0.314 OA
BRANCH  40  41
HETATM   41  C9  UNL     1      21.638  44.652 -12.842  1.00  0.00     0.273 C 
HETATM   42  O2  UNL     1      20.981  44.070 -13.738  1.00  0.00    -0.264 OA
BRANCH  41  43
HETATM   43  C10 UNL     1      22.974  45.216 -13.184  1.00  0.00     0.225 C 
HETATM   44 CL1  UNL     1      22.975  46.937 -12.751  1.00  0.00    -0.120 Cl
ENDBRANCH  41  43
ENDBRANCH  40  41
ENDBRANCH   3  40
TORSDOF 12
ENDMDL
MODEL 2
REMARK VINA RESULT: -8.877094737      1.073      2.124
REMARK  12 active torsions:
REMARK  status: ('A' for Active; 'I' for Inactive)
REMARK    1  A    between atoms: C2_2  and  C29_32 
REMARK    2  A    between atoms: C3_3  and  C4_4 
REMARK    3  A    between atoms: C5_5  and  C6_6 
REMARK    4  A    between atoms: C8_8  and  O1_9 
REMARK    5  A    between atoms: O1_9  and  C9_10 
REMARK    6  A    between atoms: C9_10  and  C10_12 
REMARK    7  A    between atoms: C29_32  and  N1_34 
REMARK    8  A    between atoms: N1_34  and  C31_36 
REMARK    9  A    between atoms: C31_36  and  C32_37 
REMARK   10  A    between atoms: C31_36  and  C35_42 
REMARK   11  A    between atoms: C32_37  and  C33_38 
REMARK   12  A    between atoms: C33_38  and  C34_39 
ROOT
HETATM    1  C6  UNL     1      20.426  41.615 -10.617  1.00  0.00     0.015 C 
HETATM    2  C7  UNL     1      20.413  43.041 -10.994  1.00  0.00     0.042 C 
HETATM    3  C8  UNL     1      21.559  43.908 -10.620  1.00  0.00     0.140 C 
HETATM    4  C11 UNL     1      21.567  44.623  -9.325  1.00  0.00    -0.017 C 
HETATM    5  C12 UNL     1      20.620  45.812  -9.391  1.00  0.00     0.018 C 
HETATM    6  C13 UNL     1      22.954  45.328  -9.336  1.00  0.00     0.018 C 
HETATM    7  C14 UNL     1      21.559  43.826  -8.071  1.00  0.00     0.005 C 
HETATM    8  C15 UNL     1      22.776  42.895  -8.212  1.00  0.00     0.007 C 
HETATM    9  C16 UNL     1      22.435  41.484  -8.501  1.00  0.00     0.011 C 
HETATM   10  C17 UNL     1      21.038  41.081  -8.171  1.00  0.00    -0.032 C 
HETATM   11  C18 UNL     1      21.167  39.610  -7.714  1.00  0.00     0.016 C 
HETATM   12  C19 UNL     1      20.026  41.209  -9.238  1.00  0.00     0.002 C 
HETATM   13  C20 UNL     1      18.792  42.016  -8.894  1.00  0.00     0.007 C 
HETATM   14  C21 UNL     1      19.072  43.218  -8.074  1.00  0.00     0.011 C 
HETATM   15  C22 UNL     1      20.409  43.252  -7.392  1.00  0.00    -0.028 C 
HETATM   16  C23 UNL     1      20.055  44.021  -6.095  1.00  0.00     0.011 C 
HETATM   17  C24 UNL     1      21.149  44.090  -5.110  1.00  0.00     0.001 C 
HETATM   18  C25 UNL     1      21.790  42.794  -4.810  1.00  0.00     0.001 C 
HETATM   19  C26 UNL     1      21.657  41.702  -5.796  1.00  0.00     0.011 C 
HETATM   20  C27 UNL     1      20.654  41.824  -6.870  1.00  0.00    -0.028 C 
HETATM   21  C28 UNL     1      19.417  41.134  -6.370  1.00  0.00     0.016 C 
ENDROOT
BRANCH   1  22
HETATM   22  C5  UNL     1      19.443  40.947 -11.550  1.00  0.00    -0.022 C 
HETATM   23  C4  UNL     1      18.938  39.761 -11.400  1.00  0.00    -0.003 C 
BRANCH  23  24
HETATM   24  C3  UNL     1      17.995  39.183 -12.340  1.00  0.00     0.004 C 
HETATM   25  C2  UNL     1      16.704  39.395 -12.285  1.00  0.00    -0.062 C 
HETATM   26  C1  UNL     1      16.122  40.264 -11.227  1.00  0.00     0.045 C 
BRANCH  25  27
HETATM   27  C29 UNL     1      15.798  38.798 -13.282  1.00  0.00     0.102 C 
HETATM   28  C30 UNL     1      16.617  38.082 -14.343  1.00  0.00     0.037 C 
BRANCH  27  29
HETATM   29  N1  UNL     1      14.718  38.029 -12.775  1.00  0.00    -0.401 N 
ATOM     30  H1  UNL     1      13.773  38.409 -12.722  1.00  0.00     0.154 HD
BRANCH  29  31
HETATM   31  C31 UNL     1      15.010  36.704 -12.345  1.00  0.00     0.179 C 
BRANCH  31  32
HETATM   32  C32 UNL     1      15.302  36.630 -10.852  1.00  0.00     0.046 C 
BRANCH  32  33
HETATM   33  C33 UNL     1      16.683  36.136 -10.573  1.00  0.00     0.116 C 
BRANCH  33  34
HETATM   34  C34 UNL     1      16.659  34.696 -10.224  1.00  0.00     0.172 C 
HETATM   35  O3  UNL     1      15.712  34.176  -9.602  1.00  0.00    -0.648 OA
HETATM   36  O4  UNL     1      17.731  33.910 -10.609  1.00  0.00    -0.648 OA
ENDBRANCH  33  34
ENDBRANCH  32  33
ENDBRANCH  31  32
BRANCH  31  37
HETATM   37  C35 UNL     1      13.862  35.800 -12.600  1.00  0.00     0.196 C 
HETATM   38  O5  UNL     1      12.709  36.247 -12.786  1.00  0.00    -0.646 OA
HETATM   39  O6  UNL     1      14.065  34.436 -12.633  1.00  0.00    -0.646 OA
ENDBRANCH  31  37
ENDBRANCH  29  31
ENDBRANCH  27  29
ENDBRANCH  25  27
ENDBRANCH  23  24
ENDBRANCH   1  22
BRANCH   3  40
HETATM   40  O1  UNL     1      21.530  44.991 -11.581  1.00  0.00    -0.314 OA
BRANCH  40  41
HETATM   41  C9  UNL     1      22.131  44.924 -12.822  1.00  0.00     0.273 C 
HETATM   42  O2  UNL     1      21.612  44.218 -13.719  1.00  0.00    -0.264 OA
BRANCH  41  43
HETATM   43  C10 UNL     1      23.382  45.671 -13.131  1.00  0.00     0.225 C 
HETATM   44 CL1  UNL     1      24.737  44.825 -12.358  1.00  0.00    -0.120 Cl
ENDBRANCH  41  43
ENDBRANCH  40  41
ENDBRANCH   3  40
TORSDOF 12
ENDMDL
MODEL 3
REMARK VINA RESULT: -8.841715318      1.269      2.259
REMARK  12 active torsions:
REMARK  status: ('A' for Active; 'I' for Inactive)
REMARK    1  A    between atoms: C2_2  and  C29_32 
REMARK    2  A    between atoms: C3_3  and  C4_4 
REMARK    3  A    between atoms: C5_5  and  C6_6 
REMARK    4  A    between atoms: C8_8  and  O1_9 
REMARK    5  A    between atoms: O1_9  and  C9_10 
REMARK    6  A    between atoms: C9_10  and  C10_12 
REMARK    7  A    between atoms: C29_32  and  N1_34 
REMARK    8  A    between atoms: N1_34  and  C31_36 
REMARK    9  A    between atoms: C31_36  and  C32_37 
REMARK   10  A    between atoms: C31_36  and  C35_42 
REMARK   11  A    between atoms: C32_37  and  C33_38 
REMARK   12  A    between atoms: C33_38  and  C34_39 
ROOT
HETATM    1  C6  UNL     1      20.021  41.806 -10.344  1.00  0.00     0.015 C 
HETATM    2  C7  UNL     1      20.040  43.268 -10.538  1.00  0.00     0.042 C 
HETATM    3  C8  UNL     1      21.262  44.037 -10.191  1.00  0.00     0.140 C 
HETATM    4  C11 UNL     1      21.444  44.579  -8.827  1.00  0.00    -0.017 C 
HETATM    5  C12 UNL     1      20.556  45.800  -8.638  1.00  0.00     0.018 C 
HETATM    6  C13 UNL     1      22.856  45.227  -8.906  1.00  0.00     0.018 C 
HETATM    7  C14 UNL     1      21.529  43.628  -7.687  1.00  0.00     0.005 C 
HETATM    8  C15 UNL     1      22.675  42.679  -8.078  1.00  0.00     0.007 C 
HETATM    9  C16 UNL     1      22.235  41.330  -8.499  1.00  0.00     0.011 C 
HETATM   10  C17 UNL     1      20.862  40.940  -8.067  1.00  0.00    -0.032 C 
HETATM   11  C18 UNL     1      20.965  39.419  -7.813  1.00  0.00     0.016 C 
HETATM   12  C19 UNL     1      19.750  41.241  -8.989  1.00  0.00     0.002 C 
HETATM   13  C20 UNL     1      18.603  42.042  -8.412  1.00  0.00     0.007 C 
HETATM   14  C21 UNL     1      19.029  43.118  -7.487  1.00  0.00     0.011 C 
HETATM   15  C22 UNL     1      20.431  43.014  -6.961  1.00  0.00    -0.028 C 
HETATM   16  C23 UNL     1      20.256  43.623  -5.547  1.00  0.00     0.011 C 
HETATM   17  C24 UNL     1      21.451  43.525  -4.689  1.00  0.00     0.001 C 
HETATM   18  C25 UNL     1      22.054  42.179  -4.625  1.00  0.00     0.001 C 
HETATM   19  C26 UNL     1      21.762  41.227  -5.718  1.00  0.00     0.011 C 
HETATM   20  C27 UNL     1      20.657  41.523  -6.649  1.00  0.00    -0.028 C 
HETATM   21  C28 UNL     1      19.447  40.820  -6.103  1.00  0.00     0.016 C 
ENDROOT
BRANCH   1  22
HETATM   22  C5  UNL     1      18.912  41.299 -11.237  1.00  0.00    -0.022 C 
HETATM   23  C4  UNL     1      18.517  40.067 -11.333  1.00  0.00    -0.003 C 
BRANCH  23  24
HETATM   24  C3  UNL     1      17.440  39.653 -12.214  1.00  0.00     0.004 C 
HETATM   25  C2  UNL     1      16.249  39.318 -11.785  1.00  0.00    -0.062 C 
HETATM   26  C1  UNL     1      15.930  39.346 -10.333  1.00  0.00     0.045 C 
BRANCH  25  27
HETATM   27  C29 UNL     1      15.188  38.928 -12.731  1.00  0.00     0.102 C 
HETATM   28  C30 UNL     1      15.805  38.177 -13.899  1.00  0.00     0.037 C 
BRANCH  27  29
HETATM   29  N1  UNL     1      14.048  38.290 -12.176  1.00  0.00    -0.401 N 
ATOM     30  H1  UNL     1      13.677  38.563 -11.266  1.00  0.00     0.154 HD
BRANCH  29  31
HETATM   31  C31 UNL     1      13.447  37.253 -12.943  1.00  0.00     0.179 C 
BRANCH  31  32
HETATM   32  C32 UNL     1      13.179  36.001 -12.118  1.00  0.00     0.046 C 
BRANCH  32  33
HETATM   33  C33 UNL     1      14.233  34.961 -12.315  1.00  0.00     0.116 C 
BRANCH  33  34
HETATM   34  C34 UNL     1      15.242  35.034 -11.232  1.00  0.00     0.172 C 
HETATM   35  O3  UNL     1      16.204  35.826 -11.268  1.00  0.00    -0.648 OA
HETATM   36  O4  UNL     1      15.101  34.186 -10.147  1.00  0.00    -0.648 OA
ENDBRANCH  33  34
ENDBRANCH  32  33
ENDBRANCH  31  32
BRANCH  31  37
HETATM   37  C35 UNL     1      12.139  37.690 -13.490  1.00  0.00     0.196 C 
HETATM   38  O5  UNL     1      12.066  38.562 -14.384  1.00  0.00    -0.646 OA
HETATM   39  O6  UNL     1      10.976  37.126 -13.007  1.00  0.00    -0.646 OA
ENDBRANCH  31  37
ENDBRANCH  29  31
ENDBRANCH  27  29
ENDBRANCH  25  27
ENDBRANCH  23  24
ENDBRANCH   1  22
BRANCH   3  40
HETATM   40  O1  UNL     1      21.186  45.235 -11.001  1.00  0.00    -0.314 OA
BRANCH  40  41
HETATM   41  C9  UNL     1      20.995  45.218 -12.368  1.00  0.00     0.273 C 
HETATM   42  O2  UNL     1      20.049  45.875 -12.865  1.00  0.00    -0.264 OA
BRANCH  41  43
HETATM   43  C10 UNL     1      21.884  44.441 -13.277  1.00  0.00     0.225 C 
HETATM   44 CL1  UNL     1      20.877  43.315 -14.206  1.00  0.00    -0.120 Cl
ENDBRANCH  41  43
ENDBRANCH  40  41
ENDBRANCH   3  40
TORSDOF 12
ENDMDL
MODEL 4
REMARK VINA RESULT: -8.785614234      1.123      2.131
REMARK  12 active torsions:
REMARK  status: ('A' for Active; 'I' for Inactive)
REMARK    1  A    between atoms: C2_2  and  C29_32 
REMARK    2  A    between atoms: C3_3  and  C4_4 
REMARK    3  A    between atoms: C5_5  and  C6_6 
REMARK    4  A    between atoms: C8_8  and  O1_9 
REMARK    5  A    between atoms: O1_9  and  C9_10 
REMARK    6  A    between atoms: C9_10  and  C10_12 
REMARK    7  A    between atoms: C29_32  and  N1_34 
REMARK    8  A    between atoms: N1_34  and  C31_36 
REMARK    9  A    between atoms: C31_36  and  C32_37 
REMARK   10  A    between atoms: C31_36  and  C35_42 
REMARK   11  A    between atoms: C32_37  and  C33_38 
REMARK   12  A    between atoms: C33_38  and  C34_39 
ROOT
HETATM    1  C6  UNL     1      20.072  41.512 -10.490  1.00  0.00     0.015 C 
HETATM    2  C7  UNL     1      20.139  42.946 -10.828  1.00  0.00     0.042 C 
HETATM    3  C8  UNL     1      21.373  43.714 -10.522  1.00  0.00     0.140 C 
HETATM    4  C11 UNL     1      21.533  44.385  -9.214  1.00  0.00    -0.017 C 
HETATM    5  C12 UNL     1      20.676  45.642  -9.175  1.00  0.00     0.018 C 
HETATM    6  C13 UNL     1      22.964  44.985  -9.314  1.00  0.00     0.018 C 
HETATM    7  C14 UNL     1      21.558  43.552  -7.983  1.00  0.00     0.005 C 
HETATM    8  C15 UNL     1      22.687  42.539  -8.242  1.00  0.00     0.007 C 
HETATM    9  C16 UNL     1      22.219  41.166  -8.540  1.00  0.00     0.011 C 
HETATM   10  C17 UNL     1      20.824  40.857  -8.113  1.00  0.00    -0.032 C 
HETATM   11  C18 UNL     1      20.875  39.367  -7.705  1.00  0.00     0.016 C 
HETATM   12  C19 UNL     1      19.747  41.094  -9.094  1.00  0.00     0.002 C 
HETATM   13  C20 UNL     1      18.608  41.978  -8.635  1.00  0.00     0.007 C 
HETATM   14  C21 UNL     1      19.039  43.130  -7.810  1.00  0.00     0.011 C 
HETATM   15  C22 UNL     1      20.423  43.043  -7.233  1.00  0.00    -0.028 C 
HETATM   16  C23 UNL     1      20.227  43.795  -5.893  1.00  0.00     0.011 C 
HETATM   17  C24 UNL     1      21.394  43.752  -4.994  1.00  0.00     0.001 C 
HETATM   18  C25 UNL     1      21.955  42.404  -4.777  1.00  0.00     0.001 C 
HETATM   19  C26 UNL     1      21.666  41.356  -5.778  1.00  0.00     0.011 C 
HETATM   20  C27 UNL     1      20.596  41.586  -6.767  1.00  0.00    -0.028 C 
HETATM   21  C28 UNL     1      19.351  40.973  -6.191  1.00  0.00     0.016 C 
ENDROOT
BRANCH   1  22
HETATM   22  C5  UNL     1      18.974  40.948 -11.361  1.00  0.00    -0.022 C 
HETATM   23  C4  UNL     1      18.417  39.783 -11.224  1.00  0.00    -0.003 C 
BRANCH  23  24
HETATM   24  C3  UNL     1      17.363  39.308 -12.101  1.00  0.00     0.004 C 
HETATM   25  C2  UNL     1      16.089  39.508 -11.868  1.00  0.00    -0.062 C 
HETATM   26  C1  UNL     1      15.647  40.255 -10.661  1.00  0.00     0.045 C 
BRANCH  25  27
HETATM   27  C29 UNL     1      15.065  39.019 -12.809  1.00  0.00     0.102 C 
HETATM   28  C30 UNL     1      15.742  38.304 -13.966  1.00  0.00     0.037 C 
BRANCH  27  29
HETATM   29  N1  UNL     1      13.981  38.298 -12.244  1.00  0.00    -0.401 N 
ATOM     30  H1  UNL     1      13.645  38.494 -11.301  1.00  0.00     0.154 HD
BRANCH  29  31
HETATM   31  C31 UNL     1      13.383  37.289 -13.050  1.00  0.00     0.179 C 
BRANCH  31  32
HETATM   32  C32 UNL     1      13.097  36.014 -12.268  1.00  0.00     0.046 C 
BRANCH  32  33
HETATM   33  C33 UNL     1      14.171  34.992 -12.446  1.00  0.00     0.116 C 
BRANCH  33  34
HETATM   34  C34 UNL     1      15.124  35.036 -11.312  1.00  0.00     0.172 C 
HETATM   35  O3  UNL     1      15.011  34.295 -10.316  1.00  0.00    -0.648 OA
HETATM   36  O4  UNL     1      16.173  35.937 -11.373  1.00  0.00    -0.648 OA
ENDBRANCH  33  34
ENDBRANCH  32  33
ENDBRANCH  31  32
BRANCH  31  37
HETATM   37  C35 UNL     1      12.084  37.751 -13.599  1.00  0.00     0.196 C 
HETATM   38  O5  UNL     1      12.031  38.535 -14.572  1.00  0.00    -0.646 OA
HETATM   39  O6  UNL     1      10.908  37.309 -13.029  1.00  0.00    -0.646 OA
ENDBRANCH  31  37
ENDBRANCH  29  31
ENDBRANCH  27  29
ENDBRANCH  25  27
ENDBRANCH  23  24
ENDBRANCH   1  22
BRANCH   3  40
HETATM   40  O1  UNL     1      21.354  44.826 -11.449  1.00  0.00    -0.314 OA
BRANCH  40  41
HETATM   41  C9  UNL     1      21.974  44.799 -12.682  1.00  0.00     0.273 C 
HETATM   42  O2  UNL     1      21.491  44.091 -13.599  1.00  0.00    -0.264 OA
BRANCH  41  43
HETATM   43  C10 UNL     1      23.205  45.590 -12.961  1.00  0.00     0.225 C 
HETATM   44 CL1  UNL     1      24.603  44.654 -12.400  1.00  0.00    -0.120 Cl
ENDBRANCH  41  43
ENDBRANCH  40  41
ENDBRANCH   3  40
TORSDOF 12
ENDMDL
MODEL 5
REMARK VINA RESULT: -8.730163011      2.571      3.627
REMARK  12 active torsions:
REMARK  status: ('A' for Active; 'I' for Inactive)
REMARK    1  A    between atoms: C2_2  and  C29_32 
REMARK    2  A    between atoms: C3_3  and  C4_4 
REMARK    3  A    between atoms: C5_5  and  C6_6 
REMARK    4  A    between atoms: C8_8  and  O1_9 
REMARK    5  A    between atoms: O1_9  and  C9_10 
REMARK    6  A    between atoms: C9_10  and  C10_12 
REMARK    7  A    between atoms: C29_32  and  N1_34 
REMARK    8  A    between atoms: N1_34  and  C31_36 
REMARK    9  A    between atoms: C31_36  and  C32_37 
REMARK   10  A    between atoms: C31_36  and  C35_42 
REMARK   11  A    between atoms: C32_37  and  C33_38 
REMARK   12  A    between atoms: C33_38  and  C34_39 
ROOT
HETATM    1  C6  UNL     1      17.917  43.116  -9.394  1.00  0.00     0.015 C 
HETATM    2  C7  UNL     1      17.353  43.928  -8.299  1.00  0.00     0.042 C 
HETATM    3  C8  UNL     1      17.829  45.320  -8.100  1.00  0.00     0.140 C 
HETATM    4  C11 UNL     1      18.987  45.598  -7.222  1.00  0.00    -0.017 C 
HETATM    5  C12 UNL     1      18.566  45.475  -5.765  1.00  0.00     0.018 C 
HETATM    6  C13 UNL     1      19.161  47.137  -7.368  1.00  0.00     0.018 C 
HETATM    7  C14 UNL     1      20.311  45.031  -7.589  1.00  0.00     0.005 C 
HETATM    8  C15 UNL     1      20.550  45.540  -9.021  1.00  0.00     0.007 C 
HETATM    9  C16 UNL     1      20.395  44.507 -10.070  1.00  0.00     0.011 C 
HETATM   10  C17 UNL     1      20.487  43.095  -9.598  1.00  0.00    -0.032 C 
HETATM   11  C18 UNL     1      21.159  42.347 -10.772  1.00  0.00     0.016 C 
HETATM   12  C19 UNL     1      19.229  42.429  -9.206  1.00  0.00     0.002 C 
HETATM   13  C20 UNL     1      19.200  41.819  -7.821  1.00  0.00     0.007 C 
HETATM   14  C21 UNL     1      19.885  42.636  -6.793  1.00  0.00     0.011 C 
HETATM   15  C22 UNL     1      20.813  43.697  -7.308  1.00  0.00    -0.028 C 
HETATM   16  C23 UNL     1      21.892  43.704  -6.197  1.00  0.00     0.011 C 
HETATM   17  C24 UNL     1      23.061  44.555  -6.487  1.00  0.00     0.001 C 
HETATM   18  C25 UNL     1      23.661  44.342  -7.819  1.00  0.00     0.001 C 
HETATM   19  C26 UNL     1      22.829  43.723  -8.872  1.00  0.00     0.011 C 
HETATM   20  C27 UNL     1      21.567  43.062  -8.491  1.00  0.00    -0.028 C 
HETATM   21  C28 UNL     1      21.895  41.608  -8.300  1.00  0.00     0.016 C 
ENDROOT
BRANCH   1  22
HETATM   22  C5  UNL     1      16.905  42.023  -9.643  1.00  0.00    -0.022 C 
HETATM   23  C4  UNL     1      16.891  41.216 -10.660  1.00  0.00    -0.003 C 
BRANCH  23  24
HETATM   24  C3  UNL     1      15.884  40.185 -10.832  1.00  0.00     0.004 C 
HETATM   25  C2  UNL     1      15.987  39.220 -11.712  1.00  0.00    -0.062 C 
HETATM   26  C1  UNL     1      17.174  39.129 -12.602  1.00  0.00     0.045 C 
BRANCH  25  27
HETATM   27  C29 UNL     1      14.941  38.188 -11.824  1.00  0.00     0.102 C 
HETATM   28  C30 UNL     1      13.766  38.742 -12.611  1.00  0.00     0.037 C 
BRANCH  27  29
HETATM   29  N1  UNL     1      15.366  36.903 -12.254  1.00  0.00    -0.401 N 
ATOM     30  H1  UNL     1      16.064  36.792 -12.989  1.00  0.00     0.154 HD
BRANCH  29  31
HETATM   31  C31 UNL     1      14.774  35.776 -11.616  1.00  0.00     0.179 C 
BRANCH  31  32
HETATM   32  C32 UNL     1      14.240  34.758 -12.614  1.00  0.00     0.046 C 
BRANCH  32  33
HETATM   33  C33 UNL     1      12.849  35.076 -13.053  1.00  0.00     0.116 C 
BRANCH  33  34
HETATM   34  C34 UNL     1      11.947  35.182 -11.882  1.00  0.00     0.172 C 
HETATM   35  O3  UNL     1      11.735  34.223 -11.113  1.00  0.00    -0.648 OA
HETATM   36  O4  UNL     1      11.323  36.394 -11.643  1.00  0.00    -0.648 OA
ENDBRANCH  33  34
ENDBRANCH  32  33
ENDBRANCH  31  32
BRANCH  31  37
HETATM   37  C35 UNL     1      15.765  35.066 -10.771  1.00  0.00     0.196 C 
HETATM   38  O5  UNL     1      16.989  35.310 -10.859  1.00  0.00    -0.646 OA
HETATM   39  O6  UNL     1      15.334  34.116  -9.869  1.00  0.00    -0.646 OA
ENDBRANCH  31  37
ENDBRANCH  29  31
ENDBRANCH  27  29
ENDBRANCH  25  27
ENDBRANCH  23  24
ENDBRANCH   1  22
BRANCH   3  40
HETATM   40  O1  UNL     1      16.742  45.986  -7.411  1.00  0.00    -0.314 OA
BRANCH  40  41
HETATM   41  C9  UNL     1      15.607  46.446  -8.047  1.00  0.00     0.273 C 
HETATM   42  O2  UNL     1      14.491  45.959  -7.743  1.00  0.00    -0.264 OA
BRANCH  41  43
HETATM   43  C10 UNL     1      15.665  47.509  -9.089  1.00  0.00     0.225 C 
HETATM   44 CL1  UNL     1      16.409  48.949  -8.369  1.00  0.00    -0.120 Cl
ENDBRANCH  41  43
ENDBRANCH  40  41
ENDBRANCH   3  40
TORSDOF 12
ENDMDL
