MODEL 1
REMARK VINA RESULT: -8.465461968      0.000      0.000
REMARK  14 active torsions:
REMARK  status: ('A' for Active; 'I' for Inactive)
REMARK    1  A    between atoms: C4_4  and  C5_5 
REMARK    2  A    between atoms: C5_5  and  C6_6 
REMARK    3  A    between atoms: C6_6  and  C7_7 
REMARK    4  A    between atoms: C9_9  and  C10_10 
REMARK    5  A    between atoms: C10_10  and  C11_11 
REMARK    6  A    between atoms: C11_11  and  C12_12 
REMARK    7  A    between atoms: C16_17  and  O2_18 
REMARK    8  A    between atoms: C17_20  and  C18_21 
REMARK    9  A    between atoms: C18_21  and  C19_23 
REMARK   10  A    between atoms: C20_24  and  C21_25 
REMARK   11  A    between atoms: C30_35  and  C31_36 
REMARK   12  A    between atoms: C31_36  and  C32_37 
REMARK   13  A    between atoms: C35_40  and  O4_41 
REMARK   14  A    between atoms: C35_40  and  C36_43 
ROOT
HETATM    1  C12 UNL     1      16.881  40.827  -9.066  1.00  0.00    -0.033 C 
HETATM    2  C13 UNL     1      15.620  41.624  -8.805  1.00  0.00     0.016 C 
HETATM    3  C14 UNL     1      17.608  40.363  -7.856  1.00  0.00     0.091 C 
HETATM    4  C15 UNL     1      18.805  41.143  -7.510  1.00  0.00     0.163 C 
HETATM    5  O1  UNL     1      19.078  41.274  -6.340  1.00  0.00    -0.295 OA
HETATM    6  C16 UNL     1      19.694  41.774  -8.522  1.00  0.00     0.136 C 
HETATM    7  C17 UNL     1      20.679  42.698  -7.914  1.00  0.00     0.102 C 
HETATM    8  C24 UNL     1      21.571  43.282  -8.989  1.00  0.00     0.016 C 
HETATM    9  C25 UNL     1      20.990  43.208 -10.347  1.00  0.00     0.006 C 
HETATM   10  C26 UNL     1      19.469  43.401 -10.350  1.00  0.00    -0.007 C 
HETATM   11  C27 UNL     1      19.381  44.911 -10.007  1.00  0.00     0.011 C 
HETATM   12  C28 UNL     1      18.721  42.504  -9.458  1.00  0.00     0.003 C 
HETATM   13  C29 UNL     1      17.904  43.412  -8.547  1.00  0.00     0.019 C 
HETATM   14  C30 UNL     1      17.773  41.522 -10.127  1.00  0.00     0.006 C 
ENDROOT
BRANCH   1  15
HETATM   15  C11 UNL     1      16.309  39.505  -9.597  1.00  0.00     0.013 C 
BRANCH  15  16
HETATM   16  C10 UNL     1      14.844  39.764  -9.978  1.00  0.00     0.028 C 
BRANCH  16  17
HETATM   17  C9  UNL     1      14.731  39.795 -11.472  1.00  0.00    -0.024 C 
HETATM   18  C7  UNL     1      14.377  38.824 -12.253  1.00  0.00    -0.087 C 
HETATM   19  C8  UNL     1      14.319  39.029 -13.724  1.00  0.00     0.043 C 
BRANCH  18  20
HETATM   20  C6  UNL     1      14.019  37.492 -11.742  1.00  0.00     0.037 C 
BRANCH  20  21
HETATM   21  C5  UNL     1      14.737  36.378 -12.485  1.00  0.00     0.031 C 
BRANCH  21  22
HETATM   22  C4  UNL     1      14.916  35.269 -11.537  1.00  0.00    -0.024 C 
HETATM   23  C2  UNL     1      15.983  35.198 -10.751  1.00  0.00    -0.091 C 
HETATM   24  C1  UNL     1      17.009  36.274 -10.847  1.00  0.00     0.042 C 
HETATM   25  C3  UNL     1      16.164  34.062  -9.783  1.00  0.00     0.042 C 
ENDBRANCH  21  22
ENDBRANCH  20  21
ENDBRANCH  18  20
ENDBRANCH  16  17
ENDBRANCH  15  16
ENDBRANCH   1  15
BRANCH  14  26
HETATM   26  C31 UNL     1      18.266  40.462 -10.974  1.00  0.00     0.014 C 
BRANCH  26  27
HETATM   27  C32 UNL     1      18.407  40.430 -12.427  1.00  0.00     0.031 C 
HETATM   28  C33 UNL     1      17.991  39.164 -13.175  1.00  0.00     0.011 C 
HETATM   29  C34 UNL     1      19.356  38.577 -12.966  1.00  0.00     0.050 C 
HETATM   30  C35 UNL     1      19.852  40.020 -12.805  1.00  0.00     0.149 C 
BRANCH  30  31
HETATM   31  O4  UNL     1      20.751  40.077 -11.765  1.00  0.00    -0.378 OA
ATOM     32  H4  UNL     1      21.646  40.253 -12.029  1.00  0.00     0.211 HD
ENDBRANCH  30  31
BRANCH  30  33
HETATM   33  C36 UNL     1      20.315  40.529 -14.087  1.00  0.00     0.209 C 
HETATM   34  O5  UNL     1      20.276  41.747 -14.383  1.00  0.00    -0.646 OA
HETATM   35  O6  UNL     1      20.825  39.655 -15.035  1.00  0.00    -0.646 OA
ENDBRANCH  30  33
ENDBRANCH  26  27
ENDBRANCH  14  26
BRANCH   6  36
HETATM   36  O2  UNL     1      20.349  40.755  -9.168  1.00  0.00    -0.380 OA
ATOM     37  H2  UNL     1      19.681  40.201  -9.555  1.00  0.00     0.211 HD
ENDBRANCH   6  36
BRANCH   7  38
HETATM   38  C18 UNL     1      21.573  42.082  -6.891  1.00  0.00     0.156 C 
HETATM   39  O3  UNL     1      21.920  40.854  -7.000  1.00  0.00    -0.293 OA
BRANCH  38  40
HETATM   40  C19 UNL     1      22.094  42.791  -5.751  1.00  0.00     0.051 C 
HETATM   41  C20 UNL     1      21.856  42.638  -4.488  1.00  0.00     0.005 C 
BRANCH  41  42
HETATM   42  C21 UNL     1      20.997  41.713  -3.801  1.00  0.00     0.019 C 
HETATM   43  C22 UNL     1      20.086  42.084  -2.911  1.00  0.00     0.008 C 
HETATM   44  C23 UNL     1      19.848  43.501  -2.520  1.00  0.00     0.062 C 
HETATM   45 CL1  UNL     1      19.106  40.858  -2.150  1.00  0.00    -0.089 Cl
ENDBRANCH  41  42
ENDBRANCH  38  40
ENDBRANCH   7  38
TORSDOF 14
ENDMDL
MODEL 2
REMARK VINA RESULT: -8.450336579      1.454      1.672
REMARK  14 active torsions:
REMARK  status: ('A' for Active; 'I' for Inactive)
REMARK    1  A    between atoms: C4_4  and  C5_5 
REMARK    2  A    between atoms: C5_5  and  C6_6 
REMARK    3  A    between atoms: C6_6  and  C7_7 
REMARK    4  A    between atoms: C9_9  and  C10_10 
REMARK    5  A    between atoms: C10_10  and  C11_11 
REMARK    6  A    between atoms: C11_11  and  C12_12 
REMARK    7  A    between atoms: C16_17  and  O2_18 
REMARK    8  A    between atoms: C17_20  and  C18_21 
REMARK    9  A    between atoms: C18_21  and  C19_23 
REMARK   10  A    between atoms: C20_24  and  C21_25 
REMARK   11  A    between atoms: C30_35  and  C31_36 
REMARK   12  A    between atoms: C31_36  and  C32_37 
REMARK   13  A    between atoms: C35_40  and  O4_41 
REMARK   14  A    between atoms: C35_40  and  C36_43 
ROOT
HETATM    1  C12 UNL     1      16.053  40.397  -9.130  1.00  0.00    -0.033 C 
HETATM    2  C13 UNL     1      14.806  41.231  -8.929  1.00  0.00     0.016 C 
HETATM    3  C14 UNL     1      16.612  39.774  -7.902  1.00  0.00     0.091 C 
HETATM    4  C15 UNL     1      17.792  40.448  -7.341  1.00  0.00     0.163 C 
HETATM    5  O1  UNL     1      17.931  40.445  -6.141  1.00  0.00    -0.295 OA
HETATM    6  C16 UNL     1      18.820  41.129  -8.173  1.00  0.00     0.136 C 
HETATM    7  C17 UNL     1      19.765  41.931  -7.362  1.00  0.00     0.102 C 
HETATM    8  C24 UNL     1      20.802  42.572  -8.260  1.00  0.00     0.016 C 
HETATM    9  C25 UNL     1      20.383  42.668  -9.675  1.00  0.00     0.006 C 
HETATM   10  C26 UNL     1      18.882  42.943  -9.830  1.00  0.00    -0.007 C 
HETATM   11  C27 UNL     1      18.818  44.413  -9.339  1.00  0.00     0.011 C 
HETATM   12  C28 UNL     1      17.997  42.003  -9.130  1.00  0.00     0.003 C 
HETATM   13  C29 UNL     1      17.117  42.856  -8.224  1.00  0.00     0.019 C 
HETATM   14  C30 UNL     1      17.093  41.146 -10.003  1.00  0.00     0.006 C 
ENDROOT
BRANCH   1  15
HETATM   15  C11 UNL     1      15.492  39.169  -9.861  1.00  0.00     0.013 C 
BRANCH  15  16
HETATM   16  C10 UNL     1      14.055  39.508 -10.281  1.00  0.00     0.028 C 
BRANCH  16  17
HETATM   17  C9  UNL     1      14.006  39.642 -11.773  1.00  0.00    -0.024 C 
HETATM   18  C7  UNL     1      13.841  38.694 -12.641  1.00  0.00    -0.087 C 
HETATM   19  C8  UNL     1      13.818  39.006 -14.094  1.00  0.00     0.043 C 
BRANCH  18  20
HETATM   20  C6  UNL     1      13.671  37.287 -12.249  1.00  0.00     0.037 C 
BRANCH  20  21
HETATM   21  C5  UNL     1      14.896  36.448 -12.568  1.00  0.00     0.031 C 
BRANCH  21  22
HETATM   22  C4  UNL     1      14.892  35.305 -11.645  1.00  0.00    -0.024 C 
HETATM   23  C2  UNL     1      15.856  35.137 -10.750  1.00  0.00    -0.091 C 
HETATM   24  C1  UNL     1      16.958  36.139 -10.695  1.00  0.00     0.042 C 
HETATM   25  C3  UNL     1      15.849  33.965  -9.807  1.00  0.00     0.042 C 
ENDBRANCH  21  22
ENDBRANCH  20  21
ENDBRANCH  18  20
ENDBRANCH  16  17
ENDBRANCH  15  16
ENDBRANCH   1  15
BRANCH  14  26
HETATM   26  C31 UNL     1      17.637  40.153 -10.897  1.00  0.00     0.014 C 
BRANCH  26  27
HETATM   27  C32 UNL     1      17.889  40.240 -12.333  1.00  0.00     0.031 C 
HETATM   28  C33 UNL     1      17.458  39.075 -13.224  1.00  0.00     0.011 C 
HETATM   29  C34 UNL     1      18.766  38.384 -12.973  1.00  0.00     0.050 C 
HETATM   30  C35 UNL     1      19.332  39.771 -12.643  1.00  0.00     0.149 C 
BRANCH  30  31
HETATM   31  O4  UNL     1      20.149  39.677 -11.540  1.00  0.00    -0.378 OA
ATOM     32  H4  UNL     1      19.921  38.976 -10.941  1.00  0.00     0.211 HD
ENDBRANCH  30  31
BRANCH  30  33
HETATM   33  C36 UNL     1      19.923  40.360 -13.835  1.00  0.00     0.209 C 
HETATM   34  O5  UNL     1      20.243  41.571 -13.902  1.00  0.00    -0.646 OA
HETATM   35  O6  UNL     1      20.152  39.574 -14.954  1.00  0.00    -0.646 OA
ENDBRANCH  30  33
ENDBRANCH  26  27
ENDBRANCH  14  26
BRANCH   6  36
HETATM   36  O2  UNL     1      19.503  40.146  -8.846  1.00  0.00    -0.380 OA
ATOM     37  H2  UNL     1      20.072  40.584  -9.468  1.00  0.00     0.211 HD
ENDBRANCH   6  36
BRANCH   7  38
HETATM   38  C18 UNL     1      20.505  41.167  -6.316  1.00  0.00     0.156 C 
HETATM   39  O3  UNL     1      21.148  40.106  -6.634  1.00  0.00    -0.293 OA
BRANCH  38  40
HETATM   40  C19 UNL     1      20.552  41.547  -4.928  1.00  0.00     0.051 C 
HETATM   41  C20 UNL     1      21.323  42.385  -4.314  1.00  0.00     0.005 C 
BRANCH  41  42
HETATM   42  C21 UNL     1      22.388  43.215  -4.807  1.00  0.00     0.019 C 
HETATM   43  C22 UNL     1      22.200  44.431  -5.301  1.00  0.00     0.008 C 
HETATM   44  C23 UNL     1      20.863  45.079  -5.402  1.00  0.00     0.062 C 
HETATM   45 CL1  UNL     1      23.582  45.333  -5.864  1.00  0.00    -0.089 Cl
ENDBRANCH  41  42
ENDBRANCH  38  40
ENDBRANCH   7  38
TORSDOF 14
ENDMDL
MODEL 3
REMARK VINA RESULT: -8.416724305      2.993      6.807
REMARK  14 active torsions:
REMARK  status: ('A' for Active; 'I' for Inactive)
REMARK    1  A    between atoms: C4_4  and  C5_5 
REMARK    2  A    between atoms: C5_5  and  C6_6 
REMARK    3  A    between atoms: C6_6  and  C7_7 
REMARK    4  A    between atoms: C9_9  and  C10_10 
REMARK    5  A    between atoms: C10_10  and  C11_11 
REMARK    6  A    between atoms: C11_11  and  C12_12 
REMARK    7  A    between atoms: C16_17  and  O2_18 
REMARK    8  A    between atoms: C17_20  and  C18_21 
REMARK    9  A    between atoms: C18_21  and  C19_23 
REMARK   10  A    between atoms: C20_24  and  C21_25 
REMARK   11  A    between atoms: C30_35  and  C31_36 
REMARK   12  A    between atoms: C31_36  and  C32_37 
REMARK   13  A    between atoms: C35_40  and  O4_41 
REMARK   14  A    between atoms: C35_40  and  C36_43 
ROOT
HETATM    1  C12 UNL     1      20.060  40.762  -8.545  1.00  0.00    -0.033 C 
HETATM    2  C13 UNL     1      20.575  39.704  -9.499  1.00  0.00     0.016 C 
HETATM    3  C14 UNL     1      19.005  41.656  -9.088  1.00  0.00     0.091 C 
HETATM    4  C15 UNL     1      19.466  42.994  -9.487  1.00  0.00     0.163 C 
HETATM    5  O1  UNL     1      18.927  43.522 -10.431  1.00  0.00    -0.295 OA
HETATM    6  C16 UNL     1      20.556  43.728  -8.789  1.00  0.00     0.136 C 
HETATM    7  C17 UNL     1      20.990  44.935  -9.530  1.00  0.00     0.102 C 
HETATM    8  C24 UNL     1      22.075  45.653  -8.756  1.00  0.00     0.016 C 
HETATM    9  C25 UNL     1      22.765  44.796  -7.768  1.00  0.00     0.006 C 
HETATM   10  C26 UNL     1      22.922  43.349  -8.249  1.00  0.00    -0.007 C 
HETATM   11  C27 UNL     1      23.988  43.541  -9.360  1.00  0.00     0.011 C 
HETATM   12  C28 UNL     1      21.680  42.689  -8.671  1.00  0.00     0.003 C 
HETATM   13  C29 UNL     1      21.926  42.213 -10.098  1.00  0.00     0.019 C 
HETATM   14  C30 UNL     1      21.230  41.497  -7.842  1.00  0.00     0.006 C 
ENDROOT
BRANCH   1  15
HETATM   15  C11 UNL     1      19.253  39.916  -7.549  1.00  0.00     0.013 C 
BRANCH  15  16
HETATM   16  C10 UNL     1      17.769  40.090  -7.904  1.00  0.00     0.028 C 
BRANCH  16  17
HETATM   17  C9  UNL     1      17.245  38.792  -8.438  1.00  0.00    -0.024 C 
HETATM   18  C7  UNL     1      16.571  38.607  -9.530  1.00  0.00    -0.087 C 
HETATM   19  C8  UNL     1      16.125  37.242  -9.912  1.00  0.00     0.043 C 
BRANCH  18  20
HETATM   20  C6  UNL     1      16.216  39.712 -10.433  1.00  0.00     0.037 C 
BRANCH  20  21
HETATM   21  C5  UNL     1      16.663  39.455 -11.862  1.00  0.00     0.031 C 
BRANCH  21  22
HETATM   22  C4  UNL     1      17.995  40.056 -12.014  1.00  0.00    -0.024 C 
HETATM   23  C2  UNL     1      18.842  39.633 -12.944  1.00  0.00    -0.091 C 
HETATM   24  C1  UNL     1      18.414  38.524 -13.842  1.00  0.00     0.042 C 
HETATM   25  C3  UNL     1      20.204  40.250 -13.097  1.00  0.00     0.042 C 
ENDBRANCH  21  22
ENDBRANCH  20  21
ENDBRANCH  18  20
ENDBRANCH  16  17
ENDBRANCH  15  16
ENDBRANCH   1  15
BRANCH  14  26
HETATM   26  C31 UNL     1      20.820  41.653  -6.467  1.00  0.00     0.014 C 
BRANCH  26  27
HETATM   27  C32 UNL     1      21.609  42.057  -5.306  1.00  0.00     0.031 C 
HETATM   28  C33 UNL     1      21.685  41.112  -4.107  1.00  0.00     0.011 C 
HETATM   29  C34 UNL     1      20.431  41.711  -3.541  1.00  0.00     0.050 C 
HETATM   30  C35 UNL     1      20.756  42.956  -4.378  1.00  0.00     0.149 C 
BRANCH  30  31
HETATM   31  O4  UNL     1      19.600  43.431  -4.951  1.00  0.00    -0.378 OA
ATOM     32  H4  UNL     1      19.664  44.317  -5.289  1.00  0.00     0.211 HD
ENDBRANCH  30  31
BRANCH  30  33
HETATM   33  C36 UNL     1      21.517  43.903  -3.577  1.00  0.00     0.209 C 
HETATM   34  O5  UNL     1      22.181  44.838  -4.088  1.00  0.00    -0.646 OA
HETATM   35  O6  UNL     1      21.525  43.792  -2.195  1.00  0.00    -0.646 OA
ENDBRANCH  30  33
ENDBRANCH  26  27
ENDBRANCH  14  26
BRANCH   6  36
HETATM   36  O2  UNL     1      20.068  44.088  -7.557  1.00  0.00    -0.380 OA
ATOM     37  H2  UNL     1      20.287  45.004  -7.432  1.00  0.00     0.211 HD
ENDBRANCH   6  36
BRANCH   7  38
HETATM   38  C18 UNL     1      19.913  45.932  -9.798  1.00  0.00     0.156 C 
HETATM   39  O3  UNL     1      19.218  46.400  -8.830  1.00  0.00    -0.293 OA
BRANCH  38  40
HETATM   40  C19 UNL     1      19.586  46.424 -11.112  1.00  0.00     0.051 C 
HETATM   41  C20 UNL     1      20.346  46.664 -12.130  1.00  0.00     0.005 C 
BRANCH  41  42
HETATM   42  C21 UNL     1      21.767  46.523 -12.294  1.00  0.00     0.019 C 
HETATM   43  C22 UNL     1      22.341  45.445 -12.808  1.00  0.00     0.008 C 
HETATM   44  C23 UNL     1      21.581  44.254 -13.278  1.00  0.00     0.062 C 
HETATM   45 CL1  UNL     1      24.079  45.403 -12.952  1.00  0.00    -0.089 Cl
ENDBRANCH  41  42
ENDBRANCH  38  40
ENDBRANCH   7  38
TORSDOF 14
ENDMDL
MODEL 4
REMARK VINA RESULT: -8.361216264      3.288      5.574
REMARK  14 active torsions:
REMARK  status: ('A' for Active; 'I' for Inactive)
REMARK    1  A    between atoms: C4_4  and  C5_5 
REMARK    2  A    between atoms: C5_5  and  C6_6 
REMARK    3  A    between atoms: C6_6  and  C7_7 
REMARK    4  A    between atoms: C9_9  and  C10_10 
REMARK    5  A    between atoms: C10_10  and  C11_11 
REMARK    6  A    between atoms: C11_11  and  C12_12 
REMARK    7  A    between atoms: C16_17  and  O2_18 
REMARK    8  A    between atoms: C17_20  and  C18_21 
REMARK    9  A    between atoms: C18_21  and  C19_23 
REMARK   10  A    between atoms: C20_24  and  C21_25 
REMARK   11  A    between atoms: C30_35  and  C31_36 
REMARK   12  A    between atoms: C31_36  and  C32_37 
REMARK   13  A    between atoms: C35_40  and  O4_41 
REMARK   14  A    between atoms: C35_40  and  C36_43 
ROOT
HETATM    1  C12 UNL     1      20.268  41.044  -9.983  1.00  0.00    -0.033 C 
HETATM    2  C13 UNL     1      20.781  39.629 -10.151  1.00  0.00     0.016 C 
HETATM    3  C14 UNL     1      21.161  42.115 -10.496  1.00  0.00     0.091 C 
HETATM    4  C15 UNL     1      21.926  42.835  -9.468  1.00  0.00     0.163 C 
HETATM    5  O1  UNL     1      23.033  43.224  -9.753  1.00  0.00    -0.295 OA
HETATM    6  C16 UNL     1      21.408  43.107  -8.100  1.00  0.00     0.136 C 
HETATM    7  C17 UNL     1      22.455  43.625  -7.190  1.00  0.00     0.102 C 
HETATM    8  C24 UNL     1      21.860  43.912  -5.828  1.00  0.00     0.016 C 
HETATM    9  C25 UNL     1      20.592  43.196  -5.572  1.00  0.00     0.006 C 
HETATM   10  C26 UNL     1      20.567  41.797  -6.200  1.00  0.00    -0.007 C 
HETATM   11  C27 UNL     1      21.581  41.064  -5.284  1.00  0.00     0.011 C 
HETATM   12  C28 UNL     1      20.863  41.749  -7.638  1.00  0.00     0.003 C 
HETATM   13  C29 UNL     1      22.033  40.784  -7.789  1.00  0.00     0.019 C 
HETATM   14  C30 UNL     1      19.737  41.280  -8.545  1.00  0.00     0.006 C 
ENDROOT
BRANCH   1  15
HETATM   15  C11 UNL     1      19.128  41.085 -11.012  1.00  0.00     0.013 C 
BRANCH  15  16
HETATM   16  C10 UNL     1      19.410  39.985 -12.046  1.00  0.00     0.028 C 
BRANCH  16  17
HETATM   17  C9  UNL     1      18.114  39.569 -12.674  1.00  0.00    -0.024 C 
HETATM   18  C7  UNL     1      17.252  38.720 -12.208  1.00  0.00    -0.087 C 
HETATM   19  C8  UNL     1      16.010  38.423 -12.967  1.00  0.00     0.043 C 
BRANCH  18  20
HETATM   20  C6  UNL     1      17.450  38.018 -10.931  1.00  0.00     0.037 C 
BRANCH  20  21
HETATM   21  C5  UNL     1      16.190  37.308 -10.464  1.00  0.00     0.031 C 
BRANCH  21  22
HETATM   22  C4  UNL     1      16.584  35.954 -10.052  1.00  0.00    -0.024 C 
HETATM   23  C2  UNL     1      15.973  34.880 -10.536  1.00  0.00    -0.091 C 
HETATM   24  C1  UNL     1      14.868  35.072 -11.517  1.00  0.00     0.042 C 
HETATM   25  C3  UNL     1      16.377  33.495 -10.111  1.00  0.00     0.042 C 
ENDBRANCH  21  22
ENDBRANCH  20  21
ENDBRANCH  18  20
ENDBRANCH  16  17
ENDBRANCH  15  16
ENDBRANCH   1  15
BRANCH  14  26
HETATM   26  C31 UNL     1      18.528  42.051  -8.700  1.00  0.00     0.014 C 
BRANCH  26  27
HETATM   27  C32 UNL     1      17.191  41.790  -8.173  1.00  0.00     0.031 C 
HETATM   28  C33 UNL     1      16.307  40.771  -8.892  1.00  0.00     0.011 C 
HETATM   29  C34 UNL     1      15.802  41.842  -9.814  1.00  0.00     0.050 C 
HETATM   30  C35 UNL     1      16.195  42.843  -8.720  1.00  0.00     0.149 C 
BRANCH  30  31
HETATM   31  O4  UNL     1      16.789  43.940  -9.301  1.00  0.00    -0.378 OA
ATOM     32  H4  UNL     1      16.275  44.737  -9.253  1.00  0.00     0.211 HD
ENDBRANCH  30  31
BRANCH  30  33
HETATM   33  C36 UNL     1      15.052  43.108  -7.860  1.00  0.00     0.209 C 
HETATM   34  O5  UNL     1      14.815  42.436  -6.827  1.00  0.00    -0.646 OA
HETATM   35  O6  UNL     1      14.177  44.137  -8.170  1.00  0.00    -0.646 OA
ENDBRANCH  30  33
ENDBRANCH  26  27
ENDBRANCH  14  26
BRANCH   6  36
HETATM   36  O2  UNL     1      20.405  44.037  -8.232  1.00  0.00    -0.380 OA
ATOM     37  H2  UNL     1      19.605  43.621  -7.934  1.00  0.00     0.211 HD
ENDBRANCH   6  36
BRANCH   7  38
HETATM   38  C18 UNL     1      23.125  44.878  -7.647  1.00  0.00     0.156 C 
HETATM   39  O3  UNL     1      22.439  45.802  -8.209  1.00  0.00    -0.293 OA
BRANCH  38  40
HETATM   40  C19 UNL     1      24.534  45.134  -7.498  1.00  0.00     0.051 C 
HETATM   41  C20 UNL     1      25.450  45.328  -8.391  1.00  0.00     0.005 C 
BRANCH  41  42
HETATM   42  C21 UNL     1      25.371  45.355  -9.826  1.00  0.00     0.019 C 
HETATM   43  C22 UNL     1      26.160  44.639 -10.616  1.00  0.00     0.008 C 
HETATM   44  C23 UNL     1      27.220  43.725 -10.109  1.00  0.00     0.062 C 
HETATM   45 CL1  UNL     1      25.956  44.764 -12.344  1.00  0.00    -0.089 Cl
ENDBRANCH  41  42
ENDBRANCH  38  40
ENDBRANCH   7  38
TORSDOF 14
ENDMDL
MODEL 5
REMARK VINA RESULT: -8.285763668      3.190      8.427
REMARK  14 active torsions:
REMARK  status: ('A' for Active; 'I' for Inactive)
REMARK    1  A    between atoms: C4_4  and  C5_5 
REMARK    2  A    between atoms: C5_5  and  C6_6 
REMARK    3  A    between atoms: C6_6  and  C7_7 
REMARK    4  A    between atoms: C9_9  and  C10_10 
REMARK    5  A    between atoms: C10_10  and  C11_11 
REMARK    6  A    between atoms: C11_11  and  C12_12 
REMARK    7  A    between atoms: C16_17  and  O2_18 
REMARK    8  A    between atoms: C17_20  and  C18_21 
REMARK    9  A    between atoms: C18_21  and  C19_23 
REMARK   10  A    between atoms: C20_24  and  C21_25 
REMARK   11  A    between atoms: C30_35  and  C31_36 
REMARK   12  A    between atoms: C31_36  and  C32_37 
REMARK   13  A    between atoms: C35_40  and  O4_41 
REMARK   14  A    between atoms: C35_40  and  C36_43 
ROOT
HETATM    1  C12 UNL     1      17.043  40.340  -8.410  1.00  0.00    -0.033 C 
HETATM    2  C13 UNL     1      17.416  39.508  -7.202  1.00  0.00     0.016 C 
HETATM    3  C14 UNL     1      15.604  40.691  -8.527  1.00  0.00     0.091 C 
HETATM    4  C15 UNL     1      14.844  39.895  -9.501  1.00  0.00     0.163 C 
HETATM    5  O1  UNL     1      13.686  39.652  -9.257  1.00  0.00    -0.295 OA
HETATM    6  C16 UNL     1      15.427  39.376 -10.768  1.00  0.00     0.136 C 
HETATM    7  C17 UNL     1      14.535  38.408 -11.447  1.00  0.00     0.102 C 
HETATM    8  C24 UNL     1      15.167  37.942 -12.741  1.00  0.00     0.016 C 
HETATM    9  C25 UNL     1      16.632  38.142 -12.791  1.00  0.00     0.006 C 
HETATM   10  C26 UNL     1      17.303  37.934 -11.428  1.00  0.00    -0.007 C 
HETATM   11  C27 UNL     1      17.159  36.397 -11.281  1.00  0.00     0.011 C 
HETATM   12  C28 UNL     1      16.747  38.730 -10.327  1.00  0.00     0.003 C 
HETATM   13  C29 UNL     1      16.354  37.728  -9.248  1.00  0.00     0.019 C 
HETATM   14  C30 UNL     1      17.673  39.763  -9.704  1.00  0.00     0.006 C 
ENDROOT
BRANCH   1  15
HETATM   15  C11 UNL     1      17.655  41.702  -8.050  1.00  0.00     0.013 C 
BRANCH  15  16
HETATM   16  C10 UNL     1      18.650  41.464  -6.905  1.00  0.00     0.028 C 
BRANCH  16  17
HETATM   17  C9  UNL     1      19.811  42.397  -7.072  1.00  0.00    -0.024 C 
HETATM   18  C7  UNL     1      21.023  42.227  -6.644  1.00  0.00    -0.087 C 
HETATM   19  C8  UNL     1      22.058  43.262  -6.899  1.00  0.00     0.043 C 
BRANCH  18  20
HETATM   20  C6  UNL     1      21.434  41.027  -5.899  1.00  0.00     0.037 C 
BRANCH  20  21
HETATM   21  C5  UNL     1      21.988  41.365  -4.526  1.00  0.00     0.031 C 
BRANCH  21  22
HETATM   22  C4  UNL     1      20.840  41.544  -3.627  1.00  0.00    -0.024 C 
HETATM   23  C2  UNL     1      20.637  42.688  -2.986  1.00  0.00    -0.091 C 
HETATM   24  C1  UNL     1      21.605  43.801  -3.194  1.00  0.00     0.042 C 
HETATM   25  C3  UNL     1      19.462  42.868  -2.065  1.00  0.00     0.042 C 
ENDBRANCH  21  22
ENDBRANCH  20  21
ENDBRANCH  18  20
ENDBRANCH  16  17
ENDBRANCH  15  16
ENDBRANCH   1  15
BRANCH  14  26
HETATM   26  C31 UNL     1      18.134  40.906 -10.454  1.00  0.00     0.014 C 
BRANCH  26  27
HETATM   27  C32 UNL     1      19.239  41.004 -11.405  1.00  0.00     0.031 C 
HETATM   28  C33 UNL     1      20.558  40.311 -11.068  1.00  0.00     0.011 C 
HETATM   29  C34 UNL     1      21.017  41.524 -10.314  1.00  0.00     0.050 C 
HETATM   30  C35 UNL     1      20.021  42.319 -11.168  1.00  0.00     0.149 C 
BRANCH  30  31
HETATM   31  O4  UNL     1      19.369  43.233 -10.372  1.00  0.00    -0.378 OA
ATOM     32  H4  UNL     1      18.459  43.024 -10.198  1.00  0.00     0.211 HD
ENDBRANCH  30  31
BRANCH  30  33
HETATM   33  C36 UNL     1      20.692  42.850 -12.345  1.00  0.00     0.209 C 
HETATM   34  O5  UNL     1      21.437  43.859 -12.299  1.00  0.00    -0.646 OA
HETATM   35  O6  UNL     1      20.520  42.236 -13.576  1.00  0.00    -0.646 OA
ENDBRANCH  30  33
ENDBRANCH  26  27
ENDBRANCH  14  26
BRANCH   6  36
HETATM   36  O2  UNL     1      15.641  40.461 -11.582  1.00  0.00    -0.380 OA
ATOM     37  H2  UNL     1      15.747  40.126 -12.464  1.00  0.00     0.211 HD
ENDBRANCH   6  36
BRANCH   7  38
HETATM   38  C18 UNL     1      13.179  38.931 -11.787  1.00  0.00     0.156 C 
HETATM   39  O3  UNL     1      13.058  40.058 -12.382  1.00  0.00    -0.293 OA
BRANCH  38  40
HETATM   40  C19 UNL     1      11.954  38.236 -11.486  1.00  0.00     0.051 C 
HETATM   41  C20 UNL     1      11.481  37.127 -11.955  1.00  0.00     0.005 C 
BRANCH  41  42
HETATM   42  C21 UNL     1      12.017  36.218 -12.932  1.00  0.00     0.019 C 
HETATM   43  C22 UNL     1      12.817  35.206 -12.628  1.00  0.00     0.008 C 
HETATM   44  C23 UNL     1      13.255  34.892 -11.240  1.00  0.00     0.062 C 
HETATM   45 CL1  UNL     1      13.396  34.176 -13.911  1.00  0.00    -0.089 Cl
ENDBRANCH  41  42
ENDBRANCH  38  40
ENDBRANCH   7  38
TORSDOF 14
ENDMDL
