MODEL 1
REMARK VINA RESULT: -8.921993062      0.000      0.000
REMARK  13 active torsions:
REMARK  status: ('A' for Active; 'I' for Inactive)
REMARK    1  A    between atoms: C4_4  and  C5_5 
REMARK    2  A    between atoms: C5_5  and  C6_6 
REMARK    3  A    between atoms: C6_6  and  C7_7 
REMARK    4  A    between atoms: C7_7  and  C8_8 
REMARK    5  A    between atoms: C7_7  and  C36_42 
REMARK    6  A    between atoms: C8_8  and  C9_9 
REMARK    7  A    between atoms: C9_9  and  C10_10 
REMARK    8  A    between atoms: C13_13  and  C15_15 
REMARK    9  A    between atoms: C15_15  and  C16_16 
REMARK   10  A    between atoms: C16_16  and  O1_17 
REMARK   11  A    between atoms: C29_32  and  O3_33 
REMARK   12  A    between atoms: C29_32  and  C30_35 
REMARK   13  A    between atoms: C36_42  and  C37_43 
ROOT
HETATM    1  C10 UNL     1      14.548  40.478 -10.378  1.00  0.00    -0.031 C 
HETATM    2  C11 UNL     1      14.827  42.027 -10.338  1.00  0.00     0.016 C 
HETATM    3  C12 UNL     1      13.491  40.357 -11.396  1.00  0.00     0.027 C 
HETATM    4  C13 UNL     1      13.247  39.193 -12.222  1.00  0.00     0.024 C 
HETATM    5  C14 UNL     1      11.811  38.741 -12.095  1.00  0.00     0.024 C 
HETATM    6  C17 UNL     1      14.173  38.141 -11.740  1.00  0.00     0.164 C 
HETATM    7  O2  UNL     1      13.800  36.956 -11.677  1.00  0.00    -0.292 OA
HETATM    8  C18 UNL     1      15.545  38.520 -11.336  1.00  0.00    -0.006 C 
HETATM    9  C19 UNL     1      16.535  37.721 -11.678  1.00  0.00    -0.015 C 
HETATM   10  C20 UNL     1      17.963  38.067 -11.299  1.00  0.00     0.033 C 
HETATM   11  C21 UNL     1      18.042  39.500 -11.714  1.00  0.00     0.003 C 
HETATM   12  C22 UNL     1      16.989  40.414 -11.173  1.00  0.00     0.004 C 
HETATM   13  C23 UNL     1      17.715  41.462 -10.377  1.00  0.00     0.012 C 
HETATM   14  C24 UNL     1      19.117  41.508 -11.015  1.00  0.00     0.005 C 
HETATM   15  C25 UNL     1      19.395  40.142 -11.536  1.00  0.00    -0.035 C 
HETATM   16  C26 UNL     1      20.083  40.305 -12.922  1.00  0.00     0.016 C 
HETATM   17  C27 UNL     1      20.346  39.356 -10.712  1.00  0.00     0.013 C 
HETATM   18  C28 UNL     1      20.567  39.841  -9.311  1.00  0.00     0.040 C 
HETATM   19  C29 UNL     1      21.045  41.260  -9.391  1.00  0.00     0.077 C 
HETATM   20  C31 UNL     1      20.145  42.162 -10.192  1.00  0.00    -0.011 C 
HETATM   21  C32 UNL     1      20.991  43.089 -11.090  1.00  0.00     0.018 C 
HETATM   22  C33 UNL     1      19.487  43.117  -9.217  1.00  0.00     0.018 C 
HETATM   23  C34 UNL     1      15.827  39.736 -10.529  1.00  0.00    -0.002 C 
HETATM   24  C35 UNL     1      16.386  39.272  -9.169  1.00  0.00     0.021 C 
ENDROOT
BRANCH   1  25
HETATM   25  C9  UNL     1      13.855  40.404  -9.035  1.00  0.00     0.011 C 
BRANCH  25  26
HETATM   26  C8  UNL     1      13.714  41.539  -8.151  1.00  0.00     0.006 C 
BRANCH  26  27
HETATM   27  C7  UNL     1      12.661  42.588  -8.577  1.00  0.00    -0.004 C 
BRANCH  27  28
HETATM   28  C6  UNL     1      11.277  42.107  -8.346  1.00  0.00     0.009 C 
BRANCH  28  29
HETATM   29  C5  UNL     1      10.374  42.612  -9.436  1.00  0.00     0.028 C 
BRANCH  29  30
HETATM   30  C4  UNL     1      10.852  42.254 -10.782  1.00  0.00    -0.025 C 
HETATM   31  C2  UNL     1      10.645  43.003 -11.832  1.00  0.00    -0.091 C 
HETATM   32  C1  UNL     1      11.175  42.553 -13.172  1.00  0.00     0.042 C 
HETATM   33  C3  UNL     1       9.902  44.290 -11.744  1.00  0.00     0.042 C 
ENDBRANCH  29  30
ENDBRANCH  28  29
ENDBRANCH  27  28
BRANCH  27  34
HETATM   34  C36 UNL     1      12.986  43.964  -8.167  1.00  0.00     0.117 C 
BRANCH  34  35
HETATM   35  C37 UNL     1      12.694  45.073  -9.044  1.00  0.00     0.172 C 
HETATM   36  O4  UNL     1      13.029  45.019 -10.284  1.00  0.00    -0.648 OA
HETATM   37  O5  UNL     1      12.062  46.255  -8.702  1.00  0.00    -0.648 OA
ENDBRANCH  34  35
ENDBRANCH  27  34
ENDBRANCH  26  27
ENDBRANCH  25  26
ENDBRANCH   1  25
BRANCH   4  38
HETATM   38  C15 UNL     1      13.442  39.391 -13.714  1.00  0.00     0.043 C 
BRANCH  38  39
HETATM   39  C16 UNL     1      12.644  38.496 -14.566  1.00  0.00     0.165 C 
BRANCH  39  40
HETATM   40  O1  UNL     1      12.669  38.711 -15.917  1.00  0.00    -0.401 OA
ATOM     41  H1  UNL     1      13.213  38.140 -16.447  1.00  0.00     0.209 HD
ENDBRANCH  39  40
ENDBRANCH  38  39
ENDBRANCH   4  38
BRANCH  19  42
HETATM   42  O3  UNL     1      22.273  41.210 -10.098  1.00  0.00    -0.388 OA
ATOM     43  H3  UNL     1      22.051  40.933 -10.979  1.00  0.00     0.210 HD
ENDBRANCH  19  42
BRANCH  19  44
HETATM   44  C30 UNL     1      21.394  41.814  -8.025  1.00  0.00     0.153 C 
HETATM   45 CL1  UNL     1      20.984  40.521  -6.848  1.00  0.00    -0.127 Cl
ENDBRANCH  19  44
TORSDOF 13
ENDMDL
MODEL 2
REMARK VINA RESULT: -8.874455953      1.478      1.827
REMARK  13 active torsions:
REMARK  status: ('A' for Active; 'I' for Inactive)
REMARK    1  A    between atoms: C4_4  and  C5_5 
REMARK    2  A    between atoms: C5_5  and  C6_6 
REMARK    3  A    between atoms: C6_6  and  C7_7 
REMARK    4  A    between atoms: C7_7  and  C8_8 
REMARK    5  A    between atoms: C7_7  and  C36_42 
REMARK    6  A    between atoms: C8_8  and  C9_9 
REMARK    7  A    between atoms: C9_9  and  C10_10 
REMARK    8  A    between atoms: C13_13  and  C15_15 
REMARK    9  A    between atoms: C15_15  and  C16_16 
REMARK   10  A    between atoms: C16_16  and  O1_17 
REMARK   11  A    between atoms: C29_32  and  O3_33 
REMARK   12  A    between atoms: C29_32  and  C30_35 
REMARK   13  A    between atoms: C36_42  and  C37_43 
ROOT
HETATM    1  C10 UNL     1      14.287  39.992 -11.088  1.00  0.00    -0.031 C 
HETATM    2  C11 UNL     1      14.447  41.542 -10.867  1.00  0.00     0.016 C 
HETATM    3  C12 UNL     1      13.353  39.912 -12.223  1.00  0.00     0.027 C 
HETATM    4  C13 UNL     1      13.282  38.827 -13.180  1.00  0.00     0.024 C 
HETATM    5  C14 UNL     1      11.878  38.276 -13.257  1.00  0.00     0.024 C 
HETATM    6  C17 UNL     1      14.228  37.791 -12.703  1.00  0.00     0.164 C 
HETATM    7  O2  UNL     1      13.938  36.585 -12.798  1.00  0.00    -0.292 OA
HETATM    8  C18 UNL     1      15.519  38.211 -12.116  1.00  0.00    -0.006 C 
HETATM    9  C19 UNL     1      16.596  37.515 -12.422  1.00  0.00    -0.015 C 
HETATM   10  C20 UNL     1      17.947  37.909 -11.856  1.00  0.00     0.033 C 
HETATM   11  C21 UNL     1      17.963  39.379 -12.118  1.00  0.00     0.003 C 
HETATM   12  C22 UNL     1      16.795  40.164 -11.611  1.00  0.00     0.004 C 
HETATM   13  C23 UNL     1      17.356  41.167 -10.642  1.00  0.00     0.012 C 
HETATM   14  C24 UNL     1      18.809  41.367 -11.113  1.00  0.00     0.005 C 
HETATM   15  C25 UNL     1      19.239  40.083 -11.731  1.00  0.00    -0.035 C 
HETATM   16  C26 UNL     1      20.053  40.432 -13.009  1.00  0.00     0.016 C 
HETATM   17  C27 UNL     1      20.155  39.276 -10.887  1.00  0.00     0.013 C 
HETATM   18  C28 UNL     1      20.193  39.624  -9.429  1.00  0.00     0.040 C 
HETATM   19  C29 UNL     1      20.572  41.071  -9.318  1.00  0.00     0.077 C 
HETATM   20  C31 UNL     1      19.696  41.994 -10.122  1.00  0.00    -0.011 C 
HETATM   21  C32 UNL     1      20.560  43.061 -10.826  1.00  0.00     0.018 C 
HETATM   22  C33 UNL     1      18.872  42.799  -9.137  1.00  0.00     0.018 C 
HETATM   23  C34 UNL     1      15.626  39.351 -11.168  1.00  0.00    -0.002 C 
HETATM   24  C35 UNL     1      16.074  38.783  -9.806  1.00  0.00     0.021 C 
ENDROOT
BRANCH   1  25
HETATM   25  C9  UNL     1      13.467  39.734  -9.843  1.00  0.00     0.011 C 
BRANCH  25  26
HETATM   26  C8  UNL     1      12.344  40.555  -9.448  1.00  0.00     0.006 C 
BRANCH  26  27
HETATM   27  C7  UNL     1      12.639  41.606  -8.353  1.00  0.00    -0.004 C 
BRANCH  27  28
HETATM   28  C6  UNL     1      11.430  42.393  -8.005  1.00  0.00     0.009 C 
BRANCH  28  29
HETATM   29  C5  UNL     1      10.667  42.734  -9.255  1.00  0.00     0.028 C 
BRANCH  29  30
HETATM   30  C4  UNL     1      11.167  43.953  -9.911  1.00  0.00    -0.025 C 
HETATM   31  C2  UNL     1      11.389  44.029 -11.197  1.00  0.00    -0.091 C 
HETATM   32  C1  UNL     1      11.902  45.324 -11.779  1.00  0.00     0.042 C 
HETATM   33  C3  UNL     1      11.150  42.873 -12.103  1.00  0.00     0.042 C 
ENDBRANCH  29  30
ENDBRANCH  28  29
ENDBRANCH  27  28
BRANCH  27  34
HETATM   34  C36 UNL     1      13.472  41.104  -7.249  1.00  0.00     0.117 C 
BRANCH  34  35
HETATM   35  C37 UNL     1      14.836  41.555  -7.103  1.00  0.00     0.172 C 
HETATM   36  O4  UNL     1      15.099  42.813  -7.076  1.00  0.00    -0.648 OA
HETATM   37  O5  UNL     1      15.963  40.761  -6.984  1.00  0.00    -0.648 OA
ENDBRANCH  34  35
ENDBRANCH  27  34
ENDBRANCH  26  27
ENDBRANCH  25  26
ENDBRANCH   1  25
BRANCH   4  38
HETATM   38  C15 UNL     1      13.616  39.192 -14.615  1.00  0.00     0.043 C 
BRANCH  38  39
HETATM   39  C16 UNL     1      12.569  39.948 -15.320  1.00  0.00     0.165 C 
BRANCH  39  40
HETATM   40  O1  UNL     1      12.284  39.591 -16.610  1.00  0.00    -0.401 OA
ATOM     41  H1  UNL     1      11.972  38.708 -16.768  1.00  0.00     0.209 HD
ENDBRANCH  39  40
ENDBRANCH  38  39
ENDBRANCH   4  38
BRANCH  19  42
HETATM   42  O3  UNL     1      21.867  41.172  -9.886  1.00  0.00    -0.388 OA
ATOM     43  H3  UNL     1      21.754  41.655 -10.696  1.00  0.00     0.210 HD
ENDBRANCH  19  42
BRANCH  19  44
HETATM   44  C30 UNL     1      20.736  41.500  -7.874  1.00  0.00     0.153 C 
HETATM   45 CL1  UNL     1      20.684  39.991  -6.901  1.00  0.00    -0.127 Cl
ENDBRANCH  19  44
TORSDOF 13
ENDMDL
MODEL 3
REMARK VINA RESULT: -8.856007141      2.702      4.950
REMARK  13 active torsions:
REMARK  status: ('A' for Active; 'I' for Inactive)
REMARK    1  A    between atoms: C4_4  and  C5_5 
REMARK    2  A    between atoms: C5_5  and  C6_6 
REMARK    3  A    between atoms: C6_6  and  C7_7 
REMARK    4  A    between atoms: C7_7  and  C8_8 
REMARK    5  A    between atoms: C7_7  and  C36_42 
REMARK    6  A    between atoms: C8_8  and  C9_9 
REMARK    7  A    between atoms: C9_9  and  C10_10 
REMARK    8  A    between atoms: C13_13  and  C15_15 
REMARK    9  A    between atoms: C15_15  and  C16_16 
REMARK   10  A    between atoms: C16_16  and  O1_17 
REMARK   11  A    between atoms: C29_32  and  O3_33 
REMARK   12  A    between atoms: C29_32  and  C30_35 
REMARK   13  A    between atoms: C36_42  and  C37_43 
ROOT
HETATM    1  C10 UNL     1      17.148  38.793 -12.073  1.00  0.00    -0.031 C 
HETATM    2  C11 UNL     1      18.458  38.976 -12.927  1.00  0.00     0.016 C 
HETATM    3  C12 UNL     1      16.918  37.340 -12.125  1.00  0.00     0.027 C 
HETATM    4  C13 UNL     1      16.230  36.561 -11.116  1.00  0.00     0.024 C 
HETATM    5  C14 UNL     1      15.102  35.769 -11.734  1.00  0.00     0.024 C 
HETATM    6  C17 UNL     1      15.709  37.532 -10.126  1.00  0.00     0.164 C 
HETATM    7  O2  UNL     1      14.589  37.365  -9.611  1.00  0.00    -0.292 OA
HETATM    8  C18 UNL     1      16.540  38.699  -9.756  1.00  0.00    -0.006 C 
HETATM    9  C19 UNL     1      16.570  39.064  -8.491  1.00  0.00    -0.015 C 
HETATM   10  C20 UNL     1      17.414  40.247  -8.056  1.00  0.00     0.033 C 
HETATM   11  C21 UNL     1      18.713  39.952  -8.732  1.00  0.00     0.003 C 
HETATM   12  C22 UNL     1      18.660  39.701 -10.206  1.00  0.00     0.004 C 
HETATM   13  C23 UNL     1      19.517  40.760 -10.841  1.00  0.00     0.012 C 
HETATM   14  C24 UNL     1      20.520  41.138  -9.733  1.00  0.00     0.005 C 
HETATM   15  C25 UNL     1      19.824  40.926  -8.435  1.00  0.00    -0.035 C 
HETATM   16  C26 UNL     1      20.847  40.273  -7.462  1.00  0.00     0.016 C 
HETATM   17  C27 UNL     1      19.384  42.176  -7.767  1.00  0.00     0.013 C 
HETATM   18  C28 UNL     1      19.313  43.400  -8.629  1.00  0.00     0.040 C 
HETATM   19  C29 UNL     1      20.674  43.616  -9.224  1.00  0.00     0.077 C 
HETATM   20  C31 UNL     1      21.219  42.415  -9.948  1.00  0.00    -0.011 C 
HETATM   21  C32 UNL     1      22.714  42.229  -9.612  1.00  0.00     0.018 C 
HETATM   22  C33 UNL     1      21.228  42.749 -11.426  1.00  0.00     0.018 C 
HETATM   23  C34 UNL     1      17.294  39.487 -10.767  1.00  0.00    -0.002 C 
HETATM   24  C35 UNL     1      16.689  40.904 -10.797  1.00  0.00     0.021 C 
ENDROOT
BRANCH   1  25
HETATM   25  C9  UNL     1      16.208  39.410 -13.086  1.00  0.00     0.011 C 
BRANCH  25  26
HETATM   26  C8  UNL     1      15.151  38.671 -13.739  1.00  0.00     0.006 C 
BRANCH  26  27
HETATM   27  C7  UNL     1      13.746  38.818 -13.109  1.00  0.00    -0.004 C 
BRANCH  27  28
HETATM   28  C6  UNL     1      13.586  40.121 -12.417  1.00  0.00     0.009 C 
BRANCH  28  29
HETATM   29  C5  UNL     1      12.644  39.967 -11.255  1.00  0.00     0.028 C 
BRANCH  29  30
HETATM   30  C4  UNL     1      13.259  40.344  -9.972  1.00  0.00    -0.025 C 
HETATM   31  C2  UNL     1      13.211  41.557  -9.490  1.00  0.00    -0.091 C 
HETATM   32  C1  UNL     1      13.872  41.848  -8.164  1.00  0.00     0.042 C 
HETATM   33  C3  UNL     1      12.522  42.661 -10.212  1.00  0.00     0.042 C 
ENDBRANCH  29  30
ENDBRANCH  28  29
ENDBRANCH  27  28
BRANCH  27  34
HETATM   34  C36 UNL     1      12.649  38.363 -13.978  1.00  0.00     0.117 C 
BRANCH  34  35
HETATM   35  C37 UNL     1      11.859  37.213 -13.610  1.00  0.00     0.172 C 
HETATM   36  O4  UNL     1      12.224  36.036 -13.977  1.00  0.00    -0.648 OA
HETATM   37  O5  UNL     1      10.690  37.213 -12.869  1.00  0.00    -0.648 OA
ENDBRANCH  34  35
ENDBRANCH  27  34
ENDBRANCH  26  27
ENDBRANCH  25  26
ENDBRANCH   1  25
BRANCH   4  38
HETATM   38  C15 UNL     1      17.070  35.516 -10.405  1.00  0.00     0.043 C 
BRANCH  38  39
HETATM   39  C16 UNL     1      16.457  34.181 -10.322  1.00  0.00     0.165 C 
BRANCH  39  40
HETATM   40  O1  UNL     1      15.803  33.850  -9.167  1.00  0.00    -0.401 OA
ATOM     41  H1  UNL     1      16.263  33.307  -8.537  1.00  0.00     0.209 HD
ENDBRANCH  39  40
ENDBRANCH  38  39
ENDBRANCH   4  38
BRANCH  19  42
HETATM   42  O3  UNL     1      21.542  43.833  -8.124  1.00  0.00    -0.388 OA
ATOM     43  H3  UNL     1      22.073  44.583  -8.362  1.00  0.00     0.210 HD
ENDBRANCH  19  42
BRANCH  19  44
HETATM   44  C30 UNL     1      20.735  44.891 -10.039  1.00  0.00     0.153 C 
HETATM   45 CL1  UNL     1      19.044  45.481 -10.163  1.00  0.00    -0.127 Cl
ENDBRANCH  19  44
TORSDOF 13
ENDMDL
MODEL 4
REMARK VINA RESULT: -8.818329644      3.015      6.035
REMARK  13 active torsions:
REMARK  status: ('A' for Active; 'I' for Inactive)
REMARK    1  A    between atoms: C4_4  and  C5_5 
REMARK    2  A    between atoms: C5_5  and  C6_6 
REMARK    3  A    between atoms: C6_6  and  C7_7 
REMARK    4  A    between atoms: C7_7  and  C8_8 
REMARK    5  A    between atoms: C7_7  and  C36_42 
REMARK    6  A    between atoms: C8_8  and  C9_9 
REMARK    7  A    between atoms: C9_9  and  C10_10 
REMARK    8  A    between atoms: C13_13  and  C15_15 
REMARK    9  A    between atoms: C15_15  and  C16_16 
REMARK   10  A    between atoms: C16_16  and  O1_17 
REMARK   11  A    between atoms: C29_32  and  O3_33 
REMARK   12  A    between atoms: C29_32  and  C30_35 
REMARK   13  A    between atoms: C36_42  and  C37_43 
ROOT
HETATM    1  C10 UNL     1      17.662  41.540  -9.446  1.00  0.00    -0.031 C 
HETATM    2  C11 UNL     1      17.415  43.087  -9.299  1.00  0.00     0.016 C 
HETATM    3  C12 UNL     1      17.807  41.364 -10.901  1.00  0.00     0.027 C 
HETATM    4  C13 UNL     1      18.569  40.316 -11.550  1.00  0.00     0.024 C 
HETATM    5  C14 UNL     1      17.707  39.565 -12.537  1.00  0.00     0.024 C 
HETATM    6  C17 UNL     1      19.039  39.416 -10.471  1.00  0.00     0.164 C 
HETATM    7  O2  UNL     1      19.061  38.184 -10.645  1.00  0.00    -0.292 OA
HETATM    8  C18 UNL     1      19.483  40.002  -9.187  1.00  0.00    -0.006 C 
HETATM    9  C19 UNL     1      20.546  39.487  -8.604  1.00  0.00    -0.015 C 
HETATM   10  C20 UNL     1      21.050  40.057  -7.292  1.00  0.00     0.033 C 
HETATM   11  C21 UNL     1      21.050  41.522  -7.583  1.00  0.00     0.003 C 
HETATM   12  C22 UNL     1      19.770  42.104  -8.093  1.00  0.00     0.004 C 
HETATM   13  C23 UNL     1      19.355  43.143  -7.088  1.00  0.00     0.012 C 
HETATM   14  C24 UNL     1      20.681  43.575  -6.432  1.00  0.00     0.005 C 
HETATM   15  C25 UNL     1      21.585  42.393  -6.475  1.00  0.00    -0.035 C 
HETATM   16  C26 UNL     1      23.004  42.907  -6.852  1.00  0.00     0.016 C 
HETATM   17  C27 UNL     1      21.747  41.702  -5.172  1.00  0.00     0.013 C 
HETATM   18  C28 UNL     1      20.711  41.997  -4.130  1.00  0.00     0.040 C 
HETATM   19  C29 UNL     1      20.709  43.480  -3.900  1.00  0.00     0.077 C 
HETATM   20  C31 UNL     1      20.530  44.290  -5.156  1.00  0.00    -0.011 C 
HETATM   21  C32 UNL     1      21.489  45.500  -5.144  1.00  0.00     0.018 C 
HETATM   22  C33 UNL     1      19.157  44.926  -5.087  1.00  0.00     0.018 C 
HETATM   23  C34 UNL     1      18.745  41.110  -8.524  1.00  0.00    -0.002 C 
HETATM   24  C35 UNL     1      18.186  40.565  -7.194  1.00  0.00     0.021 C 
ENDROOT
BRANCH   1  25
HETATM   25  C9  UNL     1      16.250  41.117  -9.105  1.00  0.00     0.011 C 
BRANCH  25  26
HETATM   26  C8  UNL     1      15.168  41.115 -10.064  1.00  0.00     0.006 C 
BRANCH  26  27
HETATM   27  C7  UNL     1      14.590  39.724 -10.414  1.00  0.00    -0.004 C 
BRANCH  27  28
HETATM   28  C6  UNL     1      15.432  38.626  -9.878  1.00  0.00     0.009 C 
BRANCH  28  29
HETATM   29  C5  UNL     1      15.463  37.485 -10.856  1.00  0.00     0.028 C 
BRANCH  29  30
HETATM   30  C4  UNL     1      16.244  36.337 -10.365  1.00  0.00    -0.025 C 
HETATM   31  C2  UNL     1      15.925  35.097 -10.624  1.00  0.00    -0.091 C 
HETATM   32  C1  UNL     1      16.788  33.986 -10.077  1.00  0.00     0.042 C 
HETATM   33  C3  UNL     1      14.733  34.749 -11.446  1.00  0.00     0.042 C 
ENDBRANCH  29  30
ENDBRANCH  28  29
ENDBRANCH  27  28
BRANCH  27  34
HETATM   34  C36 UNL     1      13.133  39.620 -10.240  1.00  0.00     0.117 C 
BRANCH  34  35
HETATM   35  C37 UNL     1      12.245  39.929 -11.335  1.00  0.00     0.172 C 
HETATM   36  O4  UNL     1      12.655  39.817 -12.549  1.00  0.00    -0.648 OA
HETATM   37  O5  UNL     1      10.932  40.356 -11.243  1.00  0.00    -0.648 OA
ENDBRANCH  34  35
ENDBRANCH  27  34
ENDBRANCH  26  27
ENDBRANCH  25  26
ENDBRANCH   1  25
BRANCH   4  38
HETATM   38  C15 UNL     1      19.757  40.780 -12.373  1.00  0.00     0.043 C 
BRANCH  38  39
HETATM   39  C16 UNL     1      19.983  40.022 -13.614  1.00  0.00     0.165 C 
BRANCH  39  40
HETATM   40  O1  UNL     1      21.032  40.395 -14.408  1.00  0.00    -0.401 OA
ATOM     41  H1  UNL     1      21.888  40.032 -14.211  1.00  0.00     0.209 HD
ENDBRANCH  39  40
ENDBRANCH  38  39
ENDBRANCH   4  38
BRANCH  19  42
HETATM   42  O3  UNL     1      22.003  43.794  -3.416  1.00  0.00    -0.388 OA
ATOM     43  H3  UNL     1      21.907  44.608  -2.936  1.00  0.00     0.210 HD
ENDBRANCH  19  42
BRANCH  19  44
HETATM   44  C30 UNL     1      19.759  43.874  -2.788  1.00  0.00     0.153 C 
HETATM   45 CL1  UNL     1      19.371  42.358  -1.907  1.00  0.00    -0.127 Cl
ENDBRANCH  19  44
TORSDOF 13
ENDMDL
MODEL 5
REMARK VINA RESULT: -8.591860348      1.741      2.504
REMARK  13 active torsions:
REMARK  status: ('A' for Active; 'I' for Inactive)
REMARK    1  A    between atoms: C4_4  and  C5_5 
REMARK    2  A    between atoms: C5_5  and  C6_6 
REMARK    3  A    between atoms: C6_6  and  C7_7 
REMARK    4  A    between atoms: C7_7  and  C8_8 
REMARK    5  A    between atoms: C7_7  and  C36_42 
REMARK    6  A    between atoms: C8_8  and  C9_9 
REMARK    7  A    between atoms: C9_9  and  C10_10 
REMARK    8  A    between atoms: C13_13  and  C15_15 
REMARK    9  A    between atoms: C15_15  and  C16_16 
REMARK   10  A    between atoms: C16_16  and  O1_17 
REMARK   11  A    between atoms: C29_32  and  O3_33 
REMARK   12  A    between atoms: C29_32  and  C30_35 
REMARK   13  A    between atoms: C36_42  and  C37_43 
ROOT
HETATM    1  C10 UNL     1      12.413  41.129 -11.186  1.00  0.00    -0.031 C 
HETATM    2  C11 UNL     1      13.012  42.564 -10.939  1.00  0.00     0.016 C 
HETATM    3  C12 UNL     1      11.636  41.302 -12.425  1.00  0.00     0.027 C 
HETATM    4  C13 UNL     1      11.348  40.260 -13.390  1.00  0.00     0.024 C 
HETATM    5  C14 UNL     1       9.861  40.160 -13.636  1.00  0.00     0.024 C 
HETATM    6  C17 UNL     1      11.870  39.001 -12.808  1.00  0.00     0.164 C 
HETATM    7  O2  UNL     1      11.238  37.938 -12.943  1.00  0.00    -0.292 OA
HETATM    8  C18 UNL     1      13.151  39.026 -12.069  1.00  0.00    -0.006 C 
HETATM    9  C19 UNL     1      13.991  38.027 -12.248  1.00  0.00    -0.015 C 
HETATM   10  C20 UNL     1      15.323  38.009 -11.523  1.00  0.00     0.033 C 
HETATM   11  C21 UNL     1      15.818  39.395 -11.773  1.00  0.00     0.003 C 
HETATM   12  C22 UNL     1      14.896  40.514 -11.405  1.00  0.00     0.004 C 
HETATM   13  C23 UNL     1      15.621  41.329 -10.370  1.00  0.00     0.012 C 
HETATM   14  C24 UNL     1      17.110  41.062 -10.664  1.00  0.00     0.005 C 
HETATM   15  C25 UNL     1      17.195  39.689 -11.233  1.00  0.00    -0.035 C 
HETATM   16  C26 UNL     1      18.219  39.734 -12.403  1.00  0.00     0.016 C 
HETATM   17  C27 UNL     1      17.716  38.670 -10.290  1.00  0.00     0.013 C 
HETATM   18  C28 UNL     1      17.691  39.035  -8.836  1.00  0.00     0.040 C 
HETATM   19  C29 UNL     1      18.479  40.301  -8.673  1.00  0.00     0.077 C 
HETATM   20  C31 UNL     1      18.026  41.420  -9.570  1.00  0.00    -0.011 C 
HETATM   21  C32 UNL     1      19.250  42.152 -10.161  1.00  0.00     0.018 C 
HETATM   22  C33 UNL     1      17.379  42.469  -8.687  1.00  0.00     0.018 C 
HETATM   23  C34 UNL     1      13.491  40.109 -11.109  1.00  0.00    -0.002 C 
HETATM   24  C35 UNL     1      13.584  39.475  -9.707  1.00  0.00     0.021 C 
ENDROOT
BRANCH   1  25
HETATM   25  C9  UNL     1      11.415  41.173 -10.049  1.00  0.00     0.011 C 
BRANCH  25  26
HETATM   26  C8  UNL     1      11.522  42.085  -8.933  1.00  0.00     0.006 C 
BRANCH  26  27
HETATM   27  C7  UNL     1      10.931  43.495  -9.165  1.00  0.00    -0.004 C 
BRANCH  27  28
HETATM   28  C6  UNL     1       9.519  43.432  -9.618  1.00  0.00     0.009 C 
BRANCH  28  29
HETATM   29  C5  UNL     1       9.228  44.588 -10.535  1.00  0.00     0.028 C 
BRANCH  29  30
HETATM   30  C4  UNL     1       9.500  44.276 -11.947  1.00  0.00    -0.025 C 
HETATM   31  C2  UNL     1      10.502  44.792 -12.609  1.00  0.00    -0.091 C 
HETATM   32  C1  UNL     1      10.701  44.410 -14.056  1.00  0.00     0.042 C 
HETATM   33  C3  UNL     1      11.452  45.747 -11.975  1.00  0.00     0.042 C 
ENDBRANCH  29  30
ENDBRANCH  28  29
ENDBRANCH  27  28
BRANCH  27  34
HETATM   34  C36 UNL     1      11.272  44.468  -8.115  1.00  0.00     0.117 C 
BRANCH  34  35
HETATM   35  C37 UNL     1      12.511  45.206  -8.181  1.00  0.00     0.172 C 
HETATM   36  O4  UNL     1      12.493  46.483  -8.332  1.00  0.00    -0.648 OA
HETATM   37  O5  UNL     1      13.790  44.686  -8.099  1.00  0.00    -0.648 OA
ENDBRANCH  34  35
ENDBRANCH  27  34
ENDBRANCH  26  27
ENDBRANCH  25  26
ENDBRANCH   1  25
BRANCH   4  38
HETATM   38  C15 UNL     1      11.940  40.461 -14.772  1.00  0.00     0.043 C 
BRANCH  38  39
HETATM   39  C16 UNL     1      11.058  41.149 -15.729  1.00  0.00     0.165 C 
BRANCH  39  40
HETATM   40  O1  UNL     1      10.972  40.641 -16.996  1.00  0.00    -0.401 OA
ATOM     41  H1  UNL     1      10.975  41.255 -17.721  1.00  0.00     0.209 HD
ENDBRANCH  39  40
ENDBRANCH  38  39
ENDBRANCH   4  38
BRANCH  19  42
HETATM   42  O3  UNL     1      19.799  39.985  -9.082  1.00  0.00    -0.388 OA
ATOM     43  H3  UNL     1      20.190  40.810  -9.345  1.00  0.00     0.210 HD
ENDBRANCH  19  42
BRANCH  19  44
HETATM   44  C30 UNL     1      18.598  40.705  -7.218  1.00  0.00     0.153 C 
HETATM   45 CL1  UNL     1      17.369  39.739  -6.334  1.00  0.00    -0.127 Cl
ENDBRANCH  19  44
TORSDOF 13
ENDMDL
