MODEL 1
REMARK VINA RESULT: -6.080311521      0.000      0.000
REMARK  6 active torsions:
REMARK  status: ('A' for Active; 'I' for Inactive)
REMARK    1  A    between atoms: C2_2  and  C3_3 
REMARK    2  A    between atoms: C3_3  and  C4_4 
REMARK    3  A    between atoms: C3_3  and  N1_6 
REMARK    4  A    between atoms: N1_6  and  C6_8 
REMARK    5  A    between atoms: C10_14  and  O1_15 
REMARK    6  A    between atoms: C14_22  and  C15_23 
ROOT
HETATM    1  C6  UNL     1     -27.064  -9.583 -25.509  1.00  0.00     0.043 A 
HETATM    2  C7  UNL     1     -27.526  -8.787 -24.447  1.00  0.00     0.047 A 
HETATM    3  C8  UNL     1     -28.355  -7.718 -24.678  1.00  0.00     0.090 A 
HETATM    4  N2  UNL     1     -28.756  -7.389 -25.884  1.00  0.00    -0.363 N 
ATOM      5  H2  UNL     1     -29.372  -6.588 -26.021  1.00  0.00     0.165 HD
HETATM    6  C9  UNL     1     -28.342  -8.123 -26.944  1.00  0.00     0.079 A 
HETATM    7  C10 UNL     1     -28.812  -7.731 -28.179  1.00  0.00     0.095 A 
HETATM    8  C11 UNL     1     -28.425  -8.464 -29.254  1.00  0.00     0.069 A 
HETATM    9  C12 UNL     1     -27.596  -9.555 -29.123  1.00  0.00     0.046 A 
HETATM   10  N3  UNL     1     -27.134 -10.387 -30.036  1.00  0.00    -0.364 N 
ATOM     11  H3  UNL     1     -27.321 -10.341 -31.038  1.00  0.00     0.165 HD
HETATM   12  C13 UNL     1     -26.388 -11.287 -29.428  1.00  0.00     0.105 A 
HETATM   13  C14 UNL     1     -26.336 -11.062 -28.012  1.00  0.00     0.076 A 
HETATM   14  C16 UNL     1     -27.112  -9.958 -27.861  1.00  0.00     0.022 A 
HETATM   15  C17 UNL     1     -27.490  -9.227 -26.746  1.00  0.00     0.033 A 
ENDROOT
BRANCH   1  16
HETATM   16  N1  UNL     1     -26.314 -10.488 -25.116  1.00  0.00    -0.385 N 
ATOM     17  H1  UNL     1     -26.292 -11.342 -25.671  1.00  0.00     0.160 HD
BRANCH  16  18
HETATM   18  C3  UNL     1     -25.464 -10.449 -23.941  1.00  0.00     0.081 C 
BRANCH  18  19
HETATM   19  C2  UNL     1     -25.597 -11.701 -23.134  1.00  0.00     0.020 C 
HETATM   20  C1  UNL     1     -26.110 -11.599 -21.746  1.00  0.00     0.007 C 
ENDBRANCH  18  19
BRANCH  18  21
HETATM   21  C4  UNL     1     -24.051 -10.054 -24.239  1.00  0.00     0.020 C 
HETATM   22  C5  UNL     1     -23.550  -8.836 -23.545  1.00  0.00     0.007 C 
ENDBRANCH  18  21
ENDBRANCH  16  18
ENDBRANCH   1  16
BRANCH   7  23
HETATM   23  O1  UNL     1     -29.635  -6.664 -28.391  1.00  0.00    -0.358 OA
ATOM     24  H1  UNL     1     -30.580  -6.719 -28.471  1.00  0.00     0.217 HD
ENDBRANCH   7  23
BRANCH  13  25
HETATM   25  C15 UNL     1     -25.555 -11.923 -27.188  1.00  0.00     0.419 C 
HETATM   26  F1  UNL     1     -25.144 -12.988 -28.153  1.00  0.00    -0.166 F 
HETATM   27  F2  UNL     1     -24.208 -11.636 -26.982  1.00  0.00    -0.166 F 
HETATM   28  F3  UNL     1     -26.151 -12.886 -26.397  1.00  0.00    -0.166 F 
ENDBRANCH  13  25
TORSDOF 6
ENDMDL
MODEL 2
REMARK VINA RESULT: -5.975372695      3.041      5.983
REMARK  6 active torsions:
REMARK  status: ('A' for Active; 'I' for Inactive)
REMARK    1  A    between atoms: C2_2  and  C3_3 
REMARK    2  A    between atoms: C3_3  and  C4_4 
REMARK    3  A    between atoms: C3_3  and  N1_6 
REMARK    4  A    between atoms: N1_6  and  C6_8 
REMARK    5  A    between atoms: C10_14  and  O1_15 
REMARK    6  A    between atoms: C14_22  and  C15_23 
ROOT
HETATM    1  C6  UNL     1     -25.995 -11.370 -27.242  1.00  0.00     0.043 A 
HETATM    2  C7  UNL     1     -25.170 -12.458 -27.575  1.00  0.00     0.047 A 
HETATM    3  C8  UNL     1     -24.397 -13.073 -26.622  1.00  0.00     0.090 A 
HETATM    4  N2  UNL     1     -24.389 -12.684 -25.368  1.00  0.00    -0.363 N 
ATOM      5  H2  UNL     1     -23.802 -13.162 -24.684  1.00  0.00     0.165 HD
HETATM    6  C9  UNL     1     -25.167 -11.641 -24.992  1.00  0.00     0.079 A 
HETATM    7  C10 UNL     1     -25.121 -11.295 -23.659  1.00  0.00     0.095 A 
HETATM    8  C11 UNL     1     -25.906 -10.264 -23.255  1.00  0.00     0.069 A 
HETATM    9  C12 UNL     1     -26.717  -9.587 -24.137  1.00  0.00     0.046 A 
HETATM   10  N3  UNL     1     -27.551  -8.586 -23.931  1.00  0.00    -0.364 N 
ATOM     11  H3  UNL     1     -27.725  -8.126 -23.037  1.00  0.00     0.165 HD
HETATM   12  C13 UNL     1     -28.119  -8.283 -25.080  1.00  0.00     0.105 A 
HETATM   13  C14 UNL     1     -27.650  -9.127 -26.141  1.00  0.00     0.076 A 
HETATM   14  C16 UNL     1     -26.765  -9.937 -25.503  1.00  0.00     0.022 A 
HETATM   15  C17 UNL     1     -25.972 -10.986 -25.943  1.00  0.00     0.033 A 
ENDROOT
BRANCH   1  16
HETATM   16  N1  UNL     1     -26.603 -10.933 -28.230  1.00  0.00    -0.385 N 
ATOM     17  H1  UNL     1     -27.032 -10.013 -28.136  1.00  0.00     0.160 HD
BRANCH  16  18
HETATM   18  C3  UNL     1     -26.763 -11.603 -29.506  1.00  0.00     0.081 C 
BRANCH  18  19
HETATM   19  C2  UNL     1     -28.067 -12.330 -29.577  1.00  0.00     0.020 C 
HETATM   20  C1  UNL     1     -28.139 -13.583 -30.370  1.00  0.00     0.007 C 
ENDBRANCH  18  19
BRANCH  18  21
HETATM   21  C4  UNL     1     -26.483 -10.721 -30.683  1.00  0.00     0.020 C 
HETATM   22  C5  UNL     1     -27.623  -9.899 -31.174  1.00  0.00     0.007 C 
ENDBRANCH  18  21
ENDBRANCH  16  18
ENDBRANCH   1  16
BRANCH   7  23
HETATM   23  O1  UNL     1     -24.345 -11.916 -22.723  1.00  0.00    -0.358 OA
ATOM     24  H1  UNL     1     -24.488 -11.867 -21.786  1.00  0.00     0.217 HD
ENDBRANCH   7  23
BRANCH  13  25
HETATM   25  C15 UNL     1     -28.135  -8.933 -27.467  1.00  0.00     0.419 C 
HETATM   26  F1  UNL     1     -29.056  -7.770 -27.292  1.00  0.00    -0.166 F 
HETATM   27  F2  UNL     1     -27.391  -8.170 -28.362  1.00  0.00    -0.166 F 
HETATM   28  F3  UNL     1     -29.190  -9.680 -27.956  1.00  0.00    -0.166 F 
ENDBRANCH  13  25
TORSDOF 6
ENDMDL
MODEL 3
REMARK VINA RESULT: -5.818608295      3.425      5.642
REMARK  6 active torsions:
REMARK  status: ('A' for Active; 'I' for Inactive)
REMARK    1  A    between atoms: C2_2  and  C3_3 
REMARK    2  A    between atoms: C3_3  and  C4_4 
REMARK    3  A    between atoms: C3_3  and  N1_6 
REMARK    4  A    between atoms: N1_6  and  C6_8 
REMARK    5  A    between atoms: C10_14  and  O1_15 
REMARK    6  A    between atoms: C14_22  and  C15_23 
ROOT
HETATM    1  C6  UNL     1     -26.350 -13.370 -29.821  1.00  0.00     0.043 A 
HETATM    2  C7  UNL     1     -26.043 -14.564 -30.494  1.00  0.00     0.047 A 
HETATM    3  C8  UNL     1     -26.188 -14.661 -31.856  1.00  0.00     0.090 A 
HETATM    4  N2  UNL     1     -26.611 -13.658 -32.590  1.00  0.00    -0.363 N 
ATOM      5  H2  UNL     1     -26.708 -13.763 -33.599  1.00  0.00     0.165 HD
HETATM    6  C9  UNL     1     -26.919 -12.482 -31.991  1.00  0.00     0.079 A 
HETATM    7  C10 UNL     1     -27.343 -11.468 -32.822  1.00  0.00     0.095 A 
HETATM    8  C11 UNL     1     -27.640 -10.274 -32.247  1.00  0.00     0.069 A 
HETATM    9  C12 UNL     1     -27.524 -10.080 -30.889  1.00  0.00     0.046 A 
HETATM   10  N3  UNL     1     -27.747  -9.002 -30.162  1.00  0.00    -0.364 N 
ATOM     11  H3  UNL     1     -28.067  -8.099 -30.512  1.00  0.00     0.165 HD
HETATM   12  C13 UNL     1     -27.484  -9.296 -28.905  1.00  0.00     0.105 A 
HETATM   13  C14 UNL     1     -27.053 -10.656 -28.759  1.00  0.00     0.076 A 
HETATM   14  C16 UNL     1     -27.092 -11.117 -30.036  1.00  0.00     0.022 A 
HETATM   15  C17 UNL     1     -26.784 -12.346 -30.597  1.00  0.00     0.033 A 
ENDROOT
BRANCH   1  16
HETATM   16  N1  UNL     1     -26.178 -13.473 -28.598  1.00  0.00    -0.385 N 
ATOM     17  H1  UNL     1     -26.146 -12.605 -28.063  1.00  0.00     0.160 HD
BRANCH  16  18
HETATM   18  C3  UNL     1     -26.016 -14.707 -27.854  1.00  0.00     0.081 C 
BRANCH  18  19
HETATM   19  C2  UNL     1     -24.589 -14.920 -27.459  1.00  0.00     0.020 C 
HETATM   20  C1  UNL     1     -23.955 -16.224 -27.771  1.00  0.00     0.007 C 
ENDBRANCH  18  19
BRANCH  18  21
HETATM   21  C4  UNL     1     -26.996 -14.861 -26.732  1.00  0.00     0.020 C 
HETATM   22  C5  UNL     1     -26.493 -14.532 -25.370  1.00  0.00     0.007 C 
ENDBRANCH  18  21
ENDBRANCH  16  18
ENDBRANCH   1  16
BRANCH   7  23
HETATM   23  O1  UNL     1     -27.483 -11.581 -34.175  1.00  0.00    -0.358 OA
ATOM     24  H1  UNL     1     -26.896 -11.191 -34.812  1.00  0.00     0.217 HD
ENDBRANCH   7  23
BRANCH  13  25
HETATM   25  C15 UNL     1     -26.745 -11.165 -27.464  1.00  0.00     0.419 C 
HETATM   26  F1  UNL     1     -26.841  -9.938 -26.617  1.00  0.00    -0.166 F 
HETATM   27  F2  UNL     1     -27.756 -11.735 -26.695  1.00  0.00    -0.166 F 
HETATM   28  F3  UNL     1     -25.435 -11.330 -27.055  1.00  0.00    -0.166 F 
ENDBRANCH  13  25
TORSDOF 6
ENDMDL
MODEL 4
REMARK VINA RESULT: -5.812372840      2.557      3.711
REMARK  6 active torsions:
REMARK  status: ('A' for Active; 'I' for Inactive)
REMARK    1  A    between atoms: C2_2  and  C3_3 
REMARK    2  A    between atoms: C3_3  and  C4_4 
REMARK    3  A    between atoms: C3_3  and  N1_6 
REMARK    4  A    between atoms: N1_6  and  C6_8 
REMARK    5  A    between atoms: C10_14  and  O1_15 
REMARK    6  A    between atoms: C14_22  and  C15_23 
ROOT
HETATM    1  C6  UNL     1     -27.724 -11.266 -27.250  1.00  0.00     0.043 A 
HETATM    2  C7  UNL     1     -27.846 -11.671 -25.910  1.00  0.00     0.047 A 
HETATM    3  C8  UNL     1     -28.233 -10.782 -24.939  1.00  0.00     0.090 A 
HETATM    4  N2  UNL     1     -28.507  -9.526 -25.205  1.00  0.00    -0.363 N 
ATOM      5  H2  UNL     1     -28.791  -8.891 -24.460  1.00  0.00     0.165 HD
HETATM    6  C9  UNL     1     -28.406  -9.082 -26.482  1.00  0.00     0.079 A 
HETATM    7  C10 UNL     1     -28.722  -7.758 -26.694  1.00  0.00     0.095 A 
HETATM    8  C11 UNL     1     -28.647  -7.295 -27.968  1.00  0.00     0.069 A 
HETATM    9  C12 UNL     1     -28.270  -8.112 -29.010  1.00  0.00     0.046 A 
HETATM   10  N3  UNL     1     -28.158  -7.851 -30.298  1.00  0.00    -0.364 N 
ATOM     11  H3  UNL     1     -28.332  -6.950 -30.744  1.00  0.00     0.165 HD
HETATM   12  C13 UNL     1     -27.781  -8.956 -30.908  1.00  0.00     0.105 A 
HETATM   13  C14 UNL     1     -27.627 -10.043 -29.985  1.00  0.00     0.076 A 
HETATM   14  C16 UNL     1     -27.945  -9.468 -28.796  1.00  0.00     0.022 A 
HETATM   15  C17 UNL     1     -28.012  -9.966 -27.504  1.00  0.00     0.033 A 
ENDROOT
BRANCH   1  16
HETATM   16  N1  UNL     1     -27.348 -12.194 -27.980  1.00  0.00    -0.385 N 
ATOM     17  H1  UNL     1     -27.824 -12.296 -28.876  1.00  0.00     0.160 HD
BRANCH  16  18
HETATM   18  C3  UNL     1     -26.299 -13.150 -27.684  1.00  0.00     0.081 C 
BRANCH  18  19
HETATM   19  C2  UNL     1     -26.491 -14.421 -28.446  1.00  0.00     0.020 C 
HETATM   20  C1  UNL     1     -25.521 -14.761 -29.516  1.00  0.00     0.007 C 
ENDBRANCH  18  19
BRANCH  18  21
HETATM   21  C4  UNL     1     -24.921 -12.573 -27.783  1.00  0.00     0.020 C 
HETATM   22  C5  UNL     1     -24.195 -12.381 -26.497  1.00  0.00     0.007 C 
ENDBRANCH  18  21
ENDBRANCH  16  18
ENDBRANCH   1  16
BRANCH   7  23
HETATM   23  O1  UNL     1     -29.104  -6.886 -25.715  1.00  0.00    -0.358 OA
ATOM     24  H1  UNL     1     -29.601  -6.091 -25.865  1.00  0.00     0.217 HD
ENDBRANCH   7  23
BRANCH  13  25
HETATM   25  C15 UNL     1     -27.199 -11.318 -30.458  1.00  0.00     0.419 C 
HETATM   26  F1  UNL     1     -27.265 -11.136 -31.939  1.00  0.00    -0.166 F 
HETATM   27  F2  UNL     1     -25.837 -11.579 -30.583  1.00  0.00    -0.166 F 
HETATM   28  F3  UNL     1     -28.084 -12.374 -30.559  1.00  0.00    -0.166 F 
ENDBRANCH  13  25
TORSDOF 6
ENDMDL
MODEL 5
REMARK VINA RESULT: -5.811799934      3.123      6.048
REMARK  6 active torsions:
REMARK  status: ('A' for Active; 'I' for Inactive)
REMARK    1  A    between atoms: C2_2  and  C3_3 
REMARK    2  A    between atoms: C3_3  and  C4_4 
REMARK    3  A    between atoms: C3_3  and  N1_6 
REMARK    4  A    between atoms: N1_6  and  C6_8 
REMARK    5  A    between atoms: C10_14  and  O1_15 
REMARK    6  A    between atoms: C14_22  and  C15_23 
ROOT
HETATM    1  C6  UNL     1     -26.283 -11.298 -27.066  1.00  0.00     0.043 A 
HETATM    2  C7  UNL     1     -25.161 -11.974 -27.575  1.00  0.00     0.047 A 
HETATM    3  C8  UNL     1     -24.159 -12.399 -26.741  1.00  0.00     0.090 A 
HETATM    4  N2  UNL     1     -24.194 -12.202 -25.443  1.00  0.00    -0.363 N 
ATOM      5  H2  UNL     1     -23.432 -12.531 -24.851  1.00  0.00     0.165 HD
HETATM    6  C9  UNL     1     -25.254 -11.557 -24.899  1.00  0.00     0.079 A 
HETATM    7  C10 UNL     1     -25.234 -11.397 -23.530  1.00  0.00     0.095 A 
HETATM    8  C11 UNL     1     -26.294 -10.769 -22.961  1.00  0.00     0.069 A 
HETATM    9  C12 UNL     1     -27.350 -10.309 -23.715  1.00  0.00     0.046 A 
HETATM   10  N3  UNL     1     -28.459  -9.699 -23.344  1.00  0.00    -0.364 N 
ATOM     11  H3  UNL     1     -28.715  -9.452 -22.388  1.00  0.00     0.165 HD
HETATM   12  C13 UNL     1     -29.178  -9.465 -24.423  1.00  0.00     0.105 A 
HETATM   13  C14 UNL     1     -28.525  -9.943 -25.608  1.00  0.00     0.076 A 
HETATM   14  C16 UNL     1     -27.372 -10.469 -25.117  1.00  0.00     0.022 A 
HETATM   15  C17 UNL     1     -26.301 -11.105 -25.724  1.00  0.00     0.033 A 
ENDROOT
BRANCH   1  16
HETATM   16  N1  UNL     1     -27.074 -10.974 -27.964  1.00  0.00    -0.385 N 
ATOM     17  H1  UNL     1     -28.024 -10.739 -27.679  1.00  0.00     0.160 HD
BRANCH  16  18
HETATM   18  C3  UNL     1     -26.778 -10.897 -29.382  1.00  0.00     0.081 C 
BRANCH  18  19
HETATM   19  C2  UNL     1     -27.640 -11.833 -30.168  1.00  0.00     0.020 C 
HETATM   20  C1  UNL     1     -27.000 -12.699 -31.188  1.00  0.00     0.007 C 
ENDBRANCH  18  19
BRANCH  18  21
HETATM   21  C4  UNL     1     -26.747  -9.496 -29.910  1.00  0.00     0.020 C 
HETATM   22  C5  UNL     1     -27.936  -9.063 -30.693  1.00  0.00     0.007 C 
ENDBRANCH  18  21
ENDBRANCH  16  18
ENDBRANCH   1  16
BRANCH   7  23
HETATM   23  O1  UNL     1     -24.227 -11.825 -22.715  1.00  0.00    -0.358 OA
ATOM     24  H1  UNL     1     -24.324 -12.485 -22.039  1.00  0.00     0.217 HD
ENDBRANCH   7  23
BRANCH  13  25
HETATM   25  C15 UNL     1     -29.141  -9.757 -26.879  1.00  0.00     0.419 C 
HETATM   26  F1  UNL     1     -30.486  -9.232 -26.497  1.00  0.00    -0.166 F 
HETATM   27  F2  UNL     1     -28.915  -8.577 -27.582  1.00  0.00    -0.166 F 
HETATM   28  F3  UNL     1     -29.750 -10.809 -27.536  1.00  0.00    -0.166 F 
ENDBRANCH  13  25
TORSDOF 6
ENDMDL
