MODEL 1
REMARK VINA RESULT: -6.854983298      0.000      0.000
REMARK  4 active torsions:
REMARK  status: ('A' for Active; 'I' for Inactive)
REMARK    1  A    between atoms: C4_6  and  N2_7 
REMARK    2  A    between atoms: C6_11  and  C7_12 
REMARK    3  A    between atoms: C9_14  and  C10_15 
REMARK    4  A    between atoms: C15_20  and  C16_21 
ROOT
HETATM    1  C1  UNL     1     -25.406  -2.590 -23.941  1.00  0.00     0.021 C 
HETATM    2  C2  UNL     1     -25.712  -3.734 -24.118  1.00  0.00    -0.041 C 
HETATM    3  C3  UNL     1     -26.076  -5.124 -24.304  1.00  0.00     0.163 A 
HETATM    4  N1  UNL     1     -25.182  -6.116 -24.066  1.00  0.00    -0.321 N 
ATOM      5  H1  UNL     1     -24.245  -5.858 -23.753  1.00  0.00     0.169 HD
HETATM    6  C4  UNL     1     -25.465  -7.416 -24.221  1.00  0.00     0.116 A 
HETATM    7  C5  UNL     1     -26.729  -7.809 -24.645  1.00  0.00     0.064 A 
HETATM    8  C6  UNL     1     -27.308  -9.026 -24.872  1.00  0.00     0.008 A 
HETATM    9  C17 UNL     1     -28.619  -8.733 -25.264  1.00  0.00     0.103 A 
HETATM   10  N3  UNL     1     -28.786  -7.410 -25.263  1.00  0.00    -0.351 N 
ATOM     11  H3  UNL     1     -29.651  -6.931 -25.510  1.00  0.00     0.166 HD
HETATM   12  C18 UNL     1     -27.634  -6.792 -24.883  1.00  0.00     0.122 A 
HETATM   13  N4  UNL     1     -27.293  -5.505 -24.711  1.00  0.00    -0.320 N 
ATOM     14  H4  UNL     1     -27.993  -4.785 -24.898  1.00  0.00     0.169 HD
ENDROOT
BRANCH   6  15
HETATM   15  N2  UNL     1     -24.553  -8.254 -23.950  1.00  0.00    -0.385 N 
ATOM     16  H22 UNL     1     -23.565  -8.053 -24.109  1.00  0.00     0.157 HD
ATOM     17  H21 UNL     1     -24.836  -9.160 -23.576  1.00  0.00     0.157 HD
ENDBRANCH   6  15
BRANCH   8  18
HETATM   18  C7  UNL     1     -26.691 -10.344 -24.822  1.00  0.00    -0.011 A 
HETATM   19  C8  UNL     1     -26.030 -10.853 -25.945  1.00  0.00     0.020 A 
HETATM   20  C9  UNL     1     -25.514 -12.150 -25.963  1.00  0.00    -0.054 A 
HETATM   21  C13 UNL     1     -25.676 -12.916 -24.832  1.00  0.00     0.008 A 
HETATM   22  C14 UNL     1     -26.320 -12.455 -23.705  1.00  0.00     0.014 A 
HETATM   23  C15 UNL     1     -26.829 -11.148 -23.715  1.00  0.00     0.017 A 
BRANCH  20  24
HETATM   24  C10 UNL     1     -24.826 -12.599 -27.192  1.00  0.00     0.010 C 
HETATM   25  C11 UNL     1     -25.533 -11.883 -28.357  1.00  0.00     0.015 C 
HETATM   26  C12 UNL     1     -24.976 -14.071 -27.439  1.00  0.00     0.015 C 
ENDBRANCH  20  24
BRANCH  23  27
HETATM   27  C16 UNL     1     -27.483 -10.648 -22.480  1.00  0.00     0.387 C 
HETATM   28  F1  UNL     1     -28.778 -11.128 -22.464  1.00  0.00    -0.209 F 
HETATM   29  F2  UNL     1     -26.779 -11.148 -21.385  1.00  0.00    -0.209 F 
ENDBRANCH  23  27
ENDBRANCH   8  18
TORSDOF 4
ENDMDL
MODEL 2
REMARK VINA RESULT: -6.636285843      2.813      4.116
REMARK  4 active torsions:
REMARK  status: ('A' for Active; 'I' for Inactive)
REMARK    1  A    between atoms: C4_6  and  N2_7 
REMARK    2  A    between atoms: C6_11  and  C7_12 
REMARK    3  A    between atoms: C9_14  and  C10_15 
REMARK    4  A    between atoms: C15_20  and  C16_21 
ROOT
HETATM    1  C1  UNL     1     -28.772  -3.245 -19.050  1.00  0.00     0.021 C 
HETATM    2  C2  UNL     1     -28.374  -3.812 -20.028  1.00  0.00    -0.041 C 
HETATM    3  C3  UNL     1     -27.920  -4.496 -21.221  1.00  0.00     0.163 A 
HETATM    4  N1  UNL     1     -28.489  -5.664 -21.613  1.00  0.00    -0.321 N 
ATOM      5  H1  UNL     1     -29.244  -6.049 -21.045  1.00  0.00     0.169 HD
HETATM    6  C4  UNL     1     -28.109  -6.337 -22.707  1.00  0.00     0.116 A 
HETATM    7  C5  UNL     1     -27.084  -5.847 -23.507  1.00  0.00     0.064 A 
HETATM    8  C6  UNL     1     -26.502  -6.286 -24.663  1.00  0.00     0.008 A 
HETATM    9  C17 UNL     1     -25.538  -5.320 -24.970  1.00  0.00     0.103 A 
HETATM   10  N3  UNL     1     -25.563  -4.371 -24.035  1.00  0.00    -0.351 N 
ATOM     11  H3  UNL     1     -24.959  -3.549 -24.020  1.00  0.00     0.166 HD
HETATM   12  C18 UNL     1     -26.512  -4.657 -23.102  1.00  0.00     0.122 A 
HETATM   13  N4  UNL     1     -26.934  -4.025 -21.994  1.00  0.00    -0.320 N 
ATOM     14  H4  UNL     1     -26.484  -3.147 -21.731  1.00  0.00     0.169 HD
ENDROOT
BRANCH   6  15
HETATM   15  N2  UNL     1     -28.727  -7.410 -22.983  1.00  0.00    -0.385 N 
ATOM     16  H22 UNL     1     -28.654  -8.244 -22.401  1.00  0.00     0.157 HD
ATOM     17  H21 UNL     1     -29.300  -7.423 -23.827  1.00  0.00     0.157 HD
ENDBRANCH   6  15
BRANCH   8  18
HETATM   18  C7  UNL     1     -26.743  -7.530 -25.382  1.00  0.00    -0.011 A 
HETATM   19  C8  UNL     1     -27.493  -7.524 -26.563  1.00  0.00     0.020 A 
HETATM   20  C9  UNL     1     -27.825  -8.709 -27.223  1.00  0.00    -0.054 A 
HETATM   21  C13 UNL     1     -27.386  -9.889 -26.671  1.00  0.00     0.008 A 
HETATM   22  C14 UNL     1     -26.646  -9.941 -25.511  1.00  0.00     0.014 A 
HETATM   23  C15 UNL     1     -26.327  -8.736 -24.869  1.00  0.00     0.017 A 
BRANCH  20  24
HETATM   24  C10 UNL     1     -28.616  -8.604 -28.467  1.00  0.00     0.010 C 
HETATM   25  C11 UNL     1     -28.088  -9.711 -29.398  1.00  0.00     0.015 C 
HETATM   26  C12 UNL     1     -28.405  -7.304 -29.184  1.00  0.00     0.015 C 
ENDBRANCH  20  24
BRANCH  23  27
HETATM   27  C16 UNL     1     -25.493  -8.802 -23.643  1.00  0.00     0.387 C 
HETATM   28  F1  UNL     1     -26.128  -9.636 -22.744  1.00  0.00    -0.209 F 
HETATM   29  F2  UNL     1     -24.253  -9.336 -23.991  1.00  0.00    -0.209 F 
ENDBRANCH  23  27
ENDBRANCH   8  18
TORSDOF 4
ENDMDL
MODEL 3
REMARK VINA RESULT: -6.526921653      5.931      8.234
REMARK  4 active torsions:
REMARK  status: ('A' for Active; 'I' for Inactive)
REMARK    1  A    between atoms: C4_6  and  N2_7 
REMARK    2  A    between atoms: C6_11  and  C7_12 
REMARK    3  A    between atoms: C9_14  and  C10_15 
REMARK    4  A    between atoms: C15_20  and  C16_21 
ROOT
HETATM    1  C1  UNL     1     -28.320  -7.357 -28.131  1.00  0.00     0.021 C 
HETATM    2  C2  UNL     1     -28.122  -8.296 -28.848  1.00  0.00    -0.041 C 
HETATM    3  C3  UNL     1     -27.907  -9.444 -29.705  1.00  0.00     0.163 A 
HETATM    4  N1  UNL     1     -27.757 -10.686 -29.180  1.00  0.00    -0.321 N 
ATOM      5  H1  UNL     1     -27.799 -10.791 -28.165  1.00  0.00     0.169 HD
HETATM    6  C4  UNL     1     -27.556 -11.781 -29.924  1.00  0.00     0.116 A 
HETATM    7  C5  UNL     1     -27.494 -11.681 -31.309  1.00  0.00     0.064 A 
HETATM    8  C6  UNL     1     -27.323 -12.595 -32.310  1.00  0.00     0.008 A 
HETATM    9  C17 UNL     1     -27.378 -11.848 -33.492  1.00  0.00     0.103 A 
HETATM   10  N3  UNL     1     -27.571 -10.566 -33.186  1.00  0.00    -0.351 N 
ATOM     11  H3  UNL     1     -27.648  -9.808 -33.864  1.00  0.00     0.166 HD
HETATM   12  C18 UNL     1     -27.649 -10.413 -31.835  1.00  0.00     0.122 A 
HETATM   13  N4  UNL     1     -27.848  -9.350 -31.039  1.00  0.00    -0.320 N 
ATOM     14  H4  UNL     1     -27.958  -8.431 -31.469  1.00  0.00     0.169 HD
ENDROOT
BRANCH   6  15
HETATM   15  N2  UNL     1     -27.449 -12.892 -29.322  1.00  0.00    -0.385 N 
ATOM     16  H22 UNL     1     -26.935 -12.988 -28.446  1.00  0.00     0.157 HD
ATOM     17  H21 UNL     1     -27.885 -13.709 -29.751  1.00  0.00     0.157 HD
ENDBRANCH   6  15
BRANCH   8  18
HETATM   18  C7  UNL     1     -27.043 -14.020 -32.197  1.00  0.00    -0.011 A 
HETATM   19  C8  UNL     1     -25.721 -14.479 -32.199  1.00  0.00     0.020 A 
HETATM   20  C9  UNL     1     -25.422 -15.843 -32.190  1.00  0.00    -0.054 A 
HETATM   21  C13 UNL     1     -26.476 -16.726 -32.177  1.00  0.00     0.008 A 
HETATM   22  C14 UNL     1     -27.792 -16.318 -32.173  1.00  0.00     0.014 A 
HETATM   23  C15 UNL     1     -28.063 -14.942 -32.183  1.00  0.00     0.017 A 
BRANCH  20  24
HETATM   24  C10 UNL     1     -23.997 -16.233 -32.188  1.00  0.00     0.010 C 
HETATM   25  C11 UNL     1     -23.880 -17.410 -33.174  1.00  0.00     0.015 C 
HETATM   26  C12 UNL     1     -23.532 -16.741 -30.856  1.00  0.00     0.015 C 
ENDBRANCH  20  24
BRANCH  23  27
HETATM   27  C16 UNL     1     -29.484 -14.515 -32.136  1.00  0.00     0.387 C 
HETATM   28  F1  UNL     1     -29.925 -14.373 -33.437  1.00  0.00    -0.209 F 
HETATM   29  F2  UNL     1     -30.215 -15.514 -31.494  1.00  0.00    -0.209 F 
ENDBRANCH  23  27
ENDBRANCH   8  18
TORSDOF 4
ENDMDL
MODEL 4
REMARK VINA RESULT: -6.494853763      3.684      6.693
REMARK  4 active torsions:
REMARK  status: ('A' for Active; 'I' for Inactive)
REMARK    1  A    between atoms: C4_6  and  N2_7 
REMARK    2  A    between atoms: C6_11  and  C7_12 
REMARK    3  A    between atoms: C9_14  and  C10_15 
REMARK    4  A    between atoms: C15_20  and  C16_21 
ROOT
HETATM    1  C1  UNL     1     -26.230 -13.160 -32.557  1.00  0.00     0.021 C 
HETATM    2  C2  UNL     1     -26.541 -12.325 -31.757  1.00  0.00    -0.041 C 
HETATM    3  C3  UNL     1     -26.890 -11.314 -30.780  1.00  0.00     0.163 A 
HETATM    4  N1  UNL     1     -26.727 -11.543 -29.453  1.00  0.00    -0.321 N 
ATOM      5  H1  UNL     1     -26.353 -12.446 -29.160  1.00  0.00     0.169 HD
HETATM    6  C4  UNL     1     -27.032 -10.645 -28.507  1.00  0.00     0.116 A 
HETATM    7  C5  UNL     1     -27.544  -9.403 -28.863  1.00  0.00     0.064 A 
HETATM    8  C6  UNL     1     -27.923  -8.303 -28.148  1.00  0.00     0.008 A 
HETATM    9  C17 UNL     1     -28.331  -7.371 -29.109  1.00  0.00     0.103 A 
HETATM   10  N3  UNL     1     -28.193  -7.911 -30.320  1.00  0.00    -0.351 N 
ATOM     11  H3  UNL     1     -28.420  -7.443 -31.197  1.00  0.00     0.166 HD
HETATM   12  C18 UNL     1     -27.705  -9.178 -30.216  1.00  0.00     0.122 A 
HETATM   13  N4  UNL     1     -27.382 -10.117 -31.121  1.00  0.00    -0.320 N 
ATOM     14  H4  UNL     1     -27.517  -9.908 -32.111  1.00  0.00     0.169 HD
ENDROOT
BRANCH   6  15
HETATM   15  N2  UNL     1     -26.819 -10.966 -27.298  1.00  0.00    -0.385 N 
ATOM     16  H22 UNL     1     -27.213 -11.810 -26.882  1.00  0.00     0.157 HD
ATOM     17  H21 UNL     1     -26.244 -10.339 -26.735  1.00  0.00     0.157 HD
ENDBRANCH   6  15
BRANCH   8  18
HETATM   18  C7  UNL     1     -27.993  -8.143 -26.702  1.00  0.00    -0.011 A 
HETATM   19  C8  UNL     1     -26.936  -7.541 -26.010  1.00  0.00     0.020 A 
HETATM   20  C9  UNL     1     -26.928  -7.462 -24.616  1.00  0.00    -0.054 A 
HETATM   21  C13 UNL     1     -28.001  -7.995 -23.941  1.00  0.00     0.008 A 
HETATM   22  C14 UNL     1     -29.062  -8.595 -24.582  1.00  0.00     0.014 A 
HETATM   23  C15 UNL     1     -29.044  -8.662 -25.983  1.00  0.00     0.017 A 
BRANCH  20  24
HETATM   24  C10 UNL     1     -25.771  -6.804 -23.972  1.00  0.00     0.010 C 
HETATM   25  C11 UNL     1     -25.006  -7.920 -23.237  1.00  0.00     0.015 C 
HETATM   26  C12 UNL     1     -26.174  -5.802 -22.932  1.00  0.00     0.015 C 
ENDBRANCH  20  24
BRANCH  23  27
HETATM   27  C16 UNL     1     -30.213  -9.273 -26.663  1.00  0.00     0.387 C 
HETATM   28  F1  UNL     1     -29.935 -10.612 -26.860  1.00  0.00    -0.209 F 
HETATM   29  F2  UNL     1     -31.321  -9.137 -25.827  1.00  0.00    -0.209 F 
ENDBRANCH  23  27
ENDBRANCH   8  18
TORSDOF 4
ENDMDL
MODEL 5
REMARK VINA RESULT: -6.474806485      4.743      6.269
REMARK  4 active torsions:
REMARK  status: ('A' for Active; 'I' for Inactive)
REMARK    1  A    between atoms: C4_6  and  N2_7 
REMARK    2  A    between atoms: C6_11  and  C7_12 
REMARK    3  A    between atoms: C9_14  and  C10_15 
REMARK    4  A    between atoms: C15_20  and  C16_21 
ROOT
HETATM    1  C1  UNL     1     -26.894 -11.103 -20.322  1.00  0.00     0.021 C 
HETATM    2  C2  UNL     1     -26.506 -11.429 -21.408  1.00  0.00    -0.041 C 
HETATM    3  C3  UNL     1     -26.063 -11.817 -22.731  1.00  0.00     0.163 A 
HETATM    4  N1  UNL     1     -26.669 -12.831 -23.398  1.00  0.00    -0.321 N 
ATOM      5  H1  UNL     1     -27.445 -13.314 -22.943  1.00  0.00     0.169 HD
HETATM    6  C4  UNL     1     -26.301 -13.232 -24.623  1.00  0.00     0.116 A 
HETATM    7  C5  UNL     1     -25.250 -12.600 -25.276  1.00  0.00     0.064 A 
HETATM    8  C6  UNL     1     -24.671 -12.766 -26.503  1.00  0.00     0.008 A 
HETATM    9  C17 UNL     1     -23.668 -11.792 -26.562  1.00  0.00     0.103 A 
HETATM   10  N3  UNL     1     -23.670 -11.099 -25.423  1.00  0.00    -0.351 N 
ATOM     11  H3  UNL     1     -23.037 -10.330 -25.206  1.00  0.00     0.166 HD
HETATM   12  C18 UNL     1     -24.640 -11.568 -24.590  1.00  0.00     0.122 A 
HETATM   13  N4  UNL     1     -25.051 -11.210 -23.363  1.00  0.00    -0.320 N 
ATOM     14  H4  UNL     1     -24.572 -10.441 -22.892  1.00  0.00     0.169 HD
ENDROOT
BRANCH   6  15
HETATM   15  N2  UNL     1     -26.955 -14.180 -25.154  1.00  0.00    -0.385 N 
ATOM     16  H22 UNL     1     -27.290 -14.978 -24.615  1.00  0.00     0.157 HD
ATOM     17  H21 UNL     1     -27.129 -14.131 -26.158  1.00  0.00     0.157 HD
ENDBRANCH   6  15
BRANCH   8  18
HETATM   18  C7  UNL     1     -24.949 -13.786 -27.504  1.00  0.00    -0.011 A 
HETATM   19  C8  UNL     1     -24.404 -15.068 -27.372  1.00  0.00     0.020 A 
HETATM   20  C9  UNL     1     -24.571 -16.038 -28.362  1.00  0.00    -0.054 A 
HETATM   21  C13 UNL     1     -25.295 -15.691 -29.478  1.00  0.00     0.008 A 
HETATM   22  C14 UNL     1     -25.850 -14.442 -29.649  1.00  0.00     0.014 A 
HETATM   23  C15 UNL     1     -25.667 -13.487 -28.639  1.00  0.00     0.017 A 
BRANCH  20  24
HETATM   24  C10 UNL     1     -23.963 -17.365 -28.132  1.00  0.00     0.010 C 
HETATM   25  C11 UNL     1     -23.890 -17.538 -26.604  1.00  0.00     0.015 C 
HETATM   26  C12 UNL     1     -22.555 -17.458 -28.641  1.00  0.00     0.015 C 
ENDBRANCH  20  24
BRANCH  23  27
HETATM   27  C16 UNL     1     -26.305 -12.158 -28.815  1.00  0.00     0.387 C 
HETATM   28  F1  UNL     1     -25.428 -11.359 -29.522  1.00  0.00    -0.209 F 
HETATM   29  F2  UNL     1     -27.479 -12.336 -29.547  1.00  0.00    -0.209 F 
ENDBRANCH  23  27
ENDBRANCH   8  18
TORSDOF 4
ENDMDL
