MODEL 1
REMARK VINA RESULT: -6.366107643      0.000      0.000
REMARK  4 active torsions:
REMARK  status: ('A' for Active; 'I' for Inactive)
REMARK    1  A    between atoms: C2_2  and  C3_3 
REMARK    2  A    between atoms: C3_3  and  N1_4 
REMARK    3  A    between atoms: C3_3  and  C4_8 
REMARK    4  A    between atoms: C6_12  and  C7_13 
ROOT
HETATM    1  C4  UNL     1     -28.122  -8.125 -26.953  1.00  0.00     0.056 A 
HETATM    2  C5  UNL     1     -27.392  -8.857 -26.039  1.00  0.00     0.116 A 
HETATM    3  N2  UNL     1     -27.404  -8.173 -24.882  1.00  0.00    -0.353 N 
ATOM      4  H2  UNL     1     -26.941  -8.473 -24.023  1.00  0.00     0.166 HD
HETATM    5  C6  UNL     1     -28.113  -7.031 -25.017  1.00  0.00     0.090 A 
HETATM    6  N4  UNL     1     -28.539  -7.031 -26.293  1.00  0.00    -0.346 N 
ATOM      7  H4  UNL     1     -29.108  -6.293 -26.709  1.00  0.00     0.167 HD
ENDROOT
BRANCH   5   8
HETATM    8  C7  UNL     1     -28.357  -6.037 -23.948  1.00  0.00     0.090 C 
HETATM    9  C8  UNL     1     -28.839  -6.768 -22.711  1.00  0.00     0.019 C 
HETATM   10  C9  UNL     1     -28.848  -5.933 -21.483  1.00  0.00     0.033 C 
HETATM   11  C10 UNL     1     -28.598  -4.479 -21.709  1.00  0.00     0.076 C 
HETATM   12  C11 UNL     1     -28.382  -3.830 -20.343  1.00  0.00     0.039 C 
HETATM   13 CL1  UNL     1     -29.958  -3.648 -22.452  1.00  0.00    -0.113 Cl
HETATM   14  C12 UNL     1     -27.336  -4.370 -22.498  1.00  0.00     0.041 A 
HETATM   15  N3  UNL     1     -26.211  -3.647 -22.374  1.00  0.00    -0.365 N 
HETATM   16  C15 UNL     1     -27.213  -5.162 -23.639  1.00  0.00     0.001 A 
HETATM   17  C13 UNL     1     -25.388  -3.952 -23.388  1.00  0.00     0.112 A 
ATOM     18  H3  UNL     1     -26.015  -2.975 -21.632  1.00  0.00     0.165 HD
HETATM   19  C14 UNL     1     -25.985  -4.899 -24.201  1.00  0.00     0.058 A 
HETATM   20 CL2  UNL     1     -25.348  -5.637 -25.650  1.00  0.00    -0.082 Cl
ENDBRANCH   5   8
BRANCH   1  21
HETATM   21  C3  UNL     1     -28.381  -8.494 -28.370  1.00  0.00     0.234 C 
BRANCH  21  22
HETATM   22  C2  UNL     1     -28.349  -7.248 -29.224  1.00  0.00     0.035 C 
HETATM   23  C1  UNL     1     -26.929  -6.842 -29.539  1.00  0.00     0.007 C 
ENDBRANCH  21  22
BRANCH  21  24
HETATM   24  N1  UNL     1     -27.341  -9.416 -28.796  1.00  0.00    -0.070 N 
ATOM     25  H13 UNL     1     -27.510  -9.774 -29.736  1.00  0.00     0.275 HD
ATOM     26  H12 UNL     1     -26.458  -8.939 -28.974  1.00  0.00     0.275 HD
ATOM     27  H11 UNL     1     -27.239 -10.167 -28.113  1.00  0.00     0.275 HD
ENDBRANCH  21  24
ENDBRANCH   1  21
TORSDOF 4
ENDMDL
MODEL 2
REMARK VINA RESULT: -6.212581311      2.355      6.529
REMARK  4 active torsions:
REMARK  status: ('A' for Active; 'I' for Inactive)
REMARK    1  A    between atoms: C2_2  and  C3_3 
REMARK    2  A    between atoms: C3_3  and  N1_4 
REMARK    3  A    between atoms: C3_3  and  C4_8 
REMARK    4  A    between atoms: C6_12  and  C7_13 
ROOT
HETATM    1  C4  UNL     1     -26.662  -5.037 -24.023  1.00  0.00     0.056 A 
HETATM    2  C5  UNL     1     -25.645  -5.136 -24.950  1.00  0.00     0.116 A 
HETATM    3  N2  UNL     1     -25.932  -6.182 -25.745  1.00  0.00    -0.353 N 
ATOM      4  H2  UNL     1     -25.354  -6.496 -26.525  1.00  0.00     0.166 HD
HETATM    5  C6  UNL     1     -27.094  -6.756 -25.366  1.00  0.00     0.090 A 
HETATM    6  N4  UNL     1     -27.515  -6.034 -24.311  1.00  0.00    -0.346 N 
ATOM      7  H4  UNL     1     -28.375  -6.220 -23.794  1.00  0.00     0.167 HD
ENDROOT
BRANCH   5   8
HETATM    8  C7  UNL     1     -27.734  -7.919 -26.020  1.00  0.00     0.090 C 
HETATM    9  C8  UNL     1     -27.736  -7.689 -27.518  1.00  0.00     0.019 C 
HETATM   10  C9  UNL     1     -28.085  -8.893 -28.312  1.00  0.00     0.033 C 
HETATM   11  C10 UNL     1     -28.584 -10.051 -27.514  1.00  0.00     0.076 C 
HETATM   12  C11 UNL     1     -28.639 -11.263 -28.442  1.00  0.00     0.039 C 
HETATM   13 CL1  UNL     1     -30.212  -9.818 -26.893  1.00  0.00    -0.113 Cl
HETATM   14  C12 UNL     1     -27.576 -10.311 -26.444  1.00  0.00     0.041 A 
HETATM   15  N3  UNL     1     -26.938 -11.407 -26.001  1.00  0.00    -0.365 N 
HETATM   16  C15 UNL     1     -27.143  -9.226 -25.683  1.00  0.00     0.001 A 
HETATM   17  C13 UNL     1     -26.124 -11.056 -24.996  1.00  0.00     0.112 A 
ATOM     18  H3  UNL     1     -27.054 -12.351 -26.369  1.00  0.00     0.165 HD
HETATM   19  C14 UNL     1     -26.228  -9.695 -24.769  1.00  0.00     0.058 A 
HETATM   20 CL2  UNL     1     -25.388  -8.730 -23.579  1.00  0.00    -0.082 Cl
ENDBRANCH   5   8
BRANCH   1  21
HETATM   21  C3  UNL     1     -26.768  -4.025 -22.940  1.00  0.00     0.234 C 
BRANCH  21  22
HETATM   22  C2  UNL     1     -26.871  -4.729 -21.606  1.00  0.00     0.035 C 
HETATM   23  C1  UNL     1     -28.262  -4.599 -21.031  1.00  0.00     0.007 C 
ENDBRANCH  21  22
BRANCH  21  24
HETATM   24  N1  UNL     1     -25.575  -3.196 -22.973  1.00  0.00    -0.070 N 
ATOM     25  H13 UNL     1     -24.821  -3.589 -22.409  1.00  0.00     0.275 HD
ATOM     26  H12 UNL     1     -25.113  -3.228 -23.882  1.00  0.00     0.275 HD
ATOM     27  H11 UNL     1     -25.804  -2.242 -22.695  1.00  0.00     0.275 HD
ENDBRANCH  21  24
ENDBRANCH   1  21
TORSDOF 4
ENDMDL
MODEL 3
REMARK VINA RESULT: -6.004633569      2.708      6.547
REMARK  4 active torsions:
REMARK  status: ('A' for Active; 'I' for Inactive)
REMARK    1  A    between atoms: C2_2  and  C3_3 
REMARK    2  A    between atoms: C3_3  and  N1_4 
REMARK    3  A    between atoms: C3_3  and  C4_8 
REMARK    4  A    between atoms: C6_12  and  C7_13 
ROOT
HETATM    1  C4  UNL     1     -26.716  -5.283 -23.434  1.00  0.00     0.056 A 
HETATM    2  C5  UNL     1     -25.887  -5.034 -24.507  1.00  0.00     0.116 A 
HETATM    3  N2  UNL     1     -25.493  -6.225 -24.991  1.00  0.00    -0.353 N 
ATOM      4  H2  UNL     1     -24.871  -6.353 -25.789  1.00  0.00     0.166 HD
HETATM    5  C6  UNL     1     -26.040  -7.229 -24.270  1.00  0.00     0.090 A 
HETATM    6  N4  UNL     1     -26.781  -6.621 -23.326  1.00  0.00    -0.346 N 
ATOM      7  H4  UNL     1     -27.325  -7.114 -22.618  1.00  0.00     0.167 HD
ENDROOT
BRANCH   5   8
HETATM    8  C7  UNL     1     -25.846  -8.674 -24.523  1.00  0.00     0.090 C 
HETATM    9  C8  UNL     1     -25.528  -9.355 -23.206  1.00  0.00     0.019 C 
HETATM   10  C9  UNL     1     -25.592 -10.837 -23.263  1.00  0.00     0.033 C 
HETATM   11  C10 UNL     1     -25.739 -11.408 -24.633  1.00  0.00     0.076 C 
HETATM   12  C11 UNL     1     -26.051 -12.896 -24.483  1.00  0.00     0.039 C 
HETATM   13 CL1  UNL     1     -24.270 -11.296 -25.594  1.00  0.00    -0.113 Cl
HETATM   14  C12 UNL     1     -26.911 -10.733 -25.266  1.00  0.00     0.041 A 
HETATM   15  N3  UNL     1     -28.001 -11.164 -25.921  1.00  0.00    -0.365 N 
HETATM   16  C15 UNL     1     -26.965  -9.342 -25.210  1.00  0.00     0.001 A 
HETATM   17  C13 UNL     1     -28.737 -10.102 -26.278  1.00  0.00     0.112 A 
ATOM     18  H3  UNL     1     -28.231 -12.139 -26.116  1.00  0.00     0.165 HD
HETATM   19  C14 UNL     1     -28.117  -8.942 -25.849  1.00  0.00     0.058 A 
HETATM   20 CL2  UNL     1     -28.650  -7.291 -26.052  1.00  0.00    -0.082 Cl
ENDBRANCH   5   8
BRANCH   1  21
HETATM   21  C3  UNL     1     -27.389  -4.263 -22.587  1.00  0.00     0.234 C 
BRANCH  21  22
HETATM   22  C2  UNL     1     -28.878  -4.522 -22.580  1.00  0.00     0.035 C 
HETATM   23  C1  UNL     1     -29.649  -3.245 -22.338  1.00  0.00     0.007 C 
ENDBRANCH  21  22
BRANCH  21  24
HETATM   24  N1  UNL     1     -26.859  -4.371 -21.238  1.00  0.00    -0.070 N 
ATOM     25  H13 UNL     1     -27.266  -5.156 -20.730  1.00  0.00     0.275 HD
ATOM     26  H12 UNL     1     -25.886  -4.678 -21.233  1.00  0.00     0.275 HD
ATOM     27  H11 UNL     1     -26.983  -3.489 -20.742  1.00  0.00     0.275 HD
ENDBRANCH  21  24
ENDBRANCH   1  21
TORSDOF 4
ENDMDL
MODEL 4
REMARK VINA RESULT: -5.967623528      2.352      6.328
REMARK  4 active torsions:
REMARK  status: ('A' for Active; 'I' for Inactive)
REMARK    1  A    between atoms: C2_2  and  C3_3 
REMARK    2  A    between atoms: C3_3  and  N1_4 
REMARK    3  A    between atoms: C3_3  and  C4_8 
REMARK    4  A    between atoms: C6_12  and  C7_13 
ROOT
HETATM    1  C4  UNL     1     -27.622  -5.615 -23.174  1.00  0.00     0.056 A 
HETATM    2  C5  UNL     1     -28.438  -6.394 -22.381  1.00  0.00     0.116 A 
HETATM    3  N2  UNL     1     -28.819  -7.451 -23.119  1.00  0.00    -0.353 N 
ATOM      4  H2  UNL     1     -29.431  -8.199 -22.792  1.00  0.00     0.166 HD
HETATM    5  C6  UNL     1     -28.277  -7.381 -24.355  1.00  0.00     0.090 A 
HETATM    6  N4  UNL     1     -27.551  -6.249 -24.357  1.00  0.00    -0.346 N 
ATOM      7  H4  UNL     1     -27.015  -5.913 -25.157  1.00  0.00     0.167 HD
ENDROOT
BRANCH   5   8
HETATM    8  C7  UNL     1     -28.460  -8.379 -25.433  1.00  0.00     0.090 C 
HETATM    9  C8  UNL     1     -28.638  -7.643 -26.745  1.00  0.00     0.019 C 
HETATM   10  C9  UNL     1     -28.546  -8.516 -27.943  1.00  0.00     0.033 C 
HETATM   11  C10 UNL     1     -28.515  -9.979 -27.654  1.00  0.00     0.076 C 
HETATM   12  C11 UNL     1     -28.156 -10.699 -28.953  1.00  0.00     0.039 C 
HETATM   13 CL1  UNL     1     -30.069 -10.619 -27.137  1.00  0.00    -0.113 Cl
HETATM   14  C12 UNL     1     -27.423 -10.206 -26.662  1.00  0.00     0.041 A 
HETATM   15  N3  UNL     1     -26.389 -11.059 -26.583  1.00  0.00    -0.365 N 
HETATM   16  C15 UNL     1     -27.395  -9.392 -25.530  1.00  0.00     0.001 A 
HETATM   17  C13 UNL     1     -25.713 -10.815 -25.451  1.00  0.00     0.112 A 
ATOM     18  H3  UNL     1     -26.155 -11.776 -27.270  1.00  0.00     0.165 HD
HETATM   19  C14 UNL     1     -26.317  -9.776 -24.765  1.00  0.00     0.058 A 
HETATM   20 CL2  UNL     1     -25.844  -9.065 -23.242  1.00  0.00    -0.082 Cl
ENDBRANCH   5   8
BRANCH   1  21
HETATM   21  C3  UNL     1     -26.965  -4.341 -22.778  1.00  0.00     0.234 C 
BRANCH  21  22
HETATM   22  C2  UNL     1     -25.643  -4.215 -23.498  1.00  0.00     0.035 C 
HETATM   23  C1  UNL     1     -25.475  -2.833 -24.085  1.00  0.00     0.007 C 
ENDBRANCH  21  22
BRANCH  21  24
HETATM   24  N1  UNL     1     -27.842  -3.243 -23.150  1.00  0.00    -0.070 N 
ATOM     25  H13 UNL     1     -28.730  -3.277 -22.651  1.00  0.00     0.275 HD
ATOM     26  H12 UNL     1     -27.505  -2.349 -22.796  1.00  0.00     0.275 HD
ATOM     27  H11 UNL     1     -27.973  -3.229 -24.162  1.00  0.00     0.275 HD
ENDBRANCH  21  24
ENDBRANCH   1  21
TORSDOF 4
ENDMDL
MODEL 5
REMARK VINA RESULT: -5.901242524      2.653      6.485
REMARK  4 active torsions:
REMARK  status: ('A' for Active; 'I' for Inactive)
REMARK    1  A    between atoms: C2_2  and  C3_3 
REMARK    2  A    between atoms: C3_3  and  N1_4 
REMARK    3  A    between atoms: C3_3  and  C4_8 
REMARK    4  A    between atoms: C6_12  and  C7_13 
ROOT
HETATM    1  C4  UNL     1     -26.577  -5.439 -24.093  1.00  0.00     0.056 A 
HETATM    2  C5  UNL     1     -25.684  -5.485 -25.143  1.00  0.00     0.116 A 
HETATM    3  N2  UNL     1     -26.039  -6.523 -25.922  1.00  0.00    -0.353 N 
ATOM      4  H2  UNL     1     -25.556  -6.802 -26.776  1.00  0.00     0.166 HD
HETATM    5  C6  UNL     1     -27.125  -7.143 -25.412  1.00  0.00     0.090 A 
HETATM    6  N4  UNL     1     -27.430  -6.458 -24.295  1.00  0.00    -0.346 N 
ATOM      7  H4  UNL     1     -28.211  -6.683 -23.679  1.00  0.00     0.167 HD
ENDROOT
BRANCH   5   8
HETATM    8  C7  UNL     1     -27.808  -8.313 -26.009  1.00  0.00     0.090 C 
HETATM    9  C8  UNL     1     -27.901  -8.105 -27.507  1.00  0.00     0.019 C 
HETATM   10  C9  UNL     1     -28.303  -9.319 -28.261  1.00  0.00     0.033 C 
HETATM   11  C10 UNL     1     -28.755 -10.463 -27.416  1.00  0.00     0.076 C 
HETATM   12  C11 UNL     1     -28.872 -11.688 -28.321  1.00  0.00     0.039 C 
HETATM   13 CL1  UNL     1     -30.342 -10.213 -26.700  1.00  0.00    -0.113 Cl
HETATM   14  C12 UNL     1     -27.684 -10.712 -26.406  1.00  0.00     0.041 A 
HETATM   15  N3  UNL     1     -27.025 -11.803 -25.987  1.00  0.00    -0.365 N 
HETATM   16  C15 UNL     1     -27.202  -9.618 -25.689  1.00  0.00     0.001 A 
HETATM   17  C13 UNL     1     -26.149 -11.441 -25.039  1.00  0.00     0.112 A 
ATOM     18  H3  UNL     1     -27.166 -12.753 -26.333  1.00  0.00     0.165 HD
HETATM   19  C14 UNL     1     -26.234 -10.077 -24.826  1.00  0.00     0.058 A 
HETATM   20 CL2  UNL     1     -25.320  -9.098 -23.705  1.00  0.00    -0.082 Cl
ENDBRANCH   5   8
BRANCH   1  21
HETATM   21  C3  UNL     1     -26.575  -4.454 -22.980  1.00  0.00     0.234 C 
BRANCH  21  22
HETATM   22  C2  UNL     1     -25.298  -3.647 -23.029  1.00  0.00     0.035 C 
HETATM   23  C1  UNL     1     -25.421  -2.496 -24.000  1.00  0.00     0.007 C 
ENDBRANCH  21  22
BRANCH  21  24
HETATM   24  N1  UNL     1     -27.723  -3.578 -23.146  1.00  0.00    -0.070 N 
ATOM     25  H13 UNL     1     -28.369  -3.642 -22.359  1.00  0.00     0.275 HD
ATOM     26  H12 UNL     1     -27.470  -2.595 -23.052  1.00  0.00     0.275 HD
ATOM     27  H11 UNL     1     -28.184  -3.771 -24.035  1.00  0.00     0.275 HD
ENDBRANCH  21  24
ENDBRANCH   1  21
TORSDOF 4
ENDMDL
