MODEL 1
REMARK VINA RESULT: -7.209029391      0.000      0.000
REMARK  4 active torsions:
REMARK  status: ('A' for Active; 'I' for Inactive)
REMARK    1  A    between atoms: N1_1  and  C1_4 
REMARK    2  A    between atoms: C3_9  and  C4_10 
REMARK    3  A    between atoms: C9_15  and  N3_16 
REMARK    4  A    between atoms: N3_16  and  C10_18 
ROOT
HETATM    1  C4  UNL     1     -26.841  -8.260 -23.797  1.00  0.00     0.044 C 
HETATM    2  C5  UNL     1     -25.464  -8.682 -23.211  1.00  0.00     0.011 C 
HETATM    3  C6  UNL     1     -24.676  -9.598 -24.027  1.00  0.00     0.001 C 
HETATM    4  C7  UNL     1     -25.454 -10.755 -24.602  1.00  0.00     0.002 C 
HETATM    5  C8  UNL     1     -26.865 -10.334 -24.939  1.00  0.00     0.026 C 
HETATM    6  C9  UNL     1     -26.838  -8.823 -25.220  1.00  0.00     0.089 C 
ENDROOT
BRANCH   1   7
HETATM    7  C3  UNL     1     -26.685  -6.777 -23.830  1.00  0.00    -0.010 A 
HETATM    8  C2  UNL     1     -27.604  -5.966 -23.211  1.00  0.00     0.112 A 
HETATM    9  N2  UNL     1     -27.539  -4.609 -23.282  1.00  0.00    -0.330 N 
HETATM   10 CL1  UNL     1     -28.910  -6.676 -22.227  1.00  0.00    -0.064 Cl
HETATM   11  C1  UNL     1     -26.526  -4.031 -23.984  1.00  0.00     0.139 A 
ATOM     12  H2  UNL     1     -28.240  -4.033 -22.816  1.00  0.00     0.168 HD
HETATM   13  C17 UNL     1     -25.614  -4.830 -24.604  1.00  0.00     0.160 A 
HETATM   14  C16 UNL     1     -25.659  -6.199 -24.554  1.00  0.00     0.057 A 
HETATM   15  F1  UNL     1     -24.615  -4.229 -25.334  1.00  0.00    -0.202 F 
BRANCH  11  16
HETATM   16  N1  UNL     1     -26.432  -2.752 -24.020  1.00  0.00    -0.383 N 
ATOM     17  H12 UNL     1     -26.971  -2.196 -24.685  1.00  0.00     0.157 HD
ATOM     18  H11 UNL     1     -25.785  -2.277 -23.390  1.00  0.00     0.157 HD
ENDBRANCH  11  16
ENDBRANCH   1   7
BRANCH   6  19
HETATM   19  N3  UNL     1     -27.749  -8.391 -26.082  1.00  0.00    -0.391 N 
ATOM     20  H3  UNL     1     -28.561  -7.994 -25.611  1.00  0.00     0.159 HD
BRANCH  19  21
HETATM   21  C10 UNL     1     -27.876  -8.343 -27.454  1.00  0.00    -0.018 C 
HETATM   22  C11 UNL     1     -28.616  -7.317 -28.215  1.00  0.00     0.052 C 
HETATM   23  C12 UNL     1     -28.104  -7.322 -29.650  1.00  0.00     0.006 C 
HETATM   24  C13 UNL     1     -27.954  -8.629 -30.300  1.00  0.00     0.001 C 
HETATM   25  C14 UNL     1     -27.561  -9.779 -29.429  1.00  0.00     0.006 C 
HETATM   26  C15 UNL     1     -28.259  -9.684 -28.090  1.00  0.00     0.052 C 
ENDBRANCH  19  21
ENDBRANCH   6  19
TORSDOF 4
ENDMDL
MODEL 2
REMARK VINA RESULT: -6.794076061      0.413      1.118
REMARK  4 active torsions:
REMARK  status: ('A' for Active; 'I' for Inactive)
REMARK    1  A    between atoms: N1_1  and  C1_4 
REMARK    2  A    between atoms: C3_9  and  C4_10 
REMARK    3  A    between atoms: C9_15  and  N3_16 
REMARK    4  A    between atoms: N3_16  and  C10_18 
ROOT
HETATM    1  C4  UNL     1     -26.821  -8.377 -23.748  1.00  0.00     0.044 C 
HETATM    2  C5  UNL     1     -25.467  -8.764 -23.090  1.00  0.00     0.011 C 
HETATM    3  C6  UNL     1     -24.622  -9.676 -23.853  1.00  0.00     0.001 C 
HETATM    4  C7  UNL     1     -25.349 -10.856 -24.447  1.00  0.00     0.002 C 
HETATM    5  C8  UNL     1     -26.750 -10.467 -24.859  1.00  0.00     0.026 C 
HETATM    6  C9  UNL     1     -26.738  -8.960 -25.161  1.00  0.00     0.089 C 
ENDROOT
BRANCH   1   7
HETATM    7  C3  UNL     1     -26.692  -6.892 -23.796  1.00  0.00    -0.010 A 
HETATM    8  C2  UNL     1     -27.637  -6.091 -23.203  1.00  0.00     0.112 A 
HETATM    9  N2  UNL     1     -27.595  -4.735 -23.289  1.00  0.00    -0.330 N 
HETATM   10 CL1  UNL     1     -28.947  -6.813 -22.234  1.00  0.00    -0.064 Cl
HETATM   11  C1  UNL     1     -26.581  -4.145 -23.980  1.00  0.00     0.139 A 
ATOM     12  H2  UNL     1     -28.315  -4.166 -22.842  1.00  0.00     0.168 HD
HETATM   13  C17 UNL     1     -25.643  -4.935 -24.574  1.00  0.00     0.160 A 
HETATM   14  C16 UNL     1     -25.665  -6.303 -24.509  1.00  0.00     0.057 A 
HETATM   15  F1  UNL     1     -24.643  -4.323 -25.294  1.00  0.00    -0.202 F 
BRANCH  11  16
HETATM   16  N1  UNL     1     -26.509  -2.865 -24.029  1.00  0.00    -0.383 N 
ATOM     17  H12 UNL     1     -25.612  -2.384 -24.101  1.00  0.00     0.157 HD
ATOM     18  H11 UNL     1     -27.363  -2.311 -23.969  1.00  0.00     0.157 HD
ENDBRANCH  11  16
ENDBRANCH   1   7
BRANCH   6  19
HETATM   19  N3  UNL     1     -27.614  -8.558 -26.073  1.00  0.00    -0.391 N 
ATOM     20  H3  UNL     1     -28.410  -8.079 -25.652  1.00  0.00     0.159 HD
BRANCH  19  21
HETATM   21  C10 UNL     1     -27.721  -8.623 -27.446  1.00  0.00    -0.018 C 
HETATM   22  C11 UNL     1     -27.246  -9.733 -28.295  1.00  0.00     0.052 C 
HETATM   23  C12 UNL     1     -27.983  -9.667 -29.627  1.00  0.00     0.006 C 
HETATM   24  C13 UNL     1     -28.077  -8.352 -30.272  1.00  0.00     0.001 C 
HETATM   25  C14 UNL     1     -28.180  -7.162 -29.373  1.00  0.00     0.006 C 
HETATM   26  C15 UNL     1     -27.288  -7.340 -28.165  1.00  0.00     0.052 C 
ENDBRANCH  19  21
ENDBRANCH   6  19
TORSDOF 4
ENDMDL
MODEL 3
REMARK VINA RESULT: -6.629606857      2.831      5.733
REMARK  4 active torsions:
REMARK  status: ('A' for Active; 'I' for Inactive)
REMARK    1  A    between atoms: N1_1  and  C1_4 
REMARK    2  A    between atoms: C3_9  and  C4_10 
REMARK    3  A    between atoms: C9_15  and  N3_16 
REMARK    4  A    between atoms: N3_16  and  C10_18 
ROOT
HETATM    1  C4  UNL     1     -28.669  -9.168 -25.174  1.00  0.00     0.044 C 
HETATM    2  C5  UNL     1     -28.334 -10.075 -26.391  1.00  0.00     0.011 C 
HETATM    3  C6  UNL     1     -27.623  -9.433 -27.491  1.00  0.00     0.001 C 
HETATM    4  C7  UNL     1     -28.169  -8.085 -27.890  1.00  0.00     0.002 C 
HETATM    5  C8  UNL     1     -28.692  -7.343 -26.682  1.00  0.00     0.026 C 
HETATM    6  C9  UNL     1     -27.923  -7.862 -25.456  1.00  0.00     0.089 C 
ENDROOT
BRANCH   1   7
HETATM    7  C3  UNL     1     -27.993  -9.918 -24.076  1.00  0.00    -0.010 A 
HETATM    8  C2  UNL     1     -28.662 -10.198 -22.909  1.00  0.00     0.112 A 
HETATM    9  N2  UNL     1     -28.059 -10.813 -21.857  1.00  0.00    -0.330 N 
HETATM   10 CL1  UNL     1     -30.394  -9.808 -22.750  1.00  0.00    -0.064 Cl
HETATM   11  C1  UNL     1     -26.750 -11.172 -21.960  1.00  0.00     0.139 A 
ATOM     12  H2  UNL     1     -28.581 -11.003 -21.001  1.00  0.00     0.168 HD
HETATM   13  C17 UNL     1     -26.079 -10.892 -23.113  1.00  0.00     0.160 A 
HETATM   14  C16 UNL     1     -26.661 -10.269 -24.186  1.00  0.00     0.057 A 
HETATM   15  F1  UNL     1     -24.749 -11.234 -23.188  1.00  0.00    -0.202 F 
BRANCH  11  16
HETATM   16  N1  UNL     1     -26.185 -11.791 -20.989  1.00  0.00    -0.383 N 
ATOM     17  H12 UNL     1     -25.423 -12.451 -21.149  1.00  0.00     0.157 HD
ATOM     18  H11 UNL     1     -26.518 -11.644 -20.037  1.00  0.00     0.157 HD
ENDBRANCH  11  16
ENDBRANCH   1   7
BRANCH   6  19
HETATM   19  N3  UNL     1     -27.769  -6.986 -24.471  1.00  0.00    -0.391 N 
ATOM     20  H3  UNL     1     -28.443  -7.134 -23.721  1.00  0.00     0.159 HD
BRANCH  19  21
HETATM   21  C10 UNL     1     -26.929  -5.926 -24.206  1.00  0.00    -0.018 C 
HETATM   22  C11 UNL     1     -25.747  -5.542 -25.003  1.00  0.00     0.052 C 
HETATM   23  C12 UNL     1     -25.415  -4.087 -24.698  1.00  0.00     0.006 C 
HETATM   24  C13 UNL     1     -25.401  -3.688 -23.286  1.00  0.00     0.001 C 
HETATM   25  C14 UNL     1     -26.371  -4.373 -22.378  1.00  0.00     0.006 C 
HETATM   26  C15 UNL     1     -26.484  -5.837 -22.741  1.00  0.00     0.052 C 
ENDBRANCH  19  21
ENDBRANCH   6  19
TORSDOF 4
ENDMDL
MODEL 4
REMARK VINA RESULT: -6.616925473      2.893      4.524
REMARK  4 active torsions:
REMARK  status: ('A' for Active; 'I' for Inactive)
REMARK    1  A    between atoms: N1_1  and  C1_4 
REMARK    2  A    between atoms: C3_9  and  C4_10 
REMARK    3  A    between atoms: C9_15  and  N3_16 
REMARK    4  A    between atoms: N3_16  and  C10_18 
ROOT
HETATM    1  C4  UNL     1     -26.559  -7.975 -24.506  1.00  0.00     0.044 C 
HETATM    2  C5  UNL     1     -25.957  -7.241 -23.275  1.00  0.00     0.011 C 
HETATM    3  C6  UNL     1     -26.098  -5.789 -23.265  1.00  0.00     0.001 C 
HETATM    4  C7  UNL     1     -25.768  -5.117 -24.575  1.00  0.00     0.002 C 
HETATM    5  C8  UNL     1     -26.172  -5.992 -25.739  1.00  0.00     0.026 C 
HETATM    6  C9  UNL     1     -27.326  -6.888 -25.261  1.00  0.00     0.089 C 
ENDROOT
BRANCH   1   7
HETATM    7  C3  UNL     1     -27.512  -8.905 -23.834  1.00  0.00    -0.010 A 
HETATM    8  C2  UNL     1     -27.461 -10.255 -24.082  1.00  0.00     0.112 A 
HETATM    9  N2  UNL     1     -28.359 -11.125 -23.549  1.00  0.00    -0.330 N 
HETATM   10 CL1  UNL     1     -26.155 -10.934 -25.088  1.00  0.00    -0.064 Cl
HETATM   11  C1  UNL     1     -29.341 -10.649 -22.735  1.00  0.00     0.139 A 
ATOM     12  H2  UNL     1     -28.298 -12.122 -23.756  1.00  0.00     0.168 HD
HETATM   13  C17 UNL     1     -29.400  -9.310 -22.489  1.00  0.00     0.160 A 
HETATM   14  C16 UNL     1     -28.512  -8.411 -23.018  1.00  0.00     0.057 A 
HETATM   15  F1  UNL     1     -30.417  -8.842 -21.689  1.00  0.00    -0.202 F 
BRANCH  11  16
HETATM   16  N1  UNL     1     -30.166 -11.467 -22.192  1.00  0.00    -0.383 N 
ATOM     17  H12 UNL     1     -29.848 -12.330 -21.749  1.00  0.00     0.157 HD
ATOM     18  H11 UNL     1     -31.166 -11.269 -22.225  1.00  0.00     0.157 HD
ENDBRANCH  11  16
ENDBRANCH   1   7
BRANCH   6  19
HETATM   19  N3  UNL     1     -28.190  -7.248 -26.201  1.00  0.00    -0.391 N 
ATOM     20  H3  UNL     1     -29.156  -7.127 -25.897  1.00  0.00     0.159 HD
BRANCH  19  21
HETATM   21  C10 UNL     1     -28.113  -7.745 -27.485  1.00  0.00    -0.018 C 
HETATM   22  C11 UNL     1     -28.777  -7.171 -28.672  1.00  0.00     0.052 C 
HETATM   23  C12 UNL     1     -28.057  -7.677 -29.915  1.00  0.00     0.006 C 
HETATM   24  C13 UNL     1     -27.754  -9.112 -29.973  1.00  0.00     0.001 C 
HETATM   25  C14 UNL     1     -27.444  -9.792 -28.678  1.00  0.00     0.006 C 
HETATM   26  C15 UNL     1     -28.337  -9.259 -27.579  1.00  0.00     0.052 C 
ENDBRANCH  19  21
ENDBRANCH   6  19
TORSDOF 4
ENDMDL
MODEL 5
REMARK VINA RESULT: -6.577603425      6.274      9.451
REMARK  4 active torsions:
REMARK  status: ('A' for Active; 'I' for Inactive)
REMARK    1  A    between atoms: N1_1  and  C1_4 
REMARK    2  A    between atoms: C3_9  and  C4_10 
REMARK    3  A    between atoms: C9_15  and  N3_16 
REMARK    4  A    between atoms: N3_16  and  C10_18 
ROOT
HETATM    1  C4  UNL     1     -26.563 -12.983 -31.255  1.00  0.00     0.044 C 
HETATM    2  C5  UNL     1     -25.879 -14.373 -31.128  1.00  0.00     0.011 C 
HETATM    3  C6  UNL     1     -25.846 -14.950 -29.789  1.00  0.00     0.001 C 
HETATM    4  C7  UNL     1     -25.440 -13.989 -28.701  1.00  0.00     0.002 C 
HETATM    5  C8  UNL     1     -25.945 -12.597 -29.003  1.00  0.00     0.026 C 
HETATM    6  C9  UNL     1     -27.197 -12.745 -29.883  1.00  0.00     0.089 C 
ENDROOT
BRANCH   1   7
HETATM    7  C3  UNL     1     -27.620 -13.286 -32.263  1.00  0.00    -0.010 A 
HETATM    8  C2  UNL     1     -28.040 -12.321 -33.144  1.00  0.00     0.112 A 
HETATM    9  N2  UNL     1     -29.052 -12.535 -34.027  1.00  0.00    -0.330 N 
HETATM   10 CL1  UNL     1     -27.220 -10.739 -33.201  1.00  0.00    -0.064 Cl
HETATM   11  C1  UNL     1     -29.668 -13.748 -34.047  1.00  0.00     0.139 A 
ATOM     12  H2  UNL     1     -29.345 -11.795 -34.666  1.00  0.00     0.168 HD
HETATM   13  C17 UNL     1     -29.260 -14.709 -33.172  1.00  0.00     0.160 A 
HETATM   14  C16 UNL     1     -28.247 -14.518 -32.269  1.00  0.00     0.057 A 
HETATM   15  F1  UNL     1     -29.915 -15.919 -33.185  1.00  0.00    -0.202 F 
BRANCH  11  16
HETATM   16  N1  UNL     1     -30.594 -13.973 -34.906  1.00  0.00    -0.383 N 
ATOM     17  H12 UNL     1     -31.259 -13.248 -35.177  1.00  0.00     0.157 HD
ATOM     18  H11 UNL     1     -30.689 -14.905 -35.311  1.00  0.00     0.157 HD
ENDBRANCH  11  16
ENDBRANCH   1   7
BRANCH   6  19
HETATM   19  N3  UNL     1     -28.098 -11.780 -29.751  1.00  0.00    -0.391 N 
ATOM     20  H3  UNL     1     -29.038 -12.103 -29.978  1.00  0.00     0.159 HD
BRANCH  19  21
HETATM   21  C10 UNL     1     -28.086 -10.451 -29.386  1.00  0.00    -0.018 C 
HETATM   22  C11 UNL     1     -27.181  -9.416 -29.927  1.00  0.00     0.052 C 
HETATM   23  C12 UNL     1     -27.804  -8.051 -29.667  1.00  0.00     0.006 C 
HETATM   24  C13 UNL     1     -28.338  -7.807 -28.322  1.00  0.00     0.001 C 
HETATM   25  C14 UNL     1     -28.930  -8.977 -27.604  1.00  0.00     0.006 C 
HETATM   26  C15 UNL     1     -28.114 -10.222 -27.870  1.00  0.00     0.052 C 
ENDBRANCH  19  21
ENDBRANCH   6  19
TORSDOF 4
ENDMDL
