MODEL 1
REMARK VINA RESULT: -6.501841152      0.000      0.000
REMARK  6 active torsions:
REMARK  status: ('A' for Active; 'I' for Inactive)
REMARK    1  A    between atoms: C4_4  and  C5_5 
REMARK    2  A    between atoms: C5_5  and  C7_7 
REMARK    3  A    between atoms: C10_14  and  N3_15 
REMARK    4  A    between atoms: C13_20  and  O1_21 
REMARK    5  A    between atoms: O1_21  and  C14_22 
REMARK    6  A    between atoms: C14_22  and  C17_25 
ROOT
HETATM    1  C1  UNL     1     -27.154 -11.034 -25.053  1.00  0.00     0.051 C 
HETATM    2  C2  UNL     1     -27.114  -9.619 -25.497  1.00  0.00    -0.028 A 
HETATM    3  C3  UNL     1     -26.537  -8.694 -24.623  1.00  0.00     0.017 A 
HETATM    4  C4  UNL     1     -26.435  -7.349 -24.934  1.00  0.00    -0.049 A 
HETATM    5  C11 UNL     1     -26.936  -6.956 -26.164  1.00  0.00     0.011 A 
HETATM    6  C12 UNL     1     -27.506  -7.844 -27.039  1.00  0.00     0.038 A 
HETATM    7  C13 UNL     1     -27.597  -9.190 -26.705  1.00  0.00     0.076 A 
ENDROOT
BRANCH   4   8
HETATM    8  C5  UNL     1     -25.827  -6.417 -23.978  1.00  0.00     0.053 C 
HETATM    9  C6  UNL     1     -25.273  -7.103 -22.751  1.00  0.00     0.020 C 
BRANCH   8  10
HETATM   10  C7  UNL     1     -26.731  -5.295 -23.577  1.00  0.00     0.018 A 
HETATM   11  C8  UNL     1     -26.462  -3.932 -23.715  1.00  0.00     0.032 A 
HETATM   12  C9  UNL     1     -25.190  -3.410 -24.299  1.00  0.00     0.070 C 
HETATM   13  N1  UNL     1     -27.518  -3.253 -23.241  1.00  0.00    -0.303 N 
HETATM   14  N2  UNL     1     -28.438  -4.099 -22.812  1.00  0.00    -0.285 N 
ATOM     15  H1  UNL     1     -27.599  -2.236 -23.215  1.00  0.00     0.186 HD
HETATM   16  C10 UNL     1     -27.975  -5.348 -23.009  1.00  0.00     0.122 A 
ATOM     17  H2  UNL     1     -29.339  -3.850 -22.405  1.00  0.00     0.188 HD
BRANCH  16  18
HETATM   18  N3  UNL     1     -28.635  -6.401 -22.696  1.00  0.00    -0.384 N 
ATOM     19  H32 UNL     1     -28.912  -7.112 -23.374  1.00  0.00     0.157 HD
ATOM     20  H31 UNL     1     -28.962  -6.667 -21.768  1.00  0.00     0.157 HD
ENDBRANCH  16  18
ENDBRANCH   8  10
ENDBRANCH   4   8
BRANCH   7  21
HETATM   21  O1  UNL     1     -28.172 -10.035 -27.601  1.00  0.00    -0.331 OA
BRANCH  21  22
HETATM   22  C14 UNL     1     -27.598 -10.771 -28.623  1.00  0.00     0.158 C 
HETATM   23  C15 UNL     1     -26.184 -11.200 -28.437  1.00  0.00     0.056 C 
HETATM   24  C16 UNL     1     -28.400 -12.013 -28.985  1.00  0.00     0.056 C 
BRANCH  22  25
HETATM   25  C17 UNL     1     -27.635  -9.893 -29.880  1.00  0.00     0.418 C 
HETATM   26  F1  UNL     1     -26.474  -9.175 -30.004  1.00  0.00    -0.168 F 
HETATM   27  F2  UNL     1     -28.668  -8.980 -29.752  1.00  0.00    -0.168 F 
HETATM   28  F3  UNL     1     -27.798 -10.666 -31.017  1.00  0.00    -0.168 F 
ENDBRANCH  22  25
ENDBRANCH  21  22
ENDBRANCH   7  21
TORSDOF 6
ENDMDL
MODEL 2
REMARK VINA RESULT: -6.428594719      0.504      1.673
REMARK  6 active torsions:
REMARK  status: ('A' for Active; 'I' for Inactive)
REMARK    1  A    between atoms: C4_4  and  C5_5 
REMARK    2  A    between atoms: C5_5  and  C7_7 
REMARK    3  A    between atoms: C10_14  and  N3_15 
REMARK    4  A    between atoms: C13_20  and  O1_21 
REMARK    5  A    between atoms: O1_21  and  C14_22 
REMARK    6  A    between atoms: C14_22  and  C17_25 
ROOT
HETATM    1  C1  UNL     1     -28.242  -7.165 -28.365  1.00  0.00     0.051 C 
HETATM    2  C2  UNL     1     -27.658  -7.813 -27.166  1.00  0.00    -0.028 A 
HETATM    3  C3  UNL     1     -27.059  -6.978 -26.218  1.00  0.00     0.017 A 
HETATM    4  C4  UNL     1     -26.490  -7.468 -25.056  1.00  0.00    -0.049 A 
HETATM    5  C11 UNL     1     -26.539  -8.840 -24.872  1.00  0.00     0.011 A 
HETATM    6  C12 UNL     1     -27.119  -9.681 -25.786  1.00  0.00     0.038 A 
HETATM    7  C13 UNL     1     -27.685  -9.165 -26.946  1.00  0.00     0.076 A 
ENDROOT
BRANCH   4   8
HETATM    8  C5  UNL     1     -25.869  -6.549 -24.096  1.00  0.00     0.053 C 
HETATM    9  C6  UNL     1     -25.277  -7.254 -22.897  1.00  0.00     0.020 C 
BRANCH   8  10
HETATM   10  C7  UNL     1     -26.776  -5.447 -23.649  1.00  0.00     0.018 A 
HETATM   11  C8  UNL     1     -26.515  -4.078 -23.744  1.00  0.00     0.032 A 
HETATM   12  C9  UNL     1     -25.252  -3.529 -24.320  1.00  0.00     0.070 C 
HETATM   13  N1  UNL     1     -27.571  -3.422 -23.237  1.00  0.00    -0.303 N 
HETATM   14  N2  UNL     1     -28.482  -4.287 -22.829  1.00  0.00    -0.285 N 
ATOM     15  H1  UNL     1     -27.657  -2.408 -23.176  1.00  0.00     0.186 HD
HETATM   16  C10 UNL     1     -28.015  -5.527 -23.072  1.00  0.00     0.122 A 
ATOM     17  H2  UNL     1     -29.381  -4.057 -22.406  1.00  0.00     0.188 HD
BRANCH  16  18
HETATM   18  N3  UNL     1     -28.665  -6.594 -22.789  1.00  0.00    -0.384 N 
ATOM     19  H32 UNL     1     -28.777  -7.372 -23.439  1.00  0.00     0.157 HD
ATOM     20  H31 UNL     1     -29.142  -6.807 -21.914  1.00  0.00     0.157 HD
ENDBRANCH  16  18
ENDBRANCH   8  10
ENDBRANCH   4   8
BRANCH   7  21
HETATM   21  O1  UNL     1     -28.249 -10.034 -27.825  1.00  0.00    -0.331 OA
BRANCH  21  22
HETATM   22  C14 UNL     1     -27.665 -11.029 -28.589  1.00  0.00     0.158 C 
HETATM   23  C15 UNL     1     -26.329 -11.521 -28.153  1.00  0.00     0.056 C 
HETATM   24  C16 UNL     1     -28.559 -12.248 -28.762  1.00  0.00     0.056 C 
BRANCH  22  25
HETATM   25  C17 UNL     1     -27.490 -10.460 -30.003  1.00  0.00     0.418 C 
HETATM   26  F1  UNL     1     -28.423  -9.489 -30.255  1.00  0.00    -0.168 F 
HETATM   27  F2  UNL     1     -27.703 -11.478 -30.919  1.00  0.00    -0.168 F 
HETATM   28  F3  UNL     1     -26.229  -9.911 -30.161  1.00  0.00    -0.168 F 
ENDBRANCH  22  25
ENDBRANCH  21  22
ENDBRANCH   7  21
TORSDOF 6
ENDMDL
MODEL 3
REMARK VINA RESULT: -6.374383555      5.112      7.052
REMARK  6 active torsions:
REMARK  status: ('A' for Active; 'I' for Inactive)
REMARK    1  A    between atoms: C4_4  and  C5_5 
REMARK    2  A    between atoms: C5_5  and  C7_7 
REMARK    3  A    between atoms: C10_14  and  N3_15 
REMARK    4  A    between atoms: C13_20  and  O1_21 
REMARK    5  A    between atoms: O1_21  and  C14_22 
REMARK    6  A    between atoms: C14_22  and  C17_25 
ROOT
HETATM    1  C1  UNL     1     -28.883  -5.257 -21.633  1.00  0.00     0.051 C 
HETATM    2  C2  UNL     1     -28.686  -6.490 -22.433  1.00  0.00    -0.028 A 
HETATM    3  C3  UNL     1     -29.275  -7.662 -21.954  1.00  0.00     0.017 A 
HETATM    4  C4  UNL     1     -29.167  -8.870 -22.621  1.00  0.00    -0.049 A 
HETATM    5  C11 UNL     1     -28.438  -8.864 -23.799  1.00  0.00     0.011 A 
HETATM    6  C12 UNL     1     -27.850  -7.728 -24.290  1.00  0.00     0.038 A 
HETATM    7  C13 UNL     1     -27.973  -6.527 -23.603  1.00  0.00     0.076 A 
ENDROOT
BRANCH   4   8
HETATM    8  C5  UNL     1     -29.800 -10.074 -22.072  1.00  0.00     0.053 C 
HETATM    9  C6  UNL     1     -31.310 -10.002 -22.070  1.00  0.00     0.020 C 
BRANCH   8  10
HETATM   10  C7  UNL     1     -29.301 -10.446 -20.712  1.00  0.00     0.018 A 
HETATM   11  C8  UNL     1     -28.013 -10.887 -20.401  1.00  0.00     0.032 A 
HETATM   12  C9  UNL     1     -26.940 -11.051 -21.427  1.00  0.00     0.070 C 
HETATM   13  N1  UNL     1     -27.964 -11.116 -19.079  1.00  0.00    -0.303 N 
HETATM   14  N2  UNL     1     -29.137 -10.846 -18.535  1.00  0.00    -0.285 N 
ATOM     15  H1  UNL     1     -27.144 -11.447 -18.571  1.00  0.00     0.186 HD
HETATM   16  C10 UNL     1     -29.965 -10.437 -19.515  1.00  0.00     0.122 A 
ATOM     17  H2  UNL     1     -29.374 -10.933 -17.546  1.00  0.00     0.188 HD
BRANCH  16  18
HETATM   18  N3  UNL     1     -31.184 -10.099 -19.313  1.00  0.00    -0.384 N 
ATOM     19  H32 UNL     1     -31.718  -9.514 -19.955  1.00  0.00     0.157 HD
ATOM     20  H31 UNL     1     -31.767 -10.354 -18.516  1.00  0.00     0.157 HD
ENDBRANCH  16  18
ENDBRANCH   8  10
ENDBRANCH   4   8
BRANCH   7  21
HETATM   21  O1  UNL     1     -27.372  -5.425 -24.125  1.00  0.00    -0.331 OA
BRANCH  21  22
HETATM   22  C14 UNL     1     -26.052  -5.017 -24.057  1.00  0.00     0.158 C 
HETATM   23  C15 UNL     1     -25.176  -5.716 -23.076  1.00  0.00     0.056 C 
HETATM   24  C16 UNL     1     -25.345  -5.060 -25.404  1.00  0.00     0.056 C 
BRANCH  22  25
HETATM   25  C17 UNL     1     -26.064  -3.534 -23.662  1.00  0.00     0.418 C 
HETATM   26  F1  UNL     1     -27.349  -3.088 -23.491  1.00  0.00    -0.168 F 
HETATM   27  F2  UNL     1     -25.511  -2.796 -24.696  1.00  0.00    -0.168 F 
HETATM   28  F3  UNL     1     -25.367  -3.331 -22.484  1.00  0.00    -0.168 F 
ENDBRANCH  22  25
ENDBRANCH  21  22
ENDBRANCH   7  21
TORSDOF 6
ENDMDL
MODEL 4
REMARK VINA RESULT: -6.349109292      2.453      3.887
REMARK  6 active torsions:
REMARK  status: ('A' for Active; 'I' for Inactive)
REMARK    1  A    between atoms: C4_4  and  C5_5 
REMARK    2  A    between atoms: C5_5  and  C7_7 
REMARK    3  A    between atoms: C10_14  and  N3_15 
REMARK    4  A    between atoms: C13_20  and  O1_21 
REMARK    5  A    between atoms: O1_21  and  C14_22 
REMARK    6  A    between atoms: C14_22  and  C17_25 
ROOT
HETATM    1  C1  UNL     1     -27.369  -7.225 -29.600  1.00  0.00     0.051 C 
HETATM    2  C2  UNL     1     -27.752  -8.190 -28.542  1.00  0.00    -0.028 A 
HETATM    3  C3  UNL     1     -27.738  -7.729 -27.222  1.00  0.00     0.017 A 
HETATM    4  C4  UNL     1     -28.086  -8.537 -26.154  1.00  0.00    -0.049 A 
HETATM    5  C11 UNL     1     -28.453  -9.839 -26.454  1.00  0.00     0.011 A 
HETATM    6  C12 UNL     1     -28.475 -10.315 -27.738  1.00  0.00     0.038 A 
HETATM    7  C13 UNL     1     -28.122  -9.485 -28.795  1.00  0.00     0.076 A 
ENDROOT
BRANCH   4   8
HETATM    8  C5  UNL     1     -28.048  -8.006 -24.787  1.00  0.00     0.053 C 
HETATM    9  C6  UNL     1     -28.368  -6.531 -24.714  1.00  0.00     0.020 C 
BRANCH   8  10
HETATM   10  C7  UNL     1     -26.767  -8.291 -24.069  1.00  0.00     0.018 A 
HETATM   11  C8  UNL     1     -26.533  -9.355 -23.195  1.00  0.00     0.032 A 
HETATM   12  C9  UNL     1     -27.572 -10.372 -22.857  1.00  0.00     0.070 C 
HETATM   13  N1  UNL     1     -25.266  -9.260 -22.762  1.00  0.00    -0.303 N 
HETATM   14  N2  UNL     1     -24.684  -8.207 -23.306  1.00  0.00    -0.285 N 
ATOM     15  H1  UNL     1     -24.820  -9.906 -22.111  1.00  0.00     0.186 HD
HETATM   16  C10 UNL     1     -25.584  -7.603 -24.105  1.00  0.00     0.122 A 
ATOM     17  H2  UNL     1     -23.723  -7.904 -23.148  1.00  0.00     0.188 HD
BRANCH  16  18
HETATM   18  N3  UNL     1     -25.329  -6.545 -24.781  1.00  0.00    -0.384 N 
ATOM     19  H32 UNL     1     -25.206  -6.541 -25.793  1.00  0.00     0.157 HD
ATOM     20  H31 UNL     1     -25.217  -5.598 -24.419  1.00  0.00     0.157 HD
ENDBRANCH  16  18
ENDBRANCH   8  10
ENDBRANCH   4   8
BRANCH   7  21
HETATM   21  O1  UNL     1     -28.156  -9.999 -30.053  1.00  0.00    -0.331 OA
BRANCH  21  22
HETATM   22  C14 UNL     1     -27.326 -10.926 -30.658  1.00  0.00     0.158 C 
HETATM   23  C15 UNL     1     -25.877 -10.858 -30.320  1.00  0.00     0.056 C 
HETATM   24  C16 UNL     1     -27.774 -12.363 -30.433  1.00  0.00     0.056 C 
BRANCH  22  25
HETATM   25  C17 UNL     1     -27.440 -10.706 -32.172  1.00  0.00     0.418 C 
HETATM   26  F1  UNL     1     -28.166 -11.711 -32.755  1.00  0.00    -0.168 F 
HETATM   27  F2  UNL     1     -26.169 -10.749 -32.722  1.00  0.00    -0.168 F 
HETATM   28  F3  UNL     1     -28.056  -9.498 -32.450  1.00  0.00    -0.168 F 
ENDBRANCH  22  25
ENDBRANCH  21  22
ENDBRANCH   7  21
TORSDOF 6
ENDMDL
MODEL 5
REMARK VINA RESULT: -6.237295714      1.212      1.694
REMARK  6 active torsions:
REMARK  status: ('A' for Active; 'I' for Inactive)
REMARK    1  A    between atoms: C4_4  and  C5_5 
REMARK    2  A    between atoms: C5_5  and  C7_7 
REMARK    3  A    between atoms: C10_14  and  N3_15 
REMARK    4  A    between atoms: C13_20  and  O1_21 
REMARK    5  A    between atoms: O1_21  and  C14_22 
REMARK    6  A    between atoms: C14_22  and  C17_25 
ROOT
HETATM    1  C1  UNL     1     -27.046 -11.114 -24.889  1.00  0.00     0.051 C 
HETATM    2  C2  UNL     1     -27.077  -9.709 -25.361  1.00  0.00    -0.028 A 
HETATM    3  C3  UNL     1     -26.484  -8.747 -24.538  1.00  0.00     0.017 A 
HETATM    4  C4  UNL     1     -26.444  -7.406 -24.879  1.00  0.00    -0.049 A 
HETATM    5  C11 UNL     1     -27.024  -7.056 -26.087  1.00  0.00     0.011 A 
HETATM    6  C12 UNL     1     -27.612  -7.979 -26.912  1.00  0.00     0.038 A 
HETATM    7  C13 UNL     1     -27.640  -9.320 -26.548  1.00  0.00     0.076 A 
ENDROOT
BRANCH   4   8
HETATM    8  C5  UNL     1     -25.815  -6.436 -23.976  1.00  0.00     0.053 C 
HETATM    9  C6  UNL     1     -25.222  -7.072 -22.740  1.00  0.00     0.020 C 
BRANCH   8  10
HETATM   10  C7  UNL     1     -26.716  -5.305 -23.591  1.00  0.00     0.018 A 
HETATM   11  C8  UNL     1     -26.443  -3.945 -23.751  1.00  0.00     0.032 A 
HETATM   12  C9  UNL     1     -25.171  -3.436 -24.344  1.00  0.00     0.070 C 
HETATM   13  N1  UNL     1     -27.497  -3.256 -23.286  1.00  0.00    -0.303 N 
HETATM   14  N2  UNL     1     -28.418  -4.092 -22.843  1.00  0.00    -0.285 N 
ATOM     15  H1  UNL     1     -27.574  -2.239 -23.276  1.00  0.00     0.186 HD
HETATM   16  C10 UNL     1     -27.960  -5.346 -23.021  1.00  0.00     0.122 A 
ATOM     17  H2  UNL     1     -29.318  -3.834 -22.438  1.00  0.00     0.188 HD
BRANCH  16  18
HETATM   18  N3  UNL     1     -28.622  -6.392 -22.691  1.00  0.00    -0.384 N 
ATOM     19  H32 UNL     1     -29.288  -6.854 -23.311  1.00  0.00     0.157 HD
ATOM     20  H31 UNL     1     -28.579  -6.890 -21.802  1.00  0.00     0.157 HD
ENDBRANCH  16  18
ENDBRANCH   8  10
ENDBRANCH   4   8
BRANCH   7  21
HETATM   21  O1  UNL     1     -28.234 -10.202 -27.395  1.00  0.00    -0.331 OA
BRANCH  21  22
HETATM   22  C14 UNL     1     -27.740 -10.808 -28.536  1.00  0.00     0.158 C 
HETATM   23  C15 UNL     1     -27.972 -10.108 -29.830  1.00  0.00     0.056 C 
HETATM   24  C16 UNL     1     -26.252 -11.115 -28.451  1.00  0.00     0.056 C 
BRANCH  22  25
HETATM   25  C17 UNL     1     -28.423 -12.178 -28.644  1.00  0.00     0.418 C 
HETATM   26  F1  UNL     1     -29.705 -12.120 -28.163  1.00  0.00    -0.168 F 
HETATM   27  F2  UNL     1     -27.731 -13.081 -27.853  1.00  0.00    -0.168 F 
HETATM   28  F3  UNL     1     -28.465 -12.606 -29.959  1.00  0.00    -0.168 F 
ENDBRANCH  22  25
ENDBRANCH  21  22
ENDBRANCH   7  21
TORSDOF 6
ENDMDL
