MODEL 1
REMARK VINA RESULT: -7.904750160      0.000      0.000
REMARK  5 active torsions:
REMARK  status: ('A' for Active; 'I' for Inactive)
REMARK    1  A    between atoms: C5_6  and  O2_7 
REMARK    2  A    between atoms: C5_6  and  C6_9 
REMARK    3  A    between atoms: C7_10  and  C8_11 
REMARK    4  A    between atoms: C8_11  and  C9_12 
REMARK    5  A    between atoms: N1_15  and  C12_16 
ROOT
HETATM    1  C9  UNL     1     -15.629   5.997  10.250  1.00  0.00     0.027 C 
HETATM    2  C10 UNL     1     -14.524   7.010  10.285  1.00  0.00     0.037 C 
HETATM    3  C11 UNL     1     -13.370   6.234   9.578  1.00  0.00     0.273 C 
HETATM    4  N1  UNL     1     -13.469   4.973  10.208  1.00  0.00     0.093 N 
HETATM    5  C18 UNL     1     -14.889   4.645  10.272  1.00  0.00     0.278 C 
ENDROOT
BRANCH   1   6
HETATM    6  C8  UNL     1     -16.544   5.969  11.432  1.00  0.00     0.100 C 
BRANCH   6   7
HETATM    7  C7  UNL     1     -17.731   5.196  11.153  1.00  0.00    -0.103 C 
HETATM    8  C6  UNL     1     -18.706   4.551  10.879  1.00  0.00    -0.060 C 
BRANCH   8   9
HETATM    9  C5  UNL     1     -19.917   3.772  10.488  1.00  0.00     0.181 C 
HETATM   10  C1  UNL     1     -20.456   3.020  11.641  1.00  0.00     0.173 C 
HETATM   11  O1  UNL     1     -20.492   3.416  12.778  1.00  0.00    -0.294 OA
HETATM   12  C2  UNL     1     -20.931   1.714  11.172  1.00  0.00     0.083 C 
HETATM   13  C3  UNL     1     -20.048   1.392  10.005  1.00  0.00     0.012 C 
HETATM   14  C4  UNL     1     -19.486   2.697   9.514  1.00  0.00     0.060 C 
BRANCH   9  15
HETATM   15  O2  UNL     1     -20.854   4.583   9.916  1.00  0.00    -0.371 OA
ATOM     16  H2  UNL     1     -20.953   4.418   8.986  1.00  0.00     0.212 HD
ENDBRANCH   9  15
ENDBRANCH   8   9
ENDBRANCH   6   7
ENDBRANCH   1   6
BRANCH   4  17
HETATM   17  C12 UNL     1     -12.673   3.903   9.726  1.00  0.00     0.223 C 
HETATM   18  C13 UNL     1     -12.641   2.754  10.736  1.00  0.00     0.036 C 
HETATM   19  C14 UNL     1     -11.370   1.928  10.511  1.00  0.00     0.002 C 
HETATM   20  C15 UNL     1     -11.230   1.753   9.015  1.00  0.00     0.000 C 
HETATM   21  C16 UNL     1     -12.570   1.894   8.325  1.00  0.00     0.002 C 
HETATM   22  C17 UNL     1     -13.095   3.312   8.406  1.00  0.00     0.036 C 
ENDBRANCH   4  17
TORSDOF 5
ENDMDL
MODEL 2
REMARK VINA RESULT: -7.814651977      0.817      1.261
REMARK  5 active torsions:
REMARK  status: ('A' for Active; 'I' for Inactive)
REMARK    1  A    between atoms: C5_6  and  O2_7 
REMARK    2  A    between atoms: C5_6  and  C6_9 
REMARK    3  A    between atoms: C7_10  and  C8_11 
REMARK    4  A    between atoms: C8_11  and  C9_12 
REMARK    5  A    between atoms: N1_15  and  C12_16 
ROOT
HETATM    1  C9  UNL     1     -15.675   6.044  10.189  1.00  0.00     0.027 C 
HETATM    2  C10 UNL     1     -14.613   7.101  10.249  1.00  0.00     0.037 C 
HETATM    3  C11 UNL     1     -13.477   6.447   9.404  1.00  0.00     0.273 C 
HETATM    4  N1  UNL     1     -13.482   5.130   9.918  1.00  0.00     0.093 N 
HETATM    5  C18 UNL     1     -14.880   4.732  10.039  1.00  0.00     0.278 C 
ENDROOT
BRANCH   1   6
HETATM    6  C8  UNL     1     -16.507   5.867  11.418  1.00  0.00     0.100 C 
BRANCH   6   7
HETATM    7  C7  UNL     1     -17.714   5.130  11.127  1.00  0.00    -0.103 C 
HETATM    8  C6  UNL     1     -18.699   4.501  10.850  1.00  0.00    -0.060 C 
BRANCH   8   9
HETATM    9  C5  UNL     1     -19.909   3.725  10.451  1.00  0.00     0.181 C 
HETATM   10  C1  UNL     1     -20.464   2.984  11.603  1.00  0.00     0.173 C 
HETATM   11  O1  UNL     1     -20.511   3.389  12.736  1.00  0.00    -0.294 OA
HETATM   12  C2  UNL     1     -20.941   1.677  11.138  1.00  0.00     0.083 C 
HETATM   13  C3  UNL     1     -20.047   1.342   9.984  1.00  0.00     0.012 C 
HETATM   14  C4  UNL     1     -19.472   2.640   9.489  1.00  0.00     0.060 C 
BRANCH   9  15
HETATM   15  O2  UNL     1     -20.836   4.536   9.862  1.00  0.00    -0.371 OA
ATOM     16  H2  UNL     1     -20.471   5.377   9.613  1.00  0.00     0.212 HD
ENDBRANCH   9  15
ENDBRANCH   8   9
ENDBRANCH   6   7
ENDBRANCH   1   6
BRANCH   4  17
HETATM   17  C12 UNL     1     -12.676   4.147   9.290  1.00  0.00     0.223 C 
HETATM   18  C13 UNL     1     -13.311   3.686   7.976  1.00  0.00     0.036 C 
HETATM   19  C14 UNL     1     -12.800   2.281   7.642  1.00  0.00     0.002 C 
HETATM   20  C15 UNL     1     -11.313   2.287   7.916  1.00  0.00     0.000 C 
HETATM   21  C16 UNL     1     -10.753   3.691   7.840  1.00  0.00     0.002 C 
HETATM   22  C17 UNL     1     -11.263   4.558   8.972  1.00  0.00     0.036 C 
ENDBRANCH   4  17
TORSDOF 5
ENDMDL
MODEL 3
REMARK VINA RESULT: -7.754763498      3.135      7.275
REMARK  5 active torsions:
REMARK  status: ('A' for Active; 'I' for Inactive)
REMARK    1  A    between atoms: C5_6  and  O2_7 
REMARK    2  A    between atoms: C5_6  and  C6_9 
REMARK    3  A    between atoms: C7_10  and  C8_11 
REMARK    4  A    between atoms: C8_11  and  C9_12 
REMARK    5  A    between atoms: N1_15  and  C12_16 
ROOT
HETATM    1  C9  UNL     1     -15.070   5.634  10.421  1.00  0.00     0.027 C 
HETATM    2  C10 UNL     1     -15.627   6.726  11.286  1.00  0.00     0.037 C 
HETATM    3  C11 UNL     1     -16.815   5.992  11.983  1.00  0.00     0.273 C 
HETATM    4  N1  UNL     1     -17.394   5.315  10.886  1.00  0.00     0.093 N 
HETATM    5  C18 UNL     1     -16.294   4.749  10.113  1.00  0.00     0.278 C 
ENDROOT
BRANCH   1   6
HETATM    6  C8  UNL     1     -14.535   6.051   9.089  1.00  0.00     0.100 C 
BRANCH   6   7
HETATM    7  C7  UNL     1     -13.795   4.977   8.467  1.00  0.00    -0.103 C 
HETATM    8  C6  UNL     1     -13.171   4.070   7.990  1.00  0.00    -0.060 C 
BRANCH   8   9
HETATM    9  C5  UNL     1     -12.362   2.943   7.441  1.00  0.00     0.181 C 
HETATM   10  C1  UNL     1     -11.717   2.178   8.529  1.00  0.00     0.173 C 
HETATM   11  O1  UNL     1     -12.214   1.930   9.598  1.00  0.00    -0.294 OA
HETATM   12  C2  UNL     1     -10.375   1.777   8.093  1.00  0.00     0.083 C 
HETATM   13  C3  UNL     1      -9.948   2.862   7.153  1.00  0.00     0.012 C 
HETATM   14  C4  UNL     1     -11.202   3.534   6.667  1.00  0.00     0.060 C 
BRANCH   9  15
HETATM   15  O2  UNL     1     -13.119   2.150   6.629  1.00  0.00    -0.371 OA
ATOM     16  H2  UNL     1     -13.425   2.612   5.857  1.00  0.00     0.212 HD
ENDBRANCH   9  15
ENDBRANCH   8   9
ENDBRANCH   6   7
ENDBRANCH   1   6
BRANCH   4  17
HETATM   17  C12 UNL     1     -18.438   4.386  11.128  1.00  0.00     0.223 C 
HETATM   18  C13 UNL     1     -19.219   4.766  12.388  1.00  0.00     0.036 C 
HETATM   19  C14 UNL     1     -19.889   3.511  12.955  1.00  0.00     0.002 C 
HETATM   20  C15 UNL     1     -20.479   2.768  11.777  1.00  0.00     0.000 C 
HETATM   21  C16 UNL     1     -20.737   3.707  10.618  1.00  0.00     0.002 C 
HETATM   22  C17 UNL     1     -19.446   4.226  10.021  1.00  0.00     0.036 C 
ENDBRANCH   4  17
TORSDOF 5
ENDMDL
MODEL 4
REMARK VINA RESULT: -7.474203893      1.374      2.142
REMARK  5 active torsions:
REMARK  status: ('A' for Active; 'I' for Inactive)
REMARK    1  A    between atoms: C5_6  and  O2_7 
REMARK    2  A    between atoms: C5_6  and  C6_9 
REMARK    3  A    between atoms: C7_10  and  C8_11 
REMARK    4  A    between atoms: C8_11  and  C9_12 
REMARK    5  A    between atoms: N1_15  and  C12_16 
ROOT
HETATM    1  C9  UNL     1     -14.553   4.831  10.331  1.00  0.00     0.027 C 
HETATM    2  C10 UNL     1     -15.020   3.431  10.597  1.00  0.00     0.037 C 
HETATM    3  C11 UNL     1     -13.732   2.610  10.282  1.00  0.00     0.273 C 
HETATM    4  N1  UNL     1     -13.315   3.217   9.075  1.00  0.00     0.093 N 
HETATM    5  C18 UNL     1     -13.463   4.657   9.256  1.00  0.00     0.278 C 
ENDROOT
BRANCH   1   6
HETATM    6  C8  UNL     1     -15.557   5.763   9.732  1.00  0.00     0.100 C 
BRANCH   6   7
HETATM    7  C7  UNL     1     -16.895   5.229   9.848  1.00  0.00    -0.103 C 
HETATM    8  C6  UNL     1     -18.006   4.780   9.902  1.00  0.00    -0.060 C 
BRANCH   8   9
HETATM    9  C5  UNL     1     -19.398   4.243   9.918  1.00  0.00     0.181 C 
HETATM   10  C1  UNL     1     -19.932   4.199  11.296  1.00  0.00     0.173 C 
HETATM   11  O1  UNL     1     -19.731   5.026  12.149  1.00  0.00    -0.294 OA
HETATM   12  C2  UNL     1     -20.737   2.983  11.452  1.00  0.00     0.083 C 
HETATM   13  C3  UNL     1     -20.106   1.995  10.518  1.00  0.00     0.012 C 
HETATM   14  C4  UNL     1     -19.343   2.790   9.496  1.00  0.00     0.060 C 
BRANCH   9  15
HETATM   15  O2  UNL     1     -20.204   4.952   9.074  1.00  0.00    -0.371 OA
ATOM     16  H2  UNL     1     -20.638   4.395   8.440  1.00  0.00     0.212 HD
ENDBRANCH   9  15
ENDBRANCH   8   9
ENDBRANCH   6   7
ENDBRANCH   1   6
BRANCH   4  17
HETATM   17  C12 UNL     1     -12.061   2.853   8.523  1.00  0.00     0.223 C 
HETATM   18  C13 UNL     1     -11.000   3.908   8.845  1.00  0.00     0.036 C 
HETATM   19  C14 UNL     1      -9.887   3.833   7.794  1.00  0.00     0.002 C 
HETATM   20  C15 UNL     1      -9.593   2.364   7.584  1.00  0.00     0.000 C 
HETATM   21  C16 UNL     1     -10.001   1.551   8.793  1.00  0.00     0.002 C 
HETATM   22  C17 UNL     1     -11.505   1.526   8.969  1.00  0.00     0.036 C 
ENDBRANCH   4  17
TORSDOF 5
ENDMDL
MODEL 5
REMARK VINA RESULT: -7.425463429      5.481      7.614
REMARK  5 active torsions:
REMARK  status: ('A' for Active; 'I' for Inactive)
REMARK    1  A    between atoms: C5_6  and  O2_7 
REMARK    2  A    between atoms: C5_6  and  C6_9 
REMARK    3  A    between atoms: C7_10  and  C8_11 
REMARK    4  A    between atoms: C8_11  and  C9_12 
REMARK    5  A    between atoms: N1_15  and  C12_16 
ROOT
HETATM    1  C9  UNL     1     -17.512   6.983  13.864  1.00  0.00     0.027 C 
HETATM    2  C10 UNL     1     -16.328   6.856  12.953  1.00  0.00     0.037 C 
HETATM    3  C11 UNL     1     -16.938   6.054  11.763  1.00  0.00     0.273 C 
HETATM    4  N1  UNL     1     -17.667   5.059  12.453  1.00  0.00     0.093 N 
HETATM    5  C18 UNL     1     -18.351   5.728  13.554  1.00  0.00     0.278 C 
ENDROOT
BRANCH   1   6
HETATM    6  C8  UNL     1     -17.232   6.923  15.331  1.00  0.00     0.100 C 
BRANCH   6   7
HETATM    7  C7  UNL     1     -18.167   7.736  16.073  1.00  0.00    -0.103 C 
HETATM    8  C6  UNL     1     -18.919   8.408  16.724  1.00  0.00    -0.060 C 
BRANCH   8   9
HETATM    9  C5  UNL     1     -19.841   9.212  17.578  1.00  0.00     0.181 C 
HETATM   10  C1  UNL     1     -20.205   8.472  18.805  1.00  0.00     0.173 C 
HETATM   11  O1  UNL     1     -19.464   7.765  19.439  1.00  0.00    -0.294 OA
HETATM   12  C2  UNL     1     -21.614   8.737  19.115  1.00  0.00     0.083 C 
HETATM   13  C3  UNL     1     -22.252   8.973  17.781  1.00  0.00     0.012 C 
HETATM   14  C4  UNL     1     -21.151   9.365  16.836  1.00  0.00     0.060 C 
BRANCH   9  15
HETATM   15  O2  UNL     1     -19.305  10.437  17.853  1.00  0.00    -0.371 OA
ATOM     16  H2  UNL     1     -18.437  10.542  17.481  1.00  0.00     0.212 HD
ENDBRANCH   9  15
ENDBRANCH   8   9
ENDBRANCH   6   7
ENDBRANCH   1   6
BRANCH   4  17
HETATM   17  C12 UNL     1     -18.515   4.195  11.715  1.00  0.00     0.223 C 
HETATM   18  C13 UNL     1     -19.867   4.038  12.413  1.00  0.00     0.036 C 
HETATM   19  C14 UNL     1     -20.501   2.712  11.980  1.00  0.00     0.002 C 
HETATM   20  C15 UNL     1     -20.294   2.606  10.485  1.00  0.00     0.000 C 
HETATM   21  C16 UNL     1     -20.107   3.973   9.864  1.00  0.00     0.002 C 
HETATM   22  C17 UNL     1     -18.801   4.609  10.296  1.00  0.00     0.036 C 
ENDBRANCH   4  17
TORSDOF 5
ENDMDL
