MODEL 1
REMARK VINA RESULT: -6.188716208      0.000      0.000
REMARK  3 active torsions:
REMARK  status: ('A' for Active; 'I' for Inactive)
REMARK    1  A    between atoms: C2_2  and  N1_3 
REMARK    2  A    between atoms: N2_6  and  C5_7 
REMARK    3  A    between atoms: C12_14  and  N3_16 
ROOT
HETATM    1  C5  UNL     1     -12.804   4.711   8.547  1.00  0.00     0.009 C 
HETATM    2  C6  UNL     1     -13.458   5.413   9.672  1.00  0.00    -0.004 C 
HETATM    3  C7  UNL     1     -12.725   6.558  10.300  1.00  0.00     0.021 C 
HETATM    4  C8  UNL     1     -14.873   5.888   9.438  1.00  0.00     0.021 C 
HETATM    5  C9  UNL     1     -13.580   4.252  10.688  1.00  0.00     0.004 C 
HETATM    6  C10 UNL     1     -14.675   3.306  10.367  1.00  0.00     0.008 C 
HETATM    7  C11 UNL     1     -14.426   2.281   9.346  1.00  0.00     0.040 C 
HETATM    8  C12 UNL     1     -13.069   2.225   8.732  1.00  0.00     0.133 C 
HETATM    9  C13 UNL     1     -13.237   2.245   7.201  1.00  0.00     0.047 C 
HETATM   10  C14 UNL     1     -12.198   3.435   9.036  1.00  0.00     0.032 C 
HETATM   11  C15 UNL     1     -10.802   3.143   8.651  1.00  0.00     0.025 C 
HETATM   12  C16 UNL     1     -12.237   3.628  10.534  1.00  0.00     0.003 C 
HETATM   13  C17 UNL     1     -12.021   2.401  11.348  1.00  0.00     0.011 C 
ENDROOT
BRANCH   1  14
HETATM   14  N2  UNL     1     -12.167   5.419   7.522  1.00  0.00    -0.352 N 
HETATM   15  C4  UNL     1     -12.973   6.072   6.553  1.00  0.00     0.143 C 
HETATM   16  C3  UNL     1     -12.330   7.431   6.431  1.00  0.00     0.116 C 
HETATM   17  N1  UNL     1     -11.054   7.352   7.050  1.00  0.00    -0.278 NA
HETATM   18  C18 UNL     1     -10.951   6.066   7.704  1.00  0.00     0.153 C 
BRANCH  17  19
HETATM   19  C2  UNL     1      -9.938   7.727   6.253  1.00  0.00     0.091 C 
HETATM   20  C1  UNL     1     -10.237   7.969   4.799  1.00  0.00     0.021 C 
ENDBRANCH  17  19
ENDBRANCH   1  14
BRANCH   8  21
HETATM   21  N3  UNL     1     -12.367   0.999   9.014  1.00  0.00    -0.070 N 
ATOM     22  H33 UNL     1     -12.956   0.359   9.547  1.00  0.00     0.275 HD
ATOM     23  H32 UNL     1     -12.245   0.447   8.164  1.00  0.00     0.275 HD
ATOM     24  H31 UNL     1     -11.473   1.146   9.483  1.00  0.00     0.275 HD
ENDBRANCH   8  21
TORSDOF 3
ENDMDL
MODEL 2
REMARK VINA RESULT: -6.000945894      2.353      5.243
REMARK  3 active torsions:
REMARK  status: ('A' for Active; 'I' for Inactive)
REMARK    1  A    between atoms: C2_2  and  N1_3 
REMARK    2  A    between atoms: N2_6  and  C5_7 
REMARK    3  A    between atoms: C12_14  and  N3_16 
ROOT
HETATM    1  C5  UNL     1     -13.590   4.403   9.658  1.00  0.00     0.009 C 
HETATM    2  C6  UNL     1     -13.172   3.016   9.957  1.00  0.00    -0.004 C 
HETATM    3  C7  UNL     1     -13.201   2.572  11.386  1.00  0.00     0.021 C 
HETATM    4  C8  UNL     1     -13.841   1.924   9.156  1.00  0.00     0.021 C 
HETATM    5  C9  UNL     1     -11.710   3.055   9.452  1.00  0.00     0.004 C 
HETATM    6  C10 UNL     1     -11.598   2.994   7.976  1.00  0.00     0.008 C 
HETATM    7  C11 UNL     1     -11.809   4.231   7.214  1.00  0.00     0.040 C 
HETATM    8  C12 UNL     1     -12.073   5.483   7.980  1.00  0.00     0.133 C 
HETATM    9  C13 UNL     1     -13.351   6.128   7.412  1.00  0.00     0.047 C 
HETATM   10  C14 UNL     1     -12.381   5.258   9.452  1.00  0.00     0.032 C 
HETATM   11  C15 UNL     1     -12.320   6.549  10.168  1.00  0.00     0.025 C 
HETATM   12  C16 UNL     1     -11.281   4.374   9.993  1.00  0.00     0.003 C 
HETATM   13  C17 UNL     1      -9.894   4.777   9.632  1.00  0.00     0.011 C 
ENDROOT
BRANCH   1  14
HETATM   14  N2  UNL     1     -14.727   4.962  10.252  1.00  0.00    -0.352 N 
HETATM   15  C4  UNL     1     -15.630   5.684   9.429  1.00  0.00     0.143 C 
HETATM   16  C3  UNL     1     -16.978   5.162   9.858  1.00  0.00     0.116 C 
HETATM   17  N1  UNL     1     -16.791   4.463  11.080  1.00  0.00    -0.278 NA
HETATM   18  C18 UNL     1     -15.370   4.374  11.334  1.00  0.00     0.153 C 
BRANCH  17  19
HETATM   19  C2  UNL     1     -17.587   4.885  12.180  1.00  0.00     0.091 C 
HETATM   20  C1  UNL     1     -19.073   4.740  11.994  1.00  0.00     0.021 C 
ENDBRANCH  17  19
ENDBRANCH   1  14
BRANCH   8  21
HETATM   21  N3  UNL     1     -11.046   6.479   7.812  1.00  0.00    -0.070 N 
ATOM     22  H33 UNL     1     -10.119   6.062   7.900  1.00  0.00     0.275 HD
ATOM     23  H32 UNL     1     -10.999   6.792   6.842  1.00  0.00     0.275 HD
ATOM     24  H31 UNL     1     -11.148   7.272   8.446  1.00  0.00     0.275 HD
ENDBRANCH   8  21
TORSDOF 3
ENDMDL
MODEL 3
REMARK VINA RESULT: -5.859081485      2.364      4.757
REMARK  3 active torsions:
REMARK  status: ('A' for Active; 'I' for Inactive)
REMARK    1  A    between atoms: C2_2  and  N1_3 
REMARK    2  A    between atoms: N2_6  and  C5_7 
REMARK    3  A    between atoms: C12_14  and  N3_16 
ROOT
HETATM    1  C5  UNL     1     -11.703   3.552   9.074  1.00  0.00     0.009 C 
HETATM    2  C6  UNL     1     -11.919   2.940   7.745  1.00  0.00    -0.004 C 
HETATM    3  C7  UNL     1     -13.237   2.279   7.488  1.00  0.00     0.021 C 
HETATM    4  C8  UNL     1     -11.639   3.816   6.547  1.00  0.00     0.021 C 
HETATM    5  C9  UNL     1     -10.794   1.877   7.744  1.00  0.00     0.004 C 
HETATM    6  C10 UNL     1      -9.449   2.449   7.495  1.00  0.00     0.008 C 
HETATM    7  C11 UNL     1      -8.745   3.077   8.620  1.00  0.00     0.040 C 
HETATM    8  C12 UNL     1      -9.408   3.056   9.955  1.00  0.00     0.133 C 
HETATM    9  C13 UNL     1      -9.432   4.497  10.499  1.00  0.00     0.047 C 
HETATM   10  C14 UNL     1     -10.871   2.639   9.917  1.00  0.00     0.032 C 
HETATM   11  C15 UNL     1     -11.336   2.355  11.291  1.00  0.00     0.025 C 
HETATM   12  C16 UNL     1     -10.931   1.350   9.130  1.00  0.00     0.003 C 
HETATM   13  C17 UNL     1      -9.929   0.316   9.508  1.00  0.00     0.011 C 
ENDROOT
BRANCH   1  14
HETATM   14  N2  UNL     1     -12.692   4.330   9.684  1.00  0.00    -0.352 N 
HETATM   15  C4  UNL     1     -12.720   5.722   9.407  1.00  0.00     0.143 C 
HETATM   16  C3  UNL     1     -14.180   5.991   9.146  1.00  0.00     0.116 C 
HETATM   17  N1  UNL     1     -14.907   4.862   9.609  1.00  0.00    -0.278 NA
HETATM   18  C18 UNL     1     -13.957   3.836   9.977  1.00  0.00     0.153 C 
BRANCH  17  19
HETATM   19  C2  UNL     1     -15.937   5.115  10.556  1.00  0.00     0.091 C 
HETATM   20  C1  UNL     1     -17.340   5.035  10.021  1.00  0.00     0.021 C 
ENDBRANCH  17  19
ENDBRANCH   1  14
BRANCH   8  21
HETATM   21  N3  UNL     1      -8.681   2.297  10.940  1.00  0.00    -0.070 N 
ATOM     22  H33 UNL     1      -7.729   2.110  10.623  1.00  0.00     0.275 HD
ATOM     23  H32 UNL     1      -8.475   2.870  11.759  1.00  0.00     0.275 HD
ATOM     24  H31 UNL     1      -9.150   1.432  11.210  1.00  0.00     0.275 HD
ENDBRANCH   8  21
TORSDOF 3
ENDMDL
MODEL 4
REMARK VINA RESULT: -5.808203840      2.218      4.824
REMARK  3 active torsions:
REMARK  status: ('A' for Active; 'I' for Inactive)
REMARK    1  A    between atoms: C2_2  and  N1_3 
REMARK    2  A    between atoms: N2_6  and  C5_7 
REMARK    3  A    between atoms: C12_14  and  N3_16 
ROOT
HETATM    1  C5  UNL     1     -13.019   4.283   9.535  1.00  0.00     0.009 C 
HETATM    2  C6  UNL     1     -12.500   5.600   9.109  1.00  0.00    -0.004 C 
HETATM    3  C7  UNL     1     -13.252   6.335   8.044  1.00  0.00     0.021 C 
HETATM    4  C8  UNL     1     -12.225   6.602  10.206  1.00  0.00     0.021 C 
HETATM    5  C9  UNL     1     -11.107   5.188   8.575  1.00  0.00     0.004 C 
HETATM    6  C10 UNL     1     -10.125   4.914   9.650  1.00  0.00     0.008 C 
HETATM    7  C11 UNL     1     -10.171   3.603  10.310  1.00  0.00     0.040 C 
HETATM    8  C12 UNL     1     -11.172   2.612   9.822  1.00  0.00     0.133 C 
HETATM    9  C13 UNL     1     -11.973   2.107  11.036  1.00  0.00     0.047 C 
HETATM   10  C14 UNL     1     -12.220   3.196   8.888  1.00  0.00     0.032 C 
HETATM   11  C15 UNL     1     -12.958   2.097   8.231  1.00  0.00     0.025 C 
HETATM   12  C16 UNL     1     -11.470   3.957   7.819  1.00  0.00     0.003 C 
HETATM   13  C17 UNL     1     -10.322   3.240   7.203  1.00  0.00     0.011 C 
ENDROOT
BRANCH   1  14
HETATM   14  N2  UNL     1     -14.384   4.080   9.765  1.00  0.00    -0.352 N 
HETATM   15  C4  UNL     1     -14.779   3.474  10.986  1.00  0.00     0.143 C 
HETATM   16  C3  UNL     1     -15.924   4.339  11.445  1.00  0.00     0.116 C 
HETATM   17  N1  UNL     1     -16.319   5.140  10.340  1.00  0.00    -0.278 NA
HETATM   18  C18 UNL     1     -15.360   4.941   9.276  1.00  0.00     0.153 C 
BRANCH  17  19
HETATM   19  C2  UNL     1     -17.686   5.062   9.957  1.00  0.00     0.091 C 
HETATM   20  C1  UNL     1     -18.646   4.713  11.061  1.00  0.00     0.021 C 
ENDBRANCH  17  19
ENDBRANCH   1  14
BRANCH   8  21
HETATM   21  N3  UNL     1     -10.573   1.432   9.253  1.00  0.00    -0.070 N 
ATOM     22  H33 UNL     1     -10.657   1.437   8.236  1.00  0.00     0.275 HD
ATOM     23  H32 UNL     1      -9.556   1.464   9.338  1.00  0.00     0.275 HD
ATOM     24  H31 UNL     1     -10.943   0.565   9.643  1.00  0.00     0.275 HD
ENDBRANCH   8  21
TORSDOF 3
ENDMDL
MODEL 5
REMARK VINA RESULT: -5.712416452      2.752      5.513
REMARK  3 active torsions:
REMARK  status: ('A' for Active; 'I' for Inactive)
REMARK    1  A    between atoms: C2_2  and  N1_3 
REMARK    2  A    between atoms: N2_6  and  C5_7 
REMARK    3  A    between atoms: C12_14  and  N3_16 
ROOT
HETATM    1  C5  UNL     1     -14.419   4.453  10.376  1.00  0.00     0.009 C 
HETATM    2  C6  UNL     1     -14.075   5.719   9.694  1.00  0.00    -0.004 C 
HETATM    3  C7  UNL     1     -15.133   6.370   8.858  1.00  0.00     0.021 C 
HETATM    4  C8  UNL     1     -13.481   6.808  10.556  1.00  0.00     0.021 C 
HETATM    5  C9  UNL     1     -12.916   5.238   8.788  1.00  0.00     0.004 C 
HETATM    6  C10 UNL     1     -11.643   5.043   9.520  1.00  0.00     0.008 C 
HETATM    7  C11 UNL     1     -11.463   3.797  10.275  1.00  0.00     0.040 C 
HETATM    8  C12 UNL     1     -12.555   2.784  10.215  1.00  0.00     0.133 C 
HETATM    9  C13 UNL     1     -12.929   2.400  11.660  1.00  0.00     0.047 C 
HETATM   10  C14 UNL     1     -13.851   3.301   9.610  1.00  0.00     0.032 C 
HETATM   11  C15 UNL     1     -14.745   2.161   9.318  1.00  0.00     0.025 C 
HETATM   12  C16 UNL     1     -13.484   3.952   8.297  1.00  0.00     0.003 C 
HETATM   13  C17 UNL     1     -12.579   3.164   7.418  1.00  0.00     0.011 C 
ENDROOT
BRANCH   1  14
HETATM   14  N2  UNL     1     -15.640   4.295  11.041  1.00  0.00    -0.352 N 
HETATM   15  C4  UNL     1     -15.764   4.815  12.355  1.00  0.00     0.143 C 
HETATM   16  C3  UNL     1     -17.097   5.518  12.323  1.00  0.00     0.116 C 
HETATM   17  N1  UNL     1     -17.776   5.081  11.154  1.00  0.00    -0.278 NA
HETATM   18  C18 UNL     1     -16.858   4.284  10.372  1.00  0.00     0.153 C 
BRANCH  17  19
HETATM   19  C2  UNL     1     -19.069   4.521  11.344  1.00  0.00     0.091 C 
HETATM   20  C1  UNL     1     -19.346   3.993  12.725  1.00  0.00     0.021 C 
ENDBRANCH  17  19
ENDBRANCH   1  14
BRANCH   8  21
HETATM   21  N3  UNL     1     -12.152   1.548   9.595  1.00  0.00    -0.070 N 
ATOM     22  H33 UNL     1     -11.601   1.727   8.755  1.00  0.00     0.275 HD
ATOM     23  H32 UNL     1     -11.447   1.072  10.159  1.00  0.00     0.275 HD
ATOM     24  H31 UNL     1     -12.934   0.926   9.390  1.00  0.00     0.275 HD
ENDBRANCH   8  21
TORSDOF 3
ENDMDL
