MODEL 1
REMARK VINA RESULT: -7.509410269      0.000      0.000
REMARK  3 active torsions:
REMARK  status: ('A' for Active; 'I' for Inactive)
REMARK    1  A    between atoms: C2_2  and  O1_3 
REMARK    2  A    between atoms: N1_7  and  C5_8 
REMARK       I    between atoms: N2_12  and  C9_13 
REMARK    3  A    between atoms: C9_13  and  C10_15 
ROOT
HETATM    1  C5  UNL     1     -13.228   4.139   8.605  1.00  0.00     0.241 C 
HETATM    2  C6  UNL     1     -13.819   2.772   8.703  1.00  0.00     0.039 C 
HETATM    3  C7  UNL     1     -13.951   2.427  10.190  1.00  0.00     0.022 C 
HETATM    4  C8  UNL     1     -14.344   3.700  10.911  1.00  0.00     0.126 C 
HETATM    5  N2  UNL     1     -15.039   4.618  10.059  1.00  0.00    -0.350 N 
HETATM    6  C9  UNL     1     -16.361   4.993  10.304  1.00  0.00     0.224 C 
HETATM    7  O2  UNL     1     -16.920   5.821   9.532  1.00  0.00    -0.273 OA
HETATM    8  C15 UNL     1     -14.310   5.155   8.908  1.00  0.00     0.161 C 
ENDROOT
BRANCH   1   9
HETATM    9  N1  UNL     1     -12.538   4.431   7.398  1.00  0.00     0.095 N 
HETATM   10  C4  UNL     1     -11.172   4.033   7.328  1.00  0.00     0.276 C 
HETATM   11  C3  UNL     1     -10.845   3.803   5.860  1.00  0.00     0.067 C 
HETATM   12  C2  UNL     1     -10.984   5.145   5.172  1.00  0.00     0.057 C 
HETATM   13  C1  UNL     1      -9.567   5.570   4.776  1.00  0.00     0.045 C 
HETATM   14  C17 UNL     1     -11.552   6.219   6.039  1.00  0.00     0.067 C 
HETATM   15  C16 UNL     1     -12.716   5.746   6.880  1.00  0.00     0.276 C 
BRANCH  12  16
HETATM   16  O1  UNL     1     -11.705   5.002   3.980  1.00  0.00    -0.390 OA
ATOM     17  H1  UNL     1     -11.970   5.876   3.719  1.00  0.00     0.210 HD
ENDBRANCH  12  16
ENDBRANCH   1   9
BRANCH   6  18
HETATM   18  C10 UNL     1     -17.117   4.440  11.442  1.00  0.00     0.078 C 
HETATM   19  C11 UNL     1     -17.182   5.496  12.561  1.00  0.00     0.014 C 
HETATM   20  C12 UNL     1     -18.339   4.988  13.378  1.00  0.00     0.001 C 
HETATM   21  C13 UNL     1     -19.243   4.243  12.451  1.00  0.00     0.001 C 
HETATM   22  C14 UNL     1     -18.578   4.278  11.070  1.00  0.00     0.014 C 
ENDBRANCH   6  18
TORSDOF 3
ENDMDL
MODEL 2
REMARK VINA RESULT: -7.188942962      1.286      1.550
REMARK  3 active torsions:
REMARK  status: ('A' for Active; 'I' for Inactive)
REMARK    1  A    between atoms: C2_2  and  O1_3 
REMARK    2  A    between atoms: N1_7  and  C5_8 
REMARK       I    between atoms: N2_12  and  C9_13 
REMARK    3  A    between atoms: C9_13  and  C10_15 
ROOT
HETATM    1  C5  UNL     1     -12.737   3.793   8.903  1.00  0.00     0.241 C 
HETATM    2  C6  UNL     1     -13.624   2.643   8.559  1.00  0.00     0.039 C 
HETATM    3  C7  UNL     1     -14.194   2.085   9.868  1.00  0.00     0.022 C 
HETATM    4  C8  UNL     1     -14.460   3.266  10.778  1.00  0.00     0.126 C 
HETATM    5  N2  UNL     1     -14.698   4.476  10.049  1.00  0.00    -0.350 N 
HETATM    6  C9  UNL     1     -15.921   5.145  10.114  1.00  0.00     0.224 C 
HETATM    7  O2  UNL     1     -16.072   6.218   9.465  1.00  0.00    -0.273 OA
HETATM    8  C15 UNL     1     -13.605   4.992   9.222  1.00  0.00     0.161 C 
ENDROOT
BRANCH   1   9
HETATM    9  N1  UNL     1     -11.722   4.097   7.958  1.00  0.00     0.095 N 
HETATM   10  C4  UNL     1     -11.710   3.327   6.759  1.00  0.00     0.276 C 
HETATM   11  C3  UNL     1     -11.074   4.188   5.678  1.00  0.00     0.067 C 
HETATM   12  C2  UNL     1      -9.640   4.426   6.103  1.00  0.00     0.057 C 
HETATM   13  C1  UNL     1      -8.768   3.644   5.118  1.00  0.00     0.045 C 
HETATM   14  C17 UNL     1      -9.323   3.935   7.477  1.00  0.00     0.067 C 
HETATM   15  C16 UNL     1     -10.407   4.249   8.483  1.00  0.00     0.276 C 
BRANCH  12  16
HETATM   16  O1  UNL     1      -9.308   5.776   5.944  1.00  0.00    -0.390 OA
ATOM     17  H1  UNL     1      -9.289   6.155   6.816  1.00  0.00     0.210 HD
ENDBRANCH  12  16
ENDBRANCH   1   9
BRANCH   6  18
HETATM   18  C10 UNL     1     -17.040   4.623  10.918  1.00  0.00     0.078 C 
HETATM   19  C11 UNL     1     -17.401   5.655  12.003  1.00  0.00     0.014 C 
HETATM   20  C12 UNL     1     -18.790   5.215  12.378  1.00  0.00     0.001 C 
HETATM   21  C13 UNL     1     -19.386   4.560  11.175  1.00  0.00     0.001 C 
HETATM   22  C14 UNL     1     -18.307   4.577  10.087  1.00  0.00     0.014 C 
ENDBRANCH   6  18
TORSDOF 3
ENDMDL
MODEL 3
REMARK VINA RESULT: -7.154729702      1.013      1.427
REMARK  3 active torsions:
REMARK  status: ('A' for Active; 'I' for Inactive)
REMARK    1  A    between atoms: C2_2  and  O1_3 
REMARK    2  A    between atoms: N1_7  and  C5_8 
REMARK       I    between atoms: N2_12  and  C9_13 
REMARK    3  A    between atoms: C9_13  and  C10_15 
ROOT
HETATM    1  C5  UNL     1     -12.858   3.997   8.789  1.00  0.00     0.241 C 
HETATM    2  C6  UNL     1     -13.681   2.801   8.442  1.00  0.00     0.039 C 
HETATM    3  C7  UNL     1     -14.170   2.176   9.753  1.00  0.00     0.022 C 
HETATM    4  C8  UNL     1     -14.479   3.314  10.703  1.00  0.00     0.126 C 
HETATM    5  N2  UNL     1     -14.818   4.524  10.015  1.00  0.00    -0.350 N 
HETATM    6  C9  UNL     1     -16.079   5.111  10.137  1.00  0.00     0.224 C 
HETATM    7  O2  UNL     1     -16.319   6.188   9.524  1.00  0.00    -0.273 OA
HETATM    8  C15 UNL     1     -13.789   5.130   9.168  1.00  0.00     0.161 C 
ENDROOT
BRANCH   1   9
HETATM    9  N1  UNL     1     -11.897   4.389   7.819  1.00  0.00     0.095 N 
HETATM   10  C4  UNL     1     -12.135   5.620   7.142  1.00  0.00     0.276 C 
HETATM   11  C3  UNL     1     -10.781   6.166   6.714  1.00  0.00     0.067 C 
HETATM   12  C2  UNL     1     -10.212   5.179   5.717  1.00  0.00     0.057 C 
HETATM   13  C1  UNL     1     -10.227   5.886   4.360  1.00  0.00     0.045 C 
HETATM   14  C17 UNL     1     -11.008   3.923   5.582  1.00  0.00     0.067 C 
HETATM   15  C16 UNL     1     -11.480   3.375   6.909  1.00  0.00     0.276 C 
BRANCH  12  16
HETATM   16  O1  UNL     1      -8.870   4.914   6.014  1.00  0.00    -0.390 OA
ATOM     17  H1  UNL     1      -8.726   5.211   6.905  1.00  0.00     0.210 HD
ENDBRANCH  12  16
ENDBRANCH   1   9
BRANCH   6  18
HETATM   18  C10 UNL     1     -17.134   4.499  10.963  1.00  0.00     0.078 C 
HETATM   19  C11 UNL     1     -17.518   5.476  12.091  1.00  0.00     0.014 C 
HETATM   20  C12 UNL     1     -18.864   4.940  12.499  1.00  0.00     0.001 C 
HETATM   21  C13 UNL     1     -19.462   4.283  11.297  1.00  0.00     0.001 C 
HETATM   22  C14 UNL     1     -18.425   4.398  10.174  1.00  0.00     0.014 C 
ENDBRANCH   6  18
TORSDOF 3
ENDMDL
MODEL 4
REMARK VINA RESULT: -6.885606627      1.729      2.132
REMARK  3 active torsions:
REMARK  status: ('A' for Active; 'I' for Inactive)
REMARK    1  A    between atoms: C2_2  and  O1_3 
REMARK    2  A    between atoms: N1_7  and  C5_8 
REMARK       I    between atoms: N2_12  and  C9_13 
REMARK    3  A    between atoms: C9_13  and  C10_15 
ROOT
HETATM    1  C5  UNL     1     -14.410   5.333   9.381  1.00  0.00     0.241 C 
HETATM    2  C6  UNL     1     -14.362   3.843   9.320  1.00  0.00     0.039 C 
HETATM    3  C7  UNL     1     -14.649   3.309  10.727  1.00  0.00     0.022 C 
HETATM    4  C8  UNL     1     -15.696   4.214  11.344  1.00  0.00     0.126 C 
HETATM    5  N2  UNL     1     -16.516   4.852  10.357  1.00  0.00    -0.350 N 
HETATM    6  C9  UNL     1     -17.890   4.614  10.279  1.00  0.00     0.224 C 
HETATM    7  O2  UNL     1     -18.570   5.217   9.402  1.00  0.00    -0.273 OA
HETATM    8  C15 UNL     1     -15.860   5.768   9.423  1.00  0.00     0.161 C 
ENDROOT
BRANCH   1   9
HETATM    9  N1  UNL     1     -13.670   6.018   8.381  1.00  0.00     0.095 N 
HETATM   10  C4  UNL     1     -12.666   5.271   7.700  1.00  0.00     0.276 C 
HETATM   11  C3  UNL     1     -12.497   5.894   6.323  1.00  0.00     0.067 C 
HETATM   12  C2  UNL     1     -11.973   7.297   6.546  1.00  0.00     0.057 C 
HETATM   13  C1  UNL     1     -10.530   7.299   6.037  1.00  0.00     0.045 C 
HETATM   14  C17 UNL     1     -11.948   7.717   7.978  1.00  0.00     0.067 C 
HETATM   15  C16 UNL     1     -13.192   7.313   8.736  1.00  0.00     0.276 C 
BRANCH  12  16
HETATM   16  O1  UNL     1     -12.678   8.207   5.749  1.00  0.00    -0.390 OA
ATOM     17  H1  UNL     1     -13.593   7.951   5.790  1.00  0.00     0.210 HD
ENDBRANCH  12  16
ENDBRANCH   1   9
BRANCH   6  18
HETATM   18  C10 UNL     1     -18.560   3.673  11.193  1.00  0.00     0.078 C 
HETATM   19  C11 UNL     1     -18.983   4.428  12.468  1.00  0.00     0.014 C 
HETATM   20  C12 UNL     1     -20.026   3.500  13.027  1.00  0.00     0.001 C 
HETATM   21  C13 UNL     1     -20.631   2.768  11.874  1.00  0.00     0.001 C 
HETATM   22  C14 UNL     1     -19.896   3.245  10.617  1.00  0.00     0.014 C 
ENDBRANCH   6  18
TORSDOF 3
ENDMDL
MODEL 5
REMARK VINA RESULT: -6.873383723      2.239      7.724
REMARK  3 active torsions:
REMARK  status: ('A' for Active; 'I' for Inactive)
REMARK    1  A    between atoms: C2_2  and  O1_3 
REMARK    2  A    between atoms: N1_7  and  C5_8 
REMARK       I    between atoms: N2_12  and  C9_13 
REMARK    3  A    between atoms: C9_13  and  C10_15 
ROOT
HETATM    1  C5  UNL     1     -15.490   4.463  10.444  1.00  0.00     0.241 C 
HETATM    2  C6  UNL     1     -15.233   5.515   9.417  1.00  0.00     0.039 C 
HETATM    3  C7  UNL     1     -13.832   6.083   9.673  1.00  0.00     0.022 C 
HETATM    4  C8  UNL     1     -12.954   4.928  10.109  1.00  0.00     0.126 C 
HETATM    5  N2  UNL     1     -13.419   3.669   9.607  1.00  0.00    -0.350 N 
HETATM    6  C9  UNL     1     -12.654   2.902   8.726  1.00  0.00     0.224 C 
HETATM    7  O2  UNL     1     -13.102   1.790   8.329  1.00  0.00    -0.273 OA
HETATM    8  C15 UNL     1     -14.736   3.210  10.050  1.00  0.00     0.161 C 
ENDROOT
BRANCH   1   9
HETATM    9  N1  UNL     1     -16.856   4.202  10.734  1.00  0.00     0.095 N 
HETATM   10  C4  UNL     1     -17.784   4.376   9.667  1.00  0.00     0.276 C 
HETATM   11  C3  UNL     1     -18.962   3.454   9.941  1.00  0.00     0.067 C 
HETATM   12  C2  UNL     1     -19.610   3.950  11.217  1.00  0.00     0.057 C 
HETATM   13  C1  UNL     1     -20.964   4.534  10.808  1.00  0.00     0.045 C 
HETATM   14  C17 UNL     1     -18.843   5.027  11.910  1.00  0.00     0.067 C 
HETATM   15  C16 UNL     1     -17.354   4.767  11.943  1.00  0.00     0.276 C 
BRANCH  12  16
HETATM   16  O1  UNL     1     -19.881   2.873  12.069  1.00  0.00    -0.390 OA
ATOM     17  H1  UNL     1     -19.099   2.333  12.080  1.00  0.00     0.210 HD
ENDBRANCH  12  16
ENDBRANCH   1   9
BRANCH   6  18
HETATM   18  C10 UNL     1     -11.338   3.363   8.249  1.00  0.00     0.078 C 
HETATM   19  C11 UNL     1     -10.347   2.185   8.296  1.00  0.00     0.014 C 
HETATM   20  C12 UNL     1      -9.270   2.669   7.363  1.00  0.00     0.001 C 
HETATM   21  C13 UNL     1      -9.918   3.584   6.376  1.00  0.00     0.001 C 
HETATM   22  C14 UNL     1     -11.398   3.672   6.766  1.00  0.00     0.014 C 
ENDBRANCH   6  18
TORSDOF 3
ENDMDL
