MODEL 1
REMARK VINA RESULT: -7.624321105      0.000      0.000
REMARK  2 active torsions:
REMARK  status: ('A' for Active; 'I' for Inactive)
REMARK       I    between atoms: C1_2  and  N1_3 
REMARK    1  A    between atoms: C1_2  and  C10_13 
REMARK    2  A    between atoms: N1_3  and  C2_5 
ROOT
HETATM    1  O1  UNL     1     -15.520   5.593   9.396  1.00  0.00    -0.273 OA
HETATM    2  C1  UNL     1     -15.132   4.563  10.021  1.00  0.00     0.222 C 
HETATM    3  N1  UNL     1     -15.804   4.131  11.167  1.00  0.00    -0.351 N 
ATOM      4  H1  UNL     1     -15.439   3.295  11.624  1.00  0.00     0.163 HD
ENDROOT
BRANCH   2   5
HETATM    5  C10 UNL     1     -13.955   3.861   9.481  1.00  0.00     0.078 C 
HETATM    6  C11 UNL     1     -14.098   2.365   9.475  1.00  0.00     0.019 C 
HETATM    7  C12 UNL     1     -12.938   1.782   8.732  1.00  0.00     0.069 C 
HETATM    8  C13 UNL     1     -11.606   2.284   9.165  1.00  0.00     0.164 C 
HETATM    9  C14 UNL     1     -11.529   3.757   9.386  1.00  0.00     0.069 C 
HETATM   10  O2  UNL     1     -11.156   1.591  10.284  1.00  0.00    -0.353 OA
HETATM   11  O3  UNL     1     -10.687   1.973   8.137  1.00  0.00    -0.353 OA
HETATM   12  C15 UNL     1     -12.695   4.190  10.252  1.00  0.00     0.019 C 
HETATM   13  C16 UNL     1      -9.785   1.649  10.218  1.00  0.00     0.197 C 
HETATM   14  C17 UNL     1      -9.504   1.645   8.746  1.00  0.00     0.197 C 
ENDBRANCH   2   5
BRANCH   3  15
HETATM   15  C2  UNL     1     -16.947   4.739  11.764  1.00  0.00     0.037 C 
HETATM   16  C3  UNL     1     -18.243   4.677  10.967  1.00  0.00     0.036 C 
HETATM   17  C4  UNL     1     -19.282   4.773  12.050  1.00  0.00    -0.011 C 
HETATM   18  C5  UNL     1     -19.084   6.063  12.819  1.00  0.00     0.010 C 
HETATM   19  C9  UNL     1     -18.702   3.800  13.090  1.00  0.00     0.012 C 
HETATM   20  C6  UNL     1     -17.669   5.874  13.357  1.00  0.00    -0.005 C 
HETATM   21  C7  UNL     1     -16.708   6.185  12.228  1.00  0.00     0.036 C 
HETATM   22  C8  UNL     1     -17.318   4.415  13.160  1.00  0.00     0.018 C 
ENDBRANCH   3  15
TORSDOF 2
ENDMDL
MODEL 2
REMARK VINA RESULT: -7.429794865      4.574      6.898
REMARK  2 active torsions:
REMARK  status: ('A' for Active; 'I' for Inactive)
REMARK       I    between atoms: C1_2  and  N1_3 
REMARK    1  A    between atoms: C1_2  and  C10_13 
REMARK    2  A    between atoms: N1_3  and  C2_5 
ROOT
HETATM    1  O1  UNL     1     -16.289   7.374  14.404  1.00  0.00    -0.273 OA
HETATM    2  C1  UNL     1     -17.433   6.853  14.258  1.00  0.00     0.222 C 
HETATM    3  N1  UNL     1     -18.502   7.245  15.067  1.00  0.00    -0.351 N 
ATOM      4  H1  UNL     1     -19.397   6.785  14.898  1.00  0.00     0.163 HD
ENDROOT
BRANCH   2   5
HETATM    5  C10 UNL     1     -17.569   5.829  13.207  1.00  0.00     0.078 C 
HETATM    6  C11 UNL     1     -16.742   6.110  11.984  1.00  0.00     0.019 C 
HETATM    7  C12 UNL     1     -16.809   4.918  11.083  1.00  0.00     0.069 C 
HETATM    8  C13 UNL     1     -18.184   4.421  10.811  1.00  0.00     0.164 C 
HETATM    9  C14 UNL     1     -19.078   4.354  12.003  1.00  0.00     0.069 C 
HETATM   10  O2  UNL     1     -18.780   5.150   9.786  1.00  0.00    -0.353 OA
HETATM   11  O3  UNL     1     -18.062   3.104  10.312  1.00  0.00    -0.353 OA
HETATM   12  C15 UNL     1     -19.003   5.669  12.753  1.00  0.00     0.019 C 
HETATM   13  C16 UNL     1     -19.683   4.290   9.209  1.00  0.00     0.197 C 
HETATM   14  C17 UNL     1     -19.035   2.947   9.359  1.00  0.00     0.197 C 
ENDBRANCH   2   5
BRANCH   3  15
HETATM   15  C2  UNL     1     -18.471   8.222  16.104  1.00  0.00     0.037 C 
HETATM   16  C3  UNL     1     -18.102   9.641  15.691  1.00  0.00     0.036 C 
HETATM   17  C4  UNL     1     -18.766  10.462  16.761  1.00  0.00    -0.011 C 
HETATM   18  C5  UNL     1     -18.228  10.048  18.115  1.00  0.00     0.010 C 
HETATM   19  C9  UNL     1     -20.137   9.771  16.842  1.00  0.00     0.012 C 
HETATM   20  C6  UNL     1     -18.625   8.575  18.154  1.00  0.00    -0.005 C 
HETATM   21  C7  UNL     1     -17.619   7.811  17.317  1.00  0.00     0.036 C 
HETATM   22  C8  UNL     1     -19.617   8.360  17.031  1.00  0.00     0.018 C 
ENDBRANCH   3  15
TORSDOF 2
ENDMDL
MODEL 3
REMARK VINA RESULT: -7.333117151      5.003      7.937
REMARK  2 active torsions:
REMARK  status: ('A' for Active; 'I' for Inactive)
REMARK       I    between atoms: C1_2  and  N1_3 
REMARK    1  A    between atoms: C1_2  and  C10_13 
REMARK    2  A    between atoms: N1_3  and  C2_5 
ROOT
HETATM    1  O1  UNL     1     -16.982   4.988  13.241  1.00  0.00    -0.273 OA
HETATM    2  C1  UNL     1     -17.875   5.876  13.112  1.00  0.00     0.222 C 
HETATM    3  N1  UNL     1     -18.949   5.682  12.240  1.00  0.00    -0.351 N 
ATOM      4  H1  UNL     1     -19.633   6.438  12.182  1.00  0.00     0.163 HD
ENDROOT
BRANCH   2   5
HETATM    5  C10 UNL     1     -17.718   7.100  13.916  1.00  0.00     0.078 C 
HETATM    6  C11 UNL     1     -16.295   7.575  14.017  1.00  0.00     0.019 C 
HETATM    7  C12 UNL     1     -16.290   8.915  14.681  1.00  0.00     0.069 C 
HETATM    8  C13 UNL     1     -17.067   8.984  15.949  1.00  0.00     0.164 C 
HETATM    9  C14 UNL     1     -18.397   8.312  15.910  1.00  0.00     0.069 C 
HETATM   10  O2  UNL     1     -16.308   8.520  17.019  1.00  0.00    -0.353 OA
HETATM   11  O3  UNL     1     -17.303  10.351  16.221  1.00  0.00    -0.353 OA
HETATM   12  C15 UNL     1     -18.234   6.922  15.327  1.00  0.00     0.019 C 
HETATM   13  C16 UNL     1     -16.804   9.173  18.122  1.00  0.00     0.197 C 
HETATM   14  C17 UNL     1     -17.227  10.504  17.581  1.00  0.00     0.197 C 
ENDBRANCH   2   5
BRANCH   3  15
HETATM   15  C2  UNL     1     -19.189   4.539  11.424  1.00  0.00     0.037 C 
HETATM   16  C3  UNL     1     -19.701   3.292  12.134  1.00  0.00     0.036 C 
HETATM   17  C4  UNL     1     -20.430   2.579  11.029  1.00  0.00    -0.011 C 
HETATM   18  C5  UNL     1     -19.466   2.298   9.895  1.00  0.00     0.010 C 
HETATM   19  C9  UNL     1     -21.195   3.749  10.389  1.00  0.00     0.012 C 
HETATM   20  C6  UNL     1     -19.033   3.711   9.517  1.00  0.00    -0.005 C 
HETATM   21  C7  UNL     1     -17.998   4.156  10.529  1.00  0.00     0.036 C 
HETATM   22  C8  UNL     1     -19.999   4.660  10.192  1.00  0.00     0.018 C 
ENDBRANCH   3  15
TORSDOF 2
ENDMDL
MODEL 4
REMARK VINA RESULT: -7.287356997      4.574      6.948
REMARK  2 active torsions:
REMARK  status: ('A' for Active; 'I' for Inactive)
REMARK       I    between atoms: C1_2  and  N1_3 
REMARK    1  A    between atoms: C1_2  and  C10_13 
REMARK    2  A    between atoms: N1_3  and  C2_5 
ROOT
HETATM    1  O1  UNL     1     -16.239   7.433  14.330  1.00  0.00    -0.273 OA
HETATM    2  C1  UNL     1     -17.356   6.841  14.266  1.00  0.00     0.222 C 
HETATM    3  N1  UNL     1     -18.377   7.151  15.167  1.00  0.00    -0.351 N 
ATOM      4  H1  UNL     1     -19.252   6.637  15.062  1.00  0.00     0.163 HD
ENDROOT
BRANCH   2   5
HETATM    5  C10 UNL     1     -17.513   5.828  13.209  1.00  0.00     0.078 C 
HETATM    6  C11 UNL     1     -16.724   6.128  11.966  1.00  0.00     0.019 C 
HETATM    7  C12 UNL     1     -16.807   4.945  11.055  1.00  0.00     0.069 C 
HETATM    8  C13 UNL     1     -18.185   4.438  10.817  1.00  0.00     0.164 C 
HETATM    9  C14 UNL     1     -19.044   4.352  12.033  1.00  0.00     0.069 C 
HETATM   10  O2  UNL     1     -18.816   5.172   9.817  1.00  0.00    -0.353 OA
HETATM   11  O3  UNL     1     -18.066   3.128  10.301  1.00  0.00    -0.353 OA
HETATM   12  C15 UNL     1     -18.959   5.659  12.795  1.00  0.00     0.019 C 
HETATM   13  C16 UNL     1     -19.728   4.311   9.257  1.00  0.00     0.197 C 
HETATM   14  C17 UNL     1     -19.065   2.973   9.375  1.00  0.00     0.197 C 
ENDBRANCH   2   5
BRANCH   3  15
HETATM   15  C2  UNL     1     -18.322   8.112  16.219  1.00  0.00     0.037 C 
HETATM   16  C3  UNL     1     -17.403   7.788  17.389  1.00  0.00     0.036 C 
HETATM   17  C4  UNL     1     -17.078   9.156  17.921  1.00  0.00    -0.011 C 
HETATM   18  C5  UNL     1     -18.361   9.857  18.313  1.00  0.00     0.010 C 
HETATM   19  C9  UNL     1     -16.798   9.913  16.612  1.00  0.00     0.012 C 
HETATM   20  C6  UNL     1     -19.101   9.891  16.980  1.00  0.00    -0.005 C 
HETATM   21  C7  UNL     1     -19.704   8.518  16.759  1.00  0.00     0.036 C 
HETATM   22  C8  UNL     1     -18.089   9.541  15.910  1.00  0.00     0.018 C 
ENDBRANCH   3  15
TORSDOF 2
ENDMDL
MODEL 5
REMARK VINA RESULT: -7.285466943      1.957      2.847
REMARK  2 active torsions:
REMARK  status: ('A' for Active; 'I' for Inactive)
REMARK       I    between atoms: C1_2  and  N1_3 
REMARK    1  A    between atoms: C1_2  and  C10_13 
REMARK    2  A    between atoms: N1_3  and  C2_5 
ROOT
HETATM    1  O1  UNL     1     -16.723   4.568  12.021  1.00  0.00    -0.273 OA
HETATM    2  C1  UNL     1     -16.338   4.273  10.853  1.00  0.00     0.222 C 
HETATM    3  N1  UNL     1     -17.256   3.856   9.885  1.00  0.00    -0.351 N 
ATOM      4  H1  UNL     1     -16.880   3.632   8.964  1.00  0.00     0.163 HD
ENDROOT
BRANCH   2   5
HETATM    5  C10 UNL     1     -14.896   4.391  10.577  1.00  0.00     0.078 C 
HETATM    6  C11 UNL     1     -14.584   5.163   9.326  1.00  0.00     0.019 C 
HETATM    7  C12 UNL     1     -13.106   5.382   9.260  1.00  0.00     0.069 C 
HETATM    8  C13 UNL     1     -12.286   4.158   9.463  1.00  0.00     0.164 C 
HETATM    9  C14 UNL     1     -12.738   3.274  10.577  1.00  0.00     0.069 C 
HETATM   10  O2  UNL     1     -12.168   3.439   8.278  1.00  0.00    -0.353 OA
HETATM   11  O3  UNL     1     -10.975   4.580   9.778  1.00  0.00    -0.353 OA
HETATM   12  C15 UNL     1     -14.230   3.038  10.449  1.00  0.00     0.019 C 
HETATM   13  C16 UNL     1     -10.977   2.762   8.382  1.00  0.00     0.197 C 
HETATM   14  C17 UNL     1     -10.117   3.688   9.187  1.00  0.00     0.197 C 
ENDBRANCH   2   5
BRANCH   3  15
HETATM   15  C2  UNL     1     -18.664   3.712  10.054  1.00  0.00     0.037 C 
HETATM   16  C3  UNL     1     -19.222   2.300   9.935  1.00  0.00     0.036 C 
HETATM   17  C4  UNL     1     -20.475   2.387  10.760  1.00  0.00    -0.011 C 
HETATM   18  C5  UNL     1     -21.376   3.462  10.188  1.00  0.00     0.010 C 
HETATM   19  C9  UNL     1     -19.958   3.156  11.987  1.00  0.00     0.012 C 
HETATM   20  C6  UNL     1     -20.485   4.694  10.315  1.00  0.00    -0.005 C 
HETATM   21  C7  UNL     1     -19.493   4.659   9.170  1.00  0.00     0.036 C 
HETATM   22  C8  UNL     1     -19.338   4.312  11.227  1.00  0.00     0.018 C 
ENDBRANCH   3  15
TORSDOF 2
ENDMDL
