MODEL 1
REMARK VINA RESULT: -7.933066126      0.000      0.000
REMARK  2 active torsions:
REMARK  status: ('A' for Active; 'I' for Inactive)
REMARK    1  A    between atoms: C5_7  and  C6_8 
REMARK       I    between atoms: C6_8  and  N3_10 
REMARK    2  A    between atoms: N3_10  and  C7_12 
ROOT
HETATM    1  N1  UNL     1     -17.815   6.880  15.140  1.00  0.00    -0.172 NA
HETATM    2  C1  UNL     1     -17.893   6.470  14.046  1.00  0.00     0.179 C 
HETATM    3  N2  UNL     1     -17.982   5.967  12.760  1.00  0.00    -0.319 N 
HETATM    4  C2  UNL     1     -19.243   5.507  12.253  1.00  0.00     0.134 C 
HETATM    5  C3  UNL     1     -19.042   4.062  11.783  1.00  0.00     0.021 C 
HETATM    6  C4  UNL     1     -17.907   4.043  10.783  1.00  0.00     0.017 C 
HETATM    7  C5  UNL     1     -16.659   4.460  11.490  1.00  0.00     0.096 C 
HETATM    8  C17 UNL     1     -16.818   5.897  11.921  1.00  0.00     0.148 C 
ENDROOT
BRANCH   7   9
HETATM    9  C6  UNL     1     -15.427   4.252  10.673  1.00  0.00     0.224 C 
HETATM   10  O1  UNL     1     -15.383   4.908   9.597  1.00  0.00    -0.273 OA
HETATM   11  N3  UNL     1     -14.390   3.379  11.086  1.00  0.00    -0.351 N 
ATOM     12  H3  UNL     1     -14.514   2.889  11.971  1.00  0.00     0.163 HD
BRANCH  11  13
HETATM   13  C7  UNL     1     -13.183   3.128  10.361  1.00  0.00     0.034 C 
HETATM   14  C8  UNL     1     -12.505   4.434  10.022  1.00  0.00     0.035 C 
HETATM   15  C9  UNL     1     -11.165   4.176   9.369  1.00  0.00    -0.012 C 
HETATM   16  C10 UNL     1     -11.435   3.455   8.071  1.00  0.00     0.009 C 
HETATM   17  C14 UNL     1     -10.295   3.393  10.301  1.00  0.00     0.009 C 
HETATM   18  C11 UNL     1     -12.091   2.131   8.412  1.00  0.00    -0.012 C 
HETATM   19  C12 UNL     1     -11.143   1.322   9.259  1.00  0.00     0.009 C 
HETATM   20  C16 UNL     1     -13.422   2.352   9.080  1.00  0.00     0.035 C 
HETATM   21  C13 UNL     1     -10.923   2.040  10.559  1.00  0.00    -0.012 C 
HETATM   22  C15 UNL     1     -12.259   2.263  11.206  1.00  0.00     0.035 C 
ENDBRANCH  11  13
ENDBRANCH   7   9
TORSDOF 2
ENDMDL
MODEL 2
REMARK VINA RESULT: -7.912556365      1.539      2.554
REMARK  2 active torsions:
REMARK  status: ('A' for Active; 'I' for Inactive)
REMARK    1  A    between atoms: C5_7  and  C6_8 
REMARK       I    between atoms: C6_8  and  N3_10 
REMARK    2  A    between atoms: N3_10  and  C7_12 
ROOT
HETATM    1  N1  UNL     1     -21.157   4.117  10.394  1.00  0.00    -0.172 NA
HETATM    2  C1  UNL     1     -20.154   4.241  10.983  1.00  0.00     0.179 C 
HETATM    3  N2  UNL     1     -18.967   4.408  11.676  1.00  0.00    -0.319 N 
HETATM    4  C2  UNL     1     -18.987   4.830  13.047  1.00  0.00     0.134 C 
HETATM    5  C3  UNL     1     -18.115   6.087  13.147  1.00  0.00     0.021 C 
HETATM    6  C4  UNL     1     -16.744   5.755  12.601  1.00  0.00     0.017 C 
HETATM    7  C5  UNL     1     -16.888   5.426  11.151  1.00  0.00     0.096 C 
HETATM    8  C17 UNL     1     -17.706   4.163  11.034  1.00  0.00     0.148 C 
ENDROOT
BRANCH   7   9
HETATM    9  C6  UNL     1     -15.578   5.314  10.444  1.00  0.00     0.224 C 
HETATM   10  O1  UNL     1     -14.978   6.406  10.253  1.00  0.00    -0.273 OA
HETATM   11  N3  UNL     1     -15.057   4.064  10.022  1.00  0.00    -0.351 N 
ATOM     12  H3  UNL     1     -15.614   3.233  10.219  1.00  0.00     0.163 HD
BRANCH  11  13
HETATM   13  C7  UNL     1     -13.814   3.875   9.342  1.00  0.00     0.034 C 
HETATM   14  C8  UNL     1     -12.665   4.205  10.266  1.00  0.00     0.035 C 
HETATM   15  C9  UNL     1     -11.346   3.885   9.598  1.00  0.00    -0.012 C 
HETATM   16  C10 UNL     1     -11.230   4.785   8.391  1.00  0.00     0.009 C 
HETATM   17  C14 UNL     1     -11.300   2.431   9.248  1.00  0.00     0.009 C 
HETATM   18  C11 UNL     1     -12.367   4.435   7.451  1.00  0.00    -0.012 C 
HETATM   19  C12 UNL     1     -12.226   2.995   7.031  1.00  0.00     0.009 C 
HETATM   20  C16 UNL     1     -13.698   4.726   8.092  1.00  0.00     0.035 C 
HETATM   21  C13 UNL     1     -12.385   2.120   8.240  1.00  0.00    -0.012 C 
HETATM   22  C15 UNL     1     -13.711   2.431   8.874  1.00  0.00     0.035 C 
ENDBRANCH  11  13
ENDBRANCH   7   9
TORSDOF 2
ENDMDL
MODEL 3
REMARK VINA RESULT: -7.869713102      1.269      2.075
REMARK  2 active torsions:
REMARK  status: ('A' for Active; 'I' for Inactive)
REMARK    1  A    between atoms: C5_7  and  C6_8 
REMARK       I    between atoms: C6_8  and  N3_10 
REMARK    2  A    between atoms: N3_10  and  C7_12 
ROOT
HETATM    1  N1  UNL     1     -21.214   4.190  10.301  1.00  0.00    -0.172 NA
HETATM    2  C1  UNL     1     -20.199   4.272  10.877  1.00  0.00     0.179 C 
HETATM    3  N2  UNL     1     -18.996   4.388  11.552  1.00  0.00    -0.319 N 
HETATM    4  C2  UNL     1     -18.963   4.948  12.873  1.00  0.00     0.134 C 
HETATM    5  C3  UNL     1     -17.967   6.114  12.846  1.00  0.00     0.021 C 
HETATM    6  C4  UNL     1     -16.641   5.591  12.340  1.00  0.00     0.017 C 
HETATM    7  C5  UNL     1     -16.829   5.131  10.932  1.00  0.00     0.096 C 
HETATM    8  C17 UNL     1     -17.771   3.952  10.942  1.00  0.00     0.148 C 
ENDROOT
BRANCH   7   9
HETATM    9  C6  UNL     1     -15.543   4.815  10.243  1.00  0.00     0.224 C 
HETATM   10  O1  UNL     1     -15.305   5.502   9.213  1.00  0.00    -0.273 OA
HETATM   11  N3  UNL     1     -14.661   3.813  10.721  1.00  0.00    -0.351 N 
ATOM     12  H3  UNL     1     -14.938   3.308  11.563  1.00  0.00     0.163 HD
BRANCH  11  13
HETATM   13  C7  UNL     1     -13.415   3.454  10.120  1.00  0.00     0.034 C 
HETATM   14  C8  UNL     1     -12.555   4.682   9.942  1.00  0.00     0.035 C 
HETATM   15  C9  UNL     1     -11.186   4.295   9.426  1.00  0.00    -0.012 C 
HETATM   16  C10 UNL     1     -11.384   3.679   8.062  1.00  0.00     0.009 C 
HETATM   17  C14 UNL     1     -10.529   3.365  10.396  1.00  0.00     0.009 C 
HETATM   18  C11 UNL     1     -12.225   2.430   8.244  1.00  0.00    -0.012 C 
HETATM   19  C12 UNL     1     -11.483   1.469   9.136  1.00  0.00     0.009 C 
HETATM   20  C16 UNL     1     -13.590   2.778   8.773  1.00  0.00     0.035 C 
HETATM   21  C13 UNL     1     -11.335   2.087  10.496  1.00  0.00    -0.012 C 
HETATM   22  C15 UNL     1     -12.703   2.440  11.004  1.00  0.00     0.035 C 
ENDBRANCH  11  13
ENDBRANCH   7   9
TORSDOF 2
ENDMDL
MODEL 4
REMARK VINA RESULT: -7.863289118      0.103      1.612
REMARK  2 active torsions:
REMARK  status: ('A' for Active; 'I' for Inactive)
REMARK    1  A    between atoms: C5_7  and  C6_8 
REMARK       I    between atoms: C6_8  and  N3_10 
REMARK    2  A    between atoms: N3_10  and  C7_12 
ROOT
HETATM    1  N1  UNL     1     -17.867   6.872  15.128  1.00  0.00    -0.172 NA
HETATM    2  C1  UNL     1     -17.925   6.463  14.033  1.00  0.00     0.179 C 
HETATM    3  N2  UNL     1     -17.992   5.960  12.746  1.00  0.00    -0.319 N 
HETATM    4  C2  UNL     1     -19.245   5.506  12.215  1.00  0.00     0.134 C 
HETATM    5  C3  UNL     1     -19.042   4.060  11.748  1.00  0.00     0.021 C 
HETATM    6  C4  UNL     1     -17.888   4.036  10.771  1.00  0.00     0.017 C 
HETATM    7  C5  UNL     1     -16.652   4.448  11.500  1.00  0.00     0.096 C 
HETATM    8  C17 UNL     1     -16.814   5.886  11.928  1.00  0.00     0.148 C 
ENDROOT
BRANCH   7   9
HETATM    9  C6  UNL     1     -15.406   4.236  10.706  1.00  0.00     0.224 C 
HETATM   10  O1  UNL     1     -15.337   4.896   9.634  1.00  0.00    -0.273 OA
HETATM   11  N3  UNL     1     -14.382   3.354  11.135  1.00  0.00    -0.351 N 
ATOM     12  H3  UNL     1     -14.527   2.862  12.017  1.00  0.00     0.163 HD
BRANCH  11  13
HETATM   13  C7  UNL     1     -13.163   3.099  10.434  1.00  0.00     0.034 C 
HETATM   14  C8  UNL     1     -13.453   2.357   9.150  1.00  0.00     0.035 C 
HETATM   15  C9  UNL     1     -12.186   2.195   8.339  1.00  0.00    -0.012 C 
HETATM   16  C10 UNL     1     -11.244   1.341   9.154  1.00  0.00     0.009 C 
HETATM   17  C14 UNL     1     -11.621   3.543   8.018  1.00  0.00     0.009 C 
HETATM   18  C11 UNL     1     -10.931   2.098  10.430  1.00  0.00    -0.012 C 
HETATM   19  C12 UNL     1     -10.262   3.400  10.073  1.00  0.00     0.009 C 
HETATM   20  C16 UNL     1     -12.176   2.292  11.254  1.00  0.00     0.035 C 
HETATM   21  C13 UNL     1     -11.231   4.246   9.300  1.00  0.00    -0.012 C 
HETATM   22  C15 UNL     1     -12.471   4.419  10.130  1.00  0.00     0.035 C 
ENDBRANCH  11  13
ENDBRANCH   7   9
TORSDOF 2
ENDMDL
MODEL 5
REMARK VINA RESULT: -7.831332650      1.264      2.600
REMARK  2 active torsions:
REMARK  status: ('A' for Active; 'I' for Inactive)
REMARK    1  A    between atoms: C5_7  and  C6_8 
REMARK       I    between atoms: C6_8  and  N3_10 
REMARK    2  A    between atoms: N3_10  and  C7_12 
ROOT
HETATM    1  N1  UNL     1     -21.213   4.172  10.258  1.00  0.00    -0.172 NA
HETATM    2  C1  UNL     1     -20.210   4.249  10.856  1.00  0.00     0.179 C 
HETATM    3  N2  UNL     1     -19.022   4.360  11.558  1.00  0.00    -0.319 N 
HETATM    4  C2  UNL     1     -19.015   4.917  12.879  1.00  0.00     0.134 C 
HETATM    5  C3  UNL     1     -18.015   6.079  12.876  1.00  0.00     0.021 C 
HETATM    6  C4  UNL     1     -16.680   5.552  12.400  1.00  0.00     0.017 C 
HETATM    7  C5  UNL     1     -16.838   5.095  10.986  1.00  0.00     0.096 C 
HETATM    8  C17 UNL     1     -17.786   3.920  10.974  1.00  0.00     0.148 C 
ENDROOT
BRANCH   7   9
HETATM    9  C6  UNL     1     -15.539   4.774  10.326  1.00  0.00     0.224 C 
HETATM   10  O1  UNL     1     -15.274   5.464   9.305  1.00  0.00    -0.273 OA
HETATM   11  N3  UNL     1     -14.673   3.766  10.820  1.00  0.00    -0.351 N 
ATOM     12  H3  UNL     1     -14.972   3.258  11.652  1.00  0.00     0.163 HD
BRANCH  11  13
HETATM   13  C7  UNL     1     -13.416   3.402  10.246  1.00  0.00     0.034 C 
HETATM   14  C8  UNL     1     -13.635   2.718   8.917  1.00  0.00     0.035 C 
HETATM   15  C9  UNL     1     -12.308   2.444   8.242  1.00  0.00    -0.012 C 
HETATM   16  C10 UNL     1     -11.551   1.484   9.127  1.00  0.00     0.009 C 
HETATM   17  C14 UNL     1     -11.580   3.734   8.024  1.00  0.00     0.009 C 
HETATM   18  C11 UNL     1     -11.307   2.180  10.452  1.00  0.00    -0.012 C 
HETATM   19  C12 UNL     1     -10.477   3.414  10.209  1.00  0.00     0.009 C 
HETATM   20  C16 UNL     1     -12.609   2.483  11.143  1.00  0.00     0.035 C 
HETATM   21  C13 UNL     1     -11.267   4.369   9.362  1.00  0.00    -0.012 C 
HETATM   22  C15 UNL     1     -12.567   4.651  10.059  1.00  0.00     0.035 C 
ENDBRANCH  11  13
ENDBRANCH   7   9
TORSDOF 2
ENDMDL
