MODEL 1
REMARK VINA RESULT: -7.671645209      0.000      0.000
REMARK  4 active torsions:
REMARK  status: ('A' for Active; 'I' for Inactive)
REMARK    1  A    between atoms: C2_2  and  C3_3 
REMARK       I    between atoms: C3_3  and  N1_5 
REMARK    2  A    between atoms: C8_10  and  C9_11 
REMARK    3  A    between atoms: C9_11  and  N2_12 
REMARK    4  A    between atoms: C11_14  and  O2_15 
ROOT
HETATM    1  N2  UNL     1     -15.043   4.094   9.674  1.00  0.00     0.098 N 
HETATM    2  C10 UNL     1     -14.321   2.925   9.831  1.00  0.00     0.310 C 
HETATM    3  C11 UNL     1     -13.103   2.716   8.945  1.00  0.00     0.085 C 
HETATM    4  C12 UNL     1     -11.929   3.421   9.492  1.00  0.00     0.044 C 
HETATM    5  C13 UNL     1     -11.513   4.674   8.821  1.00  0.00    -0.011 C 
HETATM    6  C14 UNL     1     -12.017   5.930   9.460  1.00  0.00     0.007 C 
HETATM    7  C15 UNL     1     -13.367   5.851  10.054  1.00  0.00     0.036 C 
HETATM    8  C16 UNL     1     -14.437   5.281   9.170  1.00  0.00     0.223 C 
HETATM    9  C17 UNL     1     -14.172   5.349   7.714  1.00  0.00     0.040 C 
HETATM   10  C18 UNL     1     -13.248   4.392   7.099  1.00  0.00    -0.009 C 
HETATM   11  C19 UNL     1     -11.812   4.752   7.348  1.00  0.00     0.009 C 
HETATM   12  C20 UNL     1     -13.444   2.962   7.525  1.00  0.00     0.044 C 
ENDROOT
BRANCH   1  13
HETATM   13  C9  UNL     1     -15.812   4.433  10.821  1.00  0.00     0.298 C 
BRANCH  13  14
HETATM   14  C8  UNL     1     -16.998   5.307  10.688  1.00  0.00     0.115 C 
HETATM   15  N1  UNL     1     -17.821   5.144  11.907  1.00  0.00    -0.346 N 
HETATM   16  C3  UNL     1     -17.725   5.995  13.021  1.00  0.00     0.219 C 
HETATM   17  C4  UNL     1     -18.762   4.047  11.927  1.00  0.00     0.126 C 
HETATM   18  O1  UNL     1     -18.457   5.792  14.017  1.00  0.00    -0.273 OA
HETATM   19  C5  UNL     1     -19.808   4.257  10.827  1.00  0.00     0.020 C 
HETATM   20  C6  UNL     1     -19.357   5.400   9.929  1.00  0.00     0.004 C 
HETATM   21  C7  UNL     1     -17.905   5.074   9.546  1.00  0.00     0.027 C 
BRANCH  16  22
HETATM   22  C2  UNL     1     -16.769   7.139  13.043  1.00  0.00     0.098 C 
HETATM   23  C1  UNL     1     -16.883   7.951  14.292  1.00  0.00     0.014 C 
ENDBRANCH  16  22
ENDBRANCH  13  14
ENDBRANCH   1  13
BRANCH   3  24
HETATM   24  O2  UNL     1     -12.838   1.321   9.036  1.00  0.00    -0.388 OA
ATOM     25  H2  UNL     1     -11.931   1.237   8.768  1.00  0.00     0.210 HD
ENDBRANCH   3  24
TORSDOF 4
ENDMDL
MODEL 2
REMARK VINA RESULT: -7.089488062      1.437      2.756
REMARK  4 active torsions:
REMARK  status: ('A' for Active; 'I' for Inactive)
REMARK    1  A    between atoms: C2_2  and  C3_3 
REMARK       I    between atoms: C3_3  and  N1_5 
REMARK    2  A    between atoms: C8_10  and  C9_11 
REMARK    3  A    between atoms: C9_11  and  N2_12 
REMARK    4  A    between atoms: C11_14  and  O2_15 
ROOT
HETATM    1  N2  UNL     1     -15.425   4.892   9.092  1.00  0.00     0.098 N 
HETATM    2  C10 UNL     1     -15.012   3.659   9.564  1.00  0.00     0.310 C 
HETATM    3  C11 UNL     1     -13.657   3.140   9.109  1.00  0.00     0.085 C 
HETATM    4  C12 UNL     1     -12.572   3.726   9.919  1.00  0.00     0.044 C 
HETATM    5  C13 UNL     1     -11.755   4.791   9.295  1.00  0.00    -0.011 C 
HETATM    6  C14 UNL     1     -12.170   6.187   9.636  1.00  0.00     0.007 C 
HETATM    7  C15 UNL     1     -13.621   6.404   9.800  1.00  0.00     0.036 C 
HETATM    8  C16 UNL     1     -14.489   5.887   8.689  1.00  0.00     0.223 C 
HETATM    9  C17 UNL     1     -13.817   5.706   7.382  1.00  0.00     0.040 C 
HETATM   10  C18 UNL     1     -12.957   4.540   7.162  1.00  0.00    -0.009 C 
HETATM   11  C19 UNL     1     -11.607   4.704   7.800  1.00  0.00     0.009 C 
HETATM   12  C20 UNL     1     -13.532   3.232   7.637  1.00  0.00     0.044 C 
ENDROOT
BRANCH   1  13
HETATM   13  C9  UNL     1     -16.406   5.506   9.919  1.00  0.00     0.298 C 
BRANCH  13  14
HETATM   14  C8  UNL     1     -17.108   4.713  10.953  1.00  0.00     0.115 C 
HETATM   15  N1  UNL     1     -18.517   5.161  10.989  1.00  0.00    -0.346 N 
HETATM   16  C3  UNL     1     -19.546   4.528  10.271  1.00  0.00     0.219 C 
HETATM   17  C4  UNL     1     -18.824   6.310  11.812  1.00  0.00     0.126 C 
HETATM   18  O1  UNL     1     -20.716   4.968  10.353  1.00  0.00    -0.273 OA
HETATM   19  C5  UNL     1     -18.528   5.977  13.277  1.00  0.00     0.020 C 
HETATM   20  C6  UNL     1     -17.774   4.656  13.341  1.00  0.00     0.004 C 
HETATM   21  C7  UNL     1     -16.614   4.796  12.342  1.00  0.00     0.027 C 
BRANCH  16  22
HETATM   22  C2  UNL     1     -19.274   3.341   9.412  1.00  0.00     0.098 C 
HETATM   23  C1  UNL     1     -20.230   2.222   9.670  1.00  0.00     0.014 C 
ENDBRANCH  16  22
ENDBRANCH  13  14
ENDBRANCH   1  13
BRANCH   3  24
HETATM   24  O2  UNL     1     -13.699   1.749   9.401  1.00  0.00    -0.388 OA
ATOM     25  H2  UNL     1     -12.793   1.469   9.337  1.00  0.00     0.210 HD
ENDBRANCH   3  24
TORSDOF 4
ENDMDL
MODEL 3
REMARK VINA RESULT: -7.002777507      1.663      2.505
REMARK  4 active torsions:
REMARK  status: ('A' for Active; 'I' for Inactive)
REMARK    1  A    between atoms: C2_2  and  C3_3 
REMARK       I    between atoms: C3_3  and  N1_5 
REMARK    2  A    between atoms: C8_10  and  C9_11 
REMARK    3  A    between atoms: C9_11  and  N2_12 
REMARK    4  A    between atoms: C11_14  and  O2_15 
ROOT
HETATM    1  N2  UNL     1     -14.659   3.969   9.447  1.00  0.00     0.098 N 
HETATM    2  C10 UNL     1     -14.705   3.106   8.368  1.00  0.00     0.310 C 
HETATM    3  C11 UNL     1     -13.395   2.755   7.680  1.00  0.00     0.085 C 
HETATM    4  C12 UNL     1     -12.690   1.684   8.408  1.00  0.00     0.044 C 
HETATM    5  C13 UNL     1     -11.517   2.072   9.224  1.00  0.00    -0.011 C 
HETATM    6  C14 UNL     1     -11.800   2.274  10.679  1.00  0.00     0.007 C 
HETATM    7  C15 UNL     1     -13.119   2.853  11.003  1.00  0.00     0.036 C 
HETATM    8  C16 UNL     1     -13.489   4.097  10.249  1.00  0.00     0.223 C 
HETATM    9  C17 UNL     1     -12.356   4.870   9.690  1.00  0.00     0.040 C 
HETATM   10  C18 UNL     1     -11.694   4.406   8.467  1.00  0.00    -0.009 C 
HETATM   11  C19 UNL     1     -10.750   3.269   8.731  1.00  0.00     0.009 C 
HETATM   12  C20 UNL     1     -12.628   3.982   7.366  1.00  0.00     0.044 C 
ENDROOT
BRANCH   1  13
HETATM   13  C9  UNL     1     -15.784   3.848  10.308  1.00  0.00     0.298 C 
BRANCH  13  14
HETATM   14  C8  UNL     1     -16.848   4.877  10.290  1.00  0.00     0.115 C 
HETATM   15  N1  UNL     1     -16.579   5.826  11.393  1.00  0.00    -0.346 N 
HETATM   16  C3  UNL     1     -15.867   7.025  11.222  1.00  0.00     0.219 C 
HETATM   17  C4  UNL     1     -17.084   5.477  12.703  1.00  0.00     0.126 C 
HETATM   18  O1  UNL     1     -15.680   7.777  12.206  1.00  0.00    -0.273 OA
HETATM   19  C5  UNL     1     -18.614   5.422  12.657  1.00  0.00     0.020 C 
HETATM   20  C6  UNL     1     -19.068   5.497  11.205  1.00  0.00     0.004 C 
HETATM   21  C7  UNL     1     -18.245   4.432  10.462  1.00  0.00     0.027 C 
BRANCH  16  22
HETATM   22  C2  UNL     1     -15.330   7.424   9.890  1.00  0.00     0.098 C 
HETATM   23  C1  UNL     1     -14.074   8.226  10.001  1.00  0.00     0.014 C 
ENDBRANCH  16  22
ENDBRANCH  13  14
ENDBRANCH   1  13
BRANCH   3  24
HETATM   24  O2  UNL     1     -13.792   2.222   6.422  1.00  0.00    -0.388 OA
ATOM     25  H2  UNL     1     -12.973   2.050   5.972  1.00  0.00     0.210 HD
ENDBRANCH   3  24
TORSDOF 4
ENDMDL
MODEL 4
REMARK VINA RESULT: -6.974165755      1.489      1.921
REMARK  4 active torsions:
REMARK  status: ('A' for Active; 'I' for Inactive)
REMARK    1  A    between atoms: C2_2  and  C3_3 
REMARK       I    between atoms: C3_3  and  N1_5 
REMARK    2  A    between atoms: C8_10  and  C9_11 
REMARK    3  A    between atoms: C9_11  and  N2_12 
REMARK    4  A    between atoms: C11_14  and  O2_15 
ROOT
HETATM    1  N2  UNL     1     -14.307   3.728   9.344  1.00  0.00     0.098 N 
HETATM    2  C10 UNL     1     -13.605   2.564   9.598  1.00  0.00     0.310 C 
HETATM    3  C11 UNL     1     -12.391   2.261   8.733  1.00  0.00     0.085 C 
HETATM    4  C12 UNL     1     -11.205   2.990   9.219  1.00  0.00     0.044 C 
HETATM    5  C13 UNL     1     -10.769   4.175   8.446  1.00  0.00    -0.011 C 
HETATM    6  C14 UNL     1     -11.251   5.488   8.977  1.00  0.00     0.007 C 
HETATM    7  C15 UNL     1     -12.601   5.482   9.575  1.00  0.00     0.036 C 
HETATM    8  C16 UNL     1     -13.683   4.858   8.742  1.00  0.00     0.223 C 
HETATM    9  C17 UNL     1     -13.418   4.799   7.286  1.00  0.00     0.040 C 
HETATM   10  C18 UNL     1     -12.511   3.779   6.753  1.00  0.00    -0.009 C 
HETATM   11  C19 UNL     1     -11.068   4.134   6.972  1.00  0.00     0.009 C 
HETATM   12  C20 UNL     1     -12.730   2.393   7.298  1.00  0.00     0.044 C 
ENDROOT
BRANCH   1  13
HETATM   13  C9  UNL     1     -15.069   4.175  10.459  1.00  0.00     0.298 C 
BRANCH  13  14
HETATM   14  C8  UNL     1     -16.212   5.092  10.257  1.00  0.00     0.115 C 
HETATM   15  N1  UNL     1     -16.262   6.016  11.411  1.00  0.00    -0.346 N 
HETATM   16  C3  UNL     1     -15.663   7.287  11.409  1.00  0.00     0.219 C 
HETATM   17  C4  UNL     1     -16.969   5.563  12.589  1.00  0.00     0.126 C 
HETATM   18  O1  UNL     1     -15.749   8.011  12.427  1.00  0.00    -0.273 OA
HETATM   19  C5  UNL     1     -18.448   5.357  12.244  1.00  0.00     0.020 C 
HETATM   20  C6  UNL     1     -18.619   5.448  10.734  1.00  0.00     0.004 C 
HETATM   21  C7  UNL     1     -17.561   4.503  10.143  1.00  0.00     0.027 C 
BRANCH  16  22
HETATM   22  C2  UNL     1     -14.925   7.793  10.217  1.00  0.00     0.098 C 
HETATM   23  C1  UNL     1     -13.804   8.709  10.588  1.00  0.00     0.014 C 
ENDBRANCH  16  22
ENDBRANCH  13  14
ENDBRANCH   1  13
BRANCH   3  24
HETATM   24  O2  UNL     1     -12.150   0.875   8.941  1.00  0.00    -0.388 OA
ATOM     25  H2  UNL     1     -12.799   0.619   9.587  1.00  0.00     0.210 HD
ENDBRANCH   3  24
TORSDOF 4
ENDMDL
MODEL 5
REMARK VINA RESULT: -6.973986410      1.447      2.453
REMARK  4 active torsions:
REMARK  status: ('A' for Active; 'I' for Inactive)
REMARK    1  A    between atoms: C2_2  and  C3_3 
REMARK       I    between atoms: C3_3  and  N1_5 
REMARK    2  A    between atoms: C8_10  and  C9_11 
REMARK    3  A    between atoms: C9_11  and  N2_12 
REMARK    4  A    between atoms: C11_14  and  O2_15 
ROOT
HETATM    1  N2  UNL     1     -15.190   4.377  10.134  1.00  0.00     0.098 N 
HETATM    2  C10 UNL     1     -15.093   5.508   9.344  1.00  0.00     0.310 C 
HETATM    3  C11 UNL     1     -13.762   5.790   8.663  1.00  0.00     0.085 C 
HETATM    4  C12 UNL     1     -13.633   5.006   7.421  1.00  0.00     0.044 C 
HETATM    5  C13 UNL     1     -12.739   3.827   7.449  1.00  0.00    -0.011 C 
HETATM    6  C14 UNL     1     -13.426   2.518   7.684  1.00  0.00     0.007 C 
HETATM    7  C15 UNL     1     -14.586   2.557   8.597  1.00  0.00     0.036 C 
HETATM    8  C16 UNL     1     -14.359   3.242   9.914  1.00  0.00     0.223 C 
HETATM    9  C17 UNL     1     -12.948   3.328  10.357  1.00  0.00     0.040 C 
HETATM   10  C18 UNL     1     -12.059   4.329   9.760  1.00  0.00    -0.009 C 
HETATM   11  C19 UNL     1     -11.576   3.916   8.399  1.00  0.00     0.009 C 
HETATM   12  C20 UNL     1     -12.651   5.707   9.638  1.00  0.00     0.044 C 
ENDROOT
BRANCH   1  13
HETATM   13  C9  UNL     1     -16.528   3.929  10.306  1.00  0.00     0.298 C 
BRANCH  13  14
HETATM   14  C8  UNL     1     -17.643   4.903  10.308  1.00  0.00     0.115 C 
HETATM   15  N1  UNL     1     -18.301   4.836  11.631  1.00  0.00    -0.346 N 
HETATM   16  C3  UNL     1     -17.981   5.696  12.696  1.00  0.00     0.219 C 
HETATM   17  C4  UNL     1     -19.322   3.827  11.811  1.00  0.00     0.126 C 
HETATM   18  O1  UNL     1     -18.583   5.576  13.788  1.00  0.00    -0.273 OA
HETATM   19  C5  UNL     1     -20.486   4.109  10.858  1.00  0.00     0.020 C 
HETATM   20  C6  UNL     1     -20.067   5.191   9.873  1.00  0.00     0.004 C 
HETATM   21  C7  UNL     1     -18.714   4.730   9.306  1.00  0.00     0.027 C 
BRANCH  16  22
HETATM   22  C2  UNL     1     -16.936   6.749  12.553  1.00  0.00     0.098 C 
HETATM   23  C1  UNL     1     -16.702   7.494  13.828  1.00  0.00     0.014 C 
ENDBRANCH  16  22
ENDBRANCH  13  14
ENDBRANCH   1  13
BRANCH   3  24
HETATM   24  O2  UNL     1     -13.842   7.161   8.292  1.00  0.00    -0.388 OA
ATOM     25  H2  UNL     1     -12.941   7.411   8.126  1.00  0.00     0.210 HD
ENDBRANCH   3  24
TORSDOF 4
ENDMDL
