MODEL 1
REMARK VINA RESULT: -7.478713303      0.000      0.000
REMARK  5 active torsions:
REMARK  status: ('A' for Active; 'I' for Inactive)
REMARK    1  A    between atoms: C2_2  and  C3_3 
REMARK       I    between atoms: C3_3  and  N1_5 
REMARK    2  A    between atoms: N1_5  and  C4_7 
REMARK    3  A    between atoms: C4_7  and  C5_8 
REMARK       I    between atoms: N2_12  and  C9_13 
REMARK    4  A    between atoms: C9_13  and  O3_15 
REMARK    5  A    between atoms: O3_15  and  C10_16 
ROOT
HETATM    1  C5  UNL     1     -18.547   4.653  11.746  1.00  0.00     0.107 C 
HETATM    2  C6  UNL     1     -19.837   3.992  11.338  1.00  0.00     0.029 C 
HETATM    3  C7  UNL     1     -19.466   3.222  10.099  1.00  0.00     0.022 C 
HETATM    4  C8  UNL     1     -18.378   4.118   9.507  1.00  0.00     0.129 C 
HETATM    5  N2  UNL     1     -17.593   4.393  10.696  1.00  0.00    -0.322 N 
HETATM    6  C9  UNL     1     -16.171   4.403  10.799  1.00  0.00     0.364 C 
HETATM    7  O2  UNL     1     -15.686   4.671  11.940  1.00  0.00    -0.238 OA
ENDROOT
BRANCH   6   8
HETATM    8  O3  UNL     1     -15.348   4.137   9.716  1.00  0.00    -0.292 OA
BRANCH   8   9
HETATM    9  C10 UNL     1     -13.946   4.170   9.938  1.00  0.00     0.082 A 
HETATM   10  C11 UNL     1     -13.397   2.930  10.501  1.00  0.00     0.044 C 
HETATM   11  C12 UNL     1     -12.972   2.093   9.276  1.00  0.00    -0.011 C 
HETATM   12  C13 UNL     1     -13.748   2.489   8.035  1.00  0.00     0.010 C 
HETATM   13  C17 UNL     1     -11.538   2.589   9.048  1.00  0.00     0.010 C 
HETATM   14  C14 UNL     1     -13.496   3.962   7.664  1.00  0.00    -0.002 C 
HETATM   15  C15 UNL     1     -12.042   4.004   7.165  1.00  0.00     0.011 C 
HETATM   16  C18 UNL     1     -13.033   4.626   8.845  1.00  0.00     0.002 A 
HETATM   17  C16 UNL     1     -11.703   4.025   8.671  1.00  0.00    -0.002 C 
HETATM   18  C19 UNL     1     -13.347   5.485   9.875  1.00  0.00     0.053 A 
ENDBRANCH   8   9
ENDBRANCH   6   8
BRANCH   1  19
HETATM   19  C4  UNL     1     -18.775   6.131  11.960  1.00  0.00     0.148 C 
BRANCH  19  20
HETATM   20  N1  UNL     1     -18.712   6.422  13.379  1.00  0.00    -0.359 N 
HETATM   21  C3  UNL     1     -17.594   7.150  13.894  1.00  0.00     0.217 C 
HETATM   22  O1  UNL     1     -16.677   7.532  13.114  1.00  0.00    -0.274 OA
ATOM     23  H1  UNL     1     -19.456   6.110  14.003  1.00  0.00     0.162 HD
BRANCH  21  24
HETATM   24  C2  UNL     1     -17.494   7.470  15.352  1.00  0.00     0.098 C 
HETATM   25  C1  UNL     1     -18.365   8.647  15.673  1.00  0.00     0.014 C 
ENDBRANCH  21  24
ENDBRANCH  19  20
ENDBRANCH   1  19
TORSDOF 5
ENDMDL
MODEL 2
REMARK VINA RESULT: -7.458725002      1.966      3.950
REMARK  5 active torsions:
REMARK  status: ('A' for Active; 'I' for Inactive)
REMARK    1  A    between atoms: C2_2  and  C3_3 
REMARK       I    between atoms: C3_3  and  N1_5 
REMARK    2  A    between atoms: N1_5  and  C4_7 
REMARK    3  A    between atoms: C4_7  and  C5_8 
REMARK       I    between atoms: N2_12  and  C9_13 
REMARK    4  A    between atoms: C9_13  and  O3_15 
REMARK    5  A    between atoms: O3_15  and  C10_16 
ROOT
HETATM    1  C5  UNL     1     -18.042   5.862  11.246  1.00  0.00     0.107 C 
HETATM    2  C6  UNL     1     -18.429   6.279  12.640  1.00  0.00     0.029 C 
HETATM    3  C7  UNL     1     -17.127   6.252  13.395  1.00  0.00     0.022 C 
HETATM    4  C8  UNL     1     -16.393   5.118  12.680  1.00  0.00     0.129 C 
HETATM    5  N2  UNL     1     -16.654   5.471  11.297  1.00  0.00    -0.322 N 
HETATM    6  C9  UNL     1     -15.726   5.435  10.215  1.00  0.00     0.364 C 
HETATM    7  O2  UNL     1     -16.166   5.786   9.078  1.00  0.00    -0.238 OA
ENDROOT
BRANCH   6   8
HETATM    8  O3  UNL     1     -14.408   5.039  10.382  1.00  0.00    -0.292 OA
BRANCH   8   9
HETATM    9  C10 UNL     1     -14.089   3.689  10.079  1.00  0.00     0.082 A 
HETATM   10  C11 UNL     1     -14.754   3.169   8.877  1.00  0.00     0.044 C 
HETATM   11  C12 UNL     1     -13.762   3.443   7.727  1.00  0.00    -0.011 C 
HETATM   12  C13 UNL     1     -12.827   4.590   8.059  1.00  0.00     0.010 C 
HETATM   13  C17 UNL     1     -12.897   2.176   7.759  1.00  0.00     0.010 C 
HETATM   14  C14 UNL     1     -11.975   4.275   9.301  1.00  0.00    -0.002 C 
HETATM   15  C15 UNL     1     -10.997   3.180   8.847  1.00  0.00     0.011 C 
HETATM   16  C18 UNL     1     -12.658   3.256  10.040  1.00  0.00     0.002 A 
HETATM   17  C16 UNL     1     -12.201   2.243   9.079  1.00  0.00    -0.002 C 
HETATM   18  C19 UNL     1     -13.431   2.962  11.142  1.00  0.00     0.053 A 
ENDBRANCH   8   9
ENDBRANCH   6   8
BRANCH   1  19
HETATM   19  C4  UNL     1     -18.937   4.739  10.780  1.00  0.00     0.148 C 
BRANCH  19  20
HETATM   20  N1  UNL     1     -20.110   5.299  10.138  1.00  0.00    -0.359 N 
HETATM   21  C3  UNL     1     -20.459   4.868   8.819  1.00  0.00     0.217 C 
HETATM   22  O1  UNL     1     -19.747   4.007   8.229  1.00  0.00    -0.274 OA
ATOM     23  H1  UNL     1     -20.680   5.994  10.620  1.00  0.00     0.162 HD
BRANCH  21  24
HETATM   24  C2  UNL     1     -21.660   5.423   8.124  1.00  0.00     0.098 C 
HETATM   25  C1  UNL     1     -21.228   6.349   7.027  1.00  0.00     0.014 C 
ENDBRANCH  21  24
ENDBRANCH  19  20
ENDBRANCH   1  19
TORSDOF 5
ENDMDL
MODEL 3
REMARK VINA RESULT: -7.398881577      2.137      4.132
REMARK  5 active torsions:
REMARK  status: ('A' for Active; 'I' for Inactive)
REMARK    1  A    between atoms: C2_2  and  C3_3 
REMARK       I    between atoms: C3_3  and  N1_5 
REMARK    2  A    between atoms: N1_5  and  C4_7 
REMARK    3  A    between atoms: C4_7  and  C5_8 
REMARK       I    between atoms: N2_12  and  C9_13 
REMARK    4  A    between atoms: C9_13  and  O3_15 
REMARK    5  A    between atoms: O3_15  and  C10_16 
ROOT
HETATM    1  C5  UNL     1     -18.420   5.750  11.853  1.00  0.00     0.107 C 
HETATM    2  C6  UNL     1     -18.669   6.082  13.301  1.00  0.00     0.029 C 
HETATM    3  C7  UNL     1     -17.334   6.577  13.788  1.00  0.00     0.022 C 
HETATM    4  C8  UNL     1     -16.379   5.748  12.930  1.00  0.00     0.129 C 
HETATM    5  N2  UNL     1     -17.003   5.896  11.628  1.00  0.00    -0.322 N 
HETATM    6  C9  UNL     1     -16.345   6.135  10.386  1.00  0.00     0.364 C 
HETATM    7  O2  UNL     1     -17.085   6.231   9.361  1.00  0.00    -0.238 OA
ENDROOT
BRANCH   6   8
HETATM    8  O3  UNL     1     -14.967   6.257  10.289  1.00  0.00    -0.292 OA
BRANCH   8   9
HETATM    9  C10 UNL     1     -14.275   5.267   9.543  1.00  0.00     0.082 A 
HETATM   10  C11 UNL     1     -14.544   5.304   8.099  1.00  0.00     0.044 C 
HETATM   11  C12 UNL     1     -13.442   6.215   7.516  1.00  0.00    -0.011 C 
HETATM   12  C13 UNL     1     -12.900   7.172   8.560  1.00  0.00     0.010 C 
HETATM   13  C17 UNL     1     -12.318   5.205   7.250  1.00  0.00     0.010 C 
HETATM   14  C14 UNL     1     -12.258   6.412   9.735  1.00  0.00    -0.002 C 
HETATM   15  C15 UNL     1     -10.972   5.798   9.158  1.00  0.00     0.011 C 
HETATM   16  C18 UNL     1     -12.803   5.088   9.736  1.00  0.00     0.002 A 
HETATM   17  C16 UNL     1     -11.933   4.721   8.610  1.00  0.00    -0.002 C 
HETATM   18  C19 UNL     1     -13.682   4.210  10.332  1.00  0.00     0.053 A 
ENDBRANCH   8   9
ENDBRANCH   6   8
BRANCH   1  19
HETATM   19  C4  UNL     1     -18.907   4.352  11.557  1.00  0.00     0.148 C 
BRANCH  19  20
HETATM   20  N1  UNL     1     -19.112   4.211  10.128  1.00  0.00    -0.359 N 
HETATM   21  C3  UNL     1     -20.297   4.749   9.536  1.00  0.00     0.217 C 
HETATM   22  O1  UNL     1     -21.151   5.338  10.257  1.00  0.00    -0.274 OA
ATOM     23  H1  UNL     1     -18.419   3.734   9.552  1.00  0.00     0.162 HD
BRANCH  21  24
HETATM   24  C2  UNL     1     -20.544   4.624   8.066  1.00  0.00     0.098 C 
HETATM   25  C1  UNL     1     -21.294   5.826   7.575  1.00  0.00     0.014 C 
ENDBRANCH  21  24
ENDBRANCH  19  20
ENDBRANCH   1  19
TORSDOF 5
ENDMDL
MODEL 4
REMARK VINA RESULT: -7.303344911      2.007      4.060
REMARK  5 active torsions:
REMARK  status: ('A' for Active; 'I' for Inactive)
REMARK    1  A    between atoms: C2_2  and  C3_3 
REMARK       I    between atoms: C3_3  and  N1_5 
REMARK    2  A    between atoms: N1_5  and  C4_7 
REMARK    3  A    between atoms: C4_7  and  C5_8 
REMARK       I    between atoms: N2_12  and  C9_13 
REMARK    4  A    between atoms: C9_13  and  O3_15 
REMARK    5  A    between atoms: O3_15  and  C10_16 
ROOT
HETATM    1  C5  UNL     1     -18.579   5.972  11.922  1.00  0.00     0.107 C 
HETATM    2  C6  UNL     1     -18.250   6.525  13.283  1.00  0.00     0.029 C 
HETATM    3  C7  UNL     1     -16.749   6.438  13.351  1.00  0.00     0.022 C 
HETATM    4  C8  UNL     1     -16.487   5.192  12.505  1.00  0.00     0.129 C 
HETATM    5  N2  UNL     1     -17.348   5.462  11.369  1.00  0.00    -0.322 N 
HETATM    6  C9  UNL     1     -17.037   5.262   9.993  1.00  0.00     0.364 C 
HETATM    7  O2  UNL     1     -17.940   5.565   9.156  1.00  0.00    -0.238 OA
ENDROOT
BRANCH   6   8
HETATM    8  O3  UNL     1     -15.813   4.761   9.575  1.00  0.00    -0.292 OA
BRANCH   8   9
HETATM    9  C10 UNL     1     -14.665   5.563   9.811  1.00  0.00     0.082 A 
HETATM   10  C11 UNL     1     -13.541   4.840  10.420  1.00  0.00     0.044 C 
HETATM   11  C12 UNL     1     -12.695   4.349   9.225  1.00  0.00    -0.011 C 
HETATM   12  C13 UNL     1     -13.528   4.228   7.964  1.00  0.00     0.010 C 
HETATM   13  C17 UNL     1     -11.762   5.545   8.998  1.00  0.00     0.010 C 
HETATM   14  C14 UNL     1     -14.115   5.589   7.549  1.00  0.00    -0.002 C 
HETATM   15  C15 UNL     1     -12.910   6.412   7.065  1.00  0.00     0.011 C 
HETATM   16  C18 UNL     1     -14.123   6.423   8.714  1.00  0.00     0.002 A 
HETATM   17  C16 UNL     1     -12.678   6.647   8.574  1.00  0.00    -0.002 C 
HETATM   18  C19 UNL     1     -14.884   6.989   9.713  1.00  0.00     0.053 A 
ENDBRANCH   8   9
ENDBRANCH   6   8
BRANCH   1  19
HETATM   19  C4  UNL     1     -19.638   4.903  12.046  1.00  0.00     0.148 C 
BRANCH  19  20
HETATM   20  N1  UNL     1     -19.688   4.136  10.816  1.00  0.00    -0.359 N 
HETATM   21  C3  UNL     1     -20.373   2.880  10.802  1.00  0.00     0.217 C 
HETATM   22  O1  UNL     1     -20.926   2.453  11.854  1.00  0.00    -0.274 OA
ATOM     23  H1  UNL     1     -19.239   4.488   9.971  1.00  0.00     0.162 HD
BRANCH  21  24
HETATM   24  C2  UNL     1     -20.445   2.061   9.553  1.00  0.00     0.098 C 
HETATM   25  C1  UNL     1     -21.038   0.719   9.862  1.00  0.00     0.014 C 
ENDBRANCH  21  24
ENDBRANCH  19  20
ENDBRANCH   1  19
TORSDOF 5
ENDMDL
MODEL 5
REMARK VINA RESULT: -7.185259340      1.867      4.088
REMARK  5 active torsions:
REMARK  status: ('A' for Active; 'I' for Inactive)
REMARK    1  A    between atoms: C2_2  and  C3_3 
REMARK       I    between atoms: C3_3  and  N1_5 
REMARK    2  A    between atoms: N1_5  and  C4_7 
REMARK    3  A    between atoms: C4_7  and  C5_8 
REMARK       I    between atoms: N2_12  and  C9_13 
REMARK    4  A    between atoms: C9_13  and  O3_15 
REMARK    5  A    between atoms: O3_15  and  C10_16 
ROOT
HETATM    1  C5  UNL     1     -18.560   5.396  11.919  1.00  0.00     0.107 C 
HETATM    2  C6  UNL     1     -18.654   6.268  13.144  1.00  0.00     0.029 C 
HETATM    3  C7  UNL     1     -17.256   6.799  13.312  1.00  0.00     0.022 C 
HETATM    4  C8  UNL     1     -16.429   5.631  12.774  1.00  0.00     0.129 C 
HETATM    5  N2  UNL     1     -17.165   5.329  11.561  1.00  0.00    -0.322 N 
HETATM    6  C9  UNL     1     -16.615   5.027  10.280  1.00  0.00     0.364 C 
HETATM    7  O2  UNL     1     -17.443   4.791   9.348  1.00  0.00    -0.238 OA
ENDROOT
BRANCH   6   8
HETATM    8  O3  UNL     1     -15.249   4.989  10.050  1.00  0.00    -0.292 OA
BRANCH   8   9
HETATM    9  C10 UNL     1     -14.608   3.724  10.126  1.00  0.00     0.082 A 
HETATM   10  C11 UNL     1     -15.041   2.769   9.098  1.00  0.00     0.044 C 
HETATM   11  C12 UNL     1     -14.049   2.967   7.932  1.00  0.00    -0.011 C 
HETATM   12  C13 UNL     1     -13.428   4.351   7.958  1.00  0.00     0.010 C 
HETATM   13  C17 UNL     1     -12.924   1.997   8.317  1.00  0.00     0.010 C 
HETATM   14  C14 UNL     1     -12.628   4.581   9.253  1.00  0.00    -0.002 C 
HETATM   15  C15 UNL     1     -11.394   3.673   9.125  1.00  0.00     0.011 C 
HETATM   16  C18 UNL     1     -13.118   3.653  10.227  1.00  0.00     0.002 A 
HETATM   17  C16 UNL     1     -12.369   2.566   9.582  1.00  0.00    -0.002 C 
HETATM   18  C19 UNL     1     -13.889   3.476  11.356  1.00  0.00     0.053 A 
ENDBRANCH   8   9
ENDBRANCH   6   8
BRANCH   1  19
HETATM   19  C4  UNL     1     -19.143   4.034  12.214  1.00  0.00     0.148 C 
BRANCH  19  20
HETATM   20  N1  UNL     1     -19.498   3.388  10.966  1.00  0.00    -0.359 N 
HETATM   21  C3  UNL     1     -20.590   2.464  10.943  1.00  0.00     0.217 C 
HETATM   22  O1  UNL     1     -21.231   2.221  12.004  1.00  0.00    -0.274 OA
ATOM     23  H1  UNL     1     -18.975   3.589  10.114  1.00  0.00     0.162 HD
BRANCH  21  24
HETATM   24  C2  UNL     1     -20.986   1.778   9.675  1.00  0.00     0.098 C 
HETATM   25  C1  UNL     1     -20.586   0.334   9.735  1.00  0.00     0.014 C 
ENDBRANCH  21  24
ENDBRANCH  19  20
ENDBRANCH   1  19
TORSDOF 5
ENDMDL
