MODEL 1
REMARK VINA RESULT: -6.581402094      0.000      0.000
REMARK  5 active torsions:
REMARK  status: ('A' for Active; 'I' for Inactive)
REMARK    1  A    between atoms: C2_2  and  C3_3 
REMARK    2  A    between atoms: C3_3  and  C5_5 
REMARK    3  A    between atoms: C5_5  and  C6_6 
REMARK    4  A    between atoms: C6_6  and  C7_7 
REMARK    5  A    between atoms: C18_20  and  C19_21 
ROOT
HETATM    1  C7  UNL     1     -14.851   5.628  10.329  1.00  0.00    -0.065 C 
HETATM    2  C8  UNL     1     -15.198   7.011  10.044  1.00  0.00     0.036 C 
HETATM    3  C9  UNL     1     -14.125   8.058  10.361  1.00  0.00     0.014 C 
HETATM    4  C10 UNL     1     -14.178   9.146   9.309  1.00  0.00     0.074 C 
HETATM    5  S1  UNL     1     -12.515   9.572   8.730  1.00  0.00    -0.164 SA
HETATM    6  C11 UNL     1     -12.142   8.968   7.089  1.00  0.00     0.118 C 
HETATM    7  C12 UNL     1     -11.045   7.951   7.029  1.00  0.00     0.078 C 
HETATM    8  N1  UNL     1     -11.318   6.639   7.384  1.00  0.00    -0.353 N 
HETATM    9  C13 UNL     1     -11.046   6.193   8.691  1.00  0.00     0.068 C 
HETATM   10  C14 UNL     1     -11.908   5.077   9.205  1.00  0.00     0.051 C 
HETATM   11  C15 UNL     1     -13.182   4.822   8.528  1.00  0.00     0.013 C 
HETATM   12  C16 UNL     1     -13.458   5.661   7.278  1.00  0.00     0.051 C 
HETATM   13  C17 UNL     1     -12.131   5.836   6.567  1.00  0.00     0.068 C 
HETATM   14  C18 UNL     1     -14.421   4.665   9.318  1.00  0.00     0.120 C 
ENDROOT
BRANCH   1  15
HETATM   15  C6  UNL     1     -15.734   4.952  11.278  1.00  0.00     0.004 C 
BRANCH  15  16
HETATM   16  C5  UNL     1     -16.804   5.065  11.926  1.00  0.00     0.007 C 
BRANCH  16  17
HETATM   17  C3  UNL     1     -18.223   5.129  11.956  1.00  0.00    -0.063 C 
HETATM   18  C4  UNL     1     -18.715   4.672  13.204  1.00  0.00     0.048 C 
BRANCH  17  19
HETATM   19  C2  UNL     1     -19.294   5.452  11.113  1.00  0.00    -0.004 C 
HETATM   20  C1  UNL     1     -19.640   5.142   9.923  1.00  0.00     0.012 C 
ENDBRANCH  17  19
ENDBRANCH  16  17
ENDBRANCH  15  16
ENDBRANCH   1  15
BRANCH  14  21
HETATM   21  C19 UNL     1     -14.439   3.294   9.894  1.00  0.00     0.181 C 
HETATM   22  O1  UNL     1     -15.136   2.429   9.287  1.00  0.00    -0.647 OA
HETATM   23  O2  UNL     1     -13.729   2.977  11.041  1.00  0.00    -0.647 OA
ENDBRANCH  14  21
TORSDOF 5
ENDMDL
MODEL 2
REMARK VINA RESULT: -6.560900432      0.935      1.425
REMARK  5 active torsions:
REMARK  status: ('A' for Active; 'I' for Inactive)
REMARK    1  A    between atoms: C2_2  and  C3_3 
REMARK    2  A    between atoms: C3_3  and  C5_5 
REMARK    3  A    between atoms: C5_5  and  C6_6 
REMARK    4  A    between atoms: C6_6  and  C7_7 
REMARK    5  A    between atoms: C18_20  and  C19_21 
ROOT
HETATM    1  C7  UNL     1     -14.888   5.610  10.335  1.00  0.00    -0.065 C 
HETATM    2  C8  UNL     1     -15.229   6.996  10.054  1.00  0.00     0.036 C 
HETATM    3  C9  UNL     1     -14.164   8.040  10.400  1.00  0.00     0.014 C 
HETATM    4  C10 UNL     1     -14.197   9.137   9.356  1.00  0.00     0.074 C 
HETATM    5  S1  UNL     1     -12.524   9.569   8.813  1.00  0.00    -0.164 SA
HETATM    6  C11 UNL     1     -12.117   8.977   7.175  1.00  0.00     0.118 C 
HETATM    7  C12 UNL     1     -11.019   7.961   7.129  1.00  0.00     0.078 C 
HETATM    8  N1  UNL     1     -11.298   6.646   7.468  1.00  0.00    -0.353 N 
HETATM    9  C13 UNL     1     -11.052   6.190   8.777  1.00  0.00     0.068 C 
HETATM   10  C14 UNL     1     -11.922   5.070   9.265  1.00  0.00     0.051 C 
HETATM   11  C15 UNL     1     -13.183   4.820   8.561  1.00  0.00     0.013 C 
HETATM   12  C16 UNL     1     -13.435   5.668   7.313  1.00  0.00     0.051 C 
HETATM   13  C17 UNL     1     -12.094   5.849   6.629  1.00  0.00     0.068 C 
HETATM   14  C18 UNL     1     -14.436   4.656   9.326  1.00  0.00     0.120 C 
ENDROOT
BRANCH   1  15
HETATM   15  C6  UNL     1     -15.788   4.926  11.261  1.00  0.00     0.004 C 
BRANCH  15  16
HETATM   16  C5  UNL     1     -16.809   5.073  11.978  1.00  0.00     0.007 C 
BRANCH  16  17
HETATM   17  C3  UNL     1     -17.755   5.923  12.612  1.00  0.00    -0.063 C 
HETATM   18  C4  UNL     1     -19.028   5.790  12.005  1.00  0.00     0.048 C 
BRANCH  17  19
HETATM   19  C2  UNL     1     -17.808   6.897  13.618  1.00  0.00    -0.004 C 
HETATM   20  C1  UNL     1     -16.948   7.599  14.250  1.00  0.00     0.012 C 
ENDBRANCH  17  19
ENDBRANCH  16  17
ENDBRANCH  15  16
ENDBRANCH   1  15
BRANCH  14  21
HETATM   21  C19 UNL     1     -14.465   3.281   9.890  1.00  0.00     0.181 C 
HETATM   22  O1  UNL     1     -15.181   2.429   9.286  1.00  0.00    -0.647 OA
HETATM   23  O2  UNL     1     -13.744   2.945  11.025  1.00  0.00    -0.647 OA
ENDBRANCH  14  21
TORSDOF 5
ENDMDL
MODEL 3
REMARK VINA RESULT: -6.523620851      2.673      3.774
REMARK  5 active torsions:
REMARK  status: ('A' for Active; 'I' for Inactive)
REMARK    1  A    between atoms: C2_2  and  C3_3 
REMARK    2  A    between atoms: C3_3  and  C5_5 
REMARK    3  A    between atoms: C5_5  and  C6_6 
REMARK    4  A    between atoms: C6_6  and  C7_7 
REMARK    5  A    between atoms: C18_20  and  C19_21 
ROOT
HETATM    1  C7  UNL     1     -14.741   6.204  10.266  1.00  0.00    -0.065 C 
HETATM    2  C8  UNL     1     -14.630   4.759  10.388  1.00  0.00     0.036 C 
HETATM    3  C9  UNL     1     -14.872   3.950   9.109  1.00  0.00     0.014 C 
HETATM    4  C10 UNL     1     -13.937   2.759   9.101  1.00  0.00     0.074 C 
HETATM    5  S1  UNL     1     -13.154   2.557   7.480  1.00  0.00    -0.164 SA
HETATM    6  C11 UNL     1     -11.430   3.031   7.443  1.00  0.00     0.118 C 
HETATM    7  C12 UNL     1     -11.121   4.205   6.569  1.00  0.00     0.078 C 
HETATM    8  N1  UNL     1     -11.398   5.483   7.027  1.00  0.00    -0.353 N 
HETATM    9  C13 UNL     1     -12.607   6.111   6.671  1.00  0.00     0.068 C 
HETATM   10  C14 UNL     1     -13.147   7.116   7.647  1.00  0.00     0.051 C 
HETATM   11  C15 UNL     1     -12.648   7.075   9.024  1.00  0.00     0.013 C 
HETATM   12  C16 UNL     1     -11.530   6.069   9.305  1.00  0.00     0.051 C 
HETATM   13  C17 UNL     1     -10.646   6.043   8.074  1.00  0.00     0.068 C 
HETATM   14  C18 UNL     1     -13.599   7.108  10.155  1.00  0.00     0.120 C 
ENDROOT
BRANCH   1  15
HETATM   15  C6  UNL     1     -15.749   6.822  11.124  1.00  0.00     0.004 C 
BRANCH  15  16
HETATM   16  C5  UNL     1     -16.832   6.618  11.727  1.00  0.00     0.007 C 
BRANCH  16  17
HETATM   17  C3  UNL     1     -18.102   5.984  11.794  1.00  0.00    -0.063 C 
HETATM   18  C4  UNL     1     -18.472   5.752  13.142  1.00  0.00     0.048 C 
BRANCH  17  19
HETATM   19  C2  UNL     1     -19.082   5.465  10.937  1.00  0.00    -0.004 C 
HETATM   20  C1  UNL     1     -19.117   5.100   9.714  1.00  0.00     0.012 C 
ENDBRANCH  17  19
ENDBRANCH  16  17
ENDBRANCH  15  16
ENDBRANCH   1  15
BRANCH  14  21
HETATM   21  C19 UNL     1     -14.051   8.511  10.347  1.00  0.00     0.181 C 
HETATM   22  O1  UNL     1     -14.671   9.048   9.382  1.00  0.00    -0.647 OA
HETATM   23  O2  UNL     1     -13.806   9.200  11.524  1.00  0.00    -0.647 OA
ENDBRANCH  14  21
TORSDOF 5
ENDMDL
MODEL 4
REMARK VINA RESULT: -6.510749155      1.398      1.713
REMARK  5 active torsions:
REMARK  status: ('A' for Active; 'I' for Inactive)
REMARK    1  A    between atoms: C2_2  and  C3_3 
REMARK    2  A    between atoms: C3_3  and  C5_5 
REMARK    3  A    between atoms: C5_5  and  C6_6 
REMARK    4  A    between atoms: C6_6  and  C7_7 
REMARK    5  A    between atoms: C18_20  and  C19_21 
ROOT
HETATM    1  C7  UNL     1     -15.105   6.732  10.197  1.00  0.00    -0.065 C 
HETATM    2  C8  UNL     1     -14.796   8.085   9.760  1.00  0.00     0.036 C 
HETATM    3  C9  UNL     1     -13.393   8.601  10.094  1.00  0.00     0.014 C 
HETATM    4  C10 UNL     1     -12.907   9.469   8.952  1.00  0.00     0.074 C 
HETATM    5  S1  UNL     1     -11.197   9.068   8.512  1.00  0.00    -0.164 SA
HETATM    6  C11 UNL     1     -11.035   8.166   6.976  1.00  0.00     0.118 C 
HETATM    7  C12 UNL     1     -10.492   6.779   7.118  1.00  0.00     0.078 C 
HETATM    8  N1  UNL     1     -11.330   5.764   7.554  1.00  0.00    -0.353 N 
HETATM    9  C13 UNL     1     -11.352   5.408   8.916  1.00  0.00     0.068 C 
HETATM   10  C14 UNL     1     -12.642   4.841   9.433  1.00  0.00     0.051 C 
HETATM   11  C15 UNL     1     -13.860   5.076   8.653  1.00  0.00     0.013 C 
HETATM   12  C16 UNL     1     -13.673   5.792   7.314  1.00  0.00     0.051 C 
HETATM   13  C17 UNL     1     -12.366   5.293   6.731  1.00  0.00     0.068 C 
HETATM   14  C18 UNL     1     -15.084   5.562   9.323  1.00  0.00     0.120 C 
ENDROOT
BRANCH   1  15
HETATM   15  C6  UNL     1     -16.246   6.621  11.105  1.00  0.00     0.004 C 
BRANCH  15  16
HETATM   16  C5  UNL     1     -16.614   6.781  12.295  1.00  0.00     0.007 C 
BRANCH  16  17
HETATM   17  C3  UNL     1     -17.535   6.514  13.344  1.00  0.00    -0.063 C 
HETATM   18  C4  UNL     1     -17.351   7.428  14.411  1.00  0.00     0.048 C 
BRANCH  17  19
HETATM   19  C2  UNL     1     -18.535   5.591  13.676  1.00  0.00    -0.004 C 
HETATM   20  C1  UNL     1     -18.944   4.481  13.194  1.00  0.00     0.012 C 
ENDBRANCH  17  19
ENDBRANCH  16  17
ENDBRANCH  15  16
ENDBRANCH   1  15
BRANCH  14  21
HETATM   21  C19 UNL     1     -15.731   4.413  10.010  1.00  0.00     0.181 C 
HETATM   22  O1  UNL     1     -16.959   4.221   9.769  1.00  0.00    -0.647 OA
HETATM   23  O2  UNL     1     -15.026   3.591  10.874  1.00  0.00    -0.647 OA
ENDBRANCH  14  21
TORSDOF 5
ENDMDL
MODEL 5
REMARK VINA RESULT: -6.465852219      2.683      3.934
REMARK  5 active torsions:
REMARK  status: ('A' for Active; 'I' for Inactive)
REMARK    1  A    between atoms: C2_2  and  C3_3 
REMARK    2  A    between atoms: C3_3  and  C5_5 
REMARK    3  A    between atoms: C5_5  and  C6_6 
REMARK    4  A    between atoms: C6_6  and  C7_7 
REMARK    5  A    between atoms: C18_20  and  C19_21 
ROOT
HETATM    1  C7  UNL     1     -14.429   6.472  10.013  1.00  0.00    -0.065 C 
HETATM    2  C8  UNL     1     -14.241   5.030  10.020  1.00  0.00     0.036 C 
HETATM    3  C9  UNL     1     -14.305   4.332   8.658  1.00  0.00     0.014 C 
HETATM    4  C10 UNL     1     -13.300   3.199   8.642  1.00  0.00     0.074 C 
HETATM    5  S1  UNL     1     -12.353   3.192   7.098  1.00  0.00    -0.164 SA
HETATM    6  C11 UNL     1     -10.667   3.759   7.280  1.00  0.00     0.118 C 
HETATM    7  C12 UNL     1     -10.348   5.025   6.547  1.00  0.00     0.078 C 
HETATM    8  N1  UNL     1     -10.749   6.238   7.085  1.00  0.00    -0.353 N 
HETATM    9  C13 UNL     1     -11.955   6.829   6.663  1.00  0.00     0.068 C 
HETATM   10  C14 UNL     1     -12.649   7.708   7.662  1.00  0.00     0.051 C 
HETATM   11  C15 UNL     1     -12.285   7.567   9.074  1.00  0.00     0.013 C 
HETATM   12  C16 UNL     1     -11.139   6.601   9.379  1.00  0.00     0.051 C 
HETATM   13  C17 UNL     1     -10.139   6.737   8.248  1.00  0.00     0.068 C 
HETATM   14  C18 UNL     1     -13.341   7.443  10.100  1.00  0.00     0.120 C 
ENDROOT
BRANCH   1  15
HETATM   15  C6  UNL     1     -15.554   6.953  10.815  1.00  0.00     0.004 C 
BRANCH  15  16
HETATM   16  C5  UNL     1     -16.639   6.612  11.348  1.00  0.00     0.007 C 
BRANCH  16  17
HETATM   17  C3  UNL     1     -17.853   5.874  11.304  1.00  0.00    -0.063 C 
HETATM   18  C4  UNL     1     -18.116   5.429   9.984  1.00  0.00     0.048 C 
BRANCH  17  19
HETATM   19  C2  UNL     1     -18.903   5.496  12.150  1.00  0.00    -0.004 C 
HETATM   20  C1  UNL     1     -19.013   4.757  13.186  1.00  0.00     0.012 C 
ENDBRANCH  17  19
ENDBRANCH  16  17
ENDBRANCH  15  16
ENDBRANCH   1  15
BRANCH  14  21
HETATM   21  C19 UNL     1     -13.898   8.795  10.366  1.00  0.00     0.181 C 
HETATM   22  O1  UNL     1     -13.758   9.250  11.540  1.00  0.00    -0.647 OA
HETATM   23  O2  UNL     1     -14.540   9.525   9.379  1.00  0.00    -0.647 OA
ENDBRANCH  14  21
TORSDOF 5
ENDMDL
