MODEL 1
REMARK VINA RESULT: -6.698434535      0.000      0.000
REMARK  4 active torsions:
REMARK  status: ('A' for Active; 'I' for Inactive)
REMARK    1  A    between atoms: C2_2  and  N1_4 
REMARK    2  A    between atoms: N1_4  and  C4_6 
REMARK    3  A    between atoms: N2_16  and  C14_17 
REMARK    4  A    between atoms: C14_17  and  C15_18 
ROOT
HETATM    1  C4  UNL     1     -13.282   5.016   8.349  1.00  0.00     0.099 C 
HETATM    2  C5  UNL     1     -13.374   5.805   7.057  1.00  0.00     0.027 C 
HETATM    3  C6  UNL     1     -12.187   6.730   6.894  1.00  0.00     0.002 C 
HETATM    4  C7  UNL     1     -12.602   8.084   7.344  1.00  0.00     0.007 C 
HETATM    5  C8  UNL     1     -12.564   8.354   8.794  1.00  0.00     0.016 C 
HETATM    6  C9  UNL     1     -11.604   7.569   9.614  1.00  0.00     0.016 C 
HETATM    7  C10 UNL     1     -11.346   8.397  10.836  1.00  0.00    -0.025 C 
HETATM    8  C11 UNL     1     -12.424   8.960  11.367  1.00  0.00    -0.028 C 
HETATM    9  C12 UNL     1     -13.794   8.826  10.853  1.00  0.00     0.052 C 
HETATM   10  C13 UNL     1     -13.922   8.268   9.472  1.00  0.00     0.092 C 
HETATM   11  N2  UNL     1     -14.411   6.966   9.366  1.00  0.00    -0.379 N 
HETATM   12  C20 UNL     1     -13.478   5.890   9.556  1.00  0.00     0.106 C 
HETATM   13  C21 UNL     1     -12.155   6.258  10.110  1.00  0.00     0.036 C 
ENDROOT
BRANCH  11  14
HETATM   14  C14 UNL     1     -15.737   6.664   9.735  1.00  0.00     0.091 C 
BRANCH  14  15
HETATM   15  C15 UNL     1     -15.939   5.708  10.876  1.00  0.00     0.159 C 
HETATM   16  C16 UNL     1     -16.673   6.400  12.013  1.00  0.00     0.037 C 
HETATM   17  C17 UNL     1     -17.778   5.527  12.508  1.00  0.00     0.005 C 
HETATM   18  C18 UNL     1     -18.635   5.134  11.312  1.00  0.00     0.026 C 
HETATM   19  C19 UNL     1     -17.771   4.355  10.365  1.00  0.00     0.168 C 
HETATM   20  O1  UNL     1     -16.424   4.476  10.555  1.00  0.00    -0.381 OA
ENDBRANCH  14  15
ENDBRANCH  11  14
BRANCH   1  21
HETATM   21  N1  UNL     1     -14.169   3.911   8.236  1.00  0.00    -0.412 N 
ATOM     22  H1  UNL     1     -15.116   4.029   7.875  1.00  0.00     0.154 HD
BRANCH  21  23
HETATM   23  C2  UNL     1     -13.691   2.637   8.641  1.00  0.00     0.068 C 
HETATM   24  C1  UNL     1     -12.323   2.451   7.971  1.00  0.00     0.031 C 
HETATM   25  C3  UNL     1     -13.501   2.451  10.110  1.00  0.00     0.031 C 
ENDBRANCH  21  23
ENDBRANCH   1  21
TORSDOF 4
ENDMDL
MODEL 2
REMARK VINA RESULT: -6.254543890      2.770      6.698
REMARK  4 active torsions:
REMARK  status: ('A' for Active; 'I' for Inactive)
REMARK    1  A    between atoms: C2_2  and  N1_4 
REMARK    2  A    between atoms: N1_4  and  C4_6 
REMARK    3  A    between atoms: N2_16  and  C14_17 
REMARK    4  A    between atoms: C14_17  and  C15_18 
ROOT
HETATM    1  C4  UNL     1     -19.747   4.744   9.979  1.00  0.00     0.099 C 
HETATM    2  C5  UNL     1     -19.836   3.339  10.544  1.00  0.00     0.027 C 
HETATM    3  C6  UNL     1     -20.270   3.359  11.995  1.00  0.00     0.002 C 
HETATM    4  C7  UNL     1     -19.048   3.245  12.834  1.00  0.00     0.007 C 
HETATM    5  C8  UNL     1     -18.284   4.483  13.086  1.00  0.00     0.016 C 
HETATM    6  C9  UNL     1     -19.028   5.769  13.039  1.00  0.00     0.016 C 
HETATM    7  C10 UNL     1     -18.227   6.727  13.867  1.00  0.00    -0.025 C 
HETATM    8  C11 UNL     1     -16.915   6.669  13.677  1.00  0.00    -0.028 C 
HETATM    9  C12 UNL     1     -16.231   5.763  12.744  1.00  0.00     0.052 C 
HETATM   10  C13 UNL     1     -17.052   4.635  12.209  1.00  0.00     0.092 C 
HETATM   11  N2  UNL     1     -17.442   4.723  10.873  1.00  0.00    -0.379 N 
HETATM   12  C20 UNL     1     -18.602   5.516  10.571  1.00  0.00     0.106 C 
HETATM   13  C21 UNL     1     -19.109   6.378  11.664  1.00  0.00     0.036 C 
ENDROOT
BRANCH  11  14
HETATM   14  C14 UNL     1     -16.486   4.669   9.839  1.00  0.00     0.091 C 
BRANCH  14  15
HETATM   15  C15 UNL     1     -15.090   4.254  10.207  1.00  0.00     0.159 C 
HETATM   16  C16 UNL     1     -14.839   2.821   9.768  1.00  0.00     0.037 C 
HETATM   17  C17 UNL     1     -13.521   2.727   9.073  1.00  0.00     0.005 C 
HETATM   18  C18 UNL     1     -13.504   3.769   7.962  1.00  0.00     0.026 C 
HETATM   19  C19 UNL     1     -13.636   5.120   8.598  1.00  0.00     0.168 C 
HETATM   20  O1  UNL     1     -14.095   5.128   9.885  1.00  0.00    -0.381 OA
ENDBRANCH  14  15
ENDBRANCH  11  14
BRANCH   1  21
HETATM   21  N1  UNL     1     -19.749   4.632   8.562  1.00  0.00    -0.412 N 
ATOM     22  H1  UNL     1     -18.933   4.285   8.059  1.00  0.00     0.154 HD
BRANCH  21  23
HETATM   23  C2  UNL     1     -20.927   5.019   7.872  1.00  0.00     0.068 C 
HETATM   24  C1  UNL     1     -22.022   5.183   8.934  1.00  0.00     0.031 C 
HETATM   25  C3  UNL     1     -20.844   6.302   7.112  1.00  0.00     0.031 C 
ENDBRANCH  21  23
ENDBRANCH   1  21
TORSDOF 4
ENDMDL
MODEL 3
REMARK VINA RESULT: -6.040095860      1.216      1.643
REMARK  4 active torsions:
REMARK  status: ('A' for Active; 'I' for Inactive)
REMARK    1  A    between atoms: C2_2  and  N1_4 
REMARK    2  A    between atoms: N1_4  and  C4_6 
REMARK    3  A    between atoms: N2_16  and  C14_17 
REMARK    4  A    between atoms: C14_17  and  C15_18 
ROOT
HETATM    1  C4  UNL     1     -12.749   5.157   7.470  1.00  0.00     0.099 C 
HETATM    2  C5  UNL     1     -13.399   6.243   6.634  1.00  0.00     0.027 C 
HETATM    3  C6  UNL     1     -12.411   7.339   6.296  1.00  0.00     0.002 C 
HETATM    4  C7  UNL     1     -12.617   8.447   7.265  1.00  0.00     0.007 C 
HETATM    5  C8  UNL     1     -11.966   8.320   8.584  1.00  0.00     0.016 C 
HETATM    6  C9  UNL     1     -10.735   7.490   8.664  1.00  0.00     0.016 C 
HETATM    7  C10 UNL     1      -9.992   7.988   9.867  1.00  0.00    -0.025 C 
HETATM    8  C11 UNL     1     -10.748   8.225  10.932  1.00  0.00    -0.028 C 
HETATM    9  C12 UNL     1     -12.204   8.036  11.000  1.00  0.00     0.052 C 
HETATM   10  C13 UNL     1     -12.901   7.858   9.690  1.00  0.00     0.092 C 
HETATM   11  N2  UNL     1     -13.367   6.576   9.398  1.00  0.00    -0.379 N 
HETATM   12  C20 UNL     1     -12.425   5.635   8.857  1.00  0.00     0.106 C 
HETATM   13  C21 UNL     1     -10.998   6.029   8.915  1.00  0.00     0.036 C 
ENDROOT
BRANCH  11  14
HETATM   14  C14 UNL     1     -14.402   5.997  10.159  1.00  0.00     0.091 C 
BRANCH  14  15
HETATM   15  C15 UNL     1     -15.733   6.691  10.162  1.00  0.00     0.159 C 
HETATM   16  C16 UNL     1     -16.807   5.763   9.617  1.00  0.00     0.037 C 
HETATM   17  C17 UNL     1     -18.005   5.798  10.507  1.00  0.00     0.005 C 
HETATM   18  C18 UNL     1     -17.541   5.506  11.927  1.00  0.00     0.026 C 
HETATM   19  C19 UNL     1     -16.590   6.592  12.332  1.00  0.00     0.168 C 
HETATM   20  O1  UNL     1     -16.074   7.340  11.311  1.00  0.00    -0.381 OA
ENDBRANCH  14  15
ENDBRANCH  11  14
BRANCH   1  21
HETATM   21  N1  UNL     1     -13.581   4.007   7.392  1.00  0.00    -0.412 N 
ATOM     22  H1  UNL     1     -14.598   4.090   7.384  1.00  0.00     0.154 HD
BRANCH  21  23
HETATM   23  C2  UNL     1     -12.948   2.738   7.327  1.00  0.00     0.068 C 
HETATM   24  C1  UNL     1     -11.545   2.979   6.754  1.00  0.00     0.031 C 
HETATM   25  C3  UNL     1     -12.785   2.025   8.629  1.00  0.00     0.031 C 
ENDBRANCH  21  23
ENDBRANCH   1  21
TORSDOF 4
ENDMDL
MODEL 4
REMARK VINA RESULT: -5.894883864      1.169      1.714
REMARK  4 active torsions:
REMARK  status: ('A' for Active; 'I' for Inactive)
REMARK    1  A    between atoms: C2_2  and  N1_4 
REMARK    2  A    between atoms: N1_4  and  C4_6 
REMARK    3  A    between atoms: N2_16  and  C14_17 
REMARK    4  A    between atoms: C14_17  and  C15_18 
ROOT
HETATM    1  C4  UNL     1     -12.651   5.118   7.843  1.00  0.00     0.099 C 
HETATM    2  C5  UNL     1     -13.382   6.077   6.923  1.00  0.00     0.027 C 
HETATM    3  C6  UNL     1     -12.447   7.137   6.381  1.00  0.00     0.002 C 
HETATM    4  C7  UNL     1     -12.613   8.357   7.213  1.00  0.00     0.007 C 
HETATM    5  C8  UNL     1     -11.872   8.410   8.489  1.00  0.00     0.016 C 
HETATM    6  C9  UNL     1     -10.618   7.617   8.587  1.00  0.00     0.016 C 
HETATM    7  C10 UNL     1      -9.808   8.276   9.662  1.00  0.00    -0.025 C 
HETATM    8  C11 UNL     1     -10.496   8.636  10.738  1.00  0.00    -0.028 C 
HETATM    9  C12 UNL     1     -11.939   8.435  10.932  1.00  0.00     0.052 C 
HETATM   10  C13 UNL     1     -12.718   8.079   9.707  1.00  0.00     0.092 C 
HETATM   11  N2  UNL     1     -13.171   6.763   9.613  1.00  0.00    -0.379 N 
HETATM   12  C20 UNL     1     -12.245   5.776   9.132  1.00  0.00     0.106 C 
HETATM   13  C21 UNL     1     -10.828   6.196   9.039  1.00  0.00     0.036 C 
ENDROOT
BRANCH  11  14
HETATM   14  C14 UNL     1     -14.137   6.270  10.513  1.00  0.00     0.091 C 
BRANCH  14  15
HETATM   15  C15 UNL     1     -15.546   6.769  10.361  1.00  0.00     0.159 C 
HETATM   16  C16 UNL     1     -16.315   5.875   9.402  1.00  0.00     0.037 C 
HETATM   17  C17 UNL     1     -17.649   5.539   9.982  1.00  0.00     0.005 C 
HETATM   18  C18 UNL     1     -17.422   4.969  11.376  1.00  0.00     0.026 C 
HETATM   19  C19 UNL     1     -16.771   6.034  12.207  1.00  0.00     0.168 C 
HETATM   20  O1  UNL     1     -16.209   7.068  11.513  1.00  0.00    -0.381 OA
ENDBRANCH  14  15
ENDBRANCH  11  14
BRANCH   1  21
HETATM   21  N1  UNL     1     -13.458   3.955   7.970  1.00  0.00    -0.412 N 
ATOM     22  H1  UNL     1     -14.213   3.761   7.313  1.00  0.00     0.154 HD
BRANCH  21  23
HETATM   23  C2  UNL     1     -13.176   3.071   9.045  1.00  0.00     0.068 C 
HETATM   24  C1  UNL     1     -14.530   2.583   9.576  1.00  0.00     0.031 C 
HETATM   25  C3  UNL     1     -12.367   1.864   8.700  1.00  0.00     0.031 C 
ENDBRANCH  21  23
ENDBRANCH   1  21
TORSDOF 4
ENDMDL
MODEL 5
REMARK VINA RESULT: -5.816675594      2.431      5.657
REMARK  4 active torsions:
REMARK  status: ('A' for Active; 'I' for Inactive)
REMARK    1  A    between atoms: C2_2  and  N1_4 
REMARK    2  A    between atoms: N1_4  and  C4_6 
REMARK    3  A    between atoms: N2_16  and  C14_17 
REMARK    4  A    between atoms: C14_17  and  C15_18 
ROOT
HETATM    1  C4  UNL     1     -15.305   7.080  10.307  1.00  0.00     0.099 C 
HETATM    2  C5  UNL     1     -14.291   5.952  10.314  1.00  0.00     0.027 C 
HETATM    3  C6  UNL     1     -14.709   4.834   9.382  1.00  0.00     0.002 C 
HETATM    4  C7  UNL     1     -15.366   3.783  10.202  1.00  0.00     0.007 C 
HETATM    5  C8  UNL     1     -16.789   3.981  10.541  1.00  0.00     0.016 C 
HETATM    6  C9  UNL     1     -17.605   4.809   9.614  1.00  0.00     0.016 C 
HETATM    7  C10 UNL     1     -19.023   4.376   9.832  1.00  0.00    -0.025 C 
HETATM    8  C11 UNL     1     -19.365   4.203  11.102  1.00  0.00    -0.028 C 
HETATM    9  C12 UNL     1     -18.477   4.401  12.257  1.00  0.00     0.052 C 
HETATM   10  C13 UNL     1     -17.019   4.508  11.948  1.00  0.00     0.092 C 
HETATM   11  N2  UNL     1     -16.445   5.773  12.069  1.00  0.00    -0.379 N 
HETATM   12  C20 UNL     1     -16.595   6.679  10.963  1.00  0.00     0.106 C 
HETATM   13  C21 UNL     1     -17.570   6.283   9.919  1.00  0.00     0.036 C 
ENDROOT
BRANCH  11  14
HETATM   14  C14 UNL     1     -16.343   6.399  13.327  1.00  0.00     0.091 C 
BRANCH  14  15
HETATM   15  C15 UNL     1     -17.110   7.674  13.534  1.00  0.00     0.159 C 
HETATM   16  C16 UNL     1     -18.191   7.468  14.582  1.00  0.00     0.037 C 
HETATM   17  C17 UNL     1     -18.169   8.596  15.560  1.00  0.00     0.005 C 
HETATM   18  C18 UNL     1     -16.749   8.725  16.093  1.00  0.00     0.026 C 
HETATM   19  C19 UNL     1     -15.851   9.051  14.937  1.00  0.00     0.168 C 
HETATM   20  O1  UNL     1     -16.369   8.806  13.697  1.00  0.00    -0.381 OA
ENDBRANCH  14  15
ENDBRANCH  11  14
BRANCH   1  21
HETATM   21  N1  UNL     1     -14.666   8.227  10.851  1.00  0.00    -0.412 N 
ATOM     22  H1  UNL     1     -15.114   8.787  11.577  1.00  0.00     0.154 HD
BRANCH  21  23
HETATM   23  C2  UNL     1     -13.382   8.567  10.350  1.00  0.00     0.068 C 
HETATM   24  C1  UNL     1     -13.592   9.717   9.356  1.00  0.00     0.031 C 
HETATM   25  C3  UNL     1     -12.388   9.026  11.365  1.00  0.00     0.031 C 
ENDBRANCH  21  23
ENDBRANCH   1  21
TORSDOF 4
ENDMDL
