MODEL 1
REMARK VINA RESULT: -6.455667642      0.000      0.000
REMARK  2 active torsions:
REMARK  status: ('A' for Active; 'I' for Inactive)
REMARK       I    between atoms: C1_2  and  N1_3 
REMARK    1  A    between atoms: C1_2  and  C12_18 
REMARK       I    between atoms: N1_3  and  C2_5 
REMARK       I    between atoms: C2_5  and  N2_7 
REMARK    2  A    between atoms: N3_10  and  C5_11 
ROOT
HETATM    1  O1  UNL     1     -13.200  -3.736   9.421  1.00  0.00    -0.273 OA
HETATM    2  C1  UNL     1     -13.556  -3.724  10.649  1.00  0.00     0.229 C 
HETATM    3  N1  UNL     1     -14.219  -2.558  11.107  1.00  0.00    -0.279 N 
ATOM      4  H1  UNL     1     -14.336  -1.799  10.435  1.00  0.00     0.173 HD
HETATM    5  C2  UNL     1     -14.730  -2.349  12.397  1.00  0.00     0.325 C 
HETATM    6  O2  UNL     1     -14.616  -3.226  13.279  1.00  0.00    -0.247 OA
HETATM    7  N2  UNL     1     -15.391  -1.151  12.754  1.00  0.00    -0.331 N 
HETATM    8  C3  UNL     1     -15.908  -0.941  14.103  1.00  0.00     0.158 C 
HETATM    9  C4  UNL     1     -15.946   0.572  14.375  1.00  0.00     0.293 C 
HETATM   10  N3  UNL     1     -16.889   1.199  13.502  1.00  0.00     0.096 N 
HETATM   11  C10 UNL     1     -16.944   0.583  12.201  1.00  0.00     0.293 C 
HETATM   12  C11 UNL     1     -15.602  -0.063  11.825  1.00  0.00     0.158 C 
ENDROOT
BRANCH   2  13
HETATM   13  C12 UNL     1     -13.232  -4.919  11.443  1.00  0.00     0.078 C 
HETATM   14  C13 UNL     1     -11.738  -4.974  11.788  1.00  0.00     0.014 C 
HETATM   15  C14 UNL     1     -11.193  -6.148  11.001  1.00  0.00     0.001 C 
HETATM   16  C15 UNL     1     -12.375  -7.101  11.068  1.00  0.00     0.001 C 
HETATM   17  C16 UNL     1     -13.501  -6.184  10.639  1.00  0.00     0.014 C 
ENDBRANCH   2  13
BRANCH  10  18
HETATM   18  C5  UNL     1     -16.789   2.609  13.366  1.00  0.00     0.223 C 
HETATM   19  C6  UNL     1     -15.472   3.120  13.956  1.00  0.00     0.036 C 
HETATM   20  C7  UNL     1     -15.026   4.246  13.062  1.00  0.00     0.002 C 
HETATM   21  C8  UNL     1     -16.245   4.561  12.220  1.00  0.00     0.002 C 
HETATM   22  C9  UNL     1     -16.797   3.147  11.974  1.00  0.00     0.036 C 
ENDBRANCH  10  18
TORSDOF 2
ENDMDL
MODEL 2
REMARK VINA RESULT: -6.416688803      5.612      7.342
REMARK  2 active torsions:
REMARK  status: ('A' for Active; 'I' for Inactive)
REMARK       I    between atoms: C1_2  and  N1_3 
REMARK    1  A    between atoms: C1_2  and  C12_18 
REMARK       I    between atoms: N1_3  and  C2_5 
REMARK       I    between atoms: C2_5  and  N2_7 
REMARK    2  A    between atoms: N3_10  and  C5_11 
ROOT
HETATM    1  O1  UNL     1     -11.497  -9.042  11.926  1.00  0.00    -0.273 OA
HETATM    2  C1  UNL     1     -11.427  -7.776  11.768  1.00  0.00     0.229 C 
HETATM    3  N1  UNL     1     -12.398  -7.186  10.921  1.00  0.00    -0.279 N 
ATOM      4  H1  UNL     1     -13.063  -7.815  10.472  1.00  0.00     0.173 HD
HETATM    5  C2  UNL     1     -12.531  -5.816  10.641  1.00  0.00     0.325 C 
HETATM    6  O2  UNL     1     -11.747  -4.983  11.144  1.00  0.00    -0.247 OA
HETATM    7  N2  UNL     1     -13.546  -5.323   9.790  1.00  0.00    -0.331 N 
HETATM    8  C3  UNL     1     -13.667  -3.898   9.498  1.00  0.00     0.158 C 
HETATM    9  C4  UNL     1     -14.348  -3.742   8.128  1.00  0.00     0.293 C 
HETATM   10  N3  UNL     1     -15.689  -4.233   8.193  1.00  0.00     0.096 N 
HETATM   11  C10 UNL     1     -15.827  -5.368   9.071  1.00  0.00     0.293 C 
HETATM   12  C11 UNL     1     -14.525  -6.178   9.156  1.00  0.00     0.158 C 
ENDROOT
BRANCH   2  13
HETATM   13  C12 UNL     1     -10.344  -7.079  12.480  1.00  0.00     0.078 C 
HETATM   14  C13 UNL     1      -9.297  -8.069  13.011  1.00  0.00     0.014 C 
HETATM   15  C14 UNL     1      -9.438  -8.021  14.520  1.00  0.00     0.001 C 
HETATM   16  C15 UNL     1      -9.768  -6.551  14.722  1.00  0.00     0.001 C 
HETATM   17  C16 UNL     1     -10.885  -6.371  13.715  1.00  0.00     0.014 C 
ENDBRANCH   2  13
BRANCH  10  18
HETATM   18  C5  UNL     1     -16.329  -4.499   6.954  1.00  0.00     0.223 C 
HETATM   19  C6  UNL     1     -15.323  -5.015   5.922  1.00  0.00     0.036 C 
HETATM   20  C7  UNL     1     -16.057  -6.045   5.106  1.00  0.00     0.002 C 
HETATM   21  C8  UNL     1     -17.515  -5.837   5.462  1.00  0.00     0.002 C 
HETATM   22  C9  UNL     1     -17.402  -5.536   6.966  1.00  0.00     0.036 C 
ENDBRANCH  10  18
TORSDOF 2
ENDMDL
MODEL 3
REMARK VINA RESULT: -6.374286197      5.974      8.553
REMARK  2 active torsions:
REMARK  status: ('A' for Active; 'I' for Inactive)
REMARK       I    between atoms: C1_2  and  N1_3 
REMARK    1  A    between atoms: C1_2  and  C12_18 
REMARK       I    between atoms: N1_3  and  C2_5 
REMARK       I    between atoms: C2_5  and  N2_7 
REMARK    2  A    between atoms: N3_10  and  C5_11 
ROOT
HETATM    1  O1  UNL     1     -16.196  -8.148   6.600  1.00  0.00    -0.273 OA
HETATM    2  C1  UNL     1     -15.875  -6.981   7.009  1.00  0.00     0.229 C 
HETATM    3  N1  UNL     1     -14.926  -6.914   8.060  1.00  0.00    -0.279 N 
ATOM      4  H1  UNL     1     -14.591  -7.800   8.437  1.00  0.00     0.173 HD
HETATM    5  C2  UNL     1     -14.403  -5.743   8.630  1.00  0.00     0.325 C 
HETATM    6  O2  UNL     1     -14.772  -4.618   8.230  1.00  0.00    -0.247 OA
HETATM    7  N2  UNL     1     -13.446  -5.782   9.669  1.00  0.00    -0.331 N 
HETATM    8  C3  UNL     1     -12.918  -4.556  10.263  1.00  0.00     0.158 C 
HETATM    9  C4  UNL     1     -12.470  -4.870  11.700  1.00  0.00     0.293 C 
HETATM   10  N3  UNL     1     -11.374  -5.787  11.678  1.00  0.00     0.096 N 
HETATM   11  C10 UNL     1     -11.464  -6.743  10.605  1.00  0.00     0.293 C 
HETATM   12  C11 UNL     1     -12.925  -7.016  10.213  1.00  0.00     0.158 C 
ENDROOT
BRANCH   2  13
HETATM   13  C12 UNL     1     -16.531  -5.843   6.345  1.00  0.00     0.078 C 
HETATM   14  C13 UNL     1     -17.871  -5.503   7.011  1.00  0.00     0.014 C 
HETATM   15  C14 UNL     1     -18.926  -5.870   5.987  1.00  0.00     0.001 C 
HETATM   16  C15 UNL     1     -18.208  -5.495   4.701  1.00  0.00     0.001 C 
HETATM   17  C16 UNL     1     -16.881  -6.195   4.905  1.00  0.00     0.014 C 
ENDBRANCH   2  13
BRANCH  10  18
HETATM   18  C5  UNL     1     -11.080  -6.454  12.897  1.00  0.00     0.223 C 
HETATM   19  C6  UNL     1     -10.148  -7.644  12.655  1.00  0.00     0.036 C 
HETATM   20  C7  UNL     1      -9.226  -7.697  13.843  1.00  0.00     0.002 C 
HETATM   21  C8  UNL     1      -9.870  -6.777  14.860  1.00  0.00     0.002 C 
HETATM   22  C9  UNL     1     -10.381  -5.652  13.944  1.00  0.00     0.036 C 
ENDBRANCH  10  18
TORSDOF 2
ENDMDL
MODEL 4
REMARK VINA RESULT: -6.197095394      2.491      7.957
REMARK  2 active torsions:
REMARK  status: ('A' for Active; 'I' for Inactive)
REMARK       I    between atoms: C1_2  and  N1_3 
REMARK    1  A    between atoms: C1_2  and  C12_18 
REMARK       I    between atoms: N1_3  and  C2_5 
REMARK       I    between atoms: C2_5  and  N2_7 
REMARK    2  A    between atoms: N3_10  and  C5_11 
ROOT
HETATM    1  O1  UNL     1     -16.665   2.138  11.858  1.00  0.00    -0.273 OA
HETATM    2  C1  UNL     1     -15.951   1.215  12.379  1.00  0.00     0.229 C 
HETATM    3  N1  UNL     1     -15.619   0.119  11.544  1.00  0.00    -0.279 N 
ATOM      4  H1  UNL     1     -16.000   0.127  10.598  1.00  0.00     0.173 HD
HETATM    5  C2  UNL     1     -14.816  -0.976  11.896  1.00  0.00     0.325 C 
HETATM    6  O2  UNL     1     -14.321  -1.064  13.040  1.00  0.00    -0.247 OA
HETATM    7  N2  UNL     1     -14.531  -2.018  10.983  1.00  0.00    -0.331 N 
HETATM    8  C3  UNL     1     -13.703  -3.158  11.365  1.00  0.00     0.158 C 
HETATM    9  C4  UNL     1     -14.101  -4.358  10.490  1.00  0.00     0.293 C 
HETATM   10  N3  UNL     1     -13.777  -4.092   9.123  1.00  0.00     0.096 N 
HETATM   11  C10 UNL     1     -13.947  -2.706   8.767  1.00  0.00     0.293 C 
HETATM   12  C11 UNL     1     -15.028  -2.031   9.625  1.00  0.00     0.158 C 
ENDROOT
BRANCH   2  13
HETATM   13  C12 UNL     1     -15.560   1.397  13.786  1.00  0.00     0.078 C 
HETATM   14  C13 UNL     1     -16.626   0.840  14.739  1.00  0.00     0.014 C 
HETATM   15  C14 UNL     1     -17.217   2.056  15.425  1.00  0.00     0.001 C 
HETATM   16  C15 UNL     1     -15.983   2.936  15.544  1.00  0.00     0.001 C 
HETATM   17  C16 UNL     1     -15.457   2.878  14.125  1.00  0.00     0.014 C 
ENDBRANCH   2  13
BRANCH  10  18
HETATM   18  C5  UNL     1     -14.397  -4.921   8.150  1.00  0.00     0.223 C 
HETATM   19  C6  UNL     1     -13.947  -6.375   8.309  1.00  0.00     0.036 C 
HETATM   20  C7  UNL     1     -15.152  -7.219   7.992  1.00  0.00     0.002 C 
HETATM   21  C8  UNL     1     -16.124  -6.256   7.343  1.00  0.00     0.002 C 
HETATM   22  C9  UNL     1     -15.887  -4.995   8.190  1.00  0.00     0.036 C 
ENDBRANCH  10  18
TORSDOF 2
ENDMDL
MODEL 5
REMARK VINA RESULT: -6.125992709      1.708      8.279
REMARK  2 active torsions:
REMARK  status: ('A' for Active; 'I' for Inactive)
REMARK       I    between atoms: C1_2  and  N1_3 
REMARK    1  A    between atoms: C1_2  and  C12_18 
REMARK       I    between atoms: N1_3  and  C2_5 
REMARK       I    between atoms: C2_5  and  N2_7 
REMARK    2  A    between atoms: N3_10  and  C5_11 
ROOT
HETATM    1  O1  UNL     1     -15.464  -0.353  14.521  1.00  0.00    -0.273 OA
HETATM    2  C1  UNL     1     -15.347  -0.432  13.251  1.00  0.00     0.229 C 
HETATM    3  N1  UNL     1     -14.863  -1.660  12.733  1.00  0.00    -0.279 N 
ATOM      4  H1  UNL     1     -14.611  -2.380  13.410  1.00  0.00     0.173 HD
HETATM    5  C2  UNL     1     -14.698  -1.978  11.376  1.00  0.00     0.325 C 
HETATM    6  O2  UNL     1     -14.974  -1.145  10.487  1.00  0.00    -0.247 OA
HETATM    7  N2  UNL     1     -14.219  -3.241  10.957  1.00  0.00    -0.331 N 
HETATM    8  C3  UNL     1     -14.041  -3.555   9.543  1.00  0.00     0.158 C 
HETATM    9  C4  UNL     1     -12.953  -4.635   9.422  1.00  0.00     0.293 C 
HETATM   10  N3  UNL     1     -13.402  -5.849  10.030  1.00  0.00     0.096 N 
HETATM   11  C10 UNL     1     -14.229  -5.622  11.187  1.00  0.00     0.293 C 
HETATM   12  C11 UNL     1     -13.877  -4.298  11.883  1.00  0.00     0.158 C 
ENDROOT
BRANCH   2  13
HETATM   13  C12 UNL     1     -15.725   0.760  12.476  1.00  0.00     0.078 C 
HETATM   14  C13 UNL     1     -15.257   2.048  13.167  1.00  0.00     0.014 C 
HETATM   15  C14 UNL     1     -16.528   2.739  13.618  1.00  0.00     0.001 C 
HETATM   16  C15 UNL     1     -17.462   2.379  12.474  1.00  0.00     0.001 C 
HETATM   17  C16 UNL     1     -17.240   0.883  12.390  1.00  0.00     0.014 C 
ENDBRANCH   2  13
BRANCH  10  18
HETATM   18  C5  UNL     1     -12.406  -6.816  10.328  1.00  0.00     0.223 C 
HETATM   19  C6  UNL     1     -11.252  -6.185  11.111  1.00  0.00     0.036 C 
HETATM   20  C7  UNL     1     -10.799  -7.230  12.095  1.00  0.00     0.002 C 
HETATM   21  C8  UNL     1     -11.460  -8.507  11.619  1.00  0.00     0.002 C 
HETATM   22  C9  UNL     1     -12.831  -7.971  11.173  1.00  0.00     0.036 C 
ENDBRANCH  10  18
TORSDOF 2
ENDMDL
