MODEL 1
REMARK VINA RESULT: -7.338967793      0.000      0.000
REMARK  4 active torsions:
REMARK  status: ('A' for Active; 'I' for Inactive)
REMARK    1  A    between atoms: C3_3  and  C6_6 
REMARK    2  A    between atoms: N2_8  and  O1_10 
REMARK    3  A    between atoms: O1_10  and  C7_11 
REMARK    4  A    between atoms: C7_11  and  C8_13 
ROOT
HETATM    1  C1  UNL     1     -11.226  -5.778  11.405  1.00  0.00     0.013 C 
HETATM    2  C2  UNL     1     -12.306  -5.567  10.908  1.00  0.00    -0.100 C 
HETATM    3  C3  UNL     1     -13.622  -5.289  10.314  1.00  0.00     0.073 C 
HETATM    4  C4  UNL     1     -14.670  -6.116  11.073  1.00  0.00     0.037 C 
HETATM    5  C5  UNL     1     -13.681  -5.755   8.876  1.00  0.00     0.037 C 
ENDROOT
BRANCH   3   6
HETATM    6  C6  UNL     1     -13.969  -3.867  10.460  1.00  0.00     0.134 C 
HETATM    7  N1  UNL     1     -14.522  -3.189   9.359  1.00  0.00    -0.084 NA
HETATM    8  N2  UNL     1     -13.773  -3.286  11.539  1.00  0.00    -0.246 N 
ATOM      9  H2  UNL     1     -13.368  -3.893  12.252  1.00  0.00     0.196 HD
BRANCH   8  10
HETATM   10  O1  UNL     1     -13.977  -2.042  11.965  1.00  0.00    -0.198 OA
BRANCH  10  11
HETATM   11  C7  UNL     1     -14.854  -1.639  12.963  1.00  0.00     0.286 C 
HETATM   12  O2  UNL     1     -14.439  -1.902  14.126  1.00  0.00    -0.263 OA
BRANCH  11  13
HETATM   13  C8  UNL     1     -16.146  -0.968  12.711  1.00  0.00     0.096 C 
HETATM   14  C9  UNL     1     -16.995  -0.810  13.927  1.00  0.00     0.000 C 
HETATM   15  C10 UNL     1     -16.491   0.246  14.877  1.00  0.00     0.010 C 
HETATM   16  C14 UNL     1     -18.366  -0.328  13.435  1.00  0.00     0.010 C 
HETATM   17  C11 UNL     1     -16.405   1.574  14.168  1.00  0.00    -0.013 C 
HETATM   18  C12 UNL     1     -17.730   2.016  13.599  1.00  0.00     0.009 C 
HETATM   19  C17 UNL     1     -15.414   1.413  13.039  1.00  0.00     0.010 C 
HETATM   20  C13 UNL     1     -18.217   0.944  12.657  1.00  0.00    -0.013 C 
HETATM   21  C15 UNL     1     -17.238   0.848  11.521  1.00  0.00     0.010 C 
HETATM   22  C16 UNL     1     -15.887   0.365  12.065  1.00  0.00     0.000 C 
ENDBRANCH  11  13
ENDBRANCH  10  11
ENDBRANCH   8  10
ENDBRANCH   3   6
TORSDOF 4
ENDMDL
MODEL 2
REMARK VINA RESULT: -7.079801543      0.634      1.908
REMARK  4 active torsions:
REMARK  status: ('A' for Active; 'I' for Inactive)
REMARK    1  A    between atoms: C3_3  and  C6_6 
REMARK    2  A    between atoms: N2_8  and  O1_10 
REMARK    3  A    between atoms: O1_10  and  C7_11 
REMARK    4  A    between atoms: C7_11  and  C8_13 
ROOT
HETATM    1  C1  UNL     1     -11.178  -5.898  11.437  1.00  0.00     0.013 C 
HETATM    2  C2  UNL     1     -12.247  -5.682  10.920  1.00  0.00    -0.100 C 
HETATM    3  C3  UNL     1     -13.551  -5.399  10.303  1.00  0.00     0.073 C 
HETATM    4  C4  UNL     1     -14.615  -6.228  11.036  1.00  0.00     0.037 C 
HETATM    5  C5  UNL     1     -13.583  -5.857   8.861  1.00  0.00     0.037 C 
ENDROOT
BRANCH   3   6
HETATM    6  C6  UNL     1     -13.898  -3.977  10.450  1.00  0.00     0.134 C 
HETATM    7  N1  UNL     1     -14.264  -3.248   9.304  1.00  0.00    -0.084 NA
HETATM    8  N2  UNL     1     -13.865  -3.441  11.568  1.00  0.00    -0.246 N 
ATOM      9  H2  UNL     1     -13.584  -4.081  12.310  1.00  0.00     0.196 HD
BRANCH   8  10
HETATM   10  O1  UNL     1     -14.117  -2.209  12.006  1.00  0.00    -0.198 OA
BRANCH  10  11
HETATM   11  C7  UNL     1     -14.750  -1.863  13.192  1.00  0.00     0.286 C 
HETATM   12  O2  UNL     1     -15.005  -2.856  13.929  1.00  0.00    -0.263 OA
BRANCH  11  13
HETATM   13  C8  UNL     1     -15.099  -0.478  13.572  1.00  0.00     0.096 C 
HETATM   14  C9  UNL     1     -15.119   0.478  12.428  1.00  0.00     0.000 C 
HETATM   15  C10 UNL     1     -16.304   0.298  11.515  1.00  0.00     0.010 C 
HETATM   16  C14 UNL     1     -15.255   1.878  13.041  1.00  0.00     0.010 C 
HETATM   17  C11 UNL     1     -17.583   0.452  12.300  1.00  0.00    -0.013 C 
HETATM   18  C12 UNL     1     -17.688   1.793  12.983  1.00  0.00     0.009 C 
HETATM   19  C17 UNL     1     -17.597  -0.636  13.348  1.00  0.00     0.010 C 
HETATM   20  C13 UNL     1     -16.491   1.953  13.886  1.00  0.00    -0.013 C 
HETATM   21  C15 UNL     1     -16.564   0.890  14.945  1.00  0.00     0.010 C 
HETATM   22  C16 UNL     1     -16.424  -0.486  14.282  1.00  0.00     0.000 C 
ENDBRANCH  11  13
ENDBRANCH  10  11
ENDBRANCH   8  10
ENDBRANCH   3   6
TORSDOF 4
ENDMDL
MODEL 3
REMARK VINA RESULT: -6.811948125      2.333      6.863
REMARK  4 active torsions:
REMARK  status: ('A' for Active; 'I' for Inactive)
REMARK    1  A    between atoms: C3_3  and  C6_6 
REMARK    2  A    between atoms: N2_8  and  O1_10 
REMARK    3  A    between atoms: O1_10  and  C7_11 
REMARK    4  A    between atoms: C7_11  and  C8_13 
ROOT
HETATM    1  C1  UNL     1     -17.337  -0.840  13.605  1.00  0.00     0.013 C 
HETATM    2  C2  UNL     1     -16.386  -0.809  12.862  1.00  0.00    -0.100 C 
HETATM    3  C3  UNL     1     -15.219  -0.792  11.967  1.00  0.00     0.073 C 
HETATM    4  C4  UNL     1     -14.242   0.275  12.481  1.00  0.00     0.037 C 
HETATM    5  C5  UNL     1     -15.610  -0.364  10.569  1.00  0.00     0.037 C 
ENDROOT
BRANCH   3   6
HETATM    6  C6  UNL     1     -14.529  -2.091  11.986  1.00  0.00     0.134 C 
HETATM    7  N1  UNL     1     -14.375  -2.756  13.216  1.00  0.00    -0.084 NA
HETATM    8  N2  UNL     1     -14.096  -2.581  10.933  1.00  0.00    -0.246 N 
ATOM      9  H2  UNL     1     -14.275  -1.997  10.116  1.00  0.00     0.196 HD
BRANCH   8  10
HETATM   10  O1  UNL     1     -13.448  -3.707  10.639  1.00  0.00    -0.198 OA
BRANCH  10  11
HETATM   11  C7  UNL     1     -13.982  -4.840  10.041  1.00  0.00     0.286 C 
HETATM   12  O2  UNL     1     -14.453  -5.667  10.871  1.00  0.00    -0.263 OA
BRANCH  11  13
HETATM   13  C8  UNL     1     -14.004  -5.076   8.582  1.00  0.00     0.096 C 
HETATM   14  C9  UNL     1     -15.018  -6.079   8.146  1.00  0.00     0.000 C 
HETATM   15  C10 UNL     1     -16.435  -5.568   8.211  1.00  0.00     0.010 C 
HETATM   16  C14 UNL     1     -14.730  -6.365   6.666  1.00  0.00     0.010 C 
HETATM   17  C11 UNL     1     -16.573  -4.333   7.356  1.00  0.00    -0.013 C 
HETATM   18  C12 UNL     1     -16.205  -4.579   5.914  1.00  0.00     0.009 C 
HETATM   19  C17 UNL     1     -15.645  -3.288   7.930  1.00  0.00     0.010 C 
HETATM   20  C13 UNL     1     -14.788  -5.093   5.874  1.00  0.00    -0.013 C 
HETATM   21  C15 UNL     1     -13.888  -4.012   6.401  1.00  0.00     0.010 C 
HETATM   22  C16 UNL     1     -14.216  -3.764   7.880  1.00  0.00     0.000 C 
ENDBRANCH  11  13
ENDBRANCH  10  11
ENDBRANCH   8  10
ENDBRANCH   3   6
TORSDOF 4
ENDMDL
MODEL 4
REMARK VINA RESULT: -6.761563932      1.480      2.949
REMARK  4 active torsions:
REMARK  status: ('A' for Active; 'I' for Inactive)
REMARK    1  A    between atoms: C3_3  and  C6_6 
REMARK    2  A    between atoms: N2_8  and  O1_10 
REMARK    3  A    between atoms: O1_10  and  C7_11 
REMARK    4  A    between atoms: C7_11  and  C8_13 
ROOT
HETATM    1  C1  UNL     1     -17.182  -5.161   7.972  1.00  0.00     0.013 C 
HETATM    2  C2  UNL     1     -16.062  -4.768   8.195  1.00  0.00    -0.100 C 
HETATM    3  C3  UNL     1     -14.707  -4.267   8.470  1.00  0.00     0.073 C 
HETATM    4  C4  UNL     1     -13.971  -4.127   7.130  1.00  0.00     0.037 C 
HETATM    5  C5  UNL     1     -13.912  -5.264   9.284  1.00  0.00     0.037 C 
ENDROOT
BRANCH   3   6
HETATM    6  C6  UNL     1     -14.762  -2.940   9.102  1.00  0.00     0.134 C 
HETATM    7  N1  UNL     1     -15.235  -1.851   8.348  1.00  0.00    -0.084 NA
HETATM    8  N2  UNL     1     -14.396  -2.795  10.278  1.00  0.00    -0.246 N 
ATOM      9  H2  UNL     1     -14.077  -3.664  10.707  1.00  0.00     0.196 HD
BRANCH   8  10
HETATM   10  O1  UNL     1     -14.330  -1.750  11.100  1.00  0.00    -0.198 OA
BRANCH  10  11
HETATM   11  C7  UNL     1     -14.646  -1.735  12.452  1.00  0.00     0.286 C 
HETATM   12  O2  UNL     1     -14.564  -2.872  12.995  1.00  0.00    -0.263 OA
BRANCH  11  13
HETATM   13  C8  UNL     1     -15.042  -0.522  13.198  1.00  0.00     0.096 C 
HETATM   14  C9  UNL     1     -15.372   0.644  12.328  1.00  0.00     0.000 C 
HETATM   15  C10 UNL     1     -16.690   0.504  11.611  1.00  0.00     0.010 C 
HETATM   16  C14 UNL     1     -15.517   1.851  13.265  1.00  0.00     0.010 C 
HETATM   17  C11 UNL     1     -17.801   0.315  12.614  1.00  0.00    -0.013 C 
HETATM   18  C12 UNL     1     -17.896   1.453  13.598  1.00  0.00     0.009 C 
HETATM   19  C17 UNL     1     -17.510  -0.963  13.365  1.00  0.00     0.010 C 
HETATM   20  C13 UNL     1     -16.567   1.578  14.300  1.00  0.00    -0.013 C 
HETATM   21  C15 UNL     1     -16.334   0.314  15.078  1.00  0.00     0.010 C 
HETATM   22  C16 UNL     1     -16.198  -0.859  14.098  1.00  0.00     0.000 C 
ENDBRANCH  11  13
ENDBRANCH  10  11
ENDBRANCH   8  10
ENDBRANCH   3   6
TORSDOF 4
ENDMDL
MODEL 5
REMARK VINA RESULT: -6.746619176      1.668      2.351
REMARK  4 active torsions:
REMARK  status: ('A' for Active; 'I' for Inactive)
REMARK    1  A    between atoms: C3_3  and  C6_6 
REMARK    2  A    between atoms: N2_8  and  O1_10 
REMARK    3  A    between atoms: O1_10  and  C7_11 
REMARK    4  A    between atoms: C7_11  and  C8_13 
ROOT
HETATM    1  C1  UNL     1     -16.626  -5.072   8.003  1.00  0.00     0.013 C 
HETATM    2  C2  UNL     1     -15.810  -4.198   8.167  1.00  0.00    -0.100 C 
HETATM    3  C3  UNL     1     -14.817  -3.136   8.390  1.00  0.00     0.073 C 
HETATM    4  C4  UNL     1     -15.524  -1.782   8.228  1.00  0.00     0.037 C 
HETATM    5  C5  UNL     1     -13.734  -3.172   7.335  1.00  0.00     0.037 C 
ENDROOT
BRANCH   3   6
HETATM    6  C6  UNL     1     -14.277  -3.209   9.756  1.00  0.00     0.134 C 
HETATM    7  N1  UNL     1     -13.603  -4.377  10.154  1.00  0.00    -0.084 NA
HETATM    8  N2  UNL     1     -14.418  -2.253  10.533  1.00  0.00    -0.246 N 
ATOM      9  H2  UNL     1     -14.924  -1.471  10.118  1.00  0.00     0.196 HD
BRANCH   8  10
HETATM   10  O1  UNL     1     -14.050  -2.029  11.793  1.00  0.00    -0.198 OA
BRANCH  10  11
HETATM   11  C7  UNL     1     -14.848  -1.531  12.815  1.00  0.00     0.286 C 
HETATM   12  O2  UNL     1     -14.353  -1.707  13.963  1.00  0.00    -0.263 OA
BRANCH  11  13
HETATM   13  C8  UNL     1     -16.147  -0.860  12.602  1.00  0.00     0.096 C 
HETATM   14  C9  UNL     1     -17.022  -0.835  13.810  1.00  0.00     0.000 C 
HETATM   15  C10 UNL     1     -16.556   0.131  14.868  1.00  0.00     0.010 C 
HETATM   16  C14 UNL     1     -18.391  -0.330  13.337  1.00  0.00     0.010 C 
HETATM   17  C11 UNL     1     -16.480   1.523  14.293  1.00  0.00    -0.013 C 
HETATM   18  C12 UNL     1     -17.802   1.998  13.742  1.00  0.00     0.009 C 
HETATM   19  C17 UNL     1     -15.465   1.489  13.175  1.00  0.00     0.010 C 
HETATM   20  C13 UNL     1     -18.250   1.015  12.690  1.00  0.00    -0.013 C 
HETATM   21  C15 UNL     1     -17.248   1.045  11.571  1.00  0.00     0.010 C 
HETATM   22  C16 UNL     1     -15.899   0.533  12.095  1.00  0.00     0.000 C 
ENDBRANCH  11  13
ENDBRANCH  10  11
ENDBRANCH   8  10
ENDBRANCH   3   6
TORSDOF 4
ENDMDL
