MODEL 1
REMARK VINA RESULT: -7.710543268      0.000      0.000
REMARK  4 active torsions:
REMARK  status: ('A' for Active; 'I' for Inactive)
REMARK    1  A    between atoms: S1_2  and  N1_4 
REMARK    2  A    between atoms: S1_2  and  C14_20 
REMARK    3  A    between atoms: N1_4  and  C1_6 
REMARK    4  A    between atoms: N2_9  and  C4_10 
ROOT
HETATM    1  C1  UNL     1     -12.829  -7.255  11.066  1.00  0.00     0.096 C 
HETATM    2  C2  UNL     1     -12.750  -5.742  10.876  1.00  0.00     0.056 C 
HETATM    3  C3  UNL     1     -13.774  -5.378   9.825  1.00  0.00     0.275 C 
HETATM    4  N2  UNL     1     -13.812  -6.374   8.798  1.00  0.00     0.093 N 
HETATM    5  C12 UNL     1     -14.463  -7.589   9.258  1.00  0.00     0.275 C 
HETATM    6  C13 UNL     1     -14.250  -7.665  10.777  1.00  0.00     0.056 C 
ENDROOT
BRANCH   1   7
HETATM    7  N1  UNL     1     -12.328  -7.687  12.304  1.00  0.00    -0.314 N 
ATOM      8  H1  UNL     1     -12.978  -7.947  13.045  1.00  0.00     0.172 HD
BRANCH   7   9
HETATM    9  S1  UNL     1     -10.685  -7.783  12.581  1.00  0.00     0.231 S 
HETATM   10  O1  UNL     1     -10.290  -9.197  12.925  1.00  0.00    -0.206 OA
HETATM   11  O2  UNL     1      -9.848  -7.279  11.415  1.00  0.00    -0.206 OA
BRANCH   9  12
HETATM   12  C14 UNL     1     -10.198  -6.783  13.962  1.00  0.00     0.129 C 
HETATM   13  C15 UNL     1     -10.640  -5.371  13.914  1.00  0.00     0.022 C 
HETATM   14  C16 UNL     1     -10.525  -4.925  15.380  1.00  0.00     0.001 C 
HETATM   15  C17 UNL     1     -10.913  -6.141  16.168  1.00  0.00     0.001 C 
HETATM   16  C18 UNL     1     -10.898  -7.303  15.232  1.00  0.00     0.022 C 
ENDBRANCH   9  12
ENDBRANCH   7   9
ENDBRANCH   1   7
BRANCH   4  17
HETATM   17  C4  UNL     1     -14.368  -5.925   7.538  1.00  0.00     0.223 C 
HETATM   18  C5  UNL     1     -14.559  -4.461   7.558  1.00  0.00     0.036 C 
HETATM   19  C6  UNL     1     -13.871  -3.704   6.454  1.00  0.00     0.002 C 
HETATM   20  C7  UNL     1     -13.810  -4.395   5.143  1.00  0.00     0.000 C 
HETATM   21  C8  UNL     1     -15.176  -4.857   4.647  1.00  0.00     0.000 C 
HETATM   22  C9  UNL     1     -15.232  -6.345   4.799  1.00  0.00     0.000 C 
HETATM   23  C10 UNL     1     -16.205  -6.641   5.940  1.00  0.00     0.002 C 
HETATM   24  C11 UNL     1     -15.590  -6.741   7.270  1.00  0.00     0.036 C 
ENDBRANCH   4  17
TORSDOF 4
ENDMDL
MODEL 2
REMARK VINA RESULT: -7.684746299      2.197      2.731
REMARK  4 active torsions:
REMARK  status: ('A' for Active; 'I' for Inactive)
REMARK    1  A    between atoms: S1_2  and  N1_4 
REMARK    2  A    between atoms: S1_2  and  C14_20 
REMARK    3  A    between atoms: N1_4  and  C1_6 
REMARK    4  A    between atoms: N2_9  and  C4_10 
ROOT
HETATM    1  C1  UNL     1     -13.499  -6.378  10.821  1.00  0.00     0.096 C 
HETATM    2  C2  UNL     1     -12.934  -5.017  11.219  1.00  0.00     0.056 C 
HETATM    3  C3  UNL     1     -13.889  -3.973  10.686  1.00  0.00     0.275 C 
HETATM    4  N2  UNL     1     -14.384  -4.358   9.400  1.00  0.00     0.093 N 
HETATM    5  C12 UNL     1     -15.350  -5.439   9.501  1.00  0.00     0.275 C 
HETATM    6  C13 UNL     1     -14.998  -6.238  10.765  1.00  0.00     0.056 C 
ENDROOT
BRANCH   1   7
HETATM    7  N1  UNL     1     -13.032  -7.431  11.624  1.00  0.00    -0.314 N 
ATOM      8  H1  UNL     1     -13.599  -7.753  12.409  1.00  0.00     0.172 HD
BRANCH   7   9
HETATM    9  S1  UNL     1     -11.565  -8.163  11.317  1.00  0.00     0.231 S 
HETATM   10  O1  UNL     1     -11.679  -9.659  11.473  1.00  0.00    -0.206 OA
HETATM   11  O2  UNL     1     -11.000  -7.826   9.944  1.00  0.00    -0.206 OA
BRANCH   9  12
HETATM   12  C14 UNL     1     -10.321  -7.638  12.466  1.00  0.00     0.129 C 
HETATM   13  C15 UNL     1     -10.744  -6.603  13.435  1.00  0.00     0.022 C 
HETATM   14  C16 UNL     1      -9.691  -6.722  14.548  1.00  0.00     0.001 C 
HETATM   15  C17 UNL     1      -9.388  -8.190  14.614  1.00  0.00     0.001 C 
HETATM   16  C18 UNL     1      -9.954  -8.819  13.385  1.00  0.00     0.022 C 
ENDBRANCH   9  12
ENDBRANCH   7   9
ENDBRANCH   1   7
BRANCH   4  17
HETATM   17  C4  UNL     1     -14.899  -3.267   8.597  1.00  0.00     0.223 C 
HETATM   18  C5  UNL     1     -15.008  -2.042   9.413  1.00  0.00     0.036 C 
HETATM   19  C6  UNL     1     -14.265  -0.844   8.883  1.00  0.00     0.002 C 
HETATM   20  C7  UNL     1     -14.227  -0.714   7.407  1.00  0.00     0.000 C 
HETATM   21  C8  UNL     1     -15.610  -0.759   6.767  1.00  0.00     0.000 C 
HETATM   22  C9  UNL     1     -15.751  -2.084   6.087  1.00  0.00     0.000 C 
HETATM   23  C10 UNL     1     -16.752  -2.901   6.903  1.00  0.00     0.002 C 
HETATM   24  C11 UNL     1     -16.161  -3.740   7.953  1.00  0.00     0.036 C 
ENDBRANCH   4  17
TORSDOF 4
ENDMDL
MODEL 3
REMARK VINA RESULT: -7.655184857      6.467      7.761
REMARK  4 active torsions:
REMARK  status: ('A' for Active; 'I' for Inactive)
REMARK    1  A    between atoms: S1_2  and  N1_4 
REMARK    2  A    between atoms: S1_2  and  C14_20 
REMARK    3  A    between atoms: N1_4  and  C1_6 
REMARK    4  A    between atoms: N2_9  and  C4_10 
ROOT
HETATM    1  C1  UNL     1     -14.601  -2.571  12.513  1.00  0.00     0.096 C 
HETATM    2  C2  UNL     1     -14.589  -1.304  11.662  1.00  0.00     0.056 C 
HETATM    3  C3  UNL     1     -15.385  -0.263  12.416  1.00  0.00     0.275 C 
HETATM    4  N2  UNL     1     -16.517  -0.862  13.054  1.00  0.00     0.093 N 
HETATM    5  C12 UNL     1     -16.124  -1.649  14.210  1.00  0.00     0.275 C 
HETATM    6  C13 UNL     1     -14.691  -2.138  13.954  1.00  0.00     0.056 C 
ENDROOT
BRANCH   1   7
HETATM    7  N1  UNL     1     -13.542  -3.446  12.223  1.00  0.00    -0.314 N 
ATOM      8  H1  UNL     1     -12.680  -3.388  12.765  1.00  0.00     0.172 HD
BRANCH   7   9
HETATM    9  S1  UNL     1     -13.671  -4.579  11.004  1.00  0.00     0.231 S 
HETATM   10  O1  UNL     1     -14.890  -5.441  11.213  1.00  0.00    -0.206 OA
HETATM   11  O2  UNL     1     -13.703  -3.964   9.612  1.00  0.00    -0.206 OA
BRANCH   9  12
HETATM   12  C14 UNL     1     -12.282  -5.680  10.988  1.00  0.00     0.129 C 
HETATM   13  C15 UNL     1     -11.328  -5.519  12.108  1.00  0.00     0.022 C 
HETATM   14  C16 UNL     1     -10.568  -6.855  12.108  1.00  0.00     0.001 C 
HETATM   15  C17 UNL     1     -11.605  -7.869  11.722  1.00  0.00     0.001 C 
HETATM   16  C18 UNL     1     -12.781  -7.124  11.186  1.00  0.00     0.022 C 
ENDBRANCH   9  12
ENDBRANCH   7   9
ENDBRANCH   1   7
BRANCH   4  17
HETATM   17  C4  UNL     1     -17.586   0.059  13.383  1.00  0.00     0.223 C 
HETATM   18  C5  UNL     1     -17.804   1.005  12.271  1.00  0.00     0.036 C 
HETATM   19  C6  UNL     1     -19.204   1.043  11.719  1.00  0.00     0.002 C 
HETATM   20  C7  UNL     1     -20.290   0.849  12.710  1.00  0.00     0.000 C 
HETATM   21  C8  UNL     1     -20.200   1.808  13.892  1.00  0.00     0.000 C 
HETATM   22  C9  UNL     1     -19.737   1.021  15.078  1.00  0.00     0.000 C 
HETATM   23  C10 UNL     1     -18.303   1.460  15.373  1.00  0.00     0.002 C 
HETATM   24  C11 UNL     1     -17.262   0.668  14.707  1.00  0.00     0.036 C 
ENDBRANCH   4  17
TORSDOF 4
ENDMDL
MODEL 4
REMARK VINA RESULT: -7.617694499      1.890      2.668
REMARK  4 active torsions:
REMARK  status: ('A' for Active; 'I' for Inactive)
REMARK    1  A    between atoms: S1_2  and  N1_4 
REMARK    2  A    between atoms: S1_2  and  C14_20 
REMARK    3  A    between atoms: N1_4  and  C1_6 
REMARK    4  A    between atoms: N2_9  and  C4_10 
ROOT
HETATM    1  C1  UNL     1     -11.852  -7.728  11.714  1.00  0.00     0.096 C 
HETATM    2  C2  UNL     1     -12.697  -8.321  10.589  1.00  0.00     0.056 C 
HETATM    3  C3  UNL     1     -13.113  -7.171   9.701  1.00  0.00     0.275 C 
HETATM    4  N2  UNL     1     -13.415  -6.014  10.487  1.00  0.00     0.093 N 
HETATM    5  C12 UNL     1     -12.209  -5.397  11.013  1.00  0.00     0.275 C 
HETATM    6  C13 UNL     1     -11.161  -6.510  11.156  1.00  0.00     0.056 C 
ENDROOT
BRANCH   1   7
HETATM    7  N1  UNL     1     -11.002  -8.664  12.324  1.00  0.00    -0.314 N 
ATOM      8  H1  UNL     1     -10.931  -9.605  11.937  1.00  0.00     0.172 HD
BRANCH   7   9
HETATM    9  S1  UNL     1     -10.106  -8.261  13.673  1.00  0.00     0.231 S 
HETATM   10  O1  UNL     1     -10.069  -9.415  14.644  1.00  0.00    -0.206 OA
HETATM   11  O2  UNL     1      -8.689  -7.815  13.343  1.00  0.00    -0.206 OA
BRANCH   9  12
HETATM   12  C14 UNL     1     -10.825  -6.898  14.550  1.00  0.00     0.129 C 
HETATM   13  C15 UNL     1     -11.177  -7.163  15.962  1.00  0.00     0.022 C 
HETATM   14  C16 UNL     1     -11.285  -5.752  16.561  1.00  0.00     0.001 C 
HETATM   15  C17 UNL     1     -10.220  -4.968  15.853  1.00  0.00     0.001 C 
HETATM   16  C18 UNL     1      -9.779  -5.774  14.678  1.00  0.00     0.022 C 
ENDBRANCH   9  12
ENDBRANCH   7   9
ENDBRANCH   1   7
BRANCH   4  17
HETATM   17  C4  UNL     1     -14.261  -5.039   9.830  1.00  0.00     0.223 C 
HETATM   18  C5  UNL     1     -14.539  -3.911  10.740  1.00  0.00     0.036 C 
HETATM   19  C6  UNL     1     -14.161  -2.550  10.218  1.00  0.00     0.002 C 
HETATM   20  C7  UNL     1     -14.342  -2.349   8.760  1.00  0.00     0.000 C 
HETATM   21  C8  UNL     1     -15.750  -2.686   8.280  1.00  0.00     0.000 C 
HETATM   22  C9  UNL     1     -15.672  -3.977   7.526  1.00  0.00     0.000 C 
HETATM   23  C10 UNL     1     -16.350  -5.040   8.390  1.00  0.00     0.002 C 
HETATM   24  C11 UNL     1     -15.455  -5.763   9.301  1.00  0.00     0.036 C 
ENDBRANCH   4  17
TORSDOF 4
ENDMDL
MODEL 5
REMARK VINA RESULT: -7.556807792      3.117      8.062
REMARK  4 active torsions:
REMARK  status: ('A' for Active; 'I' for Inactive)
REMARK    1  A    between atoms: S1_2  and  N1_4 
REMARK    2  A    between atoms: S1_2  and  C14_20 
REMARK    3  A    between atoms: N1_4  and  C1_6 
REMARK    4  A    between atoms: N2_9  and  C4_10 
ROOT
HETATM    1  C1  UNL     1     -14.098  -6.999   9.121  1.00  0.00     0.096 C 
HETATM    2  C2  UNL     1     -13.948  -8.311   9.887  1.00  0.00     0.056 C 
HETATM    3  C3  UNL     1     -13.355  -7.967  11.235  1.00  0.00     0.275 C 
HETATM    4  N2  UNL     1     -12.378  -6.931  11.102  1.00  0.00     0.093 N 
HETATM    5  C12 UNL     1     -12.998  -5.641  10.852  1.00  0.00     0.275 C 
HETATM    6  C13 UNL     1     -14.331  -5.914  10.141  1.00  0.00     0.056 C 
ENDROOT
BRANCH   1   7
HETATM    7  N1  UNL     1     -15.051  -7.061   8.093  1.00  0.00    -0.314 N 
ATOM      8  H1  UNL     1     -15.804  -7.747   8.148  1.00  0.00     0.172 HD
BRANCH   7   9
HETATM    9  S1  UNL     1     -14.972  -6.031   6.783  1.00  0.00     0.231 S 
HETATM   10  O1  UNL     1     -13.994  -4.913   7.049  1.00  0.00    -0.206 OA
HETATM   11  O2  UNL     1     -14.612  -6.736   5.483  1.00  0.00    -0.206 OA
BRANCH   9  12
HETATM   12  C14 UNL     1     -16.535  -5.257   6.467  1.00  0.00     0.129 C 
HETATM   13  C15 UNL     1     -17.534  -6.097   5.771  1.00  0.00     0.022 C 
HETATM   14  C16 UNL     1     -18.860  -5.386   6.081  1.00  0.00     0.001 C 
HETATM   15  C17 UNL     1     -18.684  -4.869   7.479  1.00  0.00     0.001 C 
HETATM   16  C18 UNL     1     -17.232  -4.962   7.810  1.00  0.00     0.022 C 
ENDBRANCH   9  12
ENDBRANCH   7   9
ENDBRANCH   1   7
BRANCH   4  17
HETATM   17  C4  UNL     1     -11.424  -6.854  12.190  1.00  0.00     0.223 C 
HETATM   18  C5  UNL     1     -10.747  -5.542  12.182  1.00  0.00     0.036 C 
HETATM   19  C6  UNL     1     -10.852  -4.753  13.459  1.00  0.00     0.002 C 
HETATM   20  C7  UNL     1     -10.843  -5.550  14.710  1.00  0.00     0.000 C 
HETATM   21  C8  UNL     1      -9.648  -6.491  14.809  1.00  0.00     0.000 C 
HETATM   22  C9  UNL     1     -10.149  -7.883  14.586  1.00  0.00     0.000 C 
HETATM   23  C10 UNL     1      -9.633  -8.329  13.217  1.00  0.00     0.002 C 
HETATM   24  C11 UNL     1     -10.535  -8.050  12.093  1.00  0.00     0.036 C 
ENDBRANCH   4  17
TORSDOF 4
ENDMDL
