MODEL 1
REMARK VINA RESULT: -7.712796520      0.000      0.000
REMARK  3 active torsions:
REMARK  status: ('A' for Active; 'I' for Inactive)
REMARK    1  A    between atoms: C8_8  and  C9_9 
REMARK    2  A    between atoms: C9_9  and  C10_10 
REMARK    3  A    between atoms: C10_10  and  C11_12 
ROOT
HETATM    1  C11 UNL     1     -14.502  -0.991  12.752  1.00  0.00     0.256 C 
HETATM    2  C12 UNL     1     -15.417   0.175  12.201  1.00  0.00     0.054 C 
HETATM    3  C13 UNL     1     -16.641   0.155  13.048  1.00  0.00     0.016 C 
HETATM    4  C14 UNL     1     -16.598  -1.306  13.534  1.00  0.00     0.244 C 
HETATM    5  N1  UNL     1     -15.223  -1.275  13.975  1.00  0.00    -0.063 N 
ATOM      6  H11 UNL     1     -15.034  -0.630  14.743  1.00  0.00     0.278 HD
ATOM      7  H12 UNL     1     -14.914  -2.113  14.469  1.00  0.00     0.278 HD
HETATM    8  C15 UNL     1     -16.493   1.014  14.291  1.00  0.00     0.283 C 
HETATM    9  N2  UNL     1     -17.734   1.573  14.716  1.00  0.00     0.089 N 
HETATM   10  C16 UNL     1     -18.810   0.610  14.753  1.00  0.00     0.273 C 
HETATM   11  C17 UNL     1     -19.036  -0.042  13.424  1.00  0.00     0.036 C 
HETATM   12  C18 UNL     1     -17.958   0.449  12.430  1.00  0.00     0.001 C 
HETATM   13  C19 UNL     1     -18.157   1.951  12.347  1.00  0.00     0.036 C 
HETATM   14  C20 UNL     1     -18.134   2.587  13.738  1.00  0.00     0.273 C 
ENDROOT
BRANCH   1  15
HETATM   15  C10 UNL     1     -14.564  -2.085  11.787  1.00  0.00     0.160 C 
HETATM   16  O1  UNL     1     -15.128  -1.957  10.727  1.00  0.00    -0.295 OA
BRANCH  15  17
HETATM   17  C9  UNL     1     -13.925  -3.424  12.090  1.00  0.00     0.108 C 
BRANCH  17  18
HETATM   18  C8  UNL     1     -14.722  -4.478  11.398  1.00  0.00    -0.016 C 
HETATM   19  C7  UNL     1     -14.194  -5.241  10.287  1.00  0.00    -0.075 C 
HETATM   20  C2  UNL     1     -13.209  -6.334  10.549  1.00  0.00    -0.021 C 
HETATM   21  C6  UNL     1     -15.096  -5.769   9.236  1.00  0.00     0.039 C 
HETATM   22  C1  UNL     1     -11.993  -6.148  11.306  1.00  0.00     0.020 C 
HETATM   23  C3  UNL     1     -13.999  -7.573  11.106  1.00  0.00     0.014 C 
HETATM   24  C21 UNL     1     -13.036  -6.904   9.133  1.00  0.00     0.018 C 
HETATM   25  C4  UNL     1     -14.872  -8.053   9.977  1.00  0.00     0.006 C 
HETATM   26  C5  UNL     1     -14.506  -7.125   8.849  1.00  0.00    -0.010 C 
ENDBRANCH  17  18
ENDBRANCH  15  17
ENDBRANCH   1  15
TORSDOF 3
ENDMDL
MODEL 2
REMARK VINA RESULT: -7.660262043      4.512      6.443
REMARK  3 active torsions:
REMARK  status: ('A' for Active; 'I' for Inactive)
REMARK    1  A    between atoms: C8_8  and  C9_9 
REMARK    2  A    between atoms: C9_9  and  C10_10 
REMARK    3  A    between atoms: C10_10  and  C11_12 
ROOT
HETATM    1  C11 UNL     1     -14.546  -6.067   9.988  1.00  0.00     0.256 C 
HETATM    2  C12 UNL     1     -14.400  -4.509  10.214  1.00  0.00     0.054 C 
HETATM    3  C13 UNL     1     -14.503  -3.898   8.860  1.00  0.00     0.016 C 
HETATM    4  C14 UNL     1     -14.082  -5.102   7.998  1.00  0.00     0.244 C 
HETATM    5  N1  UNL     1     -14.988  -6.047   8.609  1.00  0.00    -0.063 N 
ATOM      6  H11 UNL     1     -15.978  -5.834   8.481  1.00  0.00     0.278 HD
ATOM      7  H12 UNL     1     -15.021  -6.961   8.157  1.00  0.00     0.278 HD
HETATM    8  C15 UNL     1     -15.939  -3.591   8.477  1.00  0.00     0.283 C 
HETATM    9  N2  UNL     1     -16.043  -2.459   7.616  1.00  0.00     0.089 N 
HETATM   10  C16 UNL     1     -15.102  -2.491   6.520  1.00  0.00     0.273 C 
HETATM   11  C17 UNL     1     -13.683  -2.577   6.990  1.00  0.00     0.036 C 
HETATM   12  C18 UNL     1     -13.667  -2.717   8.530  1.00  0.00     0.001 C 
HETATM   13  C19 UNL     1     -14.342  -1.458   9.043  1.00  0.00     0.036 C 
HETATM   14  C20 UNL     1     -15.714  -1.264   8.395  1.00  0.00     0.273 C 
ENDROOT
BRANCH   1  15
HETATM   15  C10 UNL     1     -13.220  -6.656  10.152  1.00  0.00     0.160 C 
HETATM   16  O1  UNL     1     -12.842  -7.560   9.448  1.00  0.00    -0.295 OA
BRANCH  15  17
HETATM   17  C9  UNL     1     -12.274  -6.151  11.222  1.00  0.00     0.108 C 
BRANCH  17  18
HETATM   18  C8  UNL     1     -11.911  -7.306  12.093  1.00  0.00    -0.016 C 
HETATM   19  C7  UNL     1     -10.634  -7.393  12.768  1.00  0.00    -0.075 C 
HETATM   20  C2  UNL     1     -10.387  -6.559  13.984  1.00  0.00    -0.021 C 
HETATM   21  C6  UNL     1     -10.023  -8.710  13.066  1.00  0.00     0.039 C 
HETATM   22  C1  UNL     1     -10.577  -5.127  14.022  1.00  0.00     0.020 C 
HETATM   23  C3  UNL     1     -11.140  -7.228  15.190  1.00  0.00     0.014 C 
HETATM   24  C21 UNL     1      -8.994  -7.061  14.394  1.00  0.00     0.018 C 
HETATM   25  C4  UNL     1     -10.450  -8.544  15.433  1.00  0.00     0.006 C 
HETATM   26  C5  UNL     1      -9.337  -8.534  14.420  1.00  0.00    -0.010 C 
ENDBRANCH  17  18
ENDBRANCH  15  17
ENDBRANCH   1  15
TORSDOF 3
ENDMDL
MODEL 3
REMARK VINA RESULT: -7.408071215      1.384      2.224
REMARK  3 active torsions:
REMARK  status: ('A' for Active; 'I' for Inactive)
REMARK    1  A    between atoms: C8_8  and  C9_9 
REMARK    2  A    between atoms: C9_9  and  C10_10 
REMARK    3  A    between atoms: C10_10  and  C11_12 
ROOT
HETATM    1  C11 UNL     1     -14.603  -1.131  13.313  1.00  0.00     0.256 C 
HETATM    2  C12 UNL     1     -15.421  -0.036  12.519  1.00  0.00     0.054 C 
HETATM    3  C13 UNL     1     -16.724   0.080  13.228  1.00  0.00     0.016 C 
HETATM    4  C14 UNL     1     -16.776  -1.301  13.906  1.00  0.00     0.244 C 
HETATM    5  N1  UNL     1     -15.453  -1.235  14.481  1.00  0.00    -0.063 N 
ATOM      6  H11 UNL     1     -15.323  -0.494  15.171  1.00  0.00     0.278 HD
ATOM      7  H12 UNL     1     -15.221  -2.003  15.112  1.00  0.00     0.278 HD
HETATM    8  C15 UNL     1     -16.677   1.097  14.353  1.00  0.00     0.283 C 
HETATM    9  N2  UNL     1     -17.936   1.731  14.568  1.00  0.00     0.089 N 
HETATM   10  C16 UNL     1     -19.040   0.799  14.619  1.00  0.00     0.273 C 
HETATM   11  C17 UNL     1     -19.150  -0.023  13.373  1.00  0.00     0.036 C 
HETATM   12  C18 UNL     1     -17.962   0.310  12.441  1.00  0.00     0.001 C 
HETATM   13  C19 UNL     1     -18.105   1.790  12.139  1.00  0.00     0.036 C 
HETATM   14  C20 UNL     1     -18.203   2.608  13.427  1.00  0.00     0.273 C 
ENDROOT
BRANCH   1  15
HETATM   15  C10 UNL     1     -14.601  -2.345  12.501  1.00  0.00     0.160 C 
HETATM   16  O1  UNL     1     -14.595  -3.441  13.008  1.00  0.00    -0.295 OA
BRANCH  15  17
HETATM   17  C9  UNL     1     -14.600  -2.267  10.988  1.00  0.00     0.108 C 
BRANCH  17  18
HETATM   18  C8  UNL     1     -14.200  -3.603  10.462  1.00  0.00    -0.016 C 
HETATM   19  C7  UNL     1     -15.128  -4.467   9.763  1.00  0.00    -0.075 C 
HETATM   20  C2  UNL     1     -15.495  -4.158   8.347  1.00  0.00    -0.021 C 
HETATM   21  C6  UNL     1     -14.976  -5.940   9.816  1.00  0.00     0.039 C 
HETATM   22  C1  UNL     1     -15.997  -2.874   7.915  1.00  0.00     0.020 C 
HETATM   23  C3  UNL     1     -14.298  -4.598   7.430  1.00  0.00     0.014 C 
HETATM   24  C21 UNL     1     -16.378  -5.370   8.013  1.00  0.00     0.018 C 
HETATM   25  C4  UNL     1     -14.225  -6.099   7.530  1.00  0.00     0.006 C 
HETATM   26  C5  UNL     1     -15.386  -6.434   8.428  1.00  0.00    -0.010 C 
ENDBRANCH  17  18
ENDBRANCH  15  17
ENDBRANCH   1  15
TORSDOF 3
ENDMDL
MODEL 4
REMARK VINA RESULT: -7.397247044      5.724      7.386
REMARK  3 active torsions:
REMARK  status: ('A' for Active; 'I' for Inactive)
REMARK    1  A    between atoms: C8_8  and  C9_9 
REMARK    2  A    between atoms: C9_9  and  C10_10 
REMARK    3  A    between atoms: C10_10  and  C11_12 
ROOT
HETATM    1  C11 UNL     1     -13.440  -6.690  11.102  1.00  0.00     0.256 C 
HETATM    2  C12 UNL     1     -13.381  -5.620   9.939  1.00  0.00     0.054 C 
HETATM    3  C13 UNL     1     -14.430  -6.031   8.966  1.00  0.00     0.016 C 
HETATM    4  C14 UNL     1     -14.535  -7.528   9.312  1.00  0.00     0.244 C 
HETATM    5  N1  UNL     1     -14.681  -7.341  10.737  1.00  0.00    -0.063 N 
ATOM      6  H11 UNL     1     -15.525  -6.841  11.018  1.00  0.00     0.278 HD
ATOM      7  H12 UNL     1     -14.888  -8.192  11.261  1.00  0.00     0.278 HD
HETATM    8  C15 UNL     1     -15.784  -5.429   9.294  1.00  0.00     0.283 C 
HETATM    9  N2  UNL     1     -16.573  -5.199   8.129  1.00  0.00     0.089 N 
HETATM   10  C16 UNL     1     -16.598  -6.327   7.227  1.00  0.00     0.273 C 
HETATM   11  C17 UNL     1     -15.227  -6.726   6.776  1.00  0.00     0.036 C 
HETATM   12  C18 UNL     1     -14.180  -5.859   7.513  1.00  0.00     0.001 C 
HETATM   13  C19 UNL     1     -14.500  -4.432   7.108  1.00  0.00     0.036 C 
HETATM   14  C20 UNL     1     -15.967  -4.097   7.380  1.00  0.00     0.273 C 
ENDROOT
BRANCH   1  15
HETATM   15  C10 UNL     1     -12.276  -7.559  10.953  1.00  0.00     0.160 C 
HETATM   16  O1  UNL     1     -12.386  -8.761  10.939  1.00  0.00    -0.295 OA
BRANCH  15  17
HETATM   17  C9  UNL     1     -10.885  -6.976  10.815  1.00  0.00     0.108 C 
BRANCH  17  18
HETATM   18  C8  UNL     1     -10.676  -6.021  11.942  1.00  0.00    -0.016 C 
HETATM   19  C7  UNL     1     -11.051  -6.340  13.303  1.00  0.00    -0.075 C 
HETATM   20  C2  UNL     1     -10.199  -7.273  14.101  1.00  0.00    -0.021 C 
HETATM   21  C6  UNL     1     -11.451  -5.270  14.247  1.00  0.00     0.039 C 
HETATM   22  C1  UNL     1      -9.817  -8.591  13.647  1.00  0.00     0.020 C 
HETATM   23  C3  UNL     1      -8.925  -6.482  14.571  1.00  0.00     0.014 C 
HETATM   24  C21 UNL     1     -10.910  -7.213  15.461  1.00  0.00     0.018 C 
HETATM   25  C4  UNL     1      -9.418  -5.433  15.533  1.00  0.00     0.006 C 
HETATM   26  C5  UNL     1     -10.896  -5.707  15.603  1.00  0.00    -0.010 C 
ENDBRANCH  17  18
ENDBRANCH  15  17
ENDBRANCH   1  15
TORSDOF 3
ENDMDL
MODEL 5
REMARK VINA RESULT: -7.358917845      5.762      7.371
REMARK  3 active torsions:
REMARK  status: ('A' for Active; 'I' for Inactive)
REMARK    1  A    between atoms: C8_8  and  C9_9 
REMARK    2  A    between atoms: C9_9  and  C10_10 
REMARK    3  A    between atoms: C10_10  and  C11_12 
ROOT
HETATM    1  C11 UNL     1     -14.055  -6.776  10.308  1.00  0.00     0.256 C 
HETATM    2  C12 UNL     1     -15.453  -6.135   9.944  1.00  0.00     0.054 C 
HETATM    3  C13 UNL     1     -15.387  -5.834   8.487  1.00  0.00     0.016 C 
HETATM    4  C14 UNL     1     -13.860  -5.740   8.310  1.00  0.00     0.244 C 
HETATM    5  N1  UNL     1     -13.556  -6.991   8.965  1.00  0.00    -0.063 N 
ATOM      6  H11 UNL     1     -13.927  -7.819   8.499  1.00  0.00     0.278 HD
ATOM      7  H12 UNL     1     -12.577  -7.274   8.913  1.00  0.00     0.278 HD
HETATM    8  C15 UNL     1     -15.834  -7.010   7.638  1.00  0.00     0.283 C 
HETATM    9  N2  UNL     1     -16.437  -6.598   6.413  1.00  0.00     0.089 N 
HETATM   10  C16 UNL     1     -15.677  -5.584   5.718  1.00  0.00     0.273 C 
HETATM   11  C17 UNL     1     -15.462  -4.360   6.553  1.00  0.00     0.036 C 
HETATM   12  C18 UNL     1     -16.038  -4.606   7.968  1.00  0.00     0.001 C 
HETATM   13  C19 UNL     1     -17.516  -4.869   7.747  1.00  0.00     0.036 C 
HETATM   14  C20 UNL     1     -17.730  -5.987   6.726  1.00  0.00     0.273 C 
ENDROOT
BRANCH   1  15
HETATM   15  C10 UNL     1     -13.294  -5.771  11.044  1.00  0.00     0.160 C 
HETATM   16  O1  UNL     1     -13.825  -4.783  11.491  1.00  0.00    -0.295 OA
BRANCH  15  17
HETATM   17  C9  UNL     1     -11.805  -5.934  11.267  1.00  0.00     0.108 C 
BRANCH  17  18
HETATM   18  C8  UNL     1     -11.598  -7.148  12.107  1.00  0.00    -0.016 C 
HETATM   19  C7  UNL     1     -10.412  -7.335  12.916  1.00  0.00    -0.075 C 
HETATM   20  C2  UNL     1     -10.268  -6.577  14.196  1.00  0.00    -0.021 C 
HETATM   21  C6  UNL     1      -9.902  -8.696  13.206  1.00  0.00     0.039 C 
HETATM   22  C1  UNL     1     -10.395  -5.141  14.291  1.00  0.00     0.020 C 
HETATM   23  C3  UNL     1     -11.185  -7.265  15.270  1.00  0.00     0.014 C 
HETATM   24  C21 UNL     1      -8.957  -7.172  14.730  1.00  0.00     0.018 C 
HETATM   25  C4  UNL     1     -10.589  -8.627  15.516  1.00  0.00     0.006 C 
HETATM   26  C5  UNL     1      -9.367  -8.624  14.636  1.00  0.00    -0.010 C 
ENDBRANCH  17  18
ENDBRANCH  15  17
ENDBRANCH   1  15
TORSDOF 3
ENDMDL
