MODEL 1
REMARK VINA RESULT: -7.701744262      0.000      0.000
REMARK  5 active torsions:
REMARK  status: ('A' for Active; 'I' for Inactive)
REMARK    1  A    between atoms: C2_2  and  C3_3 
REMARK    2  A    between atoms: C2_2  and  N2_6 
REMARK    3  A    between atoms: N2_6  and  C5_9 
REMARK    4  A    between atoms: C5_9  and  C6_10 
REMARK       I    between atoms: N3_16  and  C12_17 
REMARK    5  A    between atoms: C12_17  and  C13_19 
ROOT
HETATM    1  C3  UNL     1     -10.517  -6.654  11.866  1.00  0.00     0.156 C 
HETATM    2  C4  UNL     1     -10.508  -8.041  12.383  1.00  0.00     0.061 C 
HETATM    3  N1  UNL     1     -10.501  -9.122  12.807  1.00  0.00    -0.197 NA
ENDROOT
BRANCH   1   4
HETATM    4  C2  UNL     1     -11.408  -5.849  12.805  1.00  0.00     0.195 C 
HETATM    5  C1  UNL     1     -10.554  -5.364  13.925  1.00  0.00     0.041 C 
BRANCH   4   6
HETATM    6  N2  UNL     1     -12.024  -4.824  12.004  1.00  0.00    -0.070 N 
ATOM      7  H22 UNL     1     -12.805  -4.391  12.496  1.00  0.00     0.277 HD
ATOM      8  H21 UNL     1     -11.415  -4.011  11.917  1.00  0.00     0.277 HD
BRANCH   6   9
HETATM    9  C5  UNL     1     -12.426  -5.304  10.725  1.00  0.00     0.244 C 
BRANCH   9  10
HETATM   10  C6  UNL     1     -13.879  -5.663  10.774  1.00  0.00     0.005 C 
HETATM   11  C7  UNL     1     -14.157  -7.041  11.227  1.00  0.00     0.013 C 
HETATM   12  C8  UNL     1     -13.763  -7.847   9.977  1.00  0.00     0.001 C 
HETATM   13  C9  UNL     1     -13.806  -6.849   8.808  1.00  0.00     0.007 C 
HETATM   14  C10 UNL     1     -14.526  -5.727   9.382  1.00  0.00     0.015 C 
HETATM   15  C11 UNL     1     -14.301  -4.344   8.954  1.00  0.00     0.131 C 
HETATM   16  N3  UNL     1     -14.518  -3.592  10.173  1.00  0.00    -0.351 N 
HETATM   17  C12 UNL     1     -14.584  -2.202  10.327  1.00  0.00     0.224 C 
HETATM   18  C21 UNL     1     -14.668  -4.536  11.305  1.00  0.00     0.137 C 
HETATM   19  O1  UNL     1     -14.760  -1.722  11.507  1.00  0.00    -0.273 OA
BRANCH  17  20
HETATM   20  C13 UNL     1     -14.475  -1.197   9.250  1.00  0.00     0.078 C 
HETATM   21  C14 UNL     1     -13.426  -1.625   8.277  1.00  0.00     0.015 C 
HETATM   22  C15 UNL     1     -13.480  -0.982   6.933  1.00  0.00     0.010 C 
HETATM   23  C16 UNL     1     -14.850  -0.716   6.414  1.00  0.00    -0.048 C 
HETATM   24  C17 UNL     1     -15.489  -2.006   5.952  1.00  0.00     0.015 C 
HETATM   25  C18 UNL     1     -14.784   0.250   5.252  1.00  0.00     0.015 C 
HETATM   26  C19 UNL     1     -15.702  -0.045   7.489  1.00  0.00     0.010 C 
HETATM   27  C20 UNL     1     -15.832  -1.068   8.595  1.00  0.00     0.015 C 
ENDBRANCH  17  20
ENDBRANCH   9  10
ENDBRANCH   6   9
ENDBRANCH   4   6
ENDBRANCH   1   4
TORSDOF 5
ENDMDL
MODEL 2
REMARK VINA RESULT: -7.411922359      1.177      1.776
REMARK  5 active torsions:
REMARK  status: ('A' for Active; 'I' for Inactive)
REMARK    1  A    between atoms: C2_2  and  C3_3 
REMARK    2  A    between atoms: C2_2  and  N2_6 
REMARK    3  A    between atoms: N2_6  and  C5_9 
REMARK    4  A    between atoms: C5_9  and  C6_10 
REMARK       I    between atoms: N3_16  and  C12_17 
REMARK    5  A    between atoms: C12_17  and  C13_19 
ROOT
HETATM    1  C3  UNL     1     -10.854  -6.609  11.526  1.00  0.00     0.156 C 
HETATM    2  C4  UNL     1     -10.842  -8.011  12.001  1.00  0.00     0.061 C 
HETATM    3  N1  UNL     1     -10.831  -9.104  12.392  1.00  0.00    -0.197 NA
ENDROOT
BRANCH   1   4
HETATM    4  C2  UNL     1     -11.618  -5.805  12.573  1.00  0.00     0.195 C 
HETATM    5  C1  UNL     1     -10.628  -5.321  13.574  1.00  0.00     0.041 C 
BRANCH   4   6
HETATM    6  N2  UNL     1     -12.332  -4.781  11.859  1.00  0.00    -0.070 N 
ATOM      7  H22 UNL     1     -13.178  -4.505  12.358  1.00  0.00     0.277 HD
ATOM      8  H21 UNL     1     -11.830  -3.894  11.888  1.00  0.00     0.277 HD
BRANCH   6   9
HETATM    9  C5  UNL     1     -12.628  -5.160  10.518  1.00  0.00     0.244 C 
BRANCH   9  10
HETATM   10  C6  UNL     1     -14.113  -5.273  10.360  1.00  0.00     0.005 C 
HETATM   11  C7  UNL     1     -14.751  -6.270  11.242  1.00  0.00     0.013 C 
HETATM   12  C8  UNL     1     -14.344  -7.581  10.547  1.00  0.00     0.001 C 
HETATM   13  C9  UNL     1     -13.983  -7.192   9.104  1.00  0.00     0.007 C 
HETATM   14  C10 UNL     1     -14.526  -5.850   8.997  1.00  0.00     0.015 C 
HETATM   15  C11 UNL     1     -13.943  -4.831   8.123  1.00  0.00     0.131 C 
HETATM   16  N3  UNL     1     -14.185  -3.604   8.854  1.00  0.00    -0.351 N 
HETATM   17  C12 UNL     1     -13.973  -2.288   8.423  1.00  0.00     0.224 C 
HETATM   18  C21 UNL     1     -14.714  -3.936  10.197  1.00  0.00     0.137 C 
HETATM   19  O1  UNL     1     -14.227  -1.327   9.238  1.00  0.00    -0.273 OA
BRANCH  17  20
HETATM   20  C13 UNL     1     -13.477  -1.873   7.094  1.00  0.00     0.078 C 
HETATM   21  C14 UNL     1     -14.587  -1.966   6.100  1.00  0.00     0.015 C 
HETATM   22  C15 UNL     1     -14.402  -1.192   4.840  1.00  0.00     0.010 C 
HETATM   23  C16 UNL     1     -13.712   0.118   4.997  1.00  0.00    -0.048 C 
HETATM   24  C17 UNL     1     -14.650   1.127   5.617  1.00  0.00     0.015 C 
HETATM   25  C18 UNL     1     -13.254   0.627   3.649  1.00  0.00     0.015 C 
HETATM   26  C19 UNL     1     -12.455  -0.046   5.849  1.00  0.00     0.010 C 
HETATM   27  C20 UNL     1     -12.947  -0.462   7.217  1.00  0.00     0.015 C 
ENDBRANCH  17  20
ENDBRANCH   9  10
ENDBRANCH   6   9
ENDBRANCH   4   6
ENDBRANCH   1   4
TORSDOF 5
ENDMDL
MODEL 3
REMARK VINA RESULT: -7.389119228      5.151      7.418
REMARK  5 active torsions:
REMARK  status: ('A' for Active; 'I' for Inactive)
REMARK    1  A    between atoms: C2_2  and  C3_3 
REMARK    2  A    between atoms: C2_2  and  N2_6 
REMARK    3  A    between atoms: N2_6  and  C5_9 
REMARK    4  A    between atoms: C5_9  and  C6_10 
REMARK       I    between atoms: N3_16  and  C12_17 
REMARK    5  A    between atoms: C12_17  and  C13_19 
ROOT
HETATM    1  C3  UNL     1     -12.181  -7.084  10.661  1.00  0.00     0.156 C 
HETATM    2  C4  UNL     1     -11.560  -8.094  11.548  1.00  0.00     0.061 C 
HETATM    3  N1  UNL     1     -11.091  -8.891  12.250  1.00  0.00    -0.197 NA
ENDROOT
BRANCH   1   4
HETATM    4  C2  UNL     1     -13.481  -7.698  10.152  1.00  0.00     0.195 C 
HETATM    5  C1  UNL     1     -14.577  -7.225  11.044  1.00  0.00     0.041 C 
BRANCH   4   6
HETATM    6  N2  UNL     1     -13.598  -7.318   8.769  1.00  0.00    -0.070 N 
ATOM      7  H22 UNL     1     -12.975  -6.541   8.547  1.00  0.00     0.277 HD
ATOM      8  H21 UNL     1     -13.196  -8.028   8.158  1.00  0.00     0.277 HD
BRANCH   6   9
HETATM    9  C5  UNL     1     -14.941  -7.021   8.399  1.00  0.00     0.244 C 
BRANCH   9  10
HETATM   10  C6  UNL     1     -14.936  -5.889   7.418  1.00  0.00     0.005 C 
HETATM   11  C7  UNL     1     -14.255  -4.668   7.891  1.00  0.00     0.013 C 
HETATM   12  C8  UNL     1     -15.295  -4.113   8.879  1.00  0.00     0.001 C 
HETATM   13  C9  UNL     1     -16.632  -4.763   8.484  1.00  0.00     0.007 C 
HETATM   14  C10 UNL     1     -16.338  -5.308   7.170  1.00  0.00     0.015 C 
HETATM   15  C11 UNL     1     -17.000  -6.505   6.648  1.00  0.00     0.131 C 
HETATM   16  N3  UNL     1     -15.965  -7.117   5.839  1.00  0.00    -0.351 N 
HETATM   17  C12 UNL     1     -16.082  -8.214   4.976  1.00  0.00     0.224 C 
HETATM   18  C21 UNL     1     -14.691  -6.394   6.054  1.00  0.00     0.137 C 
HETATM   19  O1  UNL     1     -15.031  -8.626   4.362  1.00  0.00    -0.273 OA
BRANCH  17  20
HETATM   20  C13 UNL     1     -17.319  -8.969   4.685  1.00  0.00     0.078 C 
HETATM   21  C14 UNL     1     -17.138  -9.748   3.424  1.00  0.00     0.015 C 
HETATM   22  C15 UNL     1     -18.087 -10.878   3.212  1.00  0.00     0.010 C 
HETATM   23  C16 UNL     1     -18.473 -11.619   4.444  1.00  0.00    -0.048 C 
HETATM   24  C17 UNL     1     -17.335 -12.506   4.894  1.00  0.00     0.015 C 
HETATM   25  C18 UNL     1     -19.692 -12.472   4.174  1.00  0.00     0.015 C 
HETATM   26  C19 UNL     1     -18.864 -10.641   5.549  1.00  0.00     0.010 C 
HETATM   27  C20 UNL     1     -17.605  -9.867   5.867  1.00  0.00     0.015 C 
ENDBRANCH  17  20
ENDBRANCH   9  10
ENDBRANCH   6   9
ENDBRANCH   4   6
ENDBRANCH   1   4
TORSDOF 5
ENDMDL
MODEL 4
REMARK VINA RESULT: -7.353311356      3.500      6.276
REMARK  5 active torsions:
REMARK  status: ('A' for Active; 'I' for Inactive)
REMARK    1  A    between atoms: C2_2  and  C3_3 
REMARK    2  A    between atoms: C2_2  and  N2_6 
REMARK    3  A    between atoms: N2_6  and  C5_9 
REMARK    4  A    between atoms: C5_9  and  C6_10 
REMARK       I    between atoms: N3_16  and  C12_17 
REMARK    5  A    between atoms: C12_17  and  C13_19 
ROOT
HETATM    1  C3  UNL     1     -11.990  -7.216  17.387  1.00  0.00     0.156 C 
HETATM    2  C4  UNL     1     -12.252  -7.150  18.843  1.00  0.00     0.061 C 
HETATM    3  N1  UNL     1     -12.465  -7.116  19.983  1.00  0.00    -0.197 NA
ENDROOT
BRANCH   1   4
HETATM    4  C2  UNL     1     -11.576  -8.654  17.088  1.00  0.00     0.195 C 
HETATM    5  C1  UNL     1     -12.804  -9.494  17.153  1.00  0.00     0.041 C 
BRANCH   4   6
HETATM    6  N2  UNL     1     -10.907  -8.629  15.815  1.00  0.00    -0.070 N 
ATOM      7  H22 UNL     1      -9.895  -8.584  15.931  1.00  0.00     0.277 HD
ATOM      8  H21 UNL     1     -10.977  -9.531  15.344  1.00  0.00     0.277 HD
BRANCH   6   9
HETATM    9  C5  UNL     1     -11.374  -7.575  14.977  1.00  0.00     0.244 C 
BRANCH   9  10
HETATM   10  C6  UNL     1     -10.234  -7.073  14.146  1.00  0.00     0.005 C 
HETATM   11  C7  UNL     1      -9.033  -6.692  14.916  1.00  0.00     0.013 C 
HETATM   12  C8  UNL     1      -9.484  -5.353  15.523  1.00  0.00     0.001 C 
HETATM   13  C9  UNL     1     -10.649  -4.869  14.644  1.00  0.00     0.007 C 
HETATM   14  C10 UNL     1     -10.533  -5.723  13.475  1.00  0.00     0.015 C 
HETATM   15  C11 UNL     1     -11.691  -6.113  12.667  1.00  0.00     0.131 C 
HETATM   16  N3  UNL     1     -11.336  -7.444  12.221  1.00  0.00    -0.351 N 
HETATM   17  C12 UNL     1     -12.006  -8.248  11.291  1.00  0.00     0.224 C 
HETATM   18  C21 UNL     1     -10.102  -7.876  12.916  1.00  0.00     0.137 C 
HETATM   19  O1  UNL     1     -11.543  -9.423  11.046  1.00  0.00    -0.273 OA
BRANCH  17  20
HETATM   20  C13 UNL     1     -13.222  -7.882  10.534  1.00  0.00     0.078 C 
HETATM   21  C14 UNL     1     -14.165  -7.153  11.434  1.00  0.00     0.015 C 
HETATM   22  C15 UNL     1     -15.218  -6.343  10.758  1.00  0.00     0.010 C 
HETATM   23  C16 UNL     1     -14.790  -5.672   9.500  1.00  0.00    -0.048 C 
HETATM   24  C17 UNL     1     -13.916  -4.482   9.819  1.00  0.00     0.015 C 
HETATM   25  C18 UNL     1     -16.002  -5.206   8.724  1.00  0.00     0.015 C 
HETATM   26  C19 UNL     1     -14.052  -6.659   8.599  1.00  0.00     0.010 C 
HETATM   27  C20 UNL     1     -12.798  -7.035   9.356  1.00  0.00     0.015 C 
ENDBRANCH  17  20
ENDBRANCH   9  10
ENDBRANCH   6   9
ENDBRANCH   4   6
ENDBRANCH   1   4
TORSDOF 5
ENDMDL
MODEL 5
REMARK VINA RESULT: -7.332422647      3.347      7.706
REMARK  5 active torsions:
REMARK  status: ('A' for Active; 'I' for Inactive)
REMARK    1  A    between atoms: C2_2  and  C3_3 
REMARK    2  A    between atoms: C2_2  and  N2_6 
REMARK    3  A    between atoms: N2_6  and  C5_9 
REMARK    4  A    between atoms: C5_9  and  C6_10 
REMARK       I    between atoms: N3_16  and  C12_17 
REMARK    5  A    between atoms: C12_17  and  C13_19 
ROOT
HETATM    1  C3  UNL     1     -14.107  -6.956   4.022  1.00  0.00     0.156 C 
HETATM    2  C4  UNL     1     -13.565  -6.249   2.839  1.00  0.00     0.061 C 
HETATM    3  N1  UNL     1     -13.151  -5.679   1.916  1.00  0.00    -0.197 NA
ENDROOT
BRANCH   1   4
HETATM    4  C2  UNL     1     -14.288  -5.901   5.109  1.00  0.00     0.195 C 
HETATM    5  C1  UNL     1     -15.388  -4.996   4.674  1.00  0.00     0.041 C 
BRANCH   4   6
HETATM    6  N2  UNL     1     -14.520  -6.617   6.335  1.00  0.00    -0.070 N 
ATOM      7  H22 UNL     1     -15.488  -6.931   6.401  1.00  0.00     0.277 HD
ATOM      8  H21 UNL     1     -14.054  -7.524   6.325  1.00  0.00     0.277 HD
BRANCH   6   9
HETATM    9  C5  UNL     1     -14.146  -5.861   7.483  1.00  0.00     0.244 C 
BRANCH   9  10
HETATM   10  C6  UNL     1     -15.186  -6.044   8.546  1.00  0.00     0.005 C 
HETATM   11  C7  UNL     1     -16.575  -5.832   8.090  1.00  0.00     0.013 C 
HETATM   12  C8  UNL     1     -16.620  -4.299   7.984  1.00  0.00     0.001 C 
HETATM   13  C9  UNL     1     -15.469  -3.786   8.866  1.00  0.00     0.007 C 
HETATM   14  C10 UNL     1     -15.120  -4.965   9.639  1.00  0.00     0.015 C 
HETATM   15  C11 UNL     1     -13.762  -5.211  10.130  1.00  0.00     0.131 C 
HETATM   16  N3  UNL     1     -13.660  -6.655  10.081  1.00  0.00    -0.351 N 
HETATM   17  C12 UNL     1     -12.630  -7.463  10.578  1.00  0.00     0.224 C 
HETATM   18  C21 UNL     1     -14.853  -7.203   9.395  1.00  0.00     0.137 C 
HETATM   19  O1  UNL     1     -12.712  -8.735  10.411  1.00  0.00    -0.273 OA
BRANCH  17  20
HETATM   20  C13 UNL     1     -11.425  -7.000  11.297  1.00  0.00     0.078 C 
HETATM   21  C14 UNL     1     -11.779  -5.831  12.157  1.00  0.00     0.015 C 
HETATM   22  C15 UNL     1     -10.824  -5.516  13.257  1.00  0.00     0.010 C 
HETATM   23  C16 UNL     1     -10.196  -6.699  13.907  1.00  0.00    -0.048 C 
HETATM   24  C17 UNL     1     -11.193  -7.384  14.812  1.00  0.00     0.015 C 
HETATM   25  C18 UNL     1      -8.999  -6.265  14.724  1.00  0.00     0.015 C 
HETATM   26  C19 UNL     1      -9.671  -7.667  12.850  1.00  0.00     0.010 C 
HETATM   27  C20 UNL     1     -10.895  -8.158  12.111  1.00  0.00     0.015 C 
ENDBRANCH  17  20
ENDBRANCH   9  10
ENDBRANCH   6   9
ENDBRANCH   4   6
ENDBRANCH   1   4
TORSDOF 5
ENDMDL
