MODEL 1
REMARK VINA RESULT: -7.772206490      0.000      0.000
REMARK  7 active torsions:
REMARK  status: ('A' for Active; 'I' for Inactive)
REMARK    1  A    between atoms: C2_2  and  N1_3 
REMARK    2  A    between atoms: C10_11  and  C11_12 
REMARK    3  A    between atoms: C11_12  and  C12_13 
REMARK    4  A    between atoms: C12_13  and  O1_14 
REMARK    5  A    between atoms: C12_13  and  C13_16 
REMARK    6  A    between atoms: C13_16  and  O2_17 
REMARK    7  A    between atoms: C13_16  and  N2_19 
ROOT
HETATM    1  N1  UNL     1     -16.630  -4.650   6.576  1.00  0.00     0.088 N 
HETATM    2  C3  UNL     1     -16.053  -5.920   6.194  1.00  0.00     0.272 C 
HETATM    3  C4  UNL     1     -14.614  -5.900   6.667  1.00  0.00     0.031 C 
HETATM    4  C5  UNL     1     -14.362  -4.755   7.628  1.00  0.00     0.013 C 
HETATM    5  C6  UNL     1     -15.456  -4.611   8.653  1.00  0.00    -0.010 C 
HETATM    6  C7  UNL     1     -15.322  -3.310   9.381  1.00  0.00     0.015 C 
HETATM    7  C8  UNL     1     -14.014  -3.136  10.071  1.00  0.00     0.028 C 
HETATM    8  C9  UNL     1     -13.595  -4.423  10.730  1.00  0.00    -0.024 C 
HETATM    9  C10 UNL     1     -14.190  -5.570  10.544  1.00  0.00    -0.080 C 
HETATM   10  C19 UNL     1     -15.382  -5.725   9.639  1.00  0.00     0.045 C 
HETATM   11  C20 UNL     1     -16.835  -4.587   7.981  1.00  0.00     0.282 C 
ENDROOT
BRANCH   9  12
HETATM   12  C11 UNL     1     -13.744  -6.812  11.210  1.00  0.00     0.074 C 
BRANCH  12  13
HETATM   13  C12 UNL     1     -12.860  -7.698  10.371  1.00  0.00     0.196 C 
BRANCH  13  14
HETATM   14  O1  UNL     1     -13.518  -8.730   9.778  1.00  0.00    -0.387 OA
ATOM     15  H1  UNL     1     -13.709  -9.453  10.364  1.00  0.00     0.210 HD
ENDBRANCH  13  14
BRANCH  13  16
HETATM   16  C13 UNL     1     -11.774  -8.173  11.257  1.00  0.00     0.143 C 
BRANCH  16  17
HETATM   17  O2  UNL     1     -11.796  -9.480  11.397  1.00  0.00    -0.347 OA
ATOM     18  H2  UNL     1     -12.325  -9.747  12.139  1.00  0.00     0.219 HD
ENDBRANCH  16  17
BRANCH  16  19
HETATM   19  N2  UNL     1     -10.797  -7.441  11.918  1.00  0.00    -0.363 N 
HETATM   20  C14 UNL     1     -10.460  -6.065  11.800  1.00  0.00     0.124 C 
HETATM   21  C15 UNL     1     -10.937  -5.394  13.097  1.00  0.00     0.020 C 
HETATM   22  C16 UNL     1     -10.276  -6.078  14.279  1.00  0.00     0.003 C 
HETATM   23  C17 UNL     1     -10.381  -7.570  14.252  1.00  0.00     0.020 C 
HETATM   24  C18 UNL     1      -9.977  -8.181  12.923  1.00  0.00     0.124 C 
ENDBRANCH  16  19
ENDBRANCH  13  16
ENDBRANCH  12  13
ENDBRANCH   9  12
BRANCH   1  25
HETATM   25  C2  UNL     1     -17.767  -4.283   5.778  1.00  0.00     0.268 C 
HETATM   26  C1  UNL     1     -18.996  -4.384   6.654  1.00  0.00     0.037 C 
ENDBRANCH   1  25
TORSDOF 7
ENDMDL
MODEL 2
REMARK VINA RESULT: -7.256282621      1.740      2.891
REMARK  7 active torsions:
REMARK  status: ('A' for Active; 'I' for Inactive)
REMARK    1  A    between atoms: C2_2  and  N1_3 
REMARK    2  A    between atoms: C10_11  and  C11_12 
REMARK    3  A    between atoms: C11_12  and  C12_13 
REMARK    4  A    between atoms: C12_13  and  O1_14 
REMARK    5  A    between atoms: C12_13  and  C13_16 
REMARK    6  A    between atoms: C13_16  and  O2_17 
REMARK    7  A    between atoms: C13_16  and  N2_19 
ROOT
HETATM    1  N1  UNL     1     -14.534  -3.385   7.653  1.00  0.00     0.088 N 
HETATM    2  C3  UNL     1     -14.298  -2.840   8.970  1.00  0.00     0.272 C 
HETATM    3  C4  UNL     1     -15.055  -3.720   9.944  1.00  0.00     0.031 C 
HETATM    4  C5  UNL     1     -15.511  -5.008   9.288  1.00  0.00     0.013 C 
HETATM    5  C6  UNL     1     -14.434  -5.636   8.441  1.00  0.00    -0.010 C 
HETATM    6  C7  UNL     1     -15.008  -6.724   7.588  1.00  0.00     0.015 C 
HETATM    7  C8  UNL     1     -15.680  -7.805   8.361  1.00  0.00     0.028 C 
HETATM    8  C9  UNL     1     -14.879  -8.143   9.591  1.00  0.00    -0.024 C 
HETATM    9  C10 UNL     1     -13.862  -7.447  10.019  1.00  0.00    -0.080 C 
HETATM   10  C19 UNL     1     -13.372  -6.213   9.310  1.00  0.00     0.045 C 
HETATM   11  C20 UNL     1     -13.831  -4.607   7.475  1.00  0.00     0.282 C 
ENDROOT
BRANCH   9  12
HETATM   12  C11 UNL     1     -13.104  -7.813  11.234  1.00  0.00     0.074 C 
BRANCH  12  13
HETATM   13  C12 UNL     1     -11.917  -8.710  10.993  1.00  0.00     0.196 C 
BRANCH  13  14
HETATM   14  O1  UNL     1     -12.236 -10.026  10.873  1.00  0.00    -0.387 OA
ATOM     15  H1  UNL     1     -12.610 -10.257  10.030  1.00  0.00     0.210 HD
ENDBRANCH  13  14
BRANCH  13  16
HETATM   16  C13 UNL     1     -10.974  -8.472  12.108  1.00  0.00     0.143 C 
BRANCH  16  17
HETATM   17  O2  UNL     1     -10.740  -9.569  12.793  1.00  0.00    -0.347 OA
ATOM     18  H2  UNL     1     -10.519 -10.299  12.226  1.00  0.00     0.219 HD
ENDBRANCH  16  17
BRANCH  16  19
HETATM   19  N2  UNL     1     -10.347  -7.294  12.492  1.00  0.00    -0.363 N 
HETATM   20  C14 UNL     1     -10.467  -5.985  11.948  1.00  0.00     0.124 C 
HETATM   21  C15 UNL     1     -11.244  -5.160  12.986  1.00  0.00     0.020 C 
HETATM   22  C16 UNL     1     -10.499  -5.199  14.306  1.00  0.00     0.003 C 
HETATM   23  C17 UNL     1     -10.112  -6.576  14.743  1.00  0.00     0.020 C 
HETATM   24  C18 UNL     1      -9.419  -7.382  13.659  1.00  0.00     0.124 C 
ENDBRANCH  16  19
ENDBRANCH  13  16
ENDBRANCH  12  13
ENDBRANCH   9  12
BRANCH   1  25
HETATM   25  C2  UNL     1     -14.355  -2.422   6.602  1.00  0.00     0.268 C 
HETATM   26  C1  UNL     1     -13.279  -1.455   7.042  1.00  0.00     0.037 C 
ENDBRANCH   1  25
TORSDOF 7
ENDMDL
MODEL 3
REMARK VINA RESULT: -7.222885419      2.423      3.670
REMARK  7 active torsions:
REMARK  status: ('A' for Active; 'I' for Inactive)
REMARK    1  A    between atoms: C2_2  and  N1_3 
REMARK    2  A    between atoms: C10_11  and  C11_12 
REMARK    3  A    between atoms: C11_12  and  C12_13 
REMARK    4  A    between atoms: C12_13  and  O1_14 
REMARK    5  A    between atoms: C12_13  and  C13_16 
REMARK    6  A    between atoms: C13_16  and  O2_17 
REMARK    7  A    between atoms: C13_16  and  N2_19 
ROOT
HETATM    1  N1  UNL     1     -14.618  -3.239   9.801  1.00  0.00     0.088 N 
HETATM    2  C3  UNL     1     -14.080  -3.070  11.131  1.00  0.00     0.272 C 
HETATM    3  C4  UNL     1     -14.456  -4.313  11.911  1.00  0.00     0.031 C 
HETATM    4  C5  UNL     1     -14.953  -5.413  10.994  1.00  0.00     0.013 C 
HETATM    5  C6  UNL     1     -14.098  -5.568   9.763  1.00  0.00    -0.010 C 
HETATM    6  C7  UNL     1     -14.781  -6.443   8.759  1.00  0.00     0.015 C 
HETATM    7  C8  UNL     1     -15.112  -7.802   9.269  1.00  0.00     0.028 C 
HETATM    8  C9  UNL     1     -13.977  -8.340  10.100  1.00  0.00    -0.024 C 
HETATM    9  C10 UNL     1     -12.950  -7.632  10.483  1.00  0.00    -0.080 C 
HETATM   10  C19 UNL     1     -12.789  -6.179  10.124  1.00  0.00     0.045 C 
HETATM   11  C20 UNL     1     -13.881  -4.214   9.075  1.00  0.00     0.282 C 
ENDROOT
BRANCH   9  12
HETATM   12  C11 UNL     1     -11.856  -8.199  11.301  1.00  0.00     0.074 C 
BRANCH  12  13
HETATM   13  C12 UNL     1     -11.036  -7.183  12.053  1.00  0.00     0.196 C 
BRANCH  13  14
HETATM   14  O1  UNL     1     -10.033  -6.631  11.318  1.00  0.00    -0.387 OA
ATOM     15  H1  UNL     1      -9.818  -5.740  11.567  1.00  0.00     0.210 HD
ENDBRANCH  13  14
BRANCH  13  16
HETATM   16  C13 UNL     1     -10.522  -7.864  13.261  1.00  0.00     0.143 C 
BRANCH  16  17
HETATM   17  O2  UNL     1     -10.326  -9.147  13.052  1.00  0.00    -0.347 OA
ATOM     18  H2  UNL     1     -11.086  -9.664  13.294  1.00  0.00     0.219 HD
ENDBRANCH  16  17
BRANCH  16  19
HETATM   19  N2  UNL     1     -10.242  -7.337  14.515  1.00  0.00    -0.363 N 
HETATM   20  C14 UNL     1      -9.661  -6.086  14.862  1.00  0.00     0.124 C 
HETATM   21  C15 UNL     1     -10.795  -5.241  15.464  1.00  0.00     0.020 C 
HETATM   22  C16 UNL     1     -11.388  -5.981  16.648  1.00  0.00     0.003 C 
HETATM   23  C17 UNL     1     -11.736  -7.406  16.358  1.00  0.00     0.020 C 
HETATM   24  C18 UNL     1     -10.614  -8.179  15.691  1.00  0.00     0.124 C 
ENDBRANCH  16  19
ENDBRANCH  13  16
ENDBRANCH  12  13
ENDBRANCH   9  12
BRANCH   1  25
HETATM   25  C2  UNL     1     -14.824  -1.996   9.111  1.00  0.00     0.268 C 
HETATM   26  C1  UNL     1     -14.933  -0.905  10.153  1.00  0.00     0.037 C 
ENDBRANCH   1  25
TORSDOF 7
ENDMDL
MODEL 4
REMARK VINA RESULT: -7.129263228      5.048      8.053
REMARK  7 active torsions:
REMARK  status: ('A' for Active; 'I' for Inactive)
REMARK    1  A    between atoms: C2_2  and  N1_3 
REMARK    2  A    between atoms: C10_11  and  C11_12 
REMARK    3  A    between atoms: C11_12  and  C12_13 
REMARK    4  A    between atoms: C12_13  and  O1_14 
REMARK    5  A    between atoms: C12_13  and  C13_16 
REMARK    6  A    between atoms: C13_16  and  O2_17 
REMARK    7  A    between atoms: C13_16  and  N2_19 
ROOT
HETATM    1  N1  UNL     1     -12.296  -6.783  11.010  1.00  0.00     0.088 N 
HETATM    2  C3  UNL     1     -11.554  -6.391  12.187  1.00  0.00     0.272 C 
HETATM    3  C4  UNL     1     -11.265  -4.911  12.041  1.00  0.00     0.031 C 
HETATM    4  C5  UNL     1     -12.093  -4.291  10.933  1.00  0.00     0.013 C 
HETATM    5  C6  UNL     1     -13.530  -4.742  10.965  1.00  0.00    -0.010 C 
HETATM    6  C7  UNL     1     -14.229  -4.349   9.701  1.00  0.00     0.015 C 
HETATM    7  C8  UNL     1     -14.208  -2.886   9.429  1.00  0.00     0.028 C 
HETATM    8  C9  UNL     1     -14.443  -2.114  10.701  1.00  0.00    -0.024 C 
HETATM    9  C10 UNL     1     -14.455  -2.648  11.891  1.00  0.00    -0.080 C 
HETATM   10  C19 UNL     1     -14.235  -4.119  12.120  1.00  0.00     0.045 C 
HETATM   11  C20 UNL     1     -13.620  -6.271  11.049  1.00  0.00     0.282 C 
ENDROOT
BRANCH   9  12
HETATM   12  C11 UNL     1     -14.689  -1.853  13.116  1.00  0.00     0.074 C 
BRANCH  12  13
HETATM   13  C12 UNL     1     -15.321  -0.505  12.884  1.00  0.00     0.196 C 
BRANCH  13  14
HETATM   14  O1  UNL     1     -14.528   0.543  13.235  1.00  0.00    -0.387 OA
ATOM     15  H1  UNL     1     -14.575   0.770  14.157  1.00  0.00     0.210 HD
ENDBRANCH  13  14
BRANCH  13  16
HETATM   16  C13 UNL     1     -16.599  -0.503  13.630  1.00  0.00     0.143 C 
BRANCH  16  17
HETATM   17  O2  UNL     1     -16.699  -1.542  14.429  1.00  0.00    -0.347 OA
ATOM     18  H2  UNL     1     -17.419  -2.110  14.180  1.00  0.00     0.219 HD
ENDBRANCH  16  17
BRANCH  16  19
HETATM   19  N2  UNL     1     -17.641   0.413  13.584  1.00  0.00    -0.363 N 
HETATM   20  C14 UNL     1     -18.690   0.545  12.633  1.00  0.00     0.124 C 
HETATM   21  C15 UNL     1     -19.972   0.086  13.343  1.00  0.00     0.020 C 
HETATM   22  C16 UNL     1     -20.176   0.928  14.588  1.00  0.00     0.003 C 
HETATM   23  C17 UNL     1     -18.963   1.029  15.457  1.00  0.00     0.020 C 
HETATM   24  C18 UNL     1     -17.705   1.406  14.697  1.00  0.00     0.124 C 
ENDBRANCH  16  19
ENDBRANCH  13  16
ENDBRANCH  12  13
ENDBRANCH   9  12
BRANCH   1  25
HETATM   25  C2  UNL     1     -12.195  -8.187  10.720  1.00  0.00     0.268 C 
HETATM   26  C1  UNL     1     -11.227  -8.794  11.711  1.00  0.00     0.037 C 
ENDBRANCH   1  25
TORSDOF 7
ENDMDL
MODEL 5
REMARK VINA RESULT: -7.004586068      5.227      7.858
REMARK  7 active torsions:
REMARK  status: ('A' for Active; 'I' for Inactive)
REMARK    1  A    between atoms: C2_2  and  N1_3 
REMARK    2  A    between atoms: C10_11  and  C11_12 
REMARK    3  A    between atoms: C11_12  and  C12_13 
REMARK    4  A    between atoms: C12_13  and  O1_14 
REMARK    5  A    between atoms: C12_13  and  C13_16 
REMARK    6  A    between atoms: C13_16  and  O2_17 
REMARK    7  A    between atoms: C13_16  and  N2_19 
ROOT
HETATM    1  N1  UNL     1     -13.023  -6.530  10.719  1.00  0.00     0.088 N 
HETATM    2  C3  UNL     1     -12.119  -6.265  11.814  1.00  0.00     0.272 C 
HETATM    3  C4  UNL     1     -11.690  -4.818  11.680  1.00  0.00     0.031 C 
HETATM    4  C5  UNL     1     -12.563  -4.070  10.692  1.00  0.00     0.013 C 
HETATM    5  C6  UNL     1     -14.028  -4.371  10.875  1.00  0.00    -0.010 C 
HETATM    6  C7  UNL     1     -14.816  -3.857   9.711  1.00  0.00     0.015 C 
HETATM    7  C8  UNL     1     -14.668  -2.393   9.481  1.00  0.00     0.028 C 
HETATM    8  C9  UNL     1     -14.678  -1.654  10.793  1.00  0.00    -0.024 C 
HETATM    9  C10 UNL     1     -14.616  -2.232  11.961  1.00  0.00    -0.080 C 
HETATM   10  C19 UNL     1     -14.531  -3.726  12.120  1.00  0.00     0.045 C 
HETATM   11  C20 UNL     1     -14.273  -5.885  10.924  1.00  0.00     0.282 C 
ENDROOT
BRANCH   9  12
HETATM   12  C11 UNL     1     -14.626  -1.468  13.227  1.00  0.00     0.074 C 
BRANCH  12  13
HETATM   13  C12 UNL     1     -15.573  -0.297  13.251  1.00  0.00     0.196 C 
BRANCH  13  14
HETATM   14  O1  UNL     1     -14.967   0.896  13.496  1.00  0.00    -0.387 OA
ATOM     15  H1  UNL     1     -14.454   1.225  12.767  1.00  0.00     0.210 HD
ENDBRANCH  13  14
BRANCH  13  16
HETATM   16  C13 UNL     1     -16.605  -0.608  14.264  1.00  0.00     0.143 C 
BRANCH  16  17
HETATM   17  O2  UNL     1     -16.240  -1.602  15.043  1.00  0.00    -0.347 OA
ATOM     18  H2  UNL     1     -15.366  -1.474  15.393  1.00  0.00     0.219 HD
ENDBRANCH  16  17
BRANCH  16  19
HETATM   19  N2  UNL     1     -17.841  -0.010  14.471  1.00  0.00    -0.363 N 
HETATM   20  C14 UNL     1     -18.242   0.917  15.472  1.00  0.00     0.124 C 
HETATM   21  C15 UNL     1     -18.422   2.266  14.759  1.00  0.00     0.020 C 
HETATM   22  C16 UNL     1     -19.438   2.104  13.645  1.00  0.00     0.003 C 
HETATM   23  C17 UNL     1     -19.174   0.936  12.749  1.00  0.00     0.020 C 
HETATM   24  C18 UNL     1     -18.921  -0.358  13.501  1.00  0.00     0.124 C 
ENDBRANCH  16  19
ENDBRANCH  13  16
ENDBRANCH  12  13
ENDBRANCH   9  12
BRANCH   1  25
HETATM   25  C2  UNL     1     -13.107  -7.923  10.379  1.00  0.00     0.268 C 
HETATM   26  C1  UNL     1     -14.479  -8.173   9.795  1.00  0.00     0.037 C 
ENDBRANCH   1  25
TORSDOF 7
ENDMDL
