MODEL 1
REMARK VINA RESULT: -6.656503937      0.000      0.000
REMARK  5 active torsions:
REMARK  status: ('A' for Active; 'I' for Inactive)
REMARK    1  A    between atoms: C2_2  and  C3_3 
REMARK    2  A    between atoms: C3_3  and  C4_4 
REMARK    3  A    between atoms: N1_6  and  O1_7 
REMARK    4  A    between atoms: C7_11  and  C8_12 
REMARK       I    between atoms: C8_12  and  N2_14 
REMARK    5  A    between atoms: N2_14  and  C9_16 
ROOT
HETATM    1  C8  UNL     1     -13.847  -6.525  10.184  1.00  0.00     0.255 C 
HETATM    2  O2  UNL     1     -15.002  -6.785  10.578  1.00  0.00    -0.268 OA
HETATM    3  N2  UNL     1     -13.693  -6.003   8.883  1.00  0.00    -0.348 N 
ATOM      4  H2  UNL     1     -12.753  -5.798   8.543  1.00  0.00     0.163 HD
ENDROOT
BRANCH   1   5
HETATM    5  C7  UNL     1     -12.709  -6.775  11.077  1.00  0.00     0.071 A 
HETATM    6  C4  UNL     1     -12.062  -5.704  11.655  1.00  0.00     0.019 A 
HETATM    7  S1  UNL     1     -10.814  -6.457  12.551  1.00  0.00     0.013 SA
HETATM    8  N1  UNL     1     -11.142  -8.054  12.174  1.00  0.00    -0.196 N 
HETATM    9  C5  UNL     1     -12.204  -7.994  11.365  1.00  0.00     0.061 A 
HETATM   10  C6  UNL     1     -12.727  -9.291  10.808  1.00  0.00     0.072 C 
BRANCH   6  11
HETATM   11  C3  UNL     1     -12.323  -4.248  11.568  1.00  0.00     0.048 C 
BRANCH  11  12
HETATM   12  C2  UNL     1     -13.670  -3.832  12.054  1.00  0.00     0.001 C 
HETATM   13  C1  UNL     1     -14.241  -2.636  11.379  1.00  0.00     0.005 C 
ENDBRANCH  11  12
ENDBRANCH   6  11
BRANCH   8  14
HETATM   14  O1  UNL     1     -10.430  -9.157  12.634  1.00  0.00    -0.276 OA
ATOM     15  H1  UNL     1     -10.787 -10.026  12.775  1.00  0.00     0.246 HD
ENDBRANCH   8  14
ENDBRANCH   1   5
BRANCH   3  16
HETATM   16  C9  UNL     1     -14.832  -5.746   8.006  1.00  0.00     0.034 C 
HETATM   17  C10 UNL     1     -15.632  -6.969   7.722  1.00  0.00     0.035 C 
HETATM   18  C11 UNL     1     -16.734  -6.603   6.749  1.00  0.00    -0.012 C 
HETATM   19  C12 UNL     1     -16.230  -6.092   5.439  1.00  0.00     0.009 C 
HETATM   20  C16 UNL     1     -17.642  -5.584   7.384  1.00  0.00     0.009 C 
HETATM   21  C13 UNL     1     -15.400  -4.857   5.726  1.00  0.00    -0.012 C 
HETATM   22  C14 UNL     1     -16.301  -3.811   6.332  1.00  0.00     0.009 C 
HETATM   23  C18 UNL     1     -14.309  -5.218   6.667  1.00  0.00     0.035 C 
HETATM   24  C15 UNL     1     -16.833  -4.332   7.630  1.00  0.00    -0.012 C 
HETATM   25  C17 UNL     1     -15.700  -4.667   8.579  1.00  0.00     0.035 C 
ENDBRANCH   3  16
TORSDOF 5
ENDMDL
MODEL 2
REMARK VINA RESULT: -6.489564816      0.474      1.269
REMARK  5 active torsions:
REMARK  status: ('A' for Active; 'I' for Inactive)
REMARK    1  A    between atoms: C2_2  and  C3_3 
REMARK    2  A    between atoms: C3_3  and  C4_4 
REMARK    3  A    between atoms: N1_6  and  O1_7 
REMARK    4  A    between atoms: C7_11  and  C8_12 
REMARK       I    between atoms: C8_12  and  N2_14 
REMARK    5  A    between atoms: N2_14  and  C9_16 
ROOT
HETATM    1  C8  UNL     1     -13.755  -6.486  10.157  1.00  0.00     0.255 C 
HETATM    2  O2  UNL     1     -14.909  -6.861  10.451  1.00  0.00    -0.268 OA
HETATM    3  N2  UNL     1     -13.572  -5.804   8.936  1.00  0.00    -0.348 N 
ATOM      4  H2  UNL     1     -12.632  -5.503   8.677  1.00  0.00     0.163 HD
ENDROOT
BRANCH   1   5
HETATM    5  C7  UNL     1     -12.649  -6.771  11.078  1.00  0.00     0.071 A 
HETATM    6  C4  UNL     1     -12.000  -5.722  11.692  1.00  0.00     0.019 A 
HETATM    7  S1  UNL     1     -10.793  -6.512  12.612  1.00  0.00     0.013 SA
HETATM    8  N1  UNL     1     -11.139  -8.097  12.200  1.00  0.00    -0.196 N 
HETATM    9  C5  UNL     1     -12.175  -8.004  11.361  1.00  0.00     0.061 A 
HETATM   10  C6  UNL     1     -12.706  -9.282  10.768  1.00  0.00     0.072 C 
BRANCH   6  11
HETATM   11  C3  UNL     1     -12.230  -4.260  11.621  1.00  0.00     0.048 C 
BRANCH  11  12
HETATM   12  C2  UNL     1     -13.598  -3.831  12.032  1.00  0.00     0.001 C 
HETATM   13  C1  UNL     1     -14.239  -2.830  11.137  1.00  0.00     0.005 C 
ENDBRANCH  11  12
ENDBRANCH   6  11
BRANCH   8  14
HETATM   14  O1  UNL     1     -10.461  -9.220  12.662  1.00  0.00    -0.276 OA
ATOM     15  H1  UNL     1     -10.609  -9.650  13.497  1.00  0.00     0.246 HD
ENDBRANCH   8  14
ENDBRANCH   1   5
BRANCH   3  16
HETATM   16  C9  UNL     1     -14.681  -5.514   8.031  1.00  0.00     0.034 C 
HETATM   17  C10 UNL     1     -15.923  -5.113   8.746  1.00  0.00     0.035 C 
HETATM   18  C11 UNL     1     -17.021  -4.912   7.721  1.00  0.00    -0.012 C 
HETATM   19  C12 UNL     1     -17.341  -6.143   6.938  1.00  0.00     0.009 C 
HETATM   20  C16 UNL     1     -16.633  -3.796   6.788  1.00  0.00     0.009 C 
HETATM   21  C13 UNL     1     -16.073  -6.566   6.223  1.00  0.00    -0.012 C 
HETATM   22  C14 UNL     1     -15.688  -5.473   5.258  1.00  0.00     0.009 C 
HETATM   23  C18 UNL     1     -15.001  -6.779   7.228  1.00  0.00     0.035 C 
HETATM   24  C15 UNL     1     -15.396  -4.228   6.036  1.00  0.00    -0.012 C 
HETATM   25  C17 UNL     1     -14.282  -4.468   7.035  1.00  0.00     0.035 C 
ENDBRANCH   3  16
TORSDOF 5
ENDMDL
MODEL 3
REMARK VINA RESULT: -6.475980197      3.862      5.277
REMARK  5 active torsions:
REMARK  status: ('A' for Active; 'I' for Inactive)
REMARK    1  A    between atoms: C2_2  and  C3_3 
REMARK    2  A    between atoms: C3_3  and  C4_4 
REMARK    3  A    between atoms: N1_6  and  O1_7 
REMARK    4  A    between atoms: C7_11  and  C8_12 
REMARK       I    between atoms: C8_12  and  N2_14 
REMARK    5  A    between atoms: N2_14  and  C9_16 
ROOT
HETATM    1  C8  UNL     1     -14.679  -2.479   9.574  1.00  0.00     0.255 C 
HETATM    2  O2  UNL     1     -15.581  -3.149   9.033  1.00  0.00    -0.268 OA
HETATM    3  N2  UNL     1     -13.710  -1.879   8.742  1.00  0.00    -0.348 N 
ATOM      4  H2  UNL     1     -12.959  -1.338   9.171  1.00  0.00     0.163 HD
ENDROOT
BRANCH   1   5
HETATM    5  C7  UNL     1     -14.657  -2.347  11.035  1.00  0.00     0.071 A 
HETATM    6  C4  UNL     1     -14.112  -3.362  11.792  1.00  0.00     0.019 A 
HETATM    7  S1  UNL     1     -14.340  -2.803  13.393  1.00  0.00     0.013 SA
HETATM    8  N1  UNL     1     -15.097  -1.347  13.061  1.00  0.00    -0.196 N 
HETATM    9  C5  UNL     1     -15.166  -1.305  11.727  1.00  0.00     0.061 A 
HETATM   10  C6  UNL     1     -15.846  -0.115  11.104  1.00  0.00     0.072 C 
BRANCH   6  11
HETATM   11  C3  UNL     1     -13.476  -4.640  11.393  1.00  0.00     0.048 C 
BRANCH  11  12
HETATM   12  C2  UNL     1     -11.990  -4.580  11.282  1.00  0.00     0.001 C 
HETATM   13  C1  UNL     1     -11.250  -5.329  12.334  1.00  0.00     0.005 C 
ENDBRANCH  11  12
ENDBRANCH   6  11
BRANCH   8  14
HETATM   14  O1  UNL     1     -15.531  -0.427  14.008  1.00  0.00    -0.276 OA
ATOM     15  H1  UNL     1     -16.429  -0.317  14.301  1.00  0.00     0.246 HD
ENDBRANCH   8  14
ENDBRANCH   1   5
BRANCH   3  16
HETATM   16  C9  UNL     1     -13.746  -2.005   7.288  1.00  0.00     0.034 C 
HETATM   17  C10 UNL     1     -13.729  -3.420   6.828  1.00  0.00     0.035 C 
HETATM   18  C11 UNL     1     -13.692  -3.431   5.313  1.00  0.00    -0.012 C 
HETATM   19  C12 UNL     1     -12.483  -2.767   4.740  1.00  0.00     0.009 C 
HETATM   20  C16 UNL     1     -14.939  -2.777   4.779  1.00  0.00     0.009 C 
HETATM   21  C13 UNL     1     -12.486  -1.330   5.221  1.00  0.00    -0.012 C 
HETATM   22  C14 UNL     1     -13.712  -0.649   4.667  1.00  0.00     0.009 C 
HETATM   23  C18 UNL     1     -12.506  -1.319   6.706  1.00  0.00     0.035 C 
HETATM   24  C15 UNL     1     -14.927  -1.331   5.214  1.00  0.00    -0.012 C 
HETATM   25  C17 UNL     1     -14.933  -1.281   6.729  1.00  0.00     0.035 C 
ENDBRANCH   3  16
TORSDOF 5
ENDMDL
MODEL 4
REMARK VINA RESULT: -6.426365638      3.144      4.472
REMARK  5 active torsions:
REMARK  status: ('A' for Active; 'I' for Inactive)
REMARK    1  A    between atoms: C2_2  and  C3_3 
REMARK    2  A    between atoms: C3_3  and  C4_4 
REMARK    3  A    between atoms: N1_6  and  O1_7 
REMARK    4  A    between atoms: C7_11  and  C8_12 
REMARK       I    between atoms: C8_12  and  N2_14 
REMARK    5  A    between atoms: N2_14  and  C9_16 
ROOT
HETATM    1  C8  UNL     1     -14.962  -3.622   8.912  1.00  0.00     0.255 C 
HETATM    2  O2  UNL     1     -16.112  -3.979   8.582  1.00  0.00    -0.268 OA
HETATM    3  N2  UNL     1     -13.981  -3.537   7.903  1.00  0.00    -0.348 N 
ATOM      4  H2  UNL     1     -13.034  -3.259   8.159  1.00  0.00     0.163 HD
ENDROOT
BRANCH   1   5
HETATM    5  C7  UNL     1     -14.680  -3.314  10.318  1.00  0.00     0.071 A 
HETATM    6  C4  UNL     1     -14.493  -4.351  11.208  1.00  0.00     0.019 A 
HETATM    7  S1  UNL     1     -14.242  -3.535  12.690  1.00  0.00     0.013 SA
HETATM    8  N1  UNL     1     -14.378  -1.956  12.151  1.00  0.00    -0.196 N 
HETATM    9  C5  UNL     1     -14.615  -2.071  10.842  1.00  0.00     0.061 A 
HETATM   10  C6  UNL     1     -14.832  -0.802  10.061  1.00  0.00     0.072 C 
BRANCH   6  11
HETATM   11  C3  UNL     1     -14.498  -5.819  11.005  1.00  0.00     0.048 C 
BRANCH  11  12
HETATM   12  C2  UNL     1     -13.182  -6.388  10.592  1.00  0.00     0.001 C 
HETATM   13  C1  UNL     1     -13.210  -7.191   9.339  1.00  0.00     0.005 C 
ENDBRANCH  11  12
ENDBRANCH   6  11
BRANCH   8  14
HETATM   14  O1  UNL     1     -14.259  -0.818  12.942  1.00  0.00    -0.276 OA
ATOM     15  H1  UNL     1     -14.818  -0.051  12.896  1.00  0.00     0.246 HD
ENDBRANCH   8  14
ENDBRANCH   1   5
BRANCH   3  16
HETATM   16  C9  UNL     1     -14.274  -3.834   6.503  1.00  0.00     0.034 C 
HETATM   17  C10 UNL     1     -14.423  -5.291   6.238  1.00  0.00     0.035 C 
HETATM   18  C11 UNL     1     -14.647  -5.487   4.753  1.00  0.00    -0.012 C 
HETATM   19  C12 UNL     1     -13.517  -4.999   3.908  1.00  0.00     0.009 C 
HETATM   20  C16 UNL     1     -15.925  -4.802   4.347  1.00  0.00     0.009 C 
HETATM   21  C13 UNL     1     -13.350  -3.519   4.188  1.00  0.00    -0.012 C 
HETATM   22  C14 UNL     1     -14.609  -2.811   3.756  1.00  0.00     0.009 C 
HETATM   23  C18 UNL     1     -13.113  -3.327   5.642  1.00  0.00     0.035 C 
HETATM   24  C15 UNL     1     -15.751  -3.319   4.579  1.00  0.00    -0.012 C 
HETATM   25  C17 UNL     1     -15.493  -3.087   6.055  1.00  0.00     0.035 C 
ENDBRANCH   3  16
TORSDOF 5
ENDMDL
MODEL 5
REMARK VINA RESULT: -6.408089594      3.869      5.389
REMARK  5 active torsions:
REMARK  status: ('A' for Active; 'I' for Inactive)
REMARK    1  A    between atoms: C2_2  and  C3_3 
REMARK    2  A    between atoms: C3_3  and  C4_4 
REMARK    3  A    between atoms: N1_6  and  O1_7 
REMARK    4  A    between atoms: C7_11  and  C8_12 
REMARK       I    between atoms: C8_12  and  N2_14 
REMARK    5  A    between atoms: N2_14  and  C9_16 
ROOT
HETATM    1  C8  UNL     1     -14.698  -2.422   9.599  1.00  0.00     0.255 C 
HETATM    2  O2  UNL     1     -15.597  -3.091   9.049  1.00  0.00    -0.268 OA
HETATM    3  N2  UNL     1     -13.742  -1.793   8.775  1.00  0.00    -0.348 N 
ATOM      4  H2  UNL     1     -12.994  -1.254   9.211  1.00  0.00     0.163 HD
ENDROOT
BRANCH   1   5
HETATM    5  C7  UNL     1     -14.668  -2.324  11.063  1.00  0.00     0.071 A 
HETATM    6  C4  UNL     1     -14.116  -3.354  11.794  1.00  0.00     0.019 A 
HETATM    7  S1  UNL     1     -14.336  -2.831  13.408  1.00  0.00     0.013 SA
HETATM    8  N1  UNL     1     -15.098  -1.370  13.113  1.00  0.00    -0.196 N 
HETATM    9  C5  UNL     1     -15.176  -1.299  11.781  1.00  0.00     0.061 A 
HETATM   10  C6  UNL     1     -15.861  -0.096  11.189  1.00  0.00     0.072 C 
BRANCH   6  11
HETATM   11  C3  UNL     1     -13.480  -4.621  11.362  1.00  0.00     0.048 C 
BRANCH  11  12
HETATM   12  C2  UNL     1     -11.992  -4.562  11.268  1.00  0.00     0.001 C 
HETATM   13  C1  UNL     1     -11.264  -5.339  12.307  1.00  0.00     0.005 C 
ENDBRANCH  11  12
ENDBRANCH   6  11
BRANCH   8  14
HETATM   14  O1  UNL     1     -15.529  -0.472  14.083  1.00  0.00    -0.276 OA
ATOM     15  H1  UNL     1     -15.650   0.462  13.958  1.00  0.00     0.246 HD
ENDBRANCH   8  14
ENDBRANCH   1   5
BRANCH   3  16
HETATM   16  C9  UNL     1     -13.786  -1.887   7.318  1.00  0.00     0.034 C 
HETATM   17  C10 UNL     1     -15.037  -1.327   6.739  1.00  0.00     0.035 C 
HETATM   18  C11 UNL     1     -15.009  -1.545   5.240  1.00  0.00    -0.012 C 
HETATM   19  C12 UNL     1     -14.947  -2.985   4.846  1.00  0.00     0.009 C 
HETATM   20  C16 UNL     1     -13.842  -0.800   4.649  1.00  0.00     0.009 C 
HETATM   21  C13 UNL     1     -13.684  -3.564   5.449  1.00  0.00    -0.012 C 
HETATM   22  C14 UNL     1     -12.501  -2.852   4.843  1.00  0.00     0.009 C 
HETATM   23  C18 UNL     1     -13.718  -3.365   6.921  1.00  0.00     0.035 C 
HETATM   24  C15 UNL     1     -12.575  -1.403   5.210  1.00  0.00    -0.012 C 
HETATM   25  C17 UNL     1     -12.583  -1.229   6.716  1.00  0.00     0.035 C 
ENDBRANCH   3  16
TORSDOF 5
ENDMDL
