MODEL 1
REMARK VINA RESULT: -6.459774781      0.000      0.000
REMARK  4 active torsions:
REMARK  status: ('A' for Active; 'I' for Inactive)
REMARK    1  A    between atoms: C2_2  and  C3_3 
REMARK    2  A    between atoms: C3_3  and  C4_4 
REMARK    3  A    between atoms: C17_22  and  O4_23 
REMARK    4  A    between atoms: C19_27  and  C20_28 
ROOT
HETATM    1  C4  UNL     1      30.700  16.735  13.592  1.00  0.00     0.013 C 
HETATM    2  N1  UNL     1      30.215  15.704  14.365  1.00  0.00    -0.387 N 
ATOM      3  H1  UNL     1      30.620  15.512  15.281  1.00  0.00     0.159 HD
HETATM    4  C5  UNL     1      29.148  14.912  13.873  1.00  0.00     0.094 C 
HETATM    5  C6  UNL     1      29.487  14.363  12.502  1.00  0.00     0.058 C 
HETATM    6  C7  UNL     1      28.210  13.851  11.928  1.00  0.00     0.011 C 
HETATM    7  C8  UNL     1      27.820  12.627  12.749  1.00  0.00     0.013 C 
HETATM    8  C9  UNL     1      27.801  12.841  14.229  1.00  0.00    -0.002 C 
HETATM    9  C10 UNL     1      26.429  13.440  14.564  1.00  0.00     0.019 C 
HETATM   10  C11 UNL     1      28.899  13.710  14.768  1.00  0.00     0.020 C 
HETATM   11  C12 UNL     1      30.138  12.949  15.085  1.00  0.00     0.007 C 
HETATM   12  C13 UNL     1      29.837  12.116  16.337  1.00  0.00     0.004 C 
HETATM   13  C14 UNL     1      28.468  11.497  16.247  1.00  0.00     0.044 C 
HETATM   14  C15 UNL     1      27.890  11.474  14.874  1.00  0.00     0.131 C 
HETATM   15  C16 UNL     1      26.574  10.749  14.921  1.00  0.00     0.255 C 
HETATM   16  O1  UNL     1      26.646  10.000  13.732  1.00  0.00    -0.208 OA
HETATM   17  O2  UNL     1      27.896   9.595  13.775  1.00  0.00    -0.066 OA
HETATM   18  O3  UNL     1      28.641  10.621  14.068  1.00  0.00    -0.196 OA
HETATM   19  C17 UNL     1      30.288  15.334  11.724  1.00  0.00     0.161 C 
HETATM   20  C18 UNL     1      31.709  15.030  12.078  1.00  0.00     0.099 C 
HETATM   21  N2  UNL     1      32.802  14.772  12.359  1.00  0.00    -0.194 NA
HETATM   22  C19 UNL     1      29.972  16.754  12.338  1.00  0.00     0.088 C 
ENDROOT
BRANCH  19  23
HETATM   23  O4  UNL     1      30.070  15.316  10.408  1.00  0.00    -0.374 OA
ATOM     24  H4  UNL     1      30.688  15.820   9.893  1.00  0.00     0.212 HD
ENDBRANCH  19  23
BRANCH  22  25
HETATM   25  C20 UNL     1      30.139  17.767  11.294  1.00  0.00    -0.009 C 
HETATM   26  C21 UNL     1      30.428  19.141  11.975  1.00  0.00     0.010 C 
HETATM   27  C22 UNL     1      28.910  18.110  10.466  1.00  0.00     0.010 C 
ENDBRANCH  22  25
BRANCH   1  28
HETATM   28  C3  UNL     1      31.754  17.424  14.242  1.00  0.00     0.021 C 
BRANCH  28  29
HETATM   29  C2  UNL     1      32.689  17.275  15.100  1.00  0.00    -0.029 C 
HETATM   30  C1  UNL     1      33.403  18.126  16.045  1.00  0.00     0.036 C 
ENDBRANCH  28  29
ENDBRANCH   1  28
TORSDOF 4
ENDMDL
MODEL 2
REMARK VINA RESULT: -6.277772195      4.691      7.164
REMARK  4 active torsions:
REMARK  status: ('A' for Active; 'I' for Inactive)
REMARK    1  A    between atoms: C2_2  and  C3_3 
REMARK    2  A    between atoms: C3_3  and  C4_4 
REMARK    3  A    between atoms: C17_22  and  O4_23 
REMARK    4  A    between atoms: C19_27  and  C20_28 
ROOT
HETATM    1  C4  UNL     1      32.054  12.421  15.256  1.00  0.00     0.013 C 
HETATM    2  N1  UNL     1      33.130  11.777  14.687  1.00  0.00    -0.387 N 
ATOM      3  H1  UNL     1      33.648  11.074  15.214  1.00  0.00     0.159 HD
HETATM    4  C5  UNL     1      33.511  12.102  13.361  1.00  0.00     0.094 C 
HETATM    5  C6  UNL     1      33.721  13.597  13.223  1.00  0.00     0.058 C 
HETATM    6  C7  UNL     1      33.771  13.880  11.761  1.00  0.00     0.011 C 
HETATM    7  C8  UNL     1      35.062  13.259  11.239  1.00  0.00     0.013 C 
HETATM    8  C9  UNL     1      35.264  11.823  11.606  1.00  0.00    -0.002 C 
HETATM    9  C10 UNL     1      34.502  10.996  10.563  1.00  0.00     0.019 C 
HETATM   10  C11 UNL     1      34.831  11.447  12.993  1.00  0.00     0.020 C 
HETATM   11  C12 UNL     1      35.895  11.660  14.011  1.00  0.00     0.007 C 
HETATM   12  C13 UNL     1      36.956  10.578  13.775  1.00  0.00     0.004 C 
HETATM   13  C14 UNL     1      37.220  10.406  12.303  1.00  0.00     0.044 C 
HETATM   14  C15 UNL     1      36.742  11.532  11.453  1.00  0.00     0.131 C 
HETATM   15  C16 UNL     1      37.154  11.268  10.032  1.00  0.00     0.255 C 
HETATM   16  O1  UNL     1      37.545  12.558   9.630  1.00  0.00    -0.208 OA
HETATM   17  O2  UNL     1      38.203  12.956  10.697  1.00  0.00    -0.066 OA
HETATM   18  O3  UNL     1      37.480  12.677  11.742  1.00  0.00    -0.196 OA
HETATM   19  C17 UNL     1      32.767  14.347  14.071  1.00  0.00     0.161 C 
HETATM   20  C18 UNL     1      33.452  14.482  15.393  1.00  0.00     0.099 C 
HETATM   21  N2  UNL     1      34.004  14.582  16.406  1.00  0.00    -0.194 NA
HETATM   22  C19 UNL     1      31.537  13.385  14.304  1.00  0.00     0.088 C 
ENDROOT
BRANCH  19  23
HETATM   23  O4  UNL     1      32.377  15.521  13.571  1.00  0.00    -0.374 OA
ATOM     24  H4  UNL     1      32.472  16.258  14.162  1.00  0.00     0.212 HD
ENDBRANCH  19  23
BRANCH  22  25
HETATM   25  C20 UNL     1      30.336  14.197  14.510  1.00  0.00    -0.009 C 
HETATM   26  C21 UNL     1      29.108  13.243  14.646  1.00  0.00     0.010 C 
HETATM   27  C22 UNL     1      29.892  15.075  13.350  1.00  0.00     0.010 C 
ENDBRANCH  22  25
BRANCH   1  28
HETATM   28  C3  UNL     1      31.811  11.966  16.575  1.00  0.00     0.021 C 
BRANCH  28  29
HETATM   29  C2  UNL     1      31.061  12.153  17.593  1.00  0.00    -0.029 C 
HETATM   30  C1  UNL     1      29.719  11.760  18.004  1.00  0.00     0.036 C 
ENDBRANCH  28  29
ENDBRANCH   1  28
TORSDOF 4
ENDMDL
MODEL 3
REMARK VINA RESULT: -6.191955975      4.937      7.113
REMARK  4 active torsions:
REMARK  status: ('A' for Active; 'I' for Inactive)
REMARK    1  A    between atoms: C2_2  and  C3_3 
REMARK    2  A    between atoms: C3_3  and  C4_4 
REMARK    3  A    between atoms: C17_22  and  O4_23 
REMARK    4  A    between atoms: C19_27  and  C20_28 
ROOT
HETATM    1  C4  UNL     1      31.689  13.136  14.101  1.00  0.00     0.013 C 
HETATM    2  N1  UNL     1      32.725  12.253  13.895  1.00  0.00    -0.387 N 
ATOM      3  H1  UNL     1      32.853  11.454  14.516  1.00  0.00     0.159 HD
HETATM    4  C5  UNL     1      33.612  12.465  12.810  1.00  0.00     0.094 C 
HETATM    5  C6  UNL     1      34.184  13.868  12.863  1.00  0.00     0.058 C 
HETATM    6  C7  UNL     1      34.809  14.115  11.533  1.00  0.00     0.011 C 
HETATM    7  C8  UNL     1      36.029  13.205  11.446  1.00  0.00     0.013 C 
HETATM    8  C9  UNL     1      35.763  11.766  11.756  1.00  0.00    -0.002 C 
HETATM    9  C10 UNL     1      35.257  11.128  10.456  1.00  0.00     0.019 C 
HETATM   10  C11 UNL     1      34.796  11.516  12.876  1.00  0.00     0.020 C 
HETATM   11  C12 UNL     1      35.451  11.487  14.212  1.00  0.00     0.007 C 
HETATM   12  C13 UNL     1      36.257  10.184  14.280  1.00  0.00     0.004 C 
HETATM   13  C14 UNL     1      36.980   9.939  12.982  1.00  0.00     0.044 C 
HETATM   14  C15 UNL     1      37.096  11.136  12.103  1.00  0.00     0.131 C 
HETATM   15  C16 UNL     1      37.914  10.768  10.898  1.00  0.00     0.255 C 
HETATM   16  O1  UNL     1      38.699  11.927  10.750  1.00  0.00    -0.208 OA
HETATM   17  O2  UNL     1      39.007  12.172  12.005  1.00  0.00    -0.066 OA
HETATM   18  O3  UNL     1      37.919  12.081  12.713  1.00  0.00    -0.196 OA
HETATM   19  C17 UNL     1      33.183  14.830  13.379  1.00  0.00     0.161 C 
HETATM   20  C18 UNL     1      33.368  14.815  14.863  1.00  0.00     0.099 C 
HETATM   21  N2  UNL     1      33.533  14.795  16.008  1.00  0.00    -0.194 NA
HETATM   22  C19 UNL     1      31.770  14.183  13.101  1.00  0.00     0.088 C 
ENDROOT
BRANCH  19  23
HETATM   23  O4  UNL     1      33.266  16.057  12.862  1.00  0.00    -0.374 OA
ATOM     24  H4  UNL     1      33.589  16.093  11.970  1.00  0.00     0.212 HD
ENDBRANCH  19  23
BRANCH  22  25
HETATM   25  C20 UNL     1      30.786  15.255  12.937  1.00  0.00    -0.009 C 
HETATM   26  C21 UNL     1      30.206  15.618  14.340  1.00  0.00     0.010 C 
HETATM   27  C22 UNL     1      29.512  14.909  12.180  1.00  0.00     0.010 C 
ENDBRANCH  22  25
BRANCH   1  28
HETATM   28  C3  UNL     1      30.900  12.765  15.217  1.00  0.00     0.021 C 
BRANCH  28  29
HETATM   29  C2  UNL     1      29.846  12.124  15.549  1.00  0.00    -0.029 C 
HETATM   30  C1  UNL     1      28.431  12.160  15.196  1.00  0.00     0.036 C 
ENDBRANCH  28  29
ENDBRANCH   1  28
TORSDOF 4
ENDMDL
MODEL 4
REMARK VINA RESULT: -5.903017673      6.113      8.230
REMARK  4 active torsions:
REMARK  status: ('A' for Active; 'I' for Inactive)
REMARK    1  A    between atoms: C2_2  and  C3_3 
REMARK    2  A    between atoms: C3_3  and  C4_4 
REMARK    3  A    between atoms: C17_22  and  O4_23 
REMARK    4  A    between atoms: C19_27  and  C20_28 
ROOT
HETATM    1  C4  UNL     1      33.412  11.857  17.129  1.00  0.00     0.013 C 
HETATM    2  N1  UNL     1      34.625  11.344  16.729  1.00  0.00    -0.387 N 
ATOM      3  H1  UNL     1      35.335  11.100  17.419  1.00  0.00     0.159 HD
HETATM    4  C5  UNL     1      34.878  11.159  15.346  1.00  0.00     0.094 C 
HETATM    5  C6  UNL     1      34.629  12.448  14.588  1.00  0.00     0.058 C 
HETATM    6  C7  UNL     1      34.577  12.081  13.145  1.00  0.00     0.011 C 
HETATM    7  C8  UNL     1      35.989  11.665  12.747  1.00  0.00     0.013 C 
HETATM    8  C9  UNL     1      36.616  10.636  13.634  1.00  0.00    -0.002 C 
HETATM    9  C10 UNL     1      36.127   9.272  13.129  1.00  0.00     0.019 C 
HETATM   10  C11 UNL     1      36.330  10.789  15.099  1.00  0.00     0.020 C 
HETATM   11  C12 UNL     1      37.291  11.692  15.787  1.00  0.00     0.007 C 
HETATM   12  C13 UNL     1      38.625  10.939  15.867  1.00  0.00     0.004 C 
HETATM   13  C14 UNL     1      38.914  10.232  14.570  1.00  0.00     0.044 C 
HETATM   14  C15 UNL     1      38.112  10.714  13.411  1.00  0.00     0.131 C 
HETATM   15  C16 UNL     1      38.570   9.988  12.177  1.00  0.00     0.255 C 
HETATM   16  O1  UNL     1      38.552  11.035  11.237  1.00  0.00    -0.208 OA
HETATM   17  O2  UNL     1      39.071  12.010  11.950  1.00  0.00    -0.066 OA
HETATM   18  O3  UNL     1      38.476  12.024  13.107  1.00  0.00    -0.196 OA
HETATM   19  C17 UNL     1      33.502  13.204  15.180  1.00  0.00     0.161 C 
HETATM   20  C18 UNL     1      34.128  14.068  16.228  1.00  0.00     0.099 C 
HETATM   21  N2  UNL     1      34.635  14.735  17.027  1.00  0.00    -0.194 NA
HETATM   22  C19 UNL     1      32.620  12.144  15.949  1.00  0.00     0.088 C 
ENDROOT
BRANCH  19  23
HETATM   23  O4  UNL     1      32.773  13.900  14.307  1.00  0.00    -0.374 OA
ATOM     24  H4  UNL     1      33.064  13.838  13.404  1.00  0.00     0.212 HD
ENDBRANCH  19  23
BRANCH  22  25
HETATM   25  C20 UNL     1      31.233  12.613  15.971  1.00  0.00    -0.009 C 
HETATM   26  C21 UNL     1      30.466  11.845  17.093  1.00  0.00     0.010 C 
HETATM   27  C22 UNL     1      30.376  12.282  14.758  1.00  0.00     0.010 C 
ENDBRANCH  22  25
BRANCH   1  28
HETATM   28  C3  UNL     1      33.329  11.962  18.539  1.00  0.00     0.021 C 
BRANCH  28  29
HETATM   29  C2  UNL     1      32.976  12.751  19.481  1.00  0.00    -0.029 C 
HETATM   30  C1  UNL     1      31.837  12.880  20.383  1.00  0.00     0.036 C 
ENDBRANCH  28  29
ENDBRANCH   1  28
TORSDOF 4
ENDMDL
MODEL 5
REMARK VINA RESULT: -5.897907340      3.453      7.546
REMARK  4 active torsions:
REMARK  status: ('A' for Active; 'I' for Inactive)
REMARK    1  A    between atoms: C2_2  and  C3_3 
REMARK    2  A    between atoms: C3_3  and  C4_4 
REMARK    3  A    between atoms: C17_22  and  O4_23 
REMARK    4  A    between atoms: C19_27  and  C20_28 
ROOT
HETATM    1  C4  UNL     1      28.882  15.202  12.002  1.00  0.00     0.013 C 
HETATM    2  N1  UNL     1      28.011  15.863  11.165  1.00  0.00    -0.387 N 
ATOM      3  H1  UNL     1      27.237  15.362  10.727  1.00  0.00     0.159 HD
HETATM    4  C5  UNL     1      28.200  17.245  10.918  1.00  0.00     0.094 C 
HETATM    5  C6  UNL     1      29.614  17.507  10.438  1.00  0.00     0.058 C 
HETATM    6  C7  UNL     1      29.825  18.978  10.539  1.00  0.00     0.011 C 
HETATM    7  C8  UNL     1      28.934  19.622   9.482  1.00  0.00     0.013 C 
HETATM    8  C9  UNL     1      27.502  19.190   9.518  1.00  0.00    -0.002 C 
HETATM    9  C10 UNL     1      26.809  20.070  10.566  1.00  0.00     0.019 C 
HETATM   10  C11 UNL     1      27.275  17.738   9.817  1.00  0.00     0.020 C 
HETATM   11  C12 UNL     1      27.306  16.883   8.600  1.00  0.00     0.007 C 
HETATM   12  C13 UNL     1      26.022  17.183   7.817  1.00  0.00     0.004 C 
HETATM   13  C14 UNL     1      25.743  18.662   7.801  1.00  0.00     0.044 C 
HETATM   14  C15 UNL     1      26.910  19.515   8.163  1.00  0.00     0.131 C 
HETATM   15  C16 UNL     1      26.513  20.957   8.014  1.00  0.00     0.255 C 
HETATM   16  O1  UNL     1      27.681  21.491   7.437  1.00  0.00    -0.208 OA
HETATM   17  O2  UNL     1      27.976  20.546   6.571  1.00  0.00    -0.066 OA
HETATM   18  O3  UNL     1      27.891  19.400   7.180  1.00  0.00    -0.196 OA
HETATM   19  C17 UNL     1      30.575  16.594  11.097  1.00  0.00     0.161 C 
HETATM   20  C18 UNL     1      30.617  15.383  10.221  1.00  0.00     0.099 C 
HETATM   21  N2  UNL     1      30.641  14.460   9.523  1.00  0.00    -0.194 NA
HETATM   22  C19 UNL     1      29.894  16.141  12.447  1.00  0.00     0.088 C 
ENDROOT
BRANCH  19  23
HETATM   23  O4  UNL     1      31.784  17.114  11.315  1.00  0.00    -0.374 OA
ATOM     24  H4  UNL     1      32.056  17.770  10.684  1.00  0.00     0.212 HD
ENDBRANCH  19  23
BRANCH  22  25
HETATM   25  C20 UNL     1      30.941  15.834  13.424  1.00  0.00    -0.009 C 
HETATM   26  C21 UNL     1      30.372  14.815  14.460  1.00  0.00     0.010 C 
HETATM   27  C22 UNL     1      31.377  16.965  14.343  1.00  0.00     0.010 C 
ENDBRANCH  22  25
BRANCH   1  28
HETATM   28  C3  UNL     1      28.536  13.836  12.143  1.00  0.00     0.021 C 
BRANCH  28  29
HETATM   29  C2  UNL     1      27.725  13.048  12.738  1.00  0.00    -0.029 C 
HETATM   30  C1  UNL     1      26.312  13.060  13.097  1.00  0.00     0.036 C 
ENDBRANCH  28  29
ENDBRANCH   1  28
TORSDOF 4
ENDMDL
