MODEL 1
REMARK VINA RESULT: -7.038591319      0.000      0.000
REMARK  4 active torsions:
REMARK  status: ('A' for Active; 'I' for Inactive)
REMARK    1  A    between atoms: C2_2  and  C3_3 
REMARK    2  A    between atoms: C3_3  and  O1_4 
REMARK    3  A    between atoms: C8_13  and  C9_14 
REMARK    4  A    between atoms: C14_20  and  O6_21 
ROOT
HETATM    1  C3  UNL     1      28.813  16.504  10.009  1.00  0.00     0.087 C 
HETATM    2  C4  UNL     1      29.485  15.589  11.051  1.00  0.00     0.035 C 
HETATM    3  C5  UNL     1      28.713  15.762  12.319  1.00  0.00     0.020 C 
HETATM    4  C6  UNL     1      29.470  16.356  13.475  1.00  0.00     0.176 C 
HETATM    5  O2  UNL     1      29.866  15.501  14.436  1.00  0.00    -0.355 OA
HETATM    6  C7  UNL     1      30.889  14.680  14.282  1.00  0.00     0.325 C 
HETATM    7  O3  UNL     1      30.446  13.398  13.884  1.00  0.00    -0.205 OA
HETATM    8  O4  UNL     1      29.194  13.330  14.221  1.00  0.00    -0.226 OA
HETATM    9  C8  UNL     1      28.459  13.317  13.011  1.00  0.00     0.217 C 
HETATM   10  C13 UNL     1      27.831  14.600  12.695  1.00  0.00     0.049 C 
HETATM   11  C14 UNL     1      31.987  15.057  13.339  1.00  0.00     0.176 C 
HETATM   12  C15 UNL     1      31.704  14.742  11.909  1.00  0.00     0.042 C 
HETATM   13  C16 UNL     1      30.953  15.719  11.096  1.00  0.00    -0.004 C 
HETATM   14  C17 UNL     1      31.456  15.483   9.649  1.00  0.00     0.005 C 
HETATM   15  C18 UNL     1      31.650  16.773   8.909  1.00  0.00     0.001 C 
HETATM   16  C19 UNL     1      30.411  17.054   8.154  1.00  0.00     0.013 C 
HETATM   17  C20 UNL     1      29.186  16.266   8.616  1.00  0.00    -0.005 A 
HETATM   18  C21 UNL     1      28.678  15.117   7.814  1.00  0.00     0.014 A 
HETATM   19  C22 UNL     1      28.056  16.429   7.579  1.00  0.00     0.014 A 
ENDROOT
BRANCH   9  20
HETATM   20  C9  UNL     1      27.396  12.314  13.231  1.00  0.00     0.084 A 
HETATM   21  C10 UNL     1      27.454  11.184  14.000  1.00  0.00     0.037 A 
HETATM   22  C11 UNL     1      26.215  10.549  13.902  1.00  0.00     0.027 A 
HETATM   23  C12 UNL     1      25.473  11.344  13.071  1.00  0.00     0.142 A 
HETATM   24  O5  UNL     1      26.209  12.365  12.704  1.00  0.00    -0.324 OA
ENDBRANCH   9  20
BRANCH  11  25
HETATM   25  O6  UNL     1      32.520  16.315  13.552  1.00  0.00    -0.391 OA
ATOM     26  H6  UNL     1      32.994  16.673  12.810  1.00  0.00     0.210 HD
ENDBRANCH  11  25
BRANCH   1  27
HETATM   27  C2  UNL     1      28.982  17.911  10.459  1.00  0.00     0.001 C 
HETATM   28  C1  UNL     1      28.190  18.885  10.118  1.00  0.00     0.010 C 
ENDBRANCH   1  27
BRANCH   1  29
HETATM   29  O1  UNL     1      27.466  16.187  10.200  1.00  0.00    -0.385 OA
ATOM     30  H1  UNL     1      27.238  15.563   9.522  1.00  0.00     0.211 HD
ENDBRANCH   1  29
TORSDOF 4
ENDMDL
MODEL 2
REMARK VINA RESULT: -7.007858239      4.717      6.459
REMARK  4 active torsions:
REMARK  status: ('A' for Active; 'I' for Inactive)
REMARK    1  A    between atoms: C2_2  and  C3_3 
REMARK    2  A    between atoms: C3_3  and  O1_4 
REMARK    3  A    between atoms: C8_13  and  C9_14 
REMARK    4  A    between atoms: C14_20  and  O6_21 
ROOT
HETATM    1  C3  UNL     1      34.712  12.763  12.912  1.00  0.00     0.087 C 
HETATM    2  C4  UNL     1      34.159  12.180  14.227  1.00  0.00     0.035 C 
HETATM    3  C5  UNL     1      33.459  13.303  14.921  1.00  0.00     0.020 C 
HETATM    4  C6  UNL     1      34.041  13.725  16.243  1.00  0.00     0.176 C 
HETATM    5  O2  UNL     1      33.386  13.317  17.344  1.00  0.00    -0.355 OA
HETATM    6  C7  UNL     1      33.451  12.077  17.793  1.00  0.00     0.325 C 
HETATM    7  O3  UNL     1      32.343  11.323  17.343  1.00  0.00    -0.205 OA
HETATM    8  O4  UNL     1      31.430  12.185  17.017  1.00  0.00    -0.226 OA
HETATM    9  C8  UNL     1      31.306  12.117  15.608  1.00  0.00     0.217 C 
HETATM   10  C13 UNL     1      31.955  13.226  14.910  1.00  0.00     0.049 C 
HETATM   11  C14 UNL     1      34.666  11.258  17.493  1.00  0.00     0.176 C 
HETATM   12  C15 UNL     1      34.657  10.617  16.147  1.00  0.00     0.042 C 
HETATM   13  C16 UNL     1      35.144  11.387  14.985  1.00  0.00    -0.004 C 
HETATM   14  C17 UNL     1      35.682  10.310  14.008  1.00  0.00     0.005 C 
HETATM   15  C18 UNL     1      36.960  10.741  13.351  1.00  0.00     0.001 C 
HETATM   16  C19 UNL     1      36.616  11.369  12.058  1.00  0.00     0.013 C 
HETATM   17  C20 UNL     1      35.153  11.787  11.917  1.00  0.00    -0.005 A 
HETATM   18  C21 UNL     1      34.216  10.992  11.074  1.00  0.00     0.014 A 
HETATM   19  C22 UNL     1      34.869  12.151  10.445  1.00  0.00     0.014 A 
ENDROOT
BRANCH   9  20
HETATM   20  C9  UNL     1      29.851  12.190  15.359  1.00  0.00     0.084 A 
HETATM   21  C10 UNL     1      29.210  12.722  14.274  1.00  0.00     0.037 A 
HETATM   22  C11 UNL     1      27.838  12.565  14.481  1.00  0.00     0.027 A 
HETATM   23  C12 UNL     1      27.732  11.940  15.694  1.00  0.00     0.142 A 
HETATM   24  O5  UNL     1      28.938  11.742  16.168  1.00  0.00    -0.324 OA
ENDBRANCH   9  20
BRANCH  11  25
HETATM   25  O6  UNL     1      35.863  11.862  17.831  1.00  0.00    -0.391 OA
ATOM     26  H6  UNL     1      36.509  11.275  18.205  1.00  0.00     0.210 HD
ENDBRANCH  11  25
BRANCH   1  27
HETATM   27  C2  UNL     1      35.729  13.790  13.260  1.00  0.00     0.001 C 
HETATM   28  C1  UNL     1      35.828  14.946  12.672  1.00  0.00     0.010 C 
ENDBRANCH   1  27
BRANCH   1  29
HETATM   29  O1  UNL     1      33.598  13.457  12.435  1.00  0.00    -0.385 OA
ATOM     30  H1  UNL     1      32.916  13.353  13.088  1.00  0.00     0.211 HD
ENDBRANCH   1  29
TORSDOF 4
ENDMDL
MODEL 3
REMARK VINA RESULT: -6.818370820      1.166      1.472
REMARK  4 active torsions:
REMARK  status: ('A' for Active; 'I' for Inactive)
REMARK    1  A    between atoms: C2_2  and  C3_3 
REMARK    2  A    between atoms: C3_3  and  O1_4 
REMARK    3  A    between atoms: C8_13  and  C9_14 
REMARK    4  A    between atoms: C14_20  and  O6_21 
ROOT
HETATM    1  C3  UNL     1      28.557  17.132   9.292  1.00  0.00     0.087 C 
HETATM    2  C4  UNL     1      29.455  16.246  10.176  1.00  0.00     0.035 C 
HETATM    3  C5  UNL     1      29.056  16.525  11.589  1.00  0.00     0.020 C 
HETATM    4  C6  UNL     1      30.113  17.146  12.461  1.00  0.00     0.176 C 
HETATM    5  O2  UNL     1      30.725  16.328  13.337  1.00  0.00    -0.355 OA
HETATM    6  C7  UNL     1      31.643  15.452  12.972  1.00  0.00     0.325 C 
HETATM    7  O3  UNL     1      31.070  14.172  12.792  1.00  0.00    -0.205 OA
HETATM    8  O4  UNL     1      29.953  14.182  13.452  1.00  0.00    -0.226 OA
HETATM    9  C8  UNL     1      28.920  14.138  12.484  1.00  0.00     0.217 C 
HETATM   10  C13 UNL     1      28.271  15.430  12.262  1.00  0.00     0.049 C 
HETATM   11  C14 UNL     1      32.460  15.723  11.749  1.00  0.00     0.176 C 
HETATM   12  C15 UNL     1      31.795  15.343  10.469  1.00  0.00     0.042 C 
HETATM   13  C16 UNL     1      30.885  16.307   9.822  1.00  0.00    -0.004 C 
HETATM   14  C17 UNL     1      30.975  15.968   8.312  1.00  0.00     0.005 C 
HETATM   15  C18 UNL     1      31.004  17.204   7.463  1.00  0.00     0.001 C 
HETATM   16  C19 UNL     1      29.617  17.502   7.047  1.00  0.00     0.013 C 
HETATM   17  C20 UNL     1      28.537  16.799   7.868  1.00  0.00    -0.005 A 
HETATM   18  C21 UNL     1      27.797  15.633   7.308  1.00  0.00     0.014 A 
HETATM   19  C22 UNL     1      27.176  16.958   7.159  1.00  0.00     0.014 A 
ENDROOT
BRANCH   9  20
HETATM   20  C9  UNL     1      27.925  13.200  13.044  1.00  0.00     0.084 A 
HETATM   21  C10 UNL     1      26.572  13.370  13.141  1.00  0.00     0.037 A 
HETATM   22  C11 UNL     1      26.048  12.222  13.739  1.00  0.00     0.027 A 
HETATM   23  C12 UNL     1      27.131  11.417  13.970  1.00  0.00     0.142 A 
HETATM   24  O5  UNL     1      28.207  12.034  13.546  1.00  0.00    -0.324 OA
ENDBRANCH   9  20
BRANCH  11  25
HETATM   25  O6  UNL     1      33.070  16.964  11.729  1.00  0.00    -0.391 OA
ATOM     26  H6  UNL     1      33.450  17.203  10.892  1.00  0.00     0.210 HD
ENDBRANCH  11  25
BRANCH   1  27
HETATM   27  C2  UNL     1      28.885  18.552   9.586  1.00  0.00     0.001 C 
HETATM   28  C1  UNL     1      27.994  19.483   9.764  1.00  0.00     0.010 C 
ENDBRANCH   1  27
BRANCH   1  29
HETATM   29  O1  UNL     1      27.302  16.891   9.853  1.00  0.00    -0.385 OA
ATOM     30  H1  UNL     1      26.958  17.737  10.116  1.00  0.00     0.211 HD
ENDBRANCH   1  29
TORSDOF 4
ENDMDL
MODEL 4
REMARK VINA RESULT: -6.090074013      5.622      8.322
REMARK  4 active torsions:
REMARK  status: ('A' for Active; 'I' for Inactive)
REMARK    1  A    between atoms: C2_2  and  C3_3 
REMARK    2  A    between atoms: C3_3  and  O1_4 
REMARK    3  A    between atoms: C8_13  and  C9_14 
REMARK    4  A    between atoms: C14_20  and  O6_21 
ROOT
HETATM    1  C3  UNL     1      35.947  12.094  15.295  1.00  0.00     0.087 C 
HETATM    2  C4  UNL     1      34.952  11.823  16.439  1.00  0.00     0.035 C 
HETATM    3  C5  UNL     1      34.160  13.078  16.611  1.00  0.00     0.020 C 
HETATM    4  C6  UNL     1      34.314  13.778  17.934  1.00  0.00     0.176 C 
HETATM    5  O2  UNL     1      33.305  13.630  18.812  1.00  0.00    -0.355 OA
HETATM    6  C7  UNL     1      33.118  12.520  19.503  1.00  0.00     0.325 C 
HETATM    7  O3  UNL     1      32.158  11.696  18.874  1.00  0.00    -0.205 OA
HETATM    8  O4  UNL     1      31.475  12.472  18.090  1.00  0.00    -0.226 OA
HETATM    9  C8  UNL     1      31.810  12.094  16.767  1.00  0.00     0.217 C 
HETATM   10  C13 UNL     1      32.740  13.014  16.113  1.00  0.00     0.049 C 
HETATM   11  C14 UNL     1      34.293  11.644  19.802  1.00  0.00     0.176 C 
HETATM   12  C15 UNL     1      34.669  10.721  18.694  1.00  0.00     0.042 C 
HETATM   13  C16 UNL     1      35.568  11.209  17.630  1.00  0.00    -0.004 C 
HETATM   14  C17 UNL     1      36.303   9.937  17.134  1.00  0.00     0.005 C 
HETATM   15  C18 UNL     1      37.756  10.200  16.869  1.00  0.00     0.001 C 
HETATM   16  C19 UNL     1      37.904  10.528  15.436  1.00  0.00     0.013 C 
HETATM   17  C20 UNL     1      36.606  10.918  14.730  1.00  0.00    -0.005 A 
HETATM   18  C21 UNL     1      35.931   9.964  13.805  1.00  0.00     0.014 A 
HETATM   19  C22 UNL     1      36.845  10.948  13.206  1.00  0.00     0.014 A 
ENDROOT
BRANCH   9  20
HETATM   20  C9  UNL     1      30.526  12.123  16.036  1.00  0.00     0.084 A 
HETATM   21  C10 UNL     1      30.304  12.509  14.743  1.00  0.00     0.037 A 
HETATM   22  C11 UNL     1      28.938  12.368  14.493  1.00  0.00     0.027 A 
HETATM   23  C12 UNL     1      28.409  11.898  15.666  1.00  0.00     0.142 A 
HETATM   24  O5  UNL     1      29.379  11.772  16.538  1.00  0.00    -0.324 OA
ENDBRANCH   9  20
BRANCH  11  25
HETATM   25  O6  UNL     1      35.361  12.298  20.389  1.00  0.00    -0.391 OA
ATOM     26  H6  UNL     1      36.111  12.419  19.818  1.00  0.00     0.210 HD
ENDBRANCH  11  25
BRANCH   1  27
HETATM   27  C2  UNL     1      36.878  13.163  15.744  1.00  0.00     0.001 C 
HETATM   28  C1  UNL     1      37.235  14.175  15.007  1.00  0.00     0.010 C 
ENDBRANCH   1  27
BRANCH   1  29
HETATM   29  O1  UNL     1      35.110  12.674  14.341  1.00  0.00    -0.385 OA
ATOM     30  H1  UNL     1      34.255  12.278  14.456  1.00  0.00     0.211 HD
ENDBRANCH   1  29
TORSDOF 4
ENDMDL
MODEL 5
REMARK VINA RESULT: -6.018183797      1.299      1.520
REMARK  4 active torsions:
REMARK  status: ('A' for Active; 'I' for Inactive)
REMARK    1  A    between atoms: C2_2  and  C3_3 
REMARK    2  A    between atoms: C3_3  and  O1_4 
REMARK    3  A    between atoms: C8_13  and  C9_14 
REMARK    4  A    between atoms: C14_20  and  O6_21 
ROOT
HETATM    1  C3  UNL     1      29.499  16.549  10.118  1.00  0.00     0.087 C 
HETATM    2  C4  UNL     1      30.337  15.910  11.242  1.00  0.00     0.035 C 
HETATM    3  C5  UNL     1      29.675  16.294  12.526  1.00  0.00     0.020 C 
HETATM    4  C6  UNL     1      30.487  17.158  13.452  1.00  0.00     0.176 C 
HETATM    5  O2  UNL     1      31.038  16.545  14.515  1.00  0.00    -0.355 OA
HETATM    6  C7  UNL     1      32.104  15.772  14.418  1.00  0.00     0.325 C 
HETATM    7  O3  UNL     1      31.730  14.412  14.334  1.00  0.00    -0.205 OA
HETATM    8  O4  UNL     1      30.525  14.340  14.811  1.00  0.00    -0.226 OA
HETATM    9  C8  UNL     1      29.683  14.035  13.714  1.00  0.00     0.217 C 
HETATM   10  C13 UNL     1      28.928  15.186  13.219  1.00  0.00     0.049 C 
HETATM   11  C14 UNL     1      33.076  16.010  13.307  1.00  0.00     0.176 C 
HETATM   12  C15 UNL     1      32.687  15.391  12.007  1.00  0.00     0.042 C 
HETATM   13  C16 UNL     1      31.788  16.133  11.102  1.00  0.00    -0.004 C 
HETATM   14  C17 UNL     1      32.171  15.634   9.685  1.00  0.00     0.005 C 
HETATM   15  C18 UNL     1      32.191  16.752   8.686  1.00  0.00     0.001 C 
HETATM   16  C19 UNL     1      30.868  16.798   8.028  1.00  0.00     0.013 C 
HETATM   17  C20 UNL     1      29.759  16.051   8.767  1.00  0.00    -0.005 A 
HETATM   18  C21 UNL     1      29.271  14.733   8.270  1.00  0.00     0.014 A 
HETATM   19  C22 UNL     1      28.527  15.929   7.847  1.00  0.00     0.014 A 
ENDROOT
BRANCH   9  20
HETATM   20  C9  UNL     1      28.730  13.038  14.243  1.00  0.00     0.084 A 
HETATM   21  C10 UNL     1      27.502  12.701  13.744  1.00  0.00     0.037 A 
HETATM   22  C11 UNL     1      26.969  11.715  14.576  1.00  0.00     0.027 A 
HETATM   23  C12 UNL     1      27.918  11.513  15.540  1.00  0.00     0.142 A 
HETATM   24  O5  UNL     1      28.930  12.311  15.302  1.00  0.00    -0.324 OA
ENDBRANCH   9  20
BRANCH  11  25
HETATM   25  O6  UNL     1      33.525  17.315  13.206  1.00  0.00    -0.391 OA
ATOM     26  H6  UNL     1      34.269  17.520  13.760  1.00  0.00     0.210 HD
ENDBRANCH  11  25
BRANCH   1  27
HETATM   27  C2  UNL     1      29.597  18.025  10.257  1.00  0.00     0.001 C 
HETATM   28  C1  UNL     1      28.592  18.839  10.115  1.00  0.00     0.010 C 
ENDBRANCH   1  27
BRANCH   1  29
HETATM   29  O1  UNL     1      28.207  16.199  10.512  1.00  0.00    -0.385 OA
ATOM     30  H1  UNL     1      27.829  15.708   9.791  1.00  0.00     0.211 HD
ENDBRANCH   1  29
TORSDOF 4
ENDMDL
