MODEL 1
REMARK VINA RESULT: -7.513436687      0.000      0.000
REMARK  5 active torsions:
REMARK  status: ('A' for Active; 'I' for Inactive)
REMARK    1  A    between atoms: C8_8  and  O1_9 
REMARK    2  A    between atoms: O1_9  and  C9_10 
REMARK    3  A    between atoms: C9_10  and  C10_12 
REMARK    4  A    between atoms: C12_15  and  O4_16 
REMARK    5  A    between atoms: C21_27  and  O6_28 
ROOT
HETATM    1  C1  UNL     1      33.604  15.695  14.283  1.00  0.00     0.021 C 
HETATM    2  C2  UNL     1      32.429  16.192  13.490  1.00  0.00     0.014 C 
HETATM    3  C3  UNL     1      31.294  16.446  14.403  1.00  0.00    -0.000 C 
HETATM    4  C4  UNL     1      30.011  16.805  13.701  1.00  0.00     0.006 C 
HETATM    5  C5  UNL     1      29.005  15.698  13.664  1.00  0.00     0.013 C 
HETATM    6  C6  UNL     1      29.562  14.392  13.136  1.00  0.00    -0.009 C 
HETATM    7  C7  UNL     1      29.386  14.402  11.648  1.00  0.00     0.018 C 
HETATM    8  C8  UNL     1      28.952  13.199  13.802  1.00  0.00     0.141 C 
HETATM    9  C14 UNL     1      30.051  12.325  14.320  1.00  0.00     0.034 C 
HETATM   10  C15 UNL     1      31.349  12.864  13.708  1.00  0.00     0.013 C 
HETATM   11  C16 UNL     1      31.041  14.296  13.538  1.00  0.00    -0.026 C 
HETATM   12  C17 UNL     1      31.100  15.000  14.905  1.00  0.00     0.016 C 
HETATM   13  C18 UNL     1      31.831  15.078  12.611  1.00  0.00     0.010 C 
HETATM   14  C19 UNL     1      32.955  14.488  11.877  1.00  0.00     0.033 C 
HETATM   15  C20 UNL     1      33.581  15.634  11.065  1.00  0.00     0.171 C 
HETATM   16  O5  UNL     1      33.936  16.709  11.826  1.00  0.00    -0.361 OA
HETATM   17  C21 UNL     1      32.861  17.252  12.571  1.00  0.00     0.265 C 
ENDROOT
BRANCH   8  18
HETATM   18  O1  UNL     1      28.010  12.522  13.010  1.00  0.00    -0.311 OA
BRANCH  18  19
HETATM   19  C9  UNL     1      26.688  12.317  13.384  1.00  0.00     0.295 C 
HETATM   20  O2  UNL     1      25.973  13.355  13.353  1.00  0.00    -0.259 OA
BRANCH  19  21
HETATM   21  C10 UNL     1      26.169  11.021  13.777  1.00  0.00     0.066 A 
HETATM   22  C11 UNL     1      26.715  10.047  14.582  1.00  0.00     0.162 A 
HETATM   23  O3  UNL     1      25.880   9.023  14.662  1.00  0.00    -0.299 OA
HETATM   24  C12 UNL     1      24.798   9.239  13.962  1.00  0.00     0.183 A 
HETATM   25  C13 UNL     1      24.951  10.504  13.385  1.00  0.00     0.083 A 
BRANCH  24  26
HETATM   26  O4  UNL     1      23.749   8.342  13.859  1.00  0.00    -0.341 OA
ATOM     27  H4  UNL     1      23.062   8.249  14.508  1.00  0.00     0.220 HD
ENDBRANCH  24  26
ENDBRANCH  19  21
ENDBRANCH  18  19
ENDBRANCH   8  18
BRANCH  17  28
HETATM   28  O6  UNL     1      33.359  18.393  13.181  1.00  0.00    -0.370 OA
ATOM     29  H6  UNL     1      33.170  19.207  12.729  1.00  0.00     0.212 HD
ENDBRANCH  17  28
TORSDOF 5
ENDMDL
MODEL 2
REMARK VINA RESULT: -7.365684072      1.333      1.635
REMARK  5 active torsions:
REMARK  status: ('A' for Active; 'I' for Inactive)
REMARK    1  A    between atoms: C8_8  and  O1_9 
REMARK    2  A    between atoms: O1_9  and  C9_10 
REMARK    3  A    between atoms: C9_10  and  C10_12 
REMARK    4  A    between atoms: C12_15  and  O4_16 
REMARK    5  A    between atoms: C21_27  and  O6_28 
ROOT
HETATM    1  C1  UNL     1      33.444  16.897  13.021  1.00  0.00     0.021 C 
HETATM    2  C2  UNL     1      31.969  16.882  12.734  1.00  0.00     0.014 C 
HETATM    3  C3  UNL     1      31.221  16.907  14.009  1.00  0.00    -0.000 C 
HETATM    4  C4  UNL     1      29.733  16.743  13.851  1.00  0.00     0.006 C 
HETATM    5  C5  UNL     1      29.225  15.386  14.227  1.00  0.00     0.013 C 
HETATM    6  C6  UNL     1      29.969  14.253  13.552  1.00  0.00    -0.009 C 
HETATM    7  C7  UNL     1      29.281  13.985  12.248  1.00  0.00     0.018 C 
HETATM    8  C8  UNL     1      30.085  13.044  14.426  1.00  0.00     0.141 C 
HETATM    9  C14 UNL     1      31.524  12.640  14.496  1.00  0.00     0.034 C 
HETATM   10  C15 UNL     1      32.249  13.456  13.419  1.00  0.00     0.013 C 
HETATM   11  C16 UNL     1      31.430  14.680  13.353  1.00  0.00    -0.026 C 
HETATM   12  C17 UNL     1      31.727  15.564  14.577  1.00  0.00     0.016 C 
HETATM   13  C18 UNL     1      31.517  15.520  12.178  1.00  0.00     0.010 C 
HETATM   14  C19 UNL     1      32.435  15.202  11.078  1.00  0.00     0.033 C 
HETATM   15  C20 UNL     1      32.296  16.350  10.064  1.00  0.00     0.171 C 
HETATM   16  O5  UNL     1      32.508  17.584  10.607  1.00  0.00    -0.361 OA
HETATM   17  C21 UNL     1      31.653  17.873  11.698  1.00  0.00     0.265 C 
ENDROOT
BRANCH   8  18
HETATM   18  O1  UNL     1      29.215  11.999  14.073  1.00  0.00    -0.311 OA
BRANCH  18  19
HETATM   19  C9  UNL     1      28.054  11.689  14.769  1.00  0.00     0.295 C 
HETATM   20  O2  UNL     1      28.182  11.695  16.023  1.00  0.00    -0.259 OA
BRANCH  19  21
HETATM   21  C10 UNL     1      26.797  11.384  14.113  1.00  0.00     0.066 A 
HETATM   22  C11 UNL     1      26.128  12.048  13.110  1.00  0.00     0.162 A 
HETATM   23  O3  UNL     1      25.010  11.402  12.823  1.00  0.00    -0.299 OA
HETATM   24  C12 UNL     1      24.875  10.336  13.568  1.00  0.00     0.183 A 
HETATM   25  C13 UNL     1      25.997  10.296  14.401  1.00  0.00     0.083 A 
BRANCH  24  26
HETATM   26  O4  UNL     1      23.801   9.466  13.489  1.00  0.00    -0.341 OA
ATOM     27  H4  UNL     1      23.292   9.180  14.238  1.00  0.00     0.220 HD
ENDBRANCH  24  26
ENDBRANCH  19  21
ENDBRANCH  18  19
ENDBRANCH   8  18
BRANCH  17  28
HETATM   28  O6  UNL     1      31.913  19.190  12.046  1.00  0.00    -0.370 OA
ATOM     29  H6  UNL     1      31.202  19.799  11.879  1.00  0.00     0.212 HD
ENDBRANCH  17  28
TORSDOF 5
ENDMDL
MODEL 3
REMARK VINA RESULT: -6.811831513      1.060      1.221
REMARK  5 active torsions:
REMARK  status: ('A' for Active; 'I' for Inactive)
REMARK    1  A    between atoms: C8_8  and  O1_9 
REMARK    2  A    between atoms: O1_9  and  C9_10 
REMARK    3  A    between atoms: C9_10  and  C10_12 
REMARK    4  A    between atoms: C12_15  and  O4_16 
REMARK    5  A    between atoms: C21_27  and  O6_28 
ROOT
HETATM    1  C1  UNL     1      32.009  16.468  14.520  1.00  0.00     0.021 C 
HETATM    2  C2  UNL     1      31.166  16.433  13.277  1.00  0.00     0.014 C 
HETATM    3  C3  UNL     1      29.766  16.758  13.625  1.00  0.00    -0.000 C 
HETATM    4  C4  UNL     1      28.799  16.606  12.481  1.00  0.00     0.006 C 
HETATM    5  C5  UNL     1      27.944  15.380  12.563  1.00  0.00     0.013 C 
HETATM    6  C6  UNL     1      28.734  14.105  12.776  1.00  0.00    -0.009 C 
HETATM    7  C7  UNL     1      29.101  13.578  11.422  1.00  0.00     0.018 C 
HETATM    8  C8  UNL     1      28.002  13.113  13.625  1.00  0.00     0.141 C 
HETATM    9  C14 UNL     1      28.897  12.694  14.749  1.00  0.00     0.034 C 
HETATM   10  C15 UNL     1      30.291  13.233  14.409  1.00  0.00     0.013 C 
HETATM   11  C16 UNL     1      29.975  14.436  13.618  1.00  0.00    -0.026 C 
HETATM   12  C17 UNL     1      29.496  15.558  14.557  1.00  0.00     0.016 C 
HETATM   13  C18 UNL     1      30.992  14.995  12.755  1.00  0.00     0.010 C 
HETATM   14  C19 UNL     1      32.339  14.419  12.688  1.00  0.00     0.033 C 
HETATM   15  C20 UNL     1      33.140  15.321  11.734  1.00  0.00     0.171 C 
HETATM   16  O5  UNL     1      33.132  16.637  12.094  1.00  0.00    -0.361 OA
HETATM   17  C21 UNL     1      31.830  17.182  12.204  1.00  0.00     0.265 C 
ENDROOT
BRANCH   8  18
HETATM   18  O1  UNL     1      27.451  12.042  12.904  1.00  0.00    -0.311 OA
BRANCH  18  19
HETATM   19  C9  UNL     1      26.179  11.530  13.130  1.00  0.00     0.295 C 
HETATM   20  O2  UNL     1      25.250  12.194  12.596  1.00  0.00    -0.259 OA
BRANCH  19  21
HETATM   21  C10 UNL     1      25.935  10.333  13.912  1.00  0.00     0.066 A 
HETATM   22  C11 UNL     1      26.735   9.685  14.826  1.00  0.00     0.162 A 
HETATM   23  O3  UNL     1      26.097   8.626  15.296  1.00  0.00    -0.299 OA
HETATM   24  C12 UNL     1      24.911   8.511  14.760  1.00  0.00     0.183 A 
HETATM   25  C13 UNL     1      24.777   9.584  13.873  1.00  0.00     0.083 A 
BRANCH  24  26
HETATM   26  O4  UNL     1      24.017   7.497  15.061  1.00  0.00    -0.341 OA
ATOM     27  H4  UNL     1      23.670   7.334  15.930  1.00  0.00     0.220 HD
ENDBRANCH  24  26
ENDBRANCH  19  21
ENDBRANCH  18  19
ENDBRANCH   8  18
BRANCH  17  28
HETATM   28  O6  UNL     1      32.004  18.535  12.451  1.00  0.00    -0.370 OA
ATOM     29  H6  UNL     1      32.814  18.764  12.891  1.00  0.00     0.212 HD
ENDBRANCH  17  28
TORSDOF 5
ENDMDL
MODEL 4
REMARK VINA RESULT: -6.752327945      1.725      3.058
REMARK  5 active torsions:
REMARK  status: ('A' for Active; 'I' for Inactive)
REMARK    1  A    between atoms: C8_8  and  O1_9 
REMARK    2  A    between atoms: O1_9  and  C9_10 
REMARK    3  A    between atoms: C9_10  and  C10_12 
REMARK    4  A    between atoms: C12_15  and  O4_16 
REMARK    5  A    between atoms: C21_27  and  O6_28 
ROOT
HETATM    1  C1  UNL     1      30.880  17.558   9.812  1.00  0.00     0.021 C 
HETATM    2  C2  UNL     1      31.596  16.982  11.001  1.00  0.00     0.014 C 
HETATM    3  C3  UNL     1      31.776  15.527  10.806  1.00  0.00    -0.000 C 
HETATM    4  C4  UNL     1      32.349  14.815  12.003  1.00  0.00     0.006 C 
HETATM    5  C5  UNL     1      31.347  14.019  12.778  1.00  0.00     0.013 C 
HETATM    6  C6  UNL     1      30.112  14.809  13.159  1.00  0.00    -0.009 C 
HETATM    7  C7  UNL     1      30.392  15.461  14.478  1.00  0.00     0.018 C 
HETATM    8  C8  UNL     1      28.873  13.969  13.159  1.00  0.00     0.141 C 
HETATM    9  C14 UNL     1      27.840  14.640  12.309  1.00  0.00     0.034 C 
HETATM   10  C15 UNL     1      28.375  16.048  12.020  1.00  0.00     0.013 C 
HETATM   11  C16 UNL     1      29.834  15.840  12.057  1.00  0.00    -0.026 C 
HETATM   12  C17 UNL     1      30.285  15.133  10.766  1.00  0.00     0.016 C 
HETATM   13  C18 UNL     1      30.700  16.982  12.253  1.00  0.00     0.010 C 
HETATM   14  C19 UNL     1      30.160  18.341  12.369  1.00  0.00     0.033 C 
HETATM   15  C20 UNL     1      31.377  19.273  12.490  1.00  0.00     0.171 C 
HETATM   16  O5  UNL     1      32.274  19.133  11.472  1.00  0.00    -0.361 OA
HETATM   17  C21 UNL     1      32.762  17.811  11.330  1.00  0.00     0.265 C 
ENDROOT
BRANCH   8  18
HETATM   18  O1  UNL     1      28.418  13.622  14.441  1.00  0.00    -0.311 OA
BRANCH  18  19
HETATM   19  C9  UNL     1      28.341  12.316  14.908  1.00  0.00     0.295 C 
HETATM   20  O2  UNL     1      29.206  12.024  15.777  1.00  0.00    -0.259 OA
BRANCH  19  21
HETATM   21  C10 UNL     1      27.351  11.365  14.439  1.00  0.00     0.066 A 
HETATM   22  C11 UNL     1      27.457  10.015  14.190  1.00  0.00     0.162 A 
HETATM   23  O3  UNL     1      26.290   9.552  13.773  1.00  0.00    -0.299 OA
HETATM   24  C12 UNL     1      25.394  10.502  13.724  1.00  0.00     0.183 A 
HETATM   25  C13 UNL     1      26.039  11.670  14.142  1.00  0.00     0.083 A 
BRANCH  24  26
HETATM   26  O4  UNL     1      24.082  10.311  13.324  1.00  0.00    -0.341 OA
ATOM     27  H4  UNL     1      23.419   9.890  13.858  1.00  0.00     0.220 HD
ENDBRANCH  24  26
ENDBRANCH  19  21
ENDBRANCH  18  19
ENDBRANCH   8  18
BRANCH  17  28
HETATM   28  O6  UNL     1      33.738  17.869  10.348  1.00  0.00    -0.370 OA
ATOM     29  H6  UNL     1      34.348  18.593  10.428  1.00  0.00     0.212 HD
ENDBRANCH  17  28
TORSDOF 5
ENDMDL
MODEL 5
REMARK VINA RESULT: -6.626910137      1.716      3.238
REMARK  5 active torsions:
REMARK  status: ('A' for Active; 'I' for Inactive)
REMARK    1  A    between atoms: C8_8  and  O1_9 
REMARK    2  A    between atoms: O1_9  and  C9_10 
REMARK    3  A    between atoms: C9_10  and  C10_12 
REMARK    4  A    between atoms: C12_15  and  O4_16 
REMARK    5  A    between atoms: C21_27  and  O6_28 
ROOT
HETATM    1  C1  UNL     1      31.713  14.666  12.685  1.00  0.00     0.021 C 
HETATM    2  C2  UNL     1      31.166  14.453  14.068  1.00  0.00     0.014 C 
HETATM    3  C3  UNL     1      31.289  13.024  14.428  1.00  0.00    -0.000 C 
HETATM    4  C4  UNL     1      30.635  12.663  15.735  1.00  0.00     0.006 C 
HETATM    5  C5  UNL     1      29.336  11.935  15.588  1.00  0.00     0.013 C 
HETATM    6  C6  UNL     1      28.354  12.631  14.668  1.00  0.00    -0.009 C 
HETATM    7  C7  UNL     1      27.556  13.582  15.506  1.00  0.00     0.018 C 
HETATM    8  C8  UNL     1      27.513  11.665  13.894  1.00  0.00     0.141 C 
HETATM    9  C14 UNL     1      27.609  12.005  12.440  1.00  0.00     0.034 C 
HETATM   10  C15 UNL     1      28.299  13.372  12.366  1.00  0.00     0.013 C 
HETATM   11  C16 UNL     1      29.146  13.358  13.572  1.00  0.00    -0.026 C 
HETATM   12  C17 UNL     1      30.366  12.450  13.332  1.00  0.00     0.016 C 
HETATM   13  C18 UNL     1      29.635  14.613  14.100  1.00  0.00     0.010 C 
HETATM   14  C19 UNL     1      29.344  15.888  13.436  1.00  0.00     0.033 C 
HETATM   15  C20 UNL     1      30.086  16.967  14.242  1.00  0.00     0.171 C 
HETATM   16  O5  UNL     1      31.421  16.721  14.379  1.00  0.00    -0.361 OA
HETATM   17  C21 UNL     1      31.705  15.471  14.979  1.00  0.00     0.265 C 
ENDROOT
BRANCH   8  18
HETATM   18  O1  UNL     1      26.195  11.550  14.367  1.00  0.00    -0.311 OA
BRANCH  18  19
HETATM   19  C9  UNL     1      25.285  10.610  13.901  1.00  0.00     0.295 C 
HETATM   20  O2  UNL     1      24.624  10.982  12.895  1.00  0.00    -0.259 OA
BRANCH  19  21
HETATM   21  C10 UNL     1      25.106   9.309  14.517  1.00  0.00     0.066 A 
HETATM   22  C11 UNL     1      24.193   8.313  14.253  1.00  0.00     0.162 A 
HETATM   23  O3  UNL     1      24.405   7.293  15.068  1.00  0.00    -0.299 OA
HETATM   24  C12 UNL     1      25.407   7.531  15.872  1.00  0.00     0.183 A 
HETATM   25  C13 UNL     1      25.876   8.808  15.547  1.00  0.00     0.083 A 
BRANCH  24  26
HETATM   26  O4  UNL     1      25.858   6.643  16.834  1.00  0.00    -0.341 OA
ATOM     27  H4  UNL     1      25.294   6.204  17.460  1.00  0.00     0.220 HD
ENDBRANCH  24  26
ENDBRANCH  19  21
ENDBRANCH  18  19
ENDBRANCH   8  18
BRANCH  17  28
HETATM   28  O6  UNL     1      33.079  15.435  15.154  1.00  0.00    -0.370 OA
ATOM     29  H6  UNL     1      33.373  15.502  16.055  1.00  0.00     0.212 HD
ENDBRANCH  17  28
TORSDOF 5
ENDMDL
