MODEL 1
REMARK VINA RESULT: -6.414889835      0.000      0.000
REMARK  6 active torsions:
REMARK  status: ('A' for Active; 'I' for Inactive)
REMARK    1  A    between atoms: C2_2  and  C5_5 
REMARK    2  A    between atoms: C5_5  and  O2_7 
REMARK    3  A    between atoms: O2_7  and  N1_8 
REMARK    4  A    between atoms: C8_12  and  O3_13 
REMARK    5  A    between atoms: C16_22  and  O4_23 
REMARK    6  A    between atoms: O4_23  and  C17_24 
ROOT
HETATM    1  N1  UNL     1      30.744  14.029  13.397  1.00  0.00    -0.265 N 
ATOM      2  H1  UNL     1      31.376  13.229  13.421  1.00  0.00     0.194 HD
HETATM    3  C6  UNL     1      31.029  14.967  12.567  1.00  0.00     0.022 C 
HETATM    4  C7  UNL     1      32.170  15.004  11.650  1.00  0.00     0.087 C 
HETATM    5  C8  UNL     1      32.072  16.280  10.853  1.00  0.00     0.129 C 
HETATM    6  C9  UNL     1      31.033  17.106  11.534  1.00  0.00     0.037 C 
HETATM    7  C10 UNL     1      30.221  16.206  12.403  1.00  0.00     0.003 C 
HETATM    8  C11 UNL     1      30.066  16.775  13.820  1.00  0.00     0.022 C 
HETATM    9  C12 UNL     1      28.892  15.819  11.860  1.00  0.00     0.016 C 
HETATM   10  C13 UNL     1      28.916  15.828  10.372  1.00  0.00     0.013 C 
HETATM   11  C14 UNL     1      29.121  17.255   9.908  1.00  0.00    -0.009 C 
HETATM   12  C15 UNL     1      27.778  17.942  10.018  1.00  0.00     0.018 C 
HETATM   13  C16 UNL     1      29.498  17.300   8.431  1.00  0.00     0.142 C 
HETATM   14  C18 UNL     1      30.148  18.668   8.350  1.00  0.00     0.034 C 
HETATM   15  C19 UNL     1      31.107  18.578   9.539  1.00  0.00     0.013 C 
HETATM   16  C20 UNL     1      30.223  17.962  10.601  1.00  0.00    -0.027 C 
HETATM   17  C21 UNL     1      29.716  19.142  11.444  1.00  0.00     0.016 C 
ENDROOT
BRANCH   1  18
HETATM   18  O2  UNL     1      29.690  13.996  14.244  1.00  0.00    -0.199 OA
BRANCH  18  19
HETATM   19  C5  UNL     1      29.163  12.772  14.663  1.00  0.00     0.288 C 
HETATM   20  O1  UNL     1      29.828  12.117  15.479  1.00  0.00    -0.262 OA
BRANCH  19  21
HETATM   21  C2  UNL     1      27.876  12.255  14.173  1.00  0.00     0.039 C 
HETATM   22  C1  UNL     1      26.725  12.867  14.946  1.00  0.00     0.025 C 
HETATM   23  C3  UNL     1      27.669  12.578  12.696  1.00  0.00     0.025 C 
HETATM   24  C4  UNL     1      27.823  10.766  14.312  1.00  0.00     0.025 C 
ENDBRANCH  19  21
ENDBRANCH  18  19
ENDBRANCH   1  18
BRANCH   5  25
HETATM   25  O3  UNL     1      33.350  16.881  10.929  1.00  0.00    -0.395 OA
ATOM     26  H3  UNL     1      33.323  17.622  10.335  1.00  0.00     0.210 HD
ENDBRANCH   5  25
BRANCH  13  27
HETATM   27  O4  UNL     1      28.344  17.361   7.614  1.00  0.00    -0.300 OA
BRANCH  27  28
HETATM   28  C17 UNL     1      28.114  16.600   6.508  1.00  0.00     0.373 C 
HETATM   29  N2  UNL     1      28.591  16.992   5.228  1.00  0.00    -0.032 NA
HETATM   30  O5  UNL     1      27.466  15.531   6.636  1.00  0.00    -0.242 OA
ENDBRANCH  27  28
ENDBRANCH  13  27
TORSDOF 6
ENDMDL
MODEL 2
REMARK VINA RESULT: -6.040411857      2.006      2.478
REMARK  6 active torsions:
REMARK  status: ('A' for Active; 'I' for Inactive)
REMARK    1  A    between atoms: C2_2  and  C5_5 
REMARK    2  A    between atoms: C5_5  and  O2_7 
REMARK    3  A    between atoms: O2_7  and  N1_8 
REMARK    4  A    between atoms: C8_12  and  O3_13 
REMARK    5  A    between atoms: C16_22  and  O4_23 
REMARK    6  A    between atoms: O4_23  and  C17_24 
ROOT
HETATM    1  N1  UNL     1      30.290  14.491  13.438  1.00  0.00    -0.265 N 
ATOM      2  H1  UNL     1      31.011  14.461  14.159  1.00  0.00     0.194 HD
HETATM    3  C6  UNL     1      30.256  15.540  12.698  1.00  0.00     0.022 C 
HETATM    4  C7  UNL     1      31.148  16.698  12.784  1.00  0.00     0.087 C 
HETATM    5  C8  UNL     1      30.749  17.661  11.694  1.00  0.00     0.129 C 
HETATM    6  C9  UNL     1      29.435  17.174  11.182  1.00  0.00     0.037 C 
HETATM    7  C10 UNL     1      29.271  15.752  11.602  1.00  0.00     0.003 C 
HETATM    8  C11 UNL     1      27.899  15.505  12.243  1.00  0.00     0.022 C 
HETATM    9  C12 UNL     1      29.532  14.739  10.547  1.00  0.00     0.016 C 
HETATM   10  C13 UNL     1      30.510  15.261   9.554  1.00  0.00     0.013 C 
HETATM   11  C14 UNL     1      29.870  16.423   8.822  1.00  0.00    -0.009 C 
HETATM   12  C15 UNL     1      28.945  15.824   7.786  1.00  0.00     0.018 C 
HETATM   13  C16 UNL     1      30.913  17.220   8.046  1.00  0.00     0.142 C 
HETATM   14  C18 UNL     1      30.185  18.541   7.876  1.00  0.00     0.034 C 
HETATM   15  C19 UNL     1      29.732  18.782   9.317  1.00  0.00     0.013 C 
HETATM   16  C20 UNL     1      29.223  17.414   9.714  1.00  0.00    -0.027 C 
HETATM   17  C21 UNL     1      27.702  17.471   9.510  1.00  0.00     0.016 C 
ENDROOT
BRANCH   1  18
HETATM   18  O2  UNL     1      29.466  13.421  13.358  1.00  0.00    -0.199 OA
BRANCH  18  19
HETATM   19  C5  UNL     1      29.422  12.489  14.397  1.00  0.00     0.288 C 
HETATM   20  O1  UNL     1      30.502  12.147  14.900  1.00  0.00    -0.262 OA
BRANCH  19  21
HETATM   21  C2  UNL     1      28.161  11.917  14.895  1.00  0.00     0.039 C 
HETATM   22  C1  UNL     1      27.002  12.851  14.612  1.00  0.00     0.025 C 
HETATM   23  C3  UNL     1      27.853  10.578  14.230  1.00  0.00     0.025 C 
HETATM   24  C4  UNL     1      28.245  11.670  16.368  1.00  0.00     0.025 C 
ENDBRANCH  19  21
ENDBRANCH  18  19
ENDBRANCH   1  18
BRANCH   5  25
HETATM   25  O3  UNL     1      30.630  18.924  12.321  1.00  0.00    -0.395 OA
ATOM     26  H3  UNL     1      29.700  19.050  12.475  1.00  0.00     0.210 HD
ENDBRANCH   5  25
BRANCH  13  27
HETATM   27  O4  UNL     1      31.087  16.694   6.743  1.00  0.00    -0.300 OA
BRANCH  27  28
HETATM   28  C17 UNL     1      32.254  16.212   6.233  1.00  0.00     0.373 C 
HETATM   29  N2  UNL     1      32.855  15.031   6.747  1.00  0.00    -0.032 NA
HETATM   30  O5  UNL     1      32.800  16.833   5.286  1.00  0.00    -0.242 OA
ENDBRANCH  27  28
ENDBRANCH  13  27
TORSDOF 6
ENDMDL
MODEL 3
REMARK VINA RESULT: -6.017878540      5.560      7.808
REMARK  6 active torsions:
REMARK  status: ('A' for Active; 'I' for Inactive)
REMARK    1  A    between atoms: C2_2  and  C5_5 
REMARK    2  A    between atoms: C5_5  and  O2_7 
REMARK    3  A    between atoms: O2_7  and  N1_8 
REMARK    4  A    between atoms: C8_12  and  O3_13 
REMARK    5  A    between atoms: C16_22  and  O4_23 
REMARK    6  A    between atoms: O4_23  and  C17_24 
ROOT
HETATM    1  N1  UNL     1      30.623  11.796  16.281  1.00  0.00    -0.265 N 
ATOM      2  H1  UNL     1      30.283  11.299  17.104  1.00  0.00     0.194 HD
HETATM    3  C6  UNL     1      31.774  12.358  16.379  1.00  0.00     0.022 C 
HETATM    4  C7  UNL     1      32.649  12.357  17.554  1.00  0.00     0.087 C 
HETATM    5  C8  UNL     1      33.901  13.112  17.188  1.00  0.00     0.129 C 
HETATM    6  C9  UNL     1      33.602  13.795  15.896  1.00  0.00     0.037 C 
HETATM    7  C10 UNL     1      32.420  13.126  15.280  1.00  0.00     0.003 C 
HETATM    8  C11 UNL     1      31.364  14.144  14.828  1.00  0.00     0.022 C 
HETATM    9  C12 UNL     1      32.724  12.180  14.175  1.00  0.00     0.016 C 
HETATM   10  C13 UNL     1      34.081  11.595  14.349  1.00  0.00     0.013 C 
HETATM   11  C14 UNL     1      35.101  12.705  14.197  1.00  0.00    -0.009 C 
HETATM   12  C15 UNL     1      35.256  12.947  12.712  1.00  0.00     0.018 C 
HETATM   13  C16 UNL     1      36.470  12.259  14.697  1.00  0.00     0.142 C 
HETATM   14  C18 UNL     1      37.127  13.604  14.947  1.00  0.00     0.034 C 
HETATM   15  C19 UNL     1      36.029  14.288  15.765  1.00  0.00     0.013 C 
HETATM   16  C20 UNL     1      34.788  13.922  14.982  1.00  0.00    -0.027 C 
HETATM   17  C21 UNL     1      34.501  15.134  14.083  1.00  0.00     0.016 C 
ENDROOT
BRANCH   1  18
HETATM   18  O2  UNL     1      29.816  11.797  15.196  1.00  0.00    -0.199 OA
BRANCH  18  19
HETATM   19  C5  UNL     1      28.429  11.841  15.352  1.00  0.00     0.288 C 
HETATM   20  O1  UNL     1      27.984  11.751  16.505  1.00  0.00    -0.262 OA
BRANCH  19  21
HETATM   21  C2  UNL     1      27.508  11.985  14.213  1.00  0.00     0.039 C 
HETATM   22  C1  UNL     1      27.031  10.628  13.736  1.00  0.00     0.025 C 
HETATM   23  C3  UNL     1      26.277  12.805  14.589  1.00  0.00     0.025 C 
HETATM   24  C4  UNL     1      28.183  12.694  13.081  1.00  0.00     0.025 C 
ENDBRANCH  19  21
ENDBRANCH  18  19
ENDBRANCH   1  18
BRANCH   5  25
HETATM   25  O3  UNL     1      34.110  14.042  18.234  1.00  0.00    -0.395 OA
ATOM     26  H3  UNL     1      35.052  14.091  18.352  1.00  0.00     0.210 HD
ENDBRANCH   5  25
BRANCH  13  27
HETATM   27  O4  UNL     1      37.213  11.643  13.662  1.00  0.00    -0.300 OA
BRANCH  27  28
HETATM   28  C17 UNL     1      37.780  10.405  13.722  1.00  0.00     0.373 C 
HETATM   29  N2  UNL     1      37.137   9.270  13.160  1.00  0.00    -0.032 NA
HETATM   30  O5  UNL     1      38.895  10.280  14.287  1.00  0.00    -0.242 OA
ENDBRANCH  27  28
ENDBRANCH  13  27
TORSDOF 6
ENDMDL
MODEL 4
REMARK VINA RESULT: -6.013490119      5.391      7.412
REMARK  6 active torsions:
REMARK  status: ('A' for Active; 'I' for Inactive)
REMARK    1  A    between atoms: C2_2  and  C5_5 
REMARK    2  A    between atoms: C5_5  and  O2_7 
REMARK    3  A    between atoms: O2_7  and  N1_8 
REMARK    4  A    between atoms: C8_12  and  O3_13 
REMARK    5  A    between atoms: C16_22  and  O4_23 
REMARK    6  A    between atoms: O4_23  and  C17_24 
ROOT
HETATM    1  N1  UNL     1      30.495  11.773  15.998  1.00  0.00    -0.265 N 
ATOM      2  H1  UNL     1      30.190  11.205  16.788  1.00  0.00     0.194 HD
HETATM    3  C6  UNL     1      31.649  12.328  16.096  1.00  0.00     0.022 C 
HETATM    4  C7  UNL     1      32.572  12.229  17.229  1.00  0.00     0.087 C 
HETATM    5  C8  UNL     1      33.808  13.017  16.878  1.00  0.00     0.129 C 
HETATM    6  C9  UNL     1      33.456  13.808  15.663  1.00  0.00     0.037 C 
HETATM    7  C10 UNL     1      32.249  13.190  15.042  1.00  0.00     0.003 C 
HETATM    8  C11 UNL     1      31.176  14.240  14.723  1.00  0.00     0.022 C 
HETATM    9  C12 UNL     1      32.506  12.344  13.847  1.00  0.00     0.016 C 
HETATM   10  C13 UNL     1      33.870  11.751  13.913  1.00  0.00     0.013 C 
HETATM   11  C14 UNL     1      34.882  12.873  13.816  1.00  0.00    -0.009 C 
HETATM   12  C15 UNL     1      34.976  13.244  12.352  1.00  0.00     0.018 C 
HETATM   13  C16 UNL     1      36.271  12.391  14.218  1.00  0.00     0.142 C 
HETATM   14  C18 UNL     1      36.938  13.712  14.556  1.00  0.00     0.034 C 
HETATM   15  C19 UNL     1      35.876  14.319  15.474  1.00  0.00     0.013 C 
HETATM   16  C20 UNL     1      34.603  14.017  14.715  1.00  0.00    -0.027 C 
HETATM   17  C21 UNL     1      34.279  15.301  13.937  1.00  0.00     0.016 C 
ENDROOT
BRANCH   1  18
HETATM   18  O2  UNL     1      29.643  11.865  14.951  1.00  0.00    -0.199 OA
BRANCH  18  19
HETATM   19  C5  UNL     1      28.264  11.899  15.168  1.00  0.00     0.288 C 
HETATM   20  O1  UNL     1      27.871  11.805  16.339  1.00  0.00    -0.262 OA
BRANCH  19  21
HETATM   21  C2  UNL     1      27.293  12.038  14.071  1.00  0.00     0.039 C 
HETATM   22  C1  UNL     1      27.926  12.728  12.880  1.00  0.00     0.025 C 
HETATM   23  C3  UNL     1      26.780  10.679  13.603  1.00  0.00     0.025 C 
HETATM   24  C4  UNL     1      26.105  12.828  14.522  1.00  0.00     0.025 C 
ENDBRANCH  19  21
ENDBRANCH  18  19
ENDBRANCH   1  18
BRANCH   5  25
HETATM   25  O3  UNL     1      34.061  13.853  17.991  1.00  0.00    -0.395 OA
ATOM     26  H3  UNL     1      34.481  14.630  17.641  1.00  0.00     0.210 HD
ENDBRANCH   5  25
BRANCH  13  27
HETATM   27  O4  UNL     1      36.971  11.869  13.104  1.00  0.00    -0.300 OA
BRANCH  27  28
HETATM   28  C17 UNL     1      37.325  10.565  12.930  1.00  0.00     0.373 C 
HETATM   29  N2  UNL     1      38.385  10.196  12.060  1.00  0.00    -0.032 NA
HETATM   30  O5  UNL     1      36.694   9.680  13.561  1.00  0.00    -0.242 OA
ENDBRANCH  27  28
ENDBRANCH  13  27
TORSDOF 6
ENDMDL
MODEL 5
REMARK VINA RESULT: -5.939517698      2.250      2.793
REMARK  6 active torsions:
REMARK  status: ('A' for Active; 'I' for Inactive)
REMARK    1  A    between atoms: C2_2  and  C5_5 
REMARK    2  A    between atoms: C5_5  and  O2_7 
REMARK    3  A    between atoms: O2_7  and  N1_8 
REMARK    4  A    between atoms: C8_12  and  O3_13 
REMARK    5  A    between atoms: C16_22  and  O4_23 
REMARK    6  A    between atoms: O4_23  and  C17_24 
ROOT
HETATM    1  N1  UNL     1      30.235  13.605  14.818  1.00  0.00    -0.265 N 
ATOM      2  H1  UNL     1      30.708  12.903  15.386  1.00  0.00     0.194 HD
HETATM    3  C6  UNL     1      30.980  14.473  14.232  1.00  0.00     0.022 C 
HETATM    4  C7  UNL     1      32.441  14.554  14.297  1.00  0.00     0.087 C 
HETATM    5  C8  UNL     1      32.870  15.708  13.427  1.00  0.00     0.129 C 
HETATM    6  C9  UNL     1      31.624  16.463  13.106  1.00  0.00     0.037 C 
HETATM    7  C10 UNL     1      30.460  15.568  13.370  1.00  0.00     0.003 C 
HETATM    8  C11 UNL     1      29.386  16.269  14.215  1.00  0.00     0.022 C 
HETATM    9  C12 UNL     1      29.841  14.952  12.167  1.00  0.00     0.016 C 
HETATM   10  C13 UNL     1      30.851  14.796  11.085  1.00  0.00     0.013 C 
HETATM   11  C14 UNL     1      31.281  16.176  10.633  1.00  0.00    -0.009 C 
HETATM   12  C15 UNL     1      30.192  16.689   9.717  1.00  0.00     0.018 C 
HETATM   13  C16 UNL     1      32.545  16.102   9.783  1.00  0.00     0.142 C 
HETATM   14  C18 UNL     1      33.053  17.525   9.915  1.00  0.00     0.034 C 
HETATM   15  C19 UNL     1      32.976  17.696  11.433  1.00  0.00     0.013 C 
HETATM   16  C20 UNL     1      31.623  17.094  11.743  1.00  0.00    -0.027 C 
HETATM   17  C21 UNL     1      30.658  18.286  11.830  1.00  0.00     0.016 C 
ENDROOT
BRANCH   1  18
HETATM   18  O2  UNL     1      28.886  13.531  14.758  1.00  0.00    -0.199 OA
BRANCH  18  19
HETATM   19  C5  UNL     1      28.234  12.336  15.070  1.00  0.00     0.288 C 
HETATM   20  O1  UNL     1      28.465  11.836  16.180  1.00  0.00    -0.262 OA
BRANCH  19  21
HETATM   21  C2  UNL     1      27.305  11.674  14.141  1.00  0.00     0.039 C 
HETATM   22  C1  UNL     1      27.553  10.179  14.111  1.00  0.00     0.025 C 
HETATM   23  C3  UNL     1      25.851  11.897  14.548  1.00  0.00     0.025 C 
HETATM   24  C4  UNL     1      27.466  12.226  12.759  1.00  0.00     0.025 C 
ENDBRANCH  19  21
ENDBRANCH  18  19
ENDBRANCH   1  18
BRANCH   5  25
HETATM   25  O3  UNL     1      33.758  16.477  14.216  1.00  0.00    -0.395 OA
ATOM     26  H3  UNL     1      34.548  16.575  13.696  1.00  0.00     0.210 HD
ENDBRANCH   5  25
BRANCH  13  27
HETATM   27  O4  UNL     1      32.229  15.919   8.416  1.00  0.00    -0.300 OA
BRANCH  27  28
HETATM   28  C17 UNL     1      32.506  14.807   7.680  1.00  0.00     0.373 C 
HETATM   29  N2  UNL     1      33.256  14.884   6.476  1.00  0.00    -0.032 NA
HETATM   30  O5  UNL     1      32.083  13.695   8.087  1.00  0.00    -0.242 OA
ENDBRANCH  27  28
ENDBRANCH  13  27
TORSDOF 6
ENDMDL
