MODEL 1
REMARK VINA RESULT: -6.100637793      0.000      0.000
REMARK  5 active torsions:
REMARK  status: ('A' for Active; 'I' for Inactive)
REMARK    1  A    between atoms: C2_2  and  O2_4 
REMARK    2  A    between atoms: O2_4  and  C3_5 
REMARK    3  A    between atoms: C13_16  and  O4_17 
REMARK    4  A    between atoms: C16_21  and  C17_22 
REMARK    5  A    between atoms: C19_25  and  O6_26 
ROOT
HETATM    1  C3  UNL     1      30.897  14.750  14.099  1.00  0.00     0.144 C 
HETATM    2  C4  UNL     1      32.135  15.671  14.119  1.00  0.00     0.039 C 
HETATM    3  C5  UNL     1      32.500  16.243  12.803  1.00  0.00     0.004 C 
HETATM    4  C6  UNL     1      33.838  15.672  12.395  1.00  0.00     0.043 C 
HETATM    5  C7  UNL     1      33.963  15.096  11.050  1.00  0.00     0.054 C 
HETATM    6  C8  UNL     1      34.905  13.886  11.104  1.00  0.00     0.045 C 
HETATM    7  C9  UNL     1      34.604  16.041  10.049  1.00  0.00     0.045 C 
HETATM    8  O3  UNL     1      32.742  14.611  10.628  1.00  0.00    -0.380 OA
HETATM    9  C10 UNL     1      31.932  15.685  10.421  1.00  0.00     0.181 C 
HETATM   10  C11 UNL     1      31.462  16.329  11.752  1.00  0.00     0.013 C 
HETATM   11  C12 UNL     1      31.216  17.791  11.300  1.00  0.00     0.021 C 
HETATM   12  C13 UNL     1      30.179  15.661  12.041  1.00  0.00     0.078 C 
HETATM   13  C14 UNL     1      28.951  16.307  11.491  1.00  0.00     0.040 C 
HETATM   14  C15 UNL     1      27.877  15.390  12.039  1.00  0.00     0.013 C 
HETATM   15  C16 UNL     1      28.429  14.975  13.414  1.00  0.00     0.034 C 
HETATM   16  C21 UNL     1      29.800  15.486  13.489  1.00  0.00     0.022 C 
HETATM   17  C22 UNL     1      29.716  16.847  14.196  1.00  0.00     0.022 C 
ENDROOT
BRANCH  15  18
HETATM   18  C17 UNL     1      28.111  13.602  13.740  1.00  0.00    -0.026 A 
HETATM   19  C18 UNL     1      27.647  12.621  12.872  1.00  0.00     0.152 A 
HETATM   20  O5  UNL     1      27.510  11.479  13.494  1.00  0.00    -0.300 OA
HETATM   21  C19 UNL     1      27.857  11.621  14.751  1.00  0.00     0.183 A 
HETATM   22  C20 UNL     1      28.242  12.950  14.945  1.00  0.00     0.073 A 
BRANCH  21  23
HETATM   23  O6  UNL     1      27.841  10.619  15.720  1.00  0.00    -0.341 OA
ATOM     24  H6  UNL     1      28.528  10.447  16.353  1.00  0.00     0.220 HD
ENDBRANCH  21  23
ENDBRANCH  15  18
BRANCH   1  25
HETATM   25  O2  UNL     1      31.316  13.536  13.517  1.00  0.00    -0.315 OA
BRANCH  25  26
HETATM   26  C2  UNL     1      32.104  12.639  14.185  1.00  0.00     0.255 C 
HETATM   27  C1  UNL     1      31.802  12.282  15.584  1.00  0.00     0.126 C 
HETATM   28  O1  UNL     1      33.082  12.117  13.619  1.00  0.00    -0.266 OA
ENDBRANCH  25  26
ENDBRANCH   1  25
BRANCH  12  29
HETATM   29  O4  UNL     1      30.235  14.367  11.482  1.00  0.00    -0.388 OA
ATOM     30  H4  UNL     1      29.749  13.785  12.055  1.00  0.00     0.210 HD
ENDBRANCH  12  29
TORSDOF 5
ENDMDL
MODEL 2
REMARK VINA RESULT: -5.823551923      0.964      1.185
REMARK  5 active torsions:
REMARK  status: ('A' for Active; 'I' for Inactive)
REMARK    1  A    between atoms: C2_2  and  O2_4 
REMARK    2  A    between atoms: O2_4  and  C3_5 
REMARK    3  A    between atoms: C13_16  and  O4_17 
REMARK    4  A    between atoms: C16_21  and  C17_22 
REMARK    5  A    between atoms: C19_25  and  O6_26 
ROOT
HETATM    1  C3  UNL     1      31.249  14.898  13.783  1.00  0.00     0.144 C 
HETATM    2  C4  UNL     1      32.287  15.995  13.466  1.00  0.00     0.039 C 
HETATM    3  C5  UNL     1      32.212  16.537  12.090  1.00  0.00     0.004 C 
HETATM    4  C6  UNL     1      33.480  16.152  11.363  1.00  0.00     0.043 C 
HETATM    5  C7  UNL     1      33.356  15.522  10.042  1.00  0.00     0.054 C 
HETATM    6  C8  UNL     1      34.465  14.474   9.875  1.00  0.00     0.045 C 
HETATM    7  C9  UNL     1      33.565  16.492   8.892  1.00  0.00     0.045 C 
HETATM    8  O3  UNL     1      32.164  14.832   9.957  1.00  0.00    -0.380 OA
HETATM    9  C10 UNL     1      31.165  15.756   9.945  1.00  0.00     0.181 C 
HETATM   10  C11 UNL     1      30.945  16.401  11.339  1.00  0.00     0.013 C 
HETATM   11  C12 UNL     1      30.360  17.779  10.937  1.00  0.00     0.021 C 
HETATM   12  C13 UNL     1      29.901  15.564  11.961  1.00  0.00     0.078 C 
HETATM   13  C14 UNL     1      28.486  15.982  11.732  1.00  0.00     0.040 C 
HETATM   14  C15 UNL     1      27.747  14.947  12.554  1.00  0.00     0.013 C 
HETATM   15  C16 UNL     1      28.685  14.704  13.750  1.00  0.00     0.034 C 
HETATM   16  C21 UNL     1      29.930  15.421  13.460  1.00  0.00     0.022 C 
HETATM   17  C22 UNL     1      29.806  16.794  14.138  1.00  0.00     0.022 C 
ENDROOT
BRANCH  15  18
HETATM   18  C17 UNL     1      28.686  13.321  14.172  1.00  0.00    -0.026 A 
HETATM   19  C18 UNL     1      29.185  12.809  15.364  1.00  0.00     0.152 A 
HETATM   20  O5  UNL     1      28.976  11.520  15.438  1.00  0.00    -0.300 OA
HETATM   21  C19 UNL     1      28.355  11.114  14.357  1.00  0.00     0.183 A 
HETATM   22  C20 UNL     1      28.155  12.225  13.532  1.00  0.00     0.073 A 
BRANCH  21  23
HETATM   23  O6  UNL     1      27.967   9.804  14.082  1.00  0.00    -0.341 OA
ATOM     24  H6  UNL     1      27.441   9.523  13.343  1.00  0.00     0.220 HD
ENDBRANCH  21  23
ENDBRANCH  15  18
BRANCH   1  25
HETATM   25  O2  UNL     1      31.700  13.728  13.136  1.00  0.00    -0.315 OA
BRANCH  25  26
HETATM   26  C2  UNL     1      32.776  13.013  13.586  1.00  0.00     0.255 C 
HETATM   27  C1  UNL     1      32.788  12.474  14.958  1.00  0.00     0.126 C 
HETATM   28  O1  UNL     1      33.754  12.812  12.842  1.00  0.00    -0.266 OA
ENDBRANCH  25  26
ENDBRANCH   1  25
BRANCH  12  29
HETATM   29  O4  UNL     1      30.024  14.262  11.431  1.00  0.00    -0.388 OA
ATOM     30  H4  UNL     1      29.173  14.008  11.093  1.00  0.00     0.210 HD
ENDBRANCH  12  29
TORSDOF 5
ENDMDL
MODEL 3
REMARK VINA RESULT: -5.754869453      4.382      6.691
REMARK  5 active torsions:
REMARK  status: ('A' for Active; 'I' for Inactive)
REMARK    1  A    between atoms: C2_2  and  O2_4 
REMARK    2  A    between atoms: O2_4  and  C3_5 
REMARK    3  A    between atoms: C13_16  and  O4_17 
REMARK    4  A    between atoms: C16_21  and  C17_22 
REMARK    5  A    between atoms: C19_25  and  O6_26 
ROOT
HETATM    1  C3  UNL     1      28.905  16.105   8.661  1.00  0.00     0.144 C 
HETATM    2  C4  UNL     1      29.753  14.824   8.812  1.00  0.00     0.039 C 
HETATM    3  C5  UNL     1      31.175  15.062   9.152  1.00  0.00     0.004 C 
HETATM    4  C6  UNL     1      32.020  14.608   7.985  1.00  0.00     0.043 C 
HETATM    5  C7  UNL     1      33.035  15.533   7.465  1.00  0.00     0.054 C 
HETATM    6  C8  UNL     1      33.130  15.374   5.941  1.00  0.00     0.045 C 
HETATM    7  C9  UNL     1      34.436  15.236   7.972  1.00  0.00     0.045 C 
HETATM    8  O3  UNL     1      32.646  16.837   7.689  1.00  0.00    -0.380 OA
HETATM    9  C10 UNL     1      32.705  17.050   9.032  1.00  0.00     0.181 C 
HETATM   10  C11 UNL     1      31.550  16.344   9.789  1.00  0.00     0.013 C 
HETATM   11  C12 UNL     1      32.197  16.131  11.181  1.00  0.00     0.021 C 
HETATM   12  C13 UNL     1      30.493  17.370   9.869  1.00  0.00     0.078 C 
HETATM   13  C14 UNL     1      30.512  18.256  11.071  1.00  0.00     0.040 C 
HETATM   14  C15 UNL     1      29.279  19.100  10.821  1.00  0.00     0.013 C 
HETATM   15  C16 UNL     1      28.306  18.118  10.144  1.00  0.00     0.034 C 
HETATM   16  C21 UNL     1      29.064  16.894   9.874  1.00  0.00     0.022 C 
HETATM   17  C22 UNL     1      28.809  15.957  11.064  1.00  0.00     0.022 C 
ENDROOT
BRANCH  15  18
HETATM   18  C17 UNL     1      27.507  18.759   9.122  1.00  0.00    -0.026 A 
HETATM   19  C18 UNL     1      27.899  19.786   8.273  1.00  0.00     0.152 A 
HETATM   20  O5  UNL     1      26.939  20.091   7.440  1.00  0.00    -0.300 OA
HETATM   21  C19 UNL     1      25.900  19.323   7.669  1.00  0.00     0.183 A 
HETATM   22  C20 UNL     1      26.221  18.468   8.727  1.00  0.00     0.073 A 
BRANCH  21  23
HETATM   23  O6  UNL     1      24.691  19.359   6.978  1.00  0.00    -0.341 OA
ATOM     24  H6  UNL     1      24.052  18.657   6.937  1.00  0.00     0.220 HD
ENDBRANCH  21  23
ENDBRANCH  15  18
BRANCH   1  25
HETATM   25  O2  UNL     1      29.263  16.673   7.422  1.00  0.00    -0.315 OA
BRANCH  25  26
HETATM   26  C2  UNL     1      28.489  16.533   6.303  1.00  0.00     0.255 C 
HETATM   27  C1  UNL     1      29.006  16.945   4.984  1.00  0.00     0.126 C 
HETATM   28  O1  UNL     1      27.341  16.058   6.387  1.00  0.00    -0.266 OA
ENDBRANCH  25  26
ENDBRANCH   1  25
BRANCH  12  29
HETATM   29  O4  UNL     1      30.630  18.214   8.747  1.00  0.00    -0.388 OA
ATOM     30  H4  UNL     1      29.757  18.424   8.436  1.00  0.00     0.210 HD
ENDBRANCH  12  29
TORSDOF 5
ENDMDL
MODEL 4
REMARK VINA RESULT: -5.744841016      1.970      2.948
REMARK  5 active torsions:
REMARK  status: ('A' for Active; 'I' for Inactive)
REMARK    1  A    between atoms: C2_2  and  O2_4 
REMARK    2  A    between atoms: O2_4  and  C3_5 
REMARK    3  A    between atoms: C13_16  and  O4_17 
REMARK    4  A    between atoms: C16_21  and  C17_22 
REMARK    5  A    between atoms: C19_25  and  O6_26 
ROOT
HETATM    1  C3  UNL     1      31.570  15.999  12.004  1.00  0.00     0.144 C 
HETATM    2  C4  UNL     1      32.219  17.069  11.101  1.00  0.00     0.039 C 
HETATM    3  C5  UNL     1      31.544  17.268   9.797  1.00  0.00     0.004 C 
HETATM    4  C6  UNL     1      32.489  16.823   8.705  1.00  0.00     0.043 C 
HETATM    5  C7  UNL     1      31.980  15.896   7.687  1.00  0.00     0.054 C 
HETATM    6  C8  UNL     1      33.099  14.926   7.281  1.00  0.00     0.045 C 
HETATM    7  C9  UNL     1      31.579  16.584   6.393  1.00  0.00     0.045 C 
HETATM    8  O3  UNL     1      30.973  15.116   8.217  1.00  0.00    -0.380 OA
HETATM    9  C10 UNL     1      29.907  15.932   8.440  1.00  0.00     0.181 C 
HETATM   10  C11 UNL     1      30.127  16.864   9.660  1.00  0.00     0.013 C 
HETATM   11  C12 UNL     1      29.218  18.062   9.283  1.00  0.00     0.021 C 
HETATM   12  C13 UNL     1      29.546  16.118  10.792  1.00  0.00     0.078 C 
HETATM   13  C14 UNL     1      28.101  16.362  11.081  1.00  0.00     0.040 C 
HETATM   14  C15 UNL     1      27.906  15.492  12.306  1.00  0.00     0.013 C 
HETATM   15  C16 UNL     1      29.251  15.607  13.044  1.00  0.00     0.034 C 
HETATM   16  C21 UNL     1      30.161  16.330  12.151  1.00  0.00     0.022 C 
HETATM   17  C22 UNL     1      30.080  17.809  12.557  1.00  0.00     0.022 C 
ENDROOT
BRANCH  15  18
HETATM   18  C17 UNL     1      29.636  14.364  13.676  1.00  0.00    -0.026 A 
HETATM   19  C18 UNL     1      29.095  13.104  13.446  1.00  0.00     0.152 A 
HETATM   20  O5  UNL     1      29.714  12.198  14.155  1.00  0.00    -0.300 OA
HETATM   21  C19 UNL     1      30.658  12.768  14.866  1.00  0.00     0.183 A 
HETATM   22  C20 UNL     1      30.639  14.137  14.590  1.00  0.00     0.073 A 
BRANCH  21  23
HETATM   23  O6  UNL     1      31.525  12.116  15.743  1.00  0.00    -0.341 OA
ATOM     24  H6  UNL     1      32.455  11.981  15.606  1.00  0.00     0.220 HD
ENDBRANCH  21  23
ENDBRANCH  15  18
BRANCH   1  25
HETATM   25  O2  UNL     1      31.927  14.749  11.457  1.00  0.00    -0.315 OA
BRANCH  25  26
HETATM   26  C2  UNL     1      33.156  14.184  11.666  1.00  0.00     0.255 C 
HETATM   27  C1  UNL     1      33.915  13.617  10.536  1.00  0.00     0.126 C 
HETATM   28  O1  UNL     1      33.643  14.144  12.810  1.00  0.00    -0.266 OA
ENDBRANCH  25  26
ENDBRANCH   1  25
BRANCH  12  29
HETATM   29  O4  UNL     1      29.670  14.742  10.506  1.00  0.00    -0.388 OA
ATOM     30  H4  UNL     1      29.012  14.523   9.856  1.00  0.00     0.210 HD
ENDBRANCH  12  29
TORSDOF 5
ENDMDL
MODEL 5
REMARK VINA RESULT: -5.640126796      1.864      2.779
REMARK  5 active torsions:
REMARK  status: ('A' for Active; 'I' for Inactive)
REMARK    1  A    between atoms: C2_2  and  O2_4 
REMARK    2  A    between atoms: O2_4  and  C3_5 
REMARK    3  A    between atoms: C13_16  and  O4_17 
REMARK    4  A    between atoms: C16_21  and  C17_22 
REMARK    5  A    between atoms: C19_25  and  O6_26 
ROOT
HETATM    1  C3  UNL     1      31.546  16.032  12.043  1.00  0.00     0.144 C 
HETATM    2  C4  UNL     1      32.291  17.056  11.161  1.00  0.00     0.039 C 
HETATM    3  C5  UNL     1      31.715  17.241   9.809  1.00  0.00     0.004 C 
HETATM    4  C6  UNL     1      32.716  16.737   8.797  1.00  0.00     0.043 C 
HETATM    5  C7  UNL     1      32.248  15.799   7.768  1.00  0.00     0.054 C 
HETATM    6  C8  UNL     1      33.359  14.784   7.466  1.00  0.00     0.045 C 
HETATM    7  C9  UNL     1      31.960  16.465   6.434  1.00  0.00     0.045 C 
HETATM    8  O3  UNL     1      31.181  15.066   8.246  1.00  0.00    -0.380 OA
HETATM    9  C10 UNL     1      30.130  15.922   8.374  1.00  0.00     0.181 C 
HETATM   10  C11 UNL     1      30.298  16.879   9.584  1.00  0.00     0.013 C 
HETATM   11  C12 UNL     1      29.458  18.095   9.115  1.00  0.00     0.021 C 
HETATM   12  C13 UNL     1      29.615  16.183  10.690  1.00  0.00     0.078 C 
HETATM   13  C14 UNL     1      28.163  16.480  10.872  1.00  0.00     0.040 C 
HETATM   14  C15 UNL     1      27.855  15.650  12.102  1.00  0.00     0.013 C 
HETATM   15  C16 UNL     1      29.150  15.742  12.928  1.00  0.00     0.034 C 
HETATM   16  C21 UNL     1      30.142  16.411  12.083  1.00  0.00     0.022 C 
HETATM   17  C22 UNL     1      30.084  17.903  12.446  1.00  0.00     0.022 C 
ENDROOT
BRANCH  15  18
HETATM   18  C17 UNL     1      29.448  14.505  13.616  1.00  0.00    -0.026 A 
HETATM   19  C18 UNL     1      30.408  14.304  14.601  1.00  0.00     0.152 A 
HETATM   20  O5  UNL     1      30.372  13.073  15.038  1.00  0.00    -0.300 OA
HETATM   21  C19 UNL     1      29.434  12.410  14.405  1.00  0.00     0.183 A 
HETATM   22  C20 UNL     1      28.827  13.283  13.497  1.00  0.00     0.073 A 
BRANCH  21  23
HETATM   23  O6  UNL     1      29.104  11.071  14.605  1.00  0.00    -0.341 OA
ATOM     24  H6  UNL     1      28.290  10.748  14.974  1.00  0.00     0.220 HD
ENDBRANCH  21  23
ENDBRANCH  15  18
BRANCH   1  25
HETATM   25  O2  UNL     1      31.898  14.757  11.553  1.00  0.00    -0.315 OA
BRANCH  25  26
HETATM   26  C2  UNL     1      33.150  14.230  11.719  1.00  0.00     0.255 C 
HETATM   27  C1  UNL     1      33.753  14.158  13.063  1.00  0.00     0.126 C 
HETATM   28  O1  UNL     1      33.790  13.809  10.738  1.00  0.00    -0.266 OA
ENDBRANCH  25  26
ENDBRANCH   1  25
BRANCH  12  29
HETATM   29  O4  UNL     1      29.712  14.796  10.448  1.00  0.00    -0.388 OA
ATOM     30  H4  UNL     1      29.510  14.347  11.261  1.00  0.00     0.210 HD
ENDBRANCH  12  29
TORSDOF 5
ENDMDL
