MODEL 1
REMARK VINA RESULT: -6.351591842      0.000      0.000
REMARK  4 active torsions:
REMARK  status: ('A' for Active; 'I' for Inactive)
REMARK    1  A    between atoms: C2_2  and  N1_3 
REMARK    2  A    between atoms: N1_3  and  C3_5 
REMARK    3  A    between atoms: C3_5  and  S2_7 
REMARK    4  A    between atoms: S2_7  and  C4_8 
ROOT
HETATM    1  C4  UNL     1      30.377  15.992  10.351  1.00  0.00     0.084 C 
HETATM    2  C5  UNL     1      29.459  17.083  10.858  1.00  0.00     0.019 C 
HETATM    3  C6  UNL     1      28.406  16.251  11.598  1.00  0.00     0.011 C 
HETATM    4  C7  UNL     1      29.048  14.936  11.930  1.00  0.00     0.054 C 
HETATM    5  C8  UNL     1      30.485  15.080  11.589  1.00  0.00     0.146 C 
HETATM    6  O1  UNL     1      31.319  15.644  12.441  1.00  0.00    -0.346 OA
HETATM    7  C9  UNL     1      31.006  15.825  13.750  1.00  0.00     0.194 C 
HETATM    8  C10 UNL     1      31.935  16.983  14.203  1.00  0.00     0.082 C 
HETATM    9  C11 UNL     1      31.501  14.650  14.539  1.00  0.00     0.071 C 
HETATM   10  C12 UNL     1      30.423  13.680  14.934  1.00  0.00     0.013 C 
HETATM   11  C13 UNL     1      29.679  13.308  13.679  1.00  0.00     0.028 C 
HETATM   12  C14 UNL     1      28.861  12.047  13.838  1.00  0.00    -0.012 C 
HETATM   13  C15 UNL     1      28.235  11.905  15.181  1.00  0.00     0.010 C 
HETATM   14  C16 UNL     1      27.733  12.316  12.831  1.00  0.00     0.008 C 
HETATM   15  C17 UNL     1      27.376  13.752  13.232  1.00  0.00     0.042 C 
HETATM   16  C18 UNL     1      28.758  14.416  13.292  1.00  0.00     0.106 C 
HETATM   17  O2  UNL     1      28.813  15.423  14.222  1.00  0.00    -0.226 OA
HETATM   18  O3  UNL     1      29.758  16.259  14.038  1.00  0.00    -0.200 OA
ENDROOT
BRANCH   1  19
HETATM   19  S2  UNL     1      29.476  15.045   9.107  1.00  0.00    -0.093 SA
BRANCH  19  20
HETATM   20  C3  UNL     1      28.841  16.027   7.787  1.00  0.00     0.134 C 
HETATM   21  S1  UNL     1      29.847  17.029   6.982  1.00  0.00    -0.053 SA
BRANCH  20  22
HETATM   22  N1  UNL     1      27.474  15.986   7.373  1.00  0.00    -0.376 N 
ATOM     23  H1  UNL     1      27.251  15.671   6.429  1.00  0.00     0.160 HD
BRANCH  22  24
HETATM   24  C2  UNL     1      26.395  16.378   8.257  1.00  0.00     0.116 C 
HETATM   25  C1  UNL     1      26.483  17.846   8.619  1.00  0.00     0.026 C 
ENDBRANCH  22  24
ENDBRANCH  20  22
ENDBRANCH  19  20
ENDBRANCH   1  19
TORSDOF 4
ENDMDL
MODEL 2
REMARK VINA RESULT: -5.949979027      3.966      6.375
REMARK  4 active torsions:
REMARK  status: ('A' for Active; 'I' for Inactive)
REMARK    1  A    between atoms: C2_2  and  N1_3 
REMARK    2  A    between atoms: N1_3  and  C3_5 
REMARK    3  A    between atoms: C3_5  and  S2_7 
REMARK    4  A    between atoms: S2_7  and  C4_8 
ROOT
HETATM    1  C4  UNL     1      27.164  11.754  13.456  1.00  0.00     0.084 C 
HETATM    2  C5  UNL     1      26.653  12.650  14.563  1.00  0.00     0.019 C 
HETATM    3  C6  UNL     1      27.932  12.855  15.380  1.00  0.00     0.011 C 
HETATM    4  C7  UNL     1      29.084  12.580  14.459  1.00  0.00     0.054 C 
HETATM    5  C8  UNL     1      28.501  12.434  13.102  1.00  0.00     0.146 C 
HETATM    6  O1  UNL     1      28.238  13.500  12.372  1.00  0.00    -0.346 OA
HETATM    7  C9  UNL     1      28.756  14.722  12.658  1.00  0.00     0.194 C 
HETATM    8  C10 UNL     1      27.776  15.716  11.980  1.00  0.00     0.082 C 
HETATM    9  C11 UNL     1      30.030  14.907  11.891  1.00  0.00     0.071 C 
HETATM   10  C12 UNL     1      31.274  14.740  12.719  1.00  0.00     0.013 C 
HETATM   11  C13 UNL     1      31.166  13.412  13.419  1.00  0.00     0.028 C 
HETATM   12  C14 UNL     1      32.495  12.919  13.941  1.00  0.00    -0.012 C 
HETATM   13  C15 UNL     1      33.373  14.002  14.464  1.00  0.00     0.010 C 
HETATM   14  C16 UNL     1      32.031  12.083  15.144  1.00  0.00     0.008 C 
HETATM   15  C17 UNL     1      31.057  13.080  15.781  1.00  0.00     0.042 C 
HETATM   16  C18 UNL     1      30.225  13.525  14.572  1.00  0.00     0.106 C 
HETATM   17  O2  UNL     1      29.780  14.818  14.693  1.00  0.00    -0.226 OA
HETATM   18  O3  UNL     1      28.777  15.099  13.957  1.00  0.00    -0.200 OA
ENDROOT
BRANCH   1  19
HETATM   19  S2  UNL     1      27.589  10.159  14.187  1.00  0.00    -0.093 SA
BRANCH  19  20
HETATM   20  C3  UNL     1      26.219   9.327  14.922  1.00  0.00     0.134 C 
HETATM   21  S1  UNL     1      26.475   8.339  16.196  1.00  0.00    -0.053 SA
BRANCH  20  22
HETATM   22  N1  UNL     1      24.875   9.479  14.460  1.00  0.00    -0.376 N 
ATOM     23  H1  UNL     1      24.478  10.416  14.392  1.00  0.00     0.160 HD
BRANCH  22  24
HETATM   24  C2  UNL     1      24.062   8.342  14.084  1.00  0.00     0.116 C 
HETATM   25  C1  UNL     1      23.093   7.966  15.187  1.00  0.00     0.026 C 
ENDBRANCH  22  24
ENDBRANCH  20  22
ENDBRANCH  19  20
ENDBRANCH   1  19
TORSDOF 4
ENDMDL
MODEL 3
REMARK VINA RESULT: -5.904327196      1.179      1.549
REMARK  4 active torsions:
REMARK  status: ('A' for Active; 'I' for Inactive)
REMARK    1  A    between atoms: C2_2  and  N1_3 
REMARK    2  A    between atoms: N1_3  and  C3_5 
REMARK    3  A    between atoms: C3_5  and  S2_7 
REMARK    4  A    between atoms: S2_7  and  C4_8 
ROOT
HETATM    1  C4  UNL     1      30.640  16.018  10.358  1.00  0.00     0.084 C 
HETATM    2  C5  UNL     1      29.759  17.147  10.847  1.00  0.00     0.019 C 
HETATM    3  C6  UNL     1      28.663  16.361  11.573  1.00  0.00     0.011 C 
HETATM    4  C7  UNL     1      29.245  15.023  11.919  1.00  0.00     0.054 C 
HETATM    5  C8  UNL     1      30.692  15.108  11.600  1.00  0.00     0.146 C 
HETATM    6  O1  UNL     1      31.535  15.641  12.464  1.00  0.00    -0.346 OA
HETATM    7  C9  UNL     1      31.209  15.839  13.767  1.00  0.00     0.194 C 
HETATM    8  C10 UNL     1      32.177  16.960  14.231  1.00  0.00     0.082 C 
HETATM    9  C11 UNL     1      31.644  14.648  14.568  1.00  0.00     0.071 C 
HETATM   10  C12 UNL     1      30.521  13.723  14.948  1.00  0.00     0.013 C 
HETATM   11  C13 UNL     1      29.783  13.377  13.683  1.00  0.00     0.028 C 
HETATM   12  C14 UNL     1      28.912  12.151  13.833  1.00  0.00    -0.012 C 
HETATM   13  C15 UNL     1      28.260  12.039  15.167  1.00  0.00     0.010 C 
HETATM   14  C16 UNL     1      27.812  12.462  12.807  1.00  0.00     0.008 C 
HETATM   15  C17 UNL     1      27.507  13.912  13.198  1.00  0.00     0.042 C 
HETATM   16  C18 UNL     1      28.913  14.520  13.278  1.00  0.00     0.106 C 
HETATM   17  O2  UNL     1      28.994  15.527  14.206  1.00  0.00    -0.226 OA
HETATM   18  O3  UNL     1      29.975  16.323  14.033  1.00  0.00    -0.200 OA
ENDROOT
BRANCH   1  19
HETATM   19  S2  UNL     1      29.721  15.104   9.102  1.00  0.00    -0.093 SA
BRANCH  19  20
HETATM   20  C3  UNL     1      29.061  16.121   7.822  1.00  0.00     0.134 C 
HETATM   21  S1  UNL     1      27.444  16.209   7.626  1.00  0.00    -0.053 SA
BRANCH  20  22
HETATM   22  N1  UNL     1      29.880  16.890   6.939  1.00  0.00    -0.376 N 
ATOM     23  H1  UNL     1      30.891  16.897   7.080  1.00  0.00     0.160 HD
BRANCH  22  24
HETATM   24  C2  UNL     1      29.317  17.660   5.849  1.00  0.00     0.116 C 
HETATM   25  C1  UNL     1      29.565  16.990   4.513  1.00  0.00     0.026 C 
ENDBRANCH  22  24
ENDBRANCH  20  22
ENDBRANCH  19  20
ENDBRANCH   1  19
TORSDOF 4
ENDMDL
MODEL 4
REMARK VINA RESULT: -5.841895529      4.674      7.143
REMARK  4 active torsions:
REMARK  status: ('A' for Active; 'I' for Inactive)
REMARK    1  A    between atoms: C2_2  and  N1_3 
REMARK    2  A    between atoms: N1_3  and  C3_5 
REMARK    3  A    between atoms: C3_5  and  S2_7 
REMARK    4  A    between atoms: S2_7  and  C4_8 
ROOT
HETATM    1  C4  UNL     1      30.288  13.168  15.591  1.00  0.00     0.084 C 
HETATM    2  C5  UNL     1      31.017  12.750  14.333  1.00  0.00     0.019 C 
HETATM    3  C6  UNL     1      30.195  11.527  13.918  1.00  0.00     0.011 C 
HETATM    4  C7  UNL     1      28.849  11.669  14.564  1.00  0.00     0.054 C 
HETATM    5  C8  UNL     1      28.817  13.030  15.154  1.00  0.00     0.146 C 
HETATM    6  O1  UNL     1      28.512  14.074  14.407  1.00  0.00    -0.346 OA
HETATM    7  C9  UNL     1      27.918  13.948  13.193  1.00  0.00     0.194 C 
HETATM    8  C10 UNL     1      28.281  15.265  12.457  1.00  0.00     0.082 C 
HETATM    9  C11 UNL     1      26.431  14.039  13.362  1.00  0.00     0.071 C 
HETATM   10  C12 UNL     1      25.724  12.715  13.287  1.00  0.00     0.013 C 
HETATM   11  C13 UNL     1      26.398  11.795  14.269  1.00  0.00     0.028 C 
HETATM   12  C14 UNL     1      25.555  10.589  14.612  1.00  0.00    -0.012 C 
HETATM   13  C15 UNL     1      24.774  10.057  13.462  1.00  0.00     0.010 C 
HETATM   14  C16 UNL     1      26.651   9.564  14.938  1.00  0.00     0.008 C 
HETATM   15  C17 UNL     1      27.567   9.784  13.729  1.00  0.00     0.042 C 
HETATM   16  C18 UNL     1      27.692  11.313  13.702  1.00  0.00     0.106 C 
HETATM   17  O2  UNL     1      27.861  11.800  12.430  1.00  0.00    -0.226 OA
HETATM   18  O3  UNL     1      28.370  12.968  12.378  1.00  0.00    -0.200 OA
ENDROOT
BRANCH   1  19
HETATM   19  S2  UNL     1      30.563  11.894  16.839  1.00  0.00    -0.093 SA
BRANCH  19  20
HETATM   20  C3  UNL     1      31.921  12.231  17.913  1.00  0.00     0.134 C 
HETATM   21  S1  UNL     1      33.441  12.181  17.319  1.00  0.00    -0.053 SA
BRANCH  20  22
HETATM   22  N1  UNL     1      31.759  12.559  19.294  1.00  0.00    -0.376 N 
ATOM     23  H1  UNL     1      32.584  12.779  19.852  1.00  0.00     0.160 HD
BRANCH  22  24
HETATM   24  C2  UNL     1      30.456  12.587  19.926  1.00  0.00     0.116 C 
HETATM   25  C1  UNL     1      30.425  13.558  21.088  1.00  0.00     0.026 C 
ENDBRANCH  22  24
ENDBRANCH  20  22
ENDBRANCH  19  20
ENDBRANCH   1  19
TORSDOF 4
ENDMDL
MODEL 5
REMARK VINA RESULT: -5.662776883      4.450      6.994
REMARK  4 active torsions:
REMARK  status: ('A' for Active; 'I' for Inactive)
REMARK    1  A    between atoms: C2_2  and  N1_3 
REMARK    2  A    between atoms: N1_3  and  C3_5 
REMARK    3  A    between atoms: C3_5  and  S2_7 
REMARK    4  A    between atoms: S2_7  and  C4_8 
ROOT
HETATM    1  C4  UNL     1      30.374  13.295  15.432  1.00  0.00     0.084 C 
HETATM    2  C5  UNL     1      31.050  12.887  14.142  1.00  0.00     0.019 C 
HETATM    3  C6  UNL     1      30.252  11.629  13.785  1.00  0.00     0.011 C 
HETATM    4  C7  UNL     1      28.937  11.731  14.501  1.00  0.00     0.054 C 
HETATM    5  C8  UNL     1      28.887  13.099  15.077  1.00  0.00     0.146 C 
HETATM    6  O1  UNL     1      28.505  14.120  14.335  1.00  0.00    -0.346 OA
HETATM    7  C9  UNL     1      27.852  13.957  13.156  1.00  0.00     0.194 C 
HETATM    8  C10 UNL     1      28.127  15.276  12.387  1.00  0.00     0.082 C 
HETATM    9  C11 UNL     1      26.374  13.997  13.403  1.00  0.00     0.071 C 
HETATM   10  C12 UNL     1      25.713  12.647  13.381  1.00  0.00     0.013 C 
HETATM   11  C13 UNL     1      26.472  11.765  14.337  1.00  0.00     0.028 C 
HETATM   12  C14 UNL     1      25.693  10.534  14.738  1.00  0.00    -0.012 C 
HETATM   13  C15 UNL     1      24.872   9.959  13.637  1.00  0.00     0.010 C 
HETATM   14  C16 UNL     1      26.842   9.553  15.016  1.00  0.00     0.008 C 
HETATM   15  C17 UNL     1      27.683   9.791  13.758  1.00  0.00     0.042 C 
HETATM   16  C18 UNL     1      27.750  11.323  13.706  1.00  0.00     0.106 C 
HETATM   17  O2  UNL     1      27.833  11.799  12.422  1.00  0.00    -0.226 OA
HETATM   18  O3  UNL     1      28.296  12.983  12.329  1.00  0.00    -0.200 OA
ENDROOT
BRANCH   1  19
HETATM   19  S2  UNL     1      30.761  12.048  16.678  1.00  0.00    -0.093 SA
BRANCH  19  20
HETATM   20  C3  UNL     1      32.401  12.166  17.316  1.00  0.00     0.134 C 
HETATM   21  S1  UNL     1      32.621  12.383  18.919  1.00  0.00    -0.053 SA
BRANCH  20  22
HETATM   22  N1  UNL     1      33.566  12.072  16.493  1.00  0.00    -0.376 N 
ATOM     23  H1  UNL     1      33.773  12.827  15.840  1.00  0.00     0.160 HD
BRANCH  22  24
HETATM   24  C2  UNL     1      34.460  10.935  16.561  1.00  0.00     0.116 C 
HETATM   25  C1  UNL     1      35.007  10.580  15.194  1.00  0.00     0.026 C 
ENDBRANCH  22  24
ENDBRANCH  20  22
ENDBRANCH  19  20
ENDBRANCH   1  19
TORSDOF 4
ENDMDL
