MODEL 1
REMARK VINA RESULT: -6.397065942      0.000      0.000
REMARK  9 active torsions:
REMARK  status: ('A' for Active; 'I' for Inactive)
REMARK    1  A    between atoms: C3_3  and  C4_4 
REMARK       I    between atoms: C4_4  and  N1_6 
REMARK       I    between atoms: C5_8  and  N3_10 
REMARK    2  A    between atoms: N3_10  and  C6_12 
REMARK    3  A    between atoms: C6_12  and  C7_13 
REMARK    4  A    between atoms: C7_13  and  S1_14 
REMARK    5  A    between atoms: S1_14  and  S2_15 
REMARK    6  A    between atoms: S2_15  and  C8_16 
REMARK    7  A    between atoms: C8_16  and  C9_17 
REMARK    8  A    between atoms: C9_17  and  N4_18 
REMARK       I    between atoms: N4_18  and  C10_20 
REMARK    9  A    between atoms: C10_20  and  C11_22 
ROOT
HETATM    1  C1  UNL     1     -88.281 -14.048   5.964  1.00  0.00     0.012 C 
HETATM    2  C2  UNL     1     -88.407 -14.392   7.114  1.00  0.00    -0.108 C 
HETATM    3  C3  UNL     1     -88.550 -14.836   8.519  1.00  0.00     0.196 C 
ENDROOT
BRANCH   3   4
HETATM    4  C4  UNL     1     -87.225 -15.145   9.083  1.00  0.00     0.235 C 
HETATM    5  O1  UNL     1     -86.178 -14.777   8.457  1.00  0.00    -0.272 OA
HETATM    6  N1  UNL     1     -87.052 -15.833  10.292  1.00  0.00    -0.301 N 
HETATM    7  C5  UNL     1     -87.309 -15.408  11.465  1.00  0.00     0.190 C 
ATOM      8  H1  UNL     1     -86.679 -16.780  10.224  1.00  0.00     0.171 HD
HETATM    9  N2  UNL     1     -87.051 -16.291  12.561  1.00  0.00    -0.063 NA
HETATM   10  N3  UNL     1     -87.829 -14.138  11.795  1.00  0.00    -0.364 N 
ATOM     11  H3  UNL     1     -88.790 -14.077  12.131  1.00  0.00     0.162 HD
BRANCH  10  12
HETATM   12  C6  UNL     1     -87.069 -12.932  11.679  1.00  0.00     0.133 C 
BRANCH  12  13
HETATM   13  C7  UNL     1     -85.827 -12.926  12.567  1.00  0.00     0.105 C 
BRANCH  13  14
HETATM   14  S1  UNL     1     -86.409 -12.489  14.242  1.00  0.00    -0.096 SA
BRANCH  14  15
HETATM   15  S2  UNL     1     -86.474 -14.195  15.491  1.00  0.00    -0.096 SA
BRANCH  15  16
HETATM   16  C8  UNL     1     -87.936 -14.193  16.556  1.00  0.00     0.105 C 
BRANCH  16  17
HETATM   17  C9  UNL     1     -88.791 -15.363  16.196  1.00  0.00     0.134 C 
BRANCH  17  18
HETATM   18  N4  UNL     1     -89.215 -15.255  14.824  1.00  0.00    -0.356 N 
HETATM   19  C10 UNL     1     -90.210 -16.120  14.336  1.00  0.00     0.258 C 
HETATM   20  O2  UNL     1     -90.720 -16.974  15.094  1.00  0.00    -0.267 OA
ATOM     21  H4  UNL     1     -88.796 -14.556  14.211  1.00  0.00     0.162 HD
BRANCH  19  22
HETATM   22  C11 UNL     1     -90.673 -16.041  12.931  1.00  0.00     0.075 A 
HETATM   23  C12 UNL     1     -90.559 -16.998  11.953  1.00  0.00     0.045 A 
HETATM   24  C13 UNL     1     -91.056 -16.702  10.747  1.00  0.00     0.036 A 
HETATM   25 BR1  UNL     1     -90.978 -17.938   9.255  1.00  0.00    -0.049 Br
HETATM   26  C14 UNL     1     -91.637 -15.475  10.589  1.00  0.00     0.069 A 
HETATM   27 BR2  UNL     1     -92.446 -14.721   9.008  1.00  0.00    -0.042 Br
HETATM   28  S3  UNL     1     -91.471 -14.766  12.131  1.00  0.00    -0.076 SA
ENDBRANCH  19  22
ENDBRANCH  17  18
ENDBRANCH  16  17
ENDBRANCH  15  16
ENDBRANCH  14  15
ENDBRANCH  13  14
ENDBRANCH  12  13
ENDBRANCH  10  12
ENDBRANCH   3   4
TORSDOF 9
ENDMDL
MODEL 2
REMARK VINA RESULT: -6.364737222      3.227      5.278
REMARK  9 active torsions:
REMARK  status: ('A' for Active; 'I' for Inactive)
REMARK    1  A    between atoms: C3_3  and  C4_4 
REMARK       I    between atoms: C4_4  and  N1_6 
REMARK       I    between atoms: C5_8  and  N3_10 
REMARK    2  A    between atoms: N3_10  and  C6_12 
REMARK    3  A    between atoms: C6_12  and  C7_13 
REMARK    4  A    between atoms: C7_13  and  S1_14 
REMARK    5  A    between atoms: S1_14  and  S2_15 
REMARK    6  A    between atoms: S2_15  and  C8_16 
REMARK    7  A    between atoms: C8_16  and  C9_17 
REMARK    8  A    between atoms: C9_17  and  N4_18 
REMARK       I    between atoms: N4_18  and  C10_20 
REMARK    9  A    between atoms: C10_20  and  C11_22 
ROOT
HETATM    1  C1  UNL     1     -92.215 -19.132   8.245  1.00  0.00     0.012 C 
HETATM    2  C2  UNL     1     -91.857 -18.479   9.194  1.00  0.00    -0.108 C 
HETATM    3  C3  UNL     1     -91.432 -17.660  10.352  1.00  0.00     0.196 C 
ENDROOT
BRANCH   3   4
HETATM    4  C4  UNL     1     -92.598 -17.346  11.196  1.00  0.00     0.235 C 
HETATM    5  O1  UNL     1     -92.994 -18.197  12.058  1.00  0.00    -0.272 OA
HETATM    6  N1  UNL     1     -93.306 -16.140  11.099  1.00  0.00    -0.301 N 
HETATM    7  C5  UNL     1     -92.906 -14.981  11.444  1.00  0.00     0.190 C 
ATOM      8  H1  UNL     1     -94.247 -16.198  10.709  1.00  0.00     0.171 HD
HETATM    9  N2  UNL     1     -93.808 -13.885  11.253  1.00  0.00    -0.063 NA
HETATM   10  N3  UNL     1     -91.649 -14.666  12.003  1.00  0.00    -0.364 N 
ATOM     11  H3  UNL     1     -90.977 -14.152  11.433  1.00  0.00     0.162 HD
BRANCH  10  12
HETATM   12  C6  UNL     1     -91.275 -15.035  13.333  1.00  0.00     0.133 C 
BRANCH  12  13
HETATM   13  C7  UNL     1     -90.010 -14.325  13.812  1.00  0.00     0.105 C 
BRANCH  13  14
HETATM   14  S1  UNL     1     -89.254 -15.430  15.054  1.00  0.00    -0.096 SA
BRANCH  14  15
HETATM   15  S2  UNL     1     -88.713 -17.284  14.190  1.00  0.00    -0.096 SA
BRANCH  15  16
HETATM   16  C8  UNL     1     -86.933 -17.585  14.304  1.00  0.00     0.105 C 
BRANCH  16  17
HETATM   17  C9  UNL     1     -86.219 -16.529  13.527  1.00  0.00     0.134 C 
BRANCH  17  18
HETATM   18  N4  UNL     1     -86.968 -16.204  12.342  1.00  0.00    -0.356 N 
HETATM   19  C10 UNL     1     -86.287 -15.799  11.180  1.00  0.00     0.258 C 
HETATM   20  O2  UNL     1     -85.038 -15.726  11.183  1.00  0.00    -0.267 OA
ATOM     21  H4  UNL     1     -87.986 -16.266  12.344  1.00  0.00     0.162 HD
BRANCH  19  22
HETATM   22  C11 UNL     1     -87.021 -15.456   9.940  1.00  0.00     0.075 A 
HETATM   23  C12 UNL     1     -88.380 -15.428   9.748  1.00  0.00     0.045 A 
HETATM   24  C13 UNL     1     -88.819 -15.085   8.532  1.00  0.00     0.036 A 
HETATM   25 BR1  UNL     1     -90.705 -14.998   8.091  1.00  0.00    -0.049 Br
HETATM   26  C14 UNL     1     -87.880 -14.790   7.583  1.00  0.00     0.069 A 
HETATM   27 BR2  UNL     1     -88.150 -14.263   5.747  1.00  0.00    -0.042 Br
HETATM   28  S3  UNL     1     -86.408 -15.000   8.417  1.00  0.00    -0.076 SA
ENDBRANCH  19  22
ENDBRANCH  17  18
ENDBRANCH  16  17
ENDBRANCH  15  16
ENDBRANCH  14  15
ENDBRANCH  13  14
ENDBRANCH  12  13
ENDBRANCH  10  12
ENDBRANCH   3   4
TORSDOF 9
ENDMDL
MODEL 3
REMARK VINA RESULT: -6.319987350      1.273      1.760
REMARK  9 active torsions:
REMARK  status: ('A' for Active; 'I' for Inactive)
REMARK    1  A    between atoms: C3_3  and  C4_4 
REMARK       I    between atoms: C4_4  and  N1_6 
REMARK       I    between atoms: C5_8  and  N3_10 
REMARK    2  A    between atoms: N3_10  and  C6_12 
REMARK    3  A    between atoms: C6_12  and  C7_13 
REMARK    4  A    between atoms: C7_13  and  S1_14 
REMARK    5  A    between atoms: S1_14  and  S2_15 
REMARK    6  A    between atoms: S2_15  and  C8_16 
REMARK    7  A    between atoms: C8_16  and  C9_17 
REMARK    8  A    between atoms: C9_17  and  N4_18 
REMARK       I    between atoms: N4_18  and  C10_20 
REMARK    9  A    between atoms: C10_20  and  C11_22 
ROOT
HETATM    1  C1  UNL     1     -88.787 -15.077   7.787  1.00  0.00     0.012 C 
HETATM    2  C2  UNL     1     -88.014 -14.568   8.562  1.00  0.00    -0.108 C 
HETATM    3  C3  UNL     1     -87.085 -13.934   9.525  1.00  0.00     0.196 C 
ENDROOT
BRANCH   3   4
HETATM    4  C4  UNL     1     -87.317 -14.479  10.874  1.00  0.00     0.235 C 
HETATM    5  O1  UNL     1     -86.745 -15.565  11.216  1.00  0.00    -0.272 OA
HETATM    6  N1  UNL     1     -88.146 -13.856  11.817  1.00  0.00    -0.301 N 
HETATM    7  C5  UNL     1     -87.925 -12.764  12.436  1.00  0.00     0.190 C 
ATOM      8  H1  UNL     1     -89.024 -14.329  12.030  1.00  0.00     0.171 HD
HETATM    9  N2  UNL     1     -88.921 -12.315  13.361  1.00  0.00    -0.063 NA
HETATM   10  N3  UNL     1     -86.784 -11.945  12.298  1.00  0.00    -0.364 N 
ATOM     11  H3  UNL     1     -86.883 -11.046  11.827  1.00  0.00     0.162 HD
BRANCH  10  12
HETATM   12  C6  UNL     1     -85.495 -12.319  12.791  1.00  0.00     0.133 C 
BRANCH  12  13
HETATM   13  C7  UNL     1     -85.567 -13.316  13.946  1.00  0.00     0.105 C 
BRANCH  13  14
HETATM   14  S1  UNL     1     -85.764 -12.316  15.461  1.00  0.00    -0.096 SA
BRANCH  14  15
HETATM   15  S2  UNL     1     -86.943 -13.334  16.893  1.00  0.00    -0.096 SA
BRANCH  15  16
HETATM   16  C8  UNL     1     -87.326 -15.023  16.370  1.00  0.00     0.105 C 
BRANCH  16  17
HETATM   17  C9  UNL     1     -88.809 -15.179  16.307  1.00  0.00     0.134 C 
BRANCH  17  18
HETATM   18  N4  UNL     1     -89.251 -15.100  14.940  1.00  0.00    -0.356 N 
HETATM   19  C10 UNL     1     -90.148 -16.064  14.444  1.00  0.00     0.258 C 
HETATM   20  O2  UNL     1     -90.554 -16.980  15.192  1.00  0.00    -0.267 OA
ATOM     21  H4  UNL     1     -88.917 -14.351  14.334  1.00  0.00     0.162 HD
BRANCH  19  22
HETATM   22  C11 UNL     1     -90.626 -16.018  13.043  1.00  0.00     0.075 A 
HETATM   23  C12 UNL     1     -90.435 -16.954  12.058  1.00  0.00     0.045 A 
HETATM   24  C13 UNL     1     -90.965 -16.697  10.858  1.00  0.00     0.036 A 
HETATM   25 BR1  UNL     1     -90.789 -17.912   9.357  1.00  0.00    -0.049 Br
HETATM   26  C14 UNL     1     -91.653 -15.525  10.711  1.00  0.00     0.069 A 
HETATM   27 BR2  UNL     1     -92.538 -14.837   9.141  1.00  0.00    -0.042 Br
HETATM   28  S3  UNL     1     -91.539 -14.814  12.257  1.00  0.00    -0.076 SA
ENDBRANCH  19  22
ENDBRANCH  17  18
ENDBRANCH  16  17
ENDBRANCH  15  16
ENDBRANCH  14  15
ENDBRANCH  13  14
ENDBRANCH  12  13
ENDBRANCH  10  12
ENDBRANCH   3   4
TORSDOF 9
ENDMDL
MODEL 4
REMARK VINA RESULT: -6.318569728      3.496      5.895
REMARK  9 active torsions:
REMARK  status: ('A' for Active; 'I' for Inactive)
REMARK    1  A    between atoms: C3_3  and  C4_4 
REMARK       I    between atoms: C4_4  and  N1_6 
REMARK       I    between atoms: C5_8  and  N3_10 
REMARK    2  A    between atoms: N3_10  and  C6_12 
REMARK    3  A    between atoms: C6_12  and  C7_13 
REMARK    4  A    between atoms: C7_13  and  S1_14 
REMARK    5  A    between atoms: S1_14  and  S2_15 
REMARK    6  A    between atoms: S2_15  and  C8_16 
REMARK    7  A    between atoms: C8_16  and  C9_17 
REMARK    8  A    between atoms: C9_17  and  N4_18 
REMARK       I    between atoms: N4_18  and  C10_20 
REMARK    9  A    between atoms: C10_20  and  C11_22 
ROOT
HETATM    1  C1  UNL     1     -93.694 -18.127  11.174  1.00  0.00     0.012 C 
HETATM    2  C2  UNL     1     -92.818 -18.162  10.345  1.00  0.00    -0.108 C 
HETATM    3  C3  UNL     1     -91.756 -18.190   9.313  1.00  0.00     0.196 C 
ENDROOT
BRANCH   3   4
HETATM    4  C4  UNL     1     -91.238 -16.829   9.093  1.00  0.00     0.235 C 
HETATM    5  O1  UNL     1     -91.999 -15.947   8.575  1.00  0.00    -0.272 OA
HETATM    6  N1  UNL     1     -89.933 -16.446   9.429  1.00  0.00    -0.301 N 
HETATM    7  C5  UNL     1     -89.448 -16.302  10.598  1.00  0.00     0.190 C 
ATOM      8  H1  UNL     1     -89.300 -16.262   8.650  1.00  0.00     0.171 HD
HETATM    9  N2  UNL     1     -88.077 -15.900  10.703  1.00  0.00    -0.063 NA
HETATM   10  N3  UNL     1     -90.135 -16.502  11.815  1.00  0.00    -0.364 N 
ATOM     11  H3  UNL     1     -89.892 -17.312  12.384  1.00  0.00     0.162 HD
BRANCH  10  12
HETATM   12  C6  UNL     1     -91.157 -15.619  12.285  1.00  0.00     0.133 C 
BRANCH  12  13
HETATM   13  C7  UNL     1     -90.596 -14.364  12.951  1.00  0.00     0.105 C 
BRANCH  13  14
HETATM   14  S1  UNL     1     -89.642 -14.945  14.395  1.00  0.00    -0.096 SA
BRANCH  14  15
HETATM   15  S2  UNL     1     -88.037 -13.634  14.820  1.00  0.00    -0.096 SA
BRANCH  15  16
HETATM   16  C8  UNL     1     -87.598 -12.621  13.387  1.00  0.00     0.105 C 
BRANCH  16  17
HETATM   17  C9  UNL     1     -86.283 -13.087  12.857  1.00  0.00     0.134 C 
BRANCH  17  18
HETATM   18  N4  UNL     1     -86.388 -13.346  11.446  1.00  0.00    -0.356 N 
HETATM   19  C10 UNL     1     -85.317 -13.010  10.597  1.00  0.00     0.258 C 
HETATM   20  O2  UNL     1     -84.284 -12.492  11.073  1.00  0.00    -0.267 OA
ATOM     21  H4  UNL     1     -87.233 -13.769  11.063  1.00  0.00     0.162 HD
BRANCH  19  22
HETATM   22  C11 UNL     1     -85.387 -13.260   9.139  1.00  0.00     0.075 A 
HETATM   23  C12 UNL     1     -86.501 -13.527   8.384  1.00  0.00     0.045 A 
HETATM   24  C13 UNL     1     -86.320 -13.720   7.073  1.00  0.00     0.036 A 
HETATM   25 BR1  UNL     1     -87.786 -14.108   5.863  1.00  0.00    -0.049 Br
HETATM   26  C14 UNL     1     -85.043 -13.635   6.594  1.00  0.00     0.069 A 
HETATM   27 BR2  UNL     1     -84.420 -13.855   4.781  1.00  0.00    -0.042 Br
HETATM   28  S3  UNL     1     -84.129 -13.288   7.991  1.00  0.00    -0.076 SA
ENDBRANCH  19  22
ENDBRANCH  17  18
ENDBRANCH  16  17
ENDBRANCH  15  16
ENDBRANCH  14  15
ENDBRANCH  13  14
ENDBRANCH  12  13
ENDBRANCH  10  12
ENDBRANCH   3   4
TORSDOF 9
ENDMDL
MODEL 5
REMARK VINA RESULT: -6.301976931      3.754      6.044
REMARK  9 active torsions:
REMARK  status: ('A' for Active; 'I' for Inactive)
REMARK    1  A    between atoms: C3_3  and  C4_4 
REMARK       I    between atoms: C4_4  and  N1_6 
REMARK       I    between atoms: C5_8  and  N3_10 
REMARK    2  A    between atoms: N3_10  and  C6_12 
REMARK    3  A    between atoms: C6_12  and  C7_13 
REMARK    4  A    between atoms: C7_13  and  S1_14 
REMARK    5  A    between atoms: S1_14  and  S2_15 
REMARK    6  A    between atoms: S2_15  and  C8_16 
REMARK    7  A    between atoms: C8_16  and  C9_17 
REMARK    8  A    between atoms: C9_17  and  N4_18 
REMARK       I    between atoms: N4_18  and  C10_20 
REMARK    9  A    between atoms: C10_20  and  C11_22 
ROOT
HETATM    1  C1  UNL     1     -93.993 -18.147  11.489  1.00  0.00     0.012 C 
HETATM    2  C2  UNL     1     -93.604 -17.069  11.110  1.00  0.00    -0.108 C 
HETATM    3  C3  UNL     1     -93.106 -15.755  10.642  1.00  0.00     0.196 C 
ENDROOT
BRANCH   3   4
HETATM    4  C4  UNL     1     -92.506 -15.896   9.304  1.00  0.00     0.235 C 
HETATM    5  O1  UNL     1     -92.414 -14.874   8.549  1.00  0.00    -0.272 OA
HETATM    6  N1  UNL     1     -92.022 -17.115   8.810  1.00  0.00    -0.301 N 
HETATM    7  C5  UNL     1     -90.988 -17.749   9.199  1.00  0.00     0.190 C 
ATOM      8  H1  UNL     1     -92.559 -17.542   8.054  1.00  0.00     0.171 HD
HETATM    9  N2  UNL     1     -90.684 -18.986   8.544  1.00  0.00    -0.063 NA
HETATM   10  N3  UNL     1     -90.103 -17.350  10.223  1.00  0.00    -0.364 N 
ATOM     11  H3  UNL     1     -90.106 -17.870  11.101  1.00  0.00     0.162 HD
BRANCH  10  12
HETATM   12  C6  UNL     1     -89.201 -16.249  10.086  1.00  0.00     0.133 C 
BRANCH  12  13
HETATM   13  C7  UNL     1     -89.458 -15.140  11.104  1.00  0.00     0.105 C 
BRANCH  13  14
HETATM   14  S1  UNL     1     -89.818 -15.982  12.684  1.00  0.00    -0.096 SA
BRANCH  14  15
HETATM   15  S2  UNL     1     -88.217 -15.751  14.047  1.00  0.00    -0.096 SA
BRANCH  15  16
HETATM   16  C8  UNL     1     -86.637 -16.247  13.319  1.00  0.00     0.105 C 
BRANCH  16  17
HETATM   17  C9  UNL     1     -85.930 -15.025  12.833  1.00  0.00     0.134 C 
BRANCH  17  18
HETATM   18  N4  UNL     1     -85.812 -15.067  11.399  1.00  0.00    -0.356 N 
HETATM   19  C10 UNL     1     -86.011 -13.892  10.652  1.00  0.00     0.258 C 
HETATM   20  O2  UNL     1     -86.287 -12.821  11.237  1.00  0.00    -0.267 OA
ATOM     21  H4  UNL     1     -85.586 -15.943  10.927  1.00  0.00     0.162 HD
BRANCH  19  22
HETATM   22  C11 UNL     1     -85.898 -13.893   9.175  1.00  0.00     0.075 A 
HETATM   23  C12 UNL     1     -86.907 -14.031   8.255  1.00  0.00     0.045 A 
HETATM   24  C13 UNL     1     -86.564 -14.000   6.963  1.00  0.00     0.036 A 
HETATM   25 BR1  UNL     1     -87.864 -14.181   5.535  1.00  0.00    -0.049 Br
HETATM   26  C14 UNL     1     -85.241 -13.832   6.666  1.00  0.00     0.069 A 
HETATM   27 BR2  UNL     1     -84.399 -13.742   4.932  1.00  0.00    -0.042 Br
HETATM   28  S3  UNL     1     -84.510 -13.723   8.202  1.00  0.00    -0.076 SA
ENDBRANCH  19  22
ENDBRANCH  17  18
ENDBRANCH  16  17
ENDBRANCH  15  16
ENDBRANCH  14  15
ENDBRANCH  13  14
ENDBRANCH  12  13
ENDBRANCH  10  12
ENDBRANCH   3   4
TORSDOF 9
ENDMDL
