MODEL 1
REMARK VINA RESULT: -8.988429296      0.000      0.000
REMARK  10 active torsions:
REMARK  status: ('A' for Active; 'I' for Inactive)
REMARK    1  A    between atoms: N1_1  and  C1_5 
REMARK    2  A    between atoms: C1_5  and  C2_6 
REMARK    3  A    between atoms: C1_5  and  C12_24 
REMARK    4  A    between atoms: C2_6  and  C3_7 
REMARK    5  A    between atoms: C3_7  and  S1_8 
REMARK    6  A    between atoms: S1_8  and  C4_11 
REMARK    7  A    between atoms: C4_11  and  C5_14 
REMARK       I    between atoms: C12_24  and  N3_26 
REMARK    8  A    between atoms: C16_30  and  C17_31 
REMARK       I    between atoms: C17_31  and  N4_33 
REMARK    9  A    between atoms: N4_33  and  C18_35 
REMARK   10  A    between atoms: C18_35  and  C19_36 
ROOT
HETATM    1  C1  UNL     1     -87.556 -12.495  13.735  1.00  0.00     0.275 C 
ENDROOT
BRANCH   1   2
HETATM    2  N1  UNL     1     -88.374 -11.384  13.221  1.00  0.00    -0.066 N 
ATOM      3  H13 UNL     1     -88.482 -11.401  12.207  1.00  0.00     0.275 HD
ATOM      4  H12 UNL     1     -89.362 -11.469  13.459  1.00  0.00     0.275 HD
ATOM      5  H11 UNL     1     -87.952 -10.520  13.564  1.00  0.00     0.275 HD
ENDBRANCH   1   2
BRANCH   1   6
HETATM    6  C2  UNL     1     -86.327 -12.544  12.915  1.00  0.00     0.058 C 
BRANCH   6   7
HETATM    7  C3  UNL     1     -86.486 -12.851  11.476  1.00  0.00     0.149 C 
BRANCH   7   8
HETATM    8  S1  UNL     1     -85.379 -14.085  10.902  1.00  0.00     0.218 S 
HETATM    9  O1  UNL     1     -84.403 -14.358  12.040  1.00  0.00    -0.221 OA
HETATM   10  O2  UNL     1     -84.566 -13.534   9.771  1.00  0.00    -0.221 OA
BRANCH   8  11
HETATM   11  C4  UNL     1     -86.144 -15.570  10.389  1.00  0.00     0.385 C 
HETATM   12  F1  UNL     1     -86.712 -16.213  11.487  1.00  0.00    -0.181 F 
HETATM   13  F2  UNL     1     -85.252 -16.421   9.791  1.00  0.00    -0.181 F 
BRANCH  11  14
HETATM   14  C5  UNL     1     -87.243 -15.338   9.406  1.00  0.00     0.098 A 
HETATM   15  C6  UNL     1     -88.617 -15.394   9.588  1.00  0.00     0.043 A 
HETATM   16  C7  UNL     1     -89.209 -15.101   8.373  1.00  0.00    -0.010 A 
HETATM   17  C8  UNL     1     -88.214 -14.869   7.468  1.00  0.00     0.020 A 
HETATM   18  C11 UNL     1     -90.626 -15.014   7.981  1.00  0.00     0.208 C 
HETATM   19  N2  UNL     1     -87.054 -15.019   8.116  1.00  0.00    -0.357 N 
HETATM   20  C9  UNL     1     -88.554 -14.526   6.068  1.00  0.00     0.084 C 
ATOM     21  H2  UNL     1     -86.137 -14.904   7.683  1.00  0.00     0.166 HD
HETATM   22  C10 UNL     1     -89.925 -13.894   6.058  1.00  0.00     0.174 C 
HETATM   23  O3  UNL     1     -90.866 -14.676   6.686  1.00  0.00    -0.386 OA
ENDBRANCH  11  14
ENDBRANCH   8  11
ENDBRANCH   7   8
ENDBRANCH   6   7
ENDBRANCH   1   6
BRANCH   1  24
HETATM   24  C12 UNL     1     -88.360 -13.690  13.861  1.00  0.00     0.251 C 
HETATM   25  O4  UNL     1     -89.607 -13.612  13.553  1.00  0.00    -0.271 OA
HETATM   26  N3  UNL     1     -87.963 -14.994  14.290  1.00  0.00    -0.337 N 
HETATM   27  C13 UNL     1     -86.575 -15.295  14.689  1.00  0.00     0.127 C 
HETATM   28  C16 UNL     1     -88.635 -16.228  14.438  1.00  0.00     0.179 C 
HETATM   29  C14 UNL     1     -86.776 -16.241  15.880  1.00  0.00     0.022 C 
HETATM   30  C15 UNL     1     -88.283 -16.556  15.903  1.00  0.00     0.037 C 
BRANCH  28  31
HETATM   31  C17 UNL     1     -89.956 -16.513  14.037  1.00  0.00     0.240 C 
HETATM   32  O5  UNL     1     -90.889 -16.925  14.828  1.00  0.00    -0.271 OA
HETATM   33  N4  UNL     1     -90.351 -16.334  12.683  1.00  0.00    -0.359 N 
ATOM     34  H4  UNL     1     -89.655 -16.037  11.998  1.00  0.00     0.162 HD
BRANCH  33  35
HETATM   35  C18 UNL     1     -91.695 -16.557  12.256  1.00  0.00     0.127 C 
BRANCH  35  36
HETATM   36  C19 UNL     1     -91.771 -17.321  10.951  1.00  0.00     0.003 C 
HETATM   37  C20 UNL     1     -92.764 -18.475  11.018  1.00  0.00     0.006 C 
HETATM   38  C21 UNL     1     -93.058 -18.830   9.567  1.00  0.00     0.000 C 
HETATM   39  C22 UNL     1     -91.956 -18.419   8.640  1.00  0.00     0.000 C 
HETATM   40  C23 UNL     1     -90.567 -18.574   9.216  1.00  0.00     0.000 C 
HETATM   41  C24 UNL     1     -90.443 -17.965  10.600  1.00  0.00     0.006 C 
ENDBRANCH  35  36
ENDBRANCH  33  35
ENDBRANCH  28  31
ENDBRANCH   1  24
TORSDOF 10
ENDMDL
MODEL 2
REMARK VINA RESULT: -8.970257055      1.695      2.014
REMARK  10 active torsions:
REMARK  status: ('A' for Active; 'I' for Inactive)
REMARK    1  A    between atoms: N1_1  and  C1_5 
REMARK    2  A    between atoms: C1_5  and  C2_6 
REMARK    3  A    between atoms: C1_5  and  C12_24 
REMARK    4  A    between atoms: C2_6  and  C3_7 
REMARK    5  A    between atoms: C3_7  and  S1_8 
REMARK    6  A    between atoms: S1_8  and  C4_11 
REMARK    7  A    between atoms: C4_11  and  C5_14 
REMARK       I    between atoms: C12_24  and  N3_26 
REMARK    8  A    between atoms: C16_30  and  C17_31 
REMARK       I    between atoms: C17_31  and  N4_33 
REMARK    9  A    between atoms: N4_33  and  C18_35 
REMARK   10  A    between atoms: C18_35  and  C19_36 
ROOT
HETATM    1  C1  UNL     1     -86.897 -13.570  16.067  1.00  0.00     0.275 C 
ENDROOT
BRANCH   1   2
HETATM    2  N1  UNL     1     -87.496 -12.690  17.085  1.00  0.00    -0.066 N 
ATOM      3  H13 UNL     1     -86.845 -12.437  17.828  1.00  0.00     0.275 HD
ATOM      4  H12 UNL     1     -87.677 -11.746  16.743  1.00  0.00     0.275 HD
ATOM      5  H11 UNL     1     -88.334 -13.159  17.428  1.00  0.00     0.275 HD
ENDBRANCH   1   2
BRANCH   1   6
HETATM    6  C2  UNL     1     -86.251 -12.695  15.066  1.00  0.00     0.058 C 
BRANCH   6   7
HETATM    7  C3  UNL     1     -85.215 -13.305  14.202  1.00  0.00     0.149 C 
BRANCH   7   8
HETATM    8  S1  UNL     1     -85.601 -13.224  12.493  1.00  0.00     0.218 S 
HETATM    9  O1  UNL     1     -84.322 -13.570  11.740  1.00  0.00    -0.221 OA
HETATM   10  O2  UNL     1     -85.937 -11.811  12.126  1.00  0.00    -0.221 OA
BRANCH   8  11
HETATM   11  C4  UNL     1     -86.904 -14.274  11.988  1.00  0.00     0.385 C 
HETATM   12  F1  UNL     1     -88.114 -13.799  12.487  1.00  0.00    -0.181 F 
HETATM   13  F2  UNL     1     -86.719 -15.560  12.423  1.00  0.00    -0.181 F 
BRANCH  11  14
HETATM   14  C5  UNL     1     -87.043 -14.339  10.503  1.00  0.00     0.098 A 
HETATM   15  C6  UNL     1     -87.719 -15.263   9.719  1.00  0.00     0.043 A 
HETATM   16  C7  UNL     1     -87.549 -14.889   8.398  1.00  0.00    -0.010 A 
HETATM   17  C8  UNL     1     -86.786 -13.758   8.378  1.00  0.00     0.020 A 
HETATM   18  C11 UNL     1     -88.042 -15.494   7.149  1.00  0.00     0.208 C 
HETATM   19  N2  UNL     1     -86.501 -13.457   9.649  1.00  0.00    -0.357 N 
HETATM   20  C9  UNL     1     -86.441 -13.123   7.085  1.00  0.00     0.084 C 
ATOM     21  H2  UNL     1     -85.940 -12.654   9.935  1.00  0.00     0.166 HD
HETATM   22  C10 UNL     1     -87.507 -13.490   6.081  1.00  0.00     0.174 C 
HETATM   23  O3  UNL     1     -87.704 -14.849   6.001  1.00  0.00    -0.386 OA
ENDBRANCH  11  14
ENDBRANCH   8  11
ENDBRANCH   7   8
ENDBRANCH   6   7
ENDBRANCH   1   6
BRANCH   1  24
HETATM   24  C12 UNL     1     -87.864 -14.547  15.620  1.00  0.00     0.251 C 
HETATM   25  O4  UNL     1     -89.051 -14.136  15.343  1.00  0.00    -0.271 OA
HETATM   26  N3  UNL     1     -87.693 -15.953  15.432  1.00  0.00    -0.337 N 
HETATM   27  C13 UNL     1     -86.406 -16.624  15.696  1.00  0.00     0.127 C 
HETATM   28  C16 UNL     1     -88.537 -16.996  14.991  1.00  0.00     0.179 C 
HETATM   29  C14 UNL     1     -86.852 -17.947  16.330  1.00  0.00     0.022 C 
HETATM   30  C15 UNL     1     -88.383 -17.985  16.165  1.00  0.00     0.037 C 
BRANCH  28  31
HETATM   31  C17 UNL     1     -89.837 -16.854  14.466  1.00  0.00     0.240 C 
HETATM   32  O5  UNL     1     -90.919 -17.200  15.080  1.00  0.00    -0.271 OA
HETATM   33  N4  UNL     1     -90.035 -16.275  13.182  1.00  0.00    -0.359 N 
ATOM     34  H4  UNL     1     -89.221 -16.004  12.629  1.00  0.00     0.162 HD
BRANCH  33  35
HETATM   35  C18 UNL     1     -91.340 -16.062  12.646  1.00  0.00     0.127 C 
BRANCH  35  36
HETATM   36  C19 UNL     1     -91.591 -16.867  11.388  1.00  0.00     0.003 C 
HETATM   37  C20 UNL     1     -92.576 -18.005  11.621  1.00  0.00     0.006 C 
HETATM   38  C21 UNL     1     -93.059 -18.405  10.234  1.00  0.00     0.000 C 
HETATM   39  C22 UNL     1     -92.081 -18.038   9.159  1.00  0.00     0.000 C 
HETATM   40  C23 UNL     1     -90.632 -18.192   9.556  1.00  0.00     0.000 C 
HETATM   41  C24 UNL     1     -90.324 -17.539  10.892  1.00  0.00     0.006 C 
ENDBRANCH  35  36
ENDBRANCH  33  35
ENDBRANCH  28  31
ENDBRANCH   1  24
TORSDOF 10
ENDMDL
MODEL 3
REMARK VINA RESULT: -8.879340073      3.635      7.989
REMARK  10 active torsions:
REMARK  status: ('A' for Active; 'I' for Inactive)
REMARK    1  A    between atoms: N1_1  and  C1_5 
REMARK    2  A    between atoms: C1_5  and  C2_6 
REMARK    3  A    between atoms: C1_5  and  C12_24 
REMARK    4  A    between atoms: C2_6  and  C3_7 
REMARK    5  A    between atoms: C3_7  and  S1_8 
REMARK    6  A    between atoms: S1_8  and  C4_11 
REMARK    7  A    between atoms: C4_11  and  C5_14 
REMARK       I    between atoms: C12_24  and  N3_26 
REMARK    8  A    between atoms: C16_30  and  C17_31 
REMARK       I    between atoms: C17_31  and  N4_33 
REMARK    9  A    between atoms: N4_33  and  C18_35 
REMARK   10  A    between atoms: C18_35  and  C19_36 
ROOT
HETATM    1  C1  UNL     1     -90.354 -15.818  13.514  1.00  0.00     0.275 C 
ENDROOT
BRANCH   1   2
HETATM    2  N1  UNL     1     -91.368 -15.451  14.517  1.00  0.00    -0.066 N 
ATOM      3  H13 UNL     1     -91.087 -14.663  15.101  1.00  0.00     0.275 HD
ATOM      4  H12 UNL     1     -92.198 -15.021  14.109  1.00  0.00     0.275 HD
ATOM      5  H11 UNL     1     -91.575 -16.293  15.053  1.00  0.00     0.275 HD
ENDBRANCH   1   2
BRANCH   1   6
HETATM    6  C2  UNL     1     -89.094 -15.153  13.908  1.00  0.00     0.058 C 
BRANCH   6   7
HETATM    7  C3  UNL     1     -87.987 -16.019  14.370  1.00  0.00     0.149 C 
BRANCH   7   8
HETATM    8  S1  UNL     1     -88.294 -16.770  15.925  1.00  0.00     0.218 S 
HETATM    9  O1  UNL     1     -89.492 -17.692  15.735  1.00  0.00    -0.221 OA
HETATM   10  O2  UNL     1     -88.718 -15.722  16.907  1.00  0.00    -0.221 OA
BRANCH   8  11
HETATM   11  C4  UNL     1     -86.942 -17.661  16.584  1.00  0.00     0.385 C 
HETATM   12  F1  UNL     1     -86.610 -17.156  17.840  1.00  0.00    -0.181 F 
HETATM   13  F2  UNL     1     -85.841 -17.589  15.773  1.00  0.00    -0.181 F 
BRANCH  11  14
HETATM   14  C5  UNL     1     -87.247 -19.110  16.767  1.00  0.00     0.098 A 
HETATM   15  C6  UNL     1     -86.616 -20.222  16.226  1.00  0.00     0.043 A 
HETATM   16  C7  UNL     1     -87.273 -21.343  16.698  1.00  0.00    -0.010 A 
HETATM   17  C8  UNL     1     -88.284 -20.924  17.513  1.00  0.00     0.020 A 
HETATM   18  C11 UNL     1     -87.037 -22.777  16.458  1.00  0.00     0.208 C 
HETATM   19  N2  UNL     1     -88.241 -19.588  17.533  1.00  0.00    -0.357 N 
HETATM   20  C9  UNL     1     -89.163 -21.918  18.169  1.00  0.00     0.084 C 
ATOM     21  H2  UNL     1     -88.886 -19.003  18.064  1.00  0.00     0.166 HD
HETATM   22  C10 UNL     1     -88.394 -23.210  18.305  1.00  0.00     0.174 C 
HETATM   23  O3  UNL     1     -87.868 -23.634  17.107  1.00  0.00    -0.386 OA
ENDBRANCH  11  14
ENDBRANCH   8  11
ENDBRANCH   7   8
ENDBRANCH   6   7
ENDBRANCH   1   6
BRANCH   1  24
HETATM   24  C12 UNL     1     -90.869 -15.603  12.181  1.00  0.00     0.251 C 
HETATM   25  O4  UNL     1     -90.515 -14.532  11.563  1.00  0.00    -0.271 OA
HETATM   26  N3  UNL     1     -91.747 -16.434  11.416  1.00  0.00    -0.337 N 
HETATM   27  C13 UNL     1     -92.270 -17.708  11.944  1.00  0.00     0.127 C 
HETATM   28  C16 UNL     1     -92.301 -16.347  10.120  1.00  0.00     0.179 C 
HETATM   29  C14 UNL     1     -93.712 -17.708  11.420  1.00  0.00     0.022 C 
HETATM   30  C15 UNL     1     -93.797 -16.514  10.452  1.00  0.00     0.037 C 
BRANCH  28  31
HETATM   31  C17 UNL     1     -91.985 -15.386   9.138  1.00  0.00     0.240 C 
HETATM   32  O5  UNL     1     -92.537 -14.223   9.047  1.00  0.00    -0.271 OA
HETATM   33  N4  UNL     1     -90.982 -15.653   8.166  1.00  0.00    -0.359 N 
ATOM     34  H4  UNL     1     -90.524 -16.565   8.163  1.00  0.00     0.162 HD
BRANCH  33  35
HETATM   35  C18 UNL     1     -90.597 -14.680   7.196  1.00  0.00     0.127 C 
BRANCH  35  36
HETATM   36  C19 UNL     1     -89.132 -14.308   7.294  1.00  0.00     0.003 C 
HETATM   37  C20 UNL     1     -88.539 -13.946   5.939  1.00  0.00     0.006 C 
HETATM   38  C21 UNL     1     -87.260 -13.182   6.255  1.00  0.00     0.000 C 
HETATM   39  C22 UNL     1     -86.712 -13.517   7.609  1.00  0.00     0.000 C 
HETATM   40  C23 UNL     1     -86.876 -14.966   8.006  1.00  0.00     0.000 C 
HETATM   41  C24 UNL     1     -88.292 -15.469   7.794  1.00  0.00     0.006 C 
ENDBRANCH  35  36
ENDBRANCH  33  35
ENDBRANCH  28  31
ENDBRANCH   1  24
TORSDOF 10
ENDMDL
MODEL 4
REMARK VINA RESULT: -8.746017838      2.193      5.208
REMARK  10 active torsions:
REMARK  status: ('A' for Active; 'I' for Inactive)
REMARK    1  A    between atoms: N1_1  and  C1_5 
REMARK    2  A    between atoms: C1_5  and  C2_6 
REMARK    3  A    between atoms: C1_5  and  C12_24 
REMARK    4  A    between atoms: C2_6  and  C3_7 
REMARK    5  A    between atoms: C3_7  and  S1_8 
REMARK    6  A    between atoms: S1_8  and  C4_11 
REMARK    7  A    between atoms: C4_11  and  C5_14 
REMARK       I    between atoms: C12_24  and  N3_26 
REMARK    8  A    between atoms: C16_30  and  C17_31 
REMARK       I    between atoms: C17_31  and  N4_33 
REMARK    9  A    between atoms: N4_33  and  C18_35 
REMARK   10  A    between atoms: C18_35  and  C19_36 
ROOT
HETATM    1  C1  UNL     1     -88.233 -12.620  13.053  1.00  0.00     0.275 C 
ENDROOT
BRANCH   1   2
HETATM    2  N1  UNL     1     -88.374 -11.154  13.074  1.00  0.00    -0.066 N 
ATOM      3  H13 UNL     1     -89.055 -10.828  13.759  1.00  0.00     0.275 HD
ATOM      4  H12 UNL     1     -87.560 -10.679  13.463  1.00  0.00     0.275 HD
ATOM      5  H11 UNL     1     -88.592 -10.862  12.122  1.00  0.00     0.275 HD
ENDBRANCH   1   2
BRANCH   1   6
HETATM    6  C2  UNL     1     -88.266 -13.078  14.458  1.00  0.00     0.058 C 
BRANCH   6   7
HETATM    7  C3  UNL     1     -87.670 -14.401  14.752  1.00  0.00     0.149 C 
BRANCH   7   8
HETATM    8  S1  UNL     1     -88.817 -15.722  14.634  1.00  0.00     0.218 S 
HETATM    9  O1  UNL     1     -90.200 -15.092  14.526  1.00  0.00    -0.221 OA
HETATM   10  O2  UNL     1     -88.807 -16.503  15.912  1.00  0.00    -0.221 OA
BRANCH   8  11
HETATM   11  C4  UNL     1     -88.540 -16.810  13.294  1.00  0.00     0.385 C 
HETATM   12  F1  UNL     1     -88.790 -18.122  13.691  1.00  0.00    -0.181 F 
HETATM   13  F2  UNL     1     -87.255 -16.726  12.827  1.00  0.00    -0.181 F 
BRANCH  11  14
HETATM   14  C5  UNL     1     -89.438 -16.529  12.135  1.00  0.00     0.098 A 
HETATM   15  C6  UNL     1     -89.970 -17.403  11.198  1.00  0.00     0.043 A 
HETATM   16  C7  UNL     1     -90.740 -16.657  10.324  1.00  0.00    -0.010 A 
HETATM   17  C8  UNL     1     -90.680 -15.353  10.723  1.00  0.00     0.020 A 
HETATM   18  C11 UNL     1     -91.533 -17.054   9.149  1.00  0.00     0.208 C 
HETATM   19  N2  UNL     1     -89.895 -15.311  11.805  1.00  0.00    -0.357 N 
HETATM   20  C9  UNL     1     -91.418 -14.315   9.968  1.00  0.00     0.084 C 
ATOM     21  H2  UNL     1     -89.672 -14.458  12.317  1.00  0.00     0.166 HD
HETATM   22  C10 UNL     1     -92.586 -14.977   9.277  1.00  0.00     0.174 C 
HETATM   23  O3  UNL     1     -92.200 -16.055   8.514  1.00  0.00    -0.386 OA
ENDBRANCH  11  14
ENDBRANCH   8  11
ENDBRANCH   7   8
ENDBRANCH   6   7
ENDBRANCH   1   6
BRANCH   1  24
HETATM   24  C12 UNL     1     -87.116 -13.002  12.220  1.00  0.00     0.251 C 
HETATM   25  O4  UNL     1     -87.365 -13.657  11.141  1.00  0.00    -0.271 OA
HETATM   26  N3  UNL     1     -85.723 -12.752  12.421  1.00  0.00    -0.337 N 
HETATM   27  C13 UNL     1     -85.226 -12.017  13.600  1.00  0.00     0.127 C 
HETATM   28  C16 UNL     1     -84.554 -13.050  11.687  1.00  0.00     0.179 C 
HETATM   29  C14 UNL     1     -83.942 -12.783  13.943  1.00  0.00     0.022 C 
HETATM   30  C15 UNL     1     -83.724 -13.762  12.775  1.00  0.00     0.037 C 
BRANCH  28  31
HETATM   31  C17 UNL     1     -84.498 -13.613  10.396  1.00  0.00     0.240 C 
HETATM   32  O5  UNL     1     -84.008 -14.775  10.123  1.00  0.00    -0.271 OA
HETATM   33  N4  UNL     1     -85.024 -12.905   9.280  1.00  0.00    -0.359 N 
ATOM     34  H4  UNL     1     -85.402 -11.968   9.420  1.00  0.00     0.162 HD
BRANCH  33  35
HETATM   35  C18 UNL     1     -85.037 -13.470   7.969  1.00  0.00     0.127 C 
BRANCH  35  36
HETATM   36  C19 UNL     1     -86.429 -13.861   7.518  1.00  0.00     0.003 C 
HETATM   37  C20 UNL     1     -86.819 -15.254   7.998  1.00  0.00     0.006 C 
HETATM   38  C21 UNL     1     -88.335 -15.308   7.873  1.00  0.00     0.000 C 
HETATM   39  C22 UNL     1     -88.862 -14.337   6.860  1.00  0.00     0.000 C 
HETATM   40  C23 UNL     1     -87.983 -14.169   5.642  1.00  0.00     0.000 C 
HETATM   41  C24 UNL     1     -86.530 -13.923   6.005  1.00  0.00     0.006 C 
ENDBRANCH  35  36
ENDBRANCH  33  35
ENDBRANCH  28  31
ENDBRANCH   1  24
TORSDOF 10
ENDMDL
MODEL 5
REMARK VINA RESULT: -8.742743772      2.945      5.810
REMARK  10 active torsions:
REMARK  status: ('A' for Active; 'I' for Inactive)
REMARK    1  A    between atoms: N1_1  and  C1_5 
REMARK    2  A    between atoms: C1_5  and  C2_6 
REMARK    3  A    between atoms: C1_5  and  C12_24 
REMARK    4  A    between atoms: C2_6  and  C3_7 
REMARK    5  A    between atoms: C3_7  and  S1_8 
REMARK    6  A    between atoms: S1_8  and  C4_11 
REMARK    7  A    between atoms: C4_11  and  C5_14 
REMARK       I    between atoms: C12_24  and  N3_26 
REMARK    8  A    between atoms: C16_30  and  C17_31 
REMARK       I    between atoms: C17_31  and  N4_33 
REMARK    9  A    between atoms: N4_33  and  C18_35 
REMARK   10  A    between atoms: C18_35  and  C19_36 
ROOT
HETATM    1  C1  UNL     1     -89.632 -16.626  13.341  1.00  0.00     0.275 C 
ENDROOT
BRANCH   1   2
HETATM    2  N1  UNL     1     -88.748 -17.681  13.867  1.00  0.00    -0.066 N 
ATOM      3  H13 UNL     1     -88.288 -18.220  13.134  1.00  0.00     0.275 HD
ATOM      4  H12 UNL     1     -87.905 -17.314  14.308  1.00  0.00     0.275 HD
ATOM      5  H11 UNL     1     -89.311 -18.256  14.494  1.00  0.00     0.275 HD
ENDBRANCH   1   2
BRANCH   1   6
HETATM    6  C2  UNL     1     -90.359 -17.205  12.191  1.00  0.00     0.058 C 
BRANCH   6   7
HETATM    7  C3  UNL     1     -91.834 -17.266  12.284  1.00  0.00     0.149 C 
BRANCH   7   8
HETATM    8  S1  UNL     1     -92.644 -16.834  10.790  1.00  0.00     0.218 S 
HETATM    9  O1  UNL     1     -94.115 -17.187  10.972  1.00  0.00    -0.221 OA
HETATM   10  O2  UNL     1     -92.135 -17.703   9.681  1.00  0.00    -0.221 OA
BRANCH   8  11
HETATM   11  C4  UNL     1     -92.476 -15.157  10.328  1.00  0.00     0.385 C 
HETATM   12  F1  UNL     1     -91.977 -14.419  11.399  1.00  0.00    -0.181 F 
HETATM   13  F2  UNL     1     -93.672 -14.615   9.936  1.00  0.00    -0.181 F 
BRANCH  11  14
HETATM   14  C5  UNL     1     -91.527 -14.969   9.192  1.00  0.00     0.098 A 
HETATM   15  C6  UNL     1     -91.752 -14.433   7.932  1.00  0.00     0.043 A 
HETATM   16  C7  UNL     1     -90.554 -14.478   7.242  1.00  0.00    -0.010 A 
HETATM   17  C8  UNL     1     -89.617 -15.029   8.066  1.00  0.00     0.020 A 
HETATM   18  C11 UNL     1     -90.205 -14.047   5.877  1.00  0.00     0.208 C 
HETATM   19  N2  UNL     1     -90.229 -15.311   9.220  1.00  0.00    -0.357 N 
HETATM   20  C9  UNL     1     -88.225 -15.203   7.590  1.00  0.00     0.084 C 
ATOM     21  H2  UNL     1     -89.766 -15.734  10.025  1.00  0.00     0.166 HD
HETATM   22  C10 UNL     1     -87.965 -14.176   6.513  1.00  0.00     0.174 C 
HETATM   23  O3  UNL     1     -88.907 -14.218   5.512  1.00  0.00    -0.386 OA
ENDBRANCH  11  14
ENDBRANCH   8  11
ENDBRANCH   7   8
ENDBRANCH   6   7
ENDBRANCH   1   6
BRANCH   1  24
HETATM   24  C12 UNL     1     -88.890 -15.400  13.154  1.00  0.00     0.251 C 
HETATM   25  O4  UNL     1     -88.484 -15.118  11.966  1.00  0.00    -0.271 OA
HETATM   26  N3  UNL     1     -88.527 -14.417  14.126  1.00  0.00    -0.337 N 
HETATM   27  C13 UNL     1     -88.896 -14.553  15.547  1.00  0.00     0.127 C 
HETATM   28  C16 UNL     1     -87.831 -13.189  14.069  1.00  0.00     0.179 C 
HETATM   29  C14 UNL     1     -87.645 -14.025  16.260  1.00  0.00     0.022 C 
HETATM   30  C15 UNL     1     -86.758 -13.435  15.148  1.00  0.00     0.037 C 
BRANCH  28  31
HETATM   31  C17 UNL     1     -87.400 -12.525  12.903  1.00  0.00     0.240 C 
HETATM   32  O5  UNL     1     -88.006 -11.521  12.363  1.00  0.00    -0.271 OA
HETATM   33  N4  UNL     1     -86.208 -12.933  12.243  1.00  0.00    -0.359 N 
ATOM     34  H4  UNL     1     -85.693 -13.738  12.600  1.00  0.00     0.162 HD
BRANCH  33  35
HETATM   35  C18 UNL     1     -85.711 -12.246  11.095  1.00  0.00     0.127 C 
BRANCH  35  36
HETATM   36  C19 UNL     1     -85.098 -13.183  10.076  1.00  0.00     0.003 C 
HETATM   37  C20 UNL     1     -85.399 -12.754   8.645  1.00  0.00     0.006 C 
HETATM   38  C21 UNL     1     -84.377 -13.485   7.787  1.00  0.00     0.000 C 
HETATM   39  C22 UNL     1     -83.858 -14.727   8.445  1.00  0.00     0.000 C 
HETATM   40  C23 UNL     1     -84.891 -15.485   9.246  1.00  0.00     0.000 C 
HETATM   41  C24 UNL     1     -85.665 -14.586  10.193  1.00  0.00     0.006 C 
ENDBRANCH  35  36
ENDBRANCH  33  35
ENDBRANCH  28  31
ENDBRANCH   1  24
TORSDOF 10
ENDMDL
