MODEL 1
REMARK VINA RESULT: -7.945111680      0.000      0.000
REMARK  12 active torsions:
REMARK  status: ('A' for Active; 'I' for Inactive)
REMARK    1  A    between atoms: C2_2  and  N1_3 
REMARK    2  A    between atoms: C2_2  and  C7_14 
REMARK       I    between atoms: N1_3  and  C3_5 
REMARK    3  A    between atoms: C3_5  and  C4_7 
REMARK    4  A    between atoms: C4_7  and  N2_10 
REMARK       I    between atoms: C7_14  and  N3_16 
REMARK    5  A    between atoms: C12_21  and  C13_22 
REMARK       I    between atoms: C13_22  and  N4_24 
REMARK    6  A    between atoms: N4_24  and  C14_26 
REMARK    7  A    between atoms: C14_26  and  C15_27 
REMARK    8  A    between atoms: C14_26  and  C22_34 
REMARK    9  A    between atoms: C15_27  and  C16_28 
REMARK   10  A    between atoms: C22_34  and  O5_36 
REMARK   11  A    between atoms: O5_36  and  C23_37 
REMARK   12  A    between atoms: C23_37  and  C24_38 
ROOT
HETATM    1  C7  UNL     1     -86.693 -15.728  14.360  1.00  0.00     0.243 C 
HETATM    2  O2  UNL     1     -87.641 -14.926  14.596  1.00  0.00    -0.271 OA
HETATM    3  N3  UNL     1     -86.845 -17.117  14.363  1.00  0.00    -0.337 N 
HETATM    4  C8  UNL     1     -85.651 -17.996  14.178  1.00  0.00     0.127 C 
HETATM    5  C9  UNL     1     -85.475 -18.590  15.588  1.00  0.00     0.020 C 
HETATM    6  C10 UNL     1     -86.660 -19.460  15.880  1.00  0.00     0.004 C 
HETATM    7  C11 UNL     1     -87.965 -18.668  15.859  1.00  0.00     0.035 C 
HETATM    8  C12 UNL     1     -88.044 -17.885  14.563  1.00  0.00     0.179 C 
ENDROOT
BRANCH   8   9
HETATM    9  C13 UNL     1     -89.339 -17.272  14.376  1.00  0.00     0.241 C 
HETATM   10  O3  UNL     1     -90.042 -17.106  15.445  1.00  0.00    -0.271 OA
HETATM   11  N4  UNL     1     -89.868 -16.864  13.139  1.00  0.00    -0.345 N 
ATOM     12  H4  UNL     1     -89.296 -17.007  12.307  1.00  0.00     0.163 HD
BRANCH  11  13
HETATM   13  C14 UNL     1     -91.198 -16.244  12.960  1.00  0.00     0.184 C 
BRANCH  13  14
HETATM   14  C15 UNL     1     -92.041 -17.136  12.184  1.00  0.00     0.040 C 
BRANCH  14  15
HETATM   15  C16 UNL     1     -91.800 -17.578  10.825  1.00  0.00    -0.012 C 
HETATM   16  C17 UNL     1     -91.556 -16.641   9.716  1.00  0.00     0.005 C 
HETATM   17  C18 UNL     1     -90.677 -17.360   8.672  1.00  0.00     0.000 C 
HETATM   18  C19 UNL     1     -91.104 -18.807   8.560  1.00  0.00     0.000 C 
HETATM   19  C20 UNL     1     -92.550 -19.001   8.943  1.00  0.00     0.000 C 
HETATM   20  C21 UNL     1     -92.811 -18.655  10.401  1.00  0.00     0.005 C 
ENDBRANCH  14  15
ENDBRANCH  13  14
BRANCH  13  21
HETATM   21  C22 UNL     1     -90.971 -14.844  12.563  1.00  0.00     0.281 C 
HETATM   22  O4  UNL     1     -92.047 -14.191  12.245  1.00  0.00    -0.263 OA
BRANCH  21  23
HETATM   23  O5  UNL     1     -89.841 -14.173  12.483  1.00  0.00    -0.317 OA
BRANCH  23  24
HETATM   24  C23 UNL     1     -89.091 -13.669  11.475  1.00  0.00     0.214 C 
BRANCH  24  25
HETATM   25  C24 UNL     1     -88.616 -14.515  10.357  1.00  0.00     0.202 C 
HETATM   26 CL1  UNL     1     -88.080 -16.106  10.849  1.00  0.00    -0.106 Cl
HETATM   27 CL2  UNL     1     -87.279 -13.609   9.548  1.00  0.00    -0.106 Cl
ENDBRANCH  24  25
ENDBRANCH  23  24
ENDBRANCH  21  23
ENDBRANCH  13  21
ENDBRANCH  11  13
ENDBRANCH   8   9
BRANCH   1  28
HETATM   28  C2  UNL     1     -85.377 -15.091  14.072  1.00  0.00     0.172 C 
HETATM   29  C1  UNL     1     -85.170 -15.013  12.562  1.00  0.00     0.042 C 
BRANCH  28  30
HETATM   30  N1  UNL     1     -85.416 -13.703  14.531  1.00  0.00    -0.346 N 
HETATM   31  C3  UNL     1     -84.763 -13.347  15.743  1.00  0.00     0.253 C 
HETATM   32  O1  UNL     1     -84.156 -14.213  16.419  1.00  0.00    -0.271 OA
ATOM     33  H1  UNL     1     -85.908 -12.996  13.986  1.00  0.00     0.163 HD
BRANCH  31  34
HETATM   34  C4  UNL     1     -84.777 -11.946  16.252  1.00  0.00     0.196 C 
HETATM   35  C5  UNL     1     -84.982 -11.985  17.731  1.00  0.00     0.056 C 
HETATM   36  C6  UNL     1     -83.474 -11.242  15.929  1.00  0.00     0.056 C 
BRANCH  34  37
HETATM   37  N2  UNL     1     -85.837 -11.232  15.602  1.00  0.00    -0.062 N 
ATOM     38  H23 UNL     1     -86.422 -11.840  15.028  1.00  0.00     0.275 HD
ATOM     39  H22 UNL     1     -86.555 -10.920  16.254  1.00  0.00     0.275 HD
ATOM     40  H21 UNL     1     -85.432 -10.463  15.069  1.00  0.00     0.275 HD
ENDBRANCH  34  37
ENDBRANCH  31  34
ENDBRANCH  28  30
ENDBRANCH   1  28
TORSDOF 12
ENDMDL
MODEL 2
REMARK VINA RESULT: -7.931323772      2.488      4.927
REMARK  12 active torsions:
REMARK  status: ('A' for Active; 'I' for Inactive)
REMARK    1  A    between atoms: C2_2  and  N1_3 
REMARK    2  A    between atoms: C2_2  and  C7_14 
REMARK       I    between atoms: N1_3  and  C3_5 
REMARK    3  A    between atoms: C3_5  and  C4_7 
REMARK    4  A    between atoms: C4_7  and  N2_10 
REMARK       I    between atoms: C7_14  and  N3_16 
REMARK    5  A    between atoms: C12_21  and  C13_22 
REMARK       I    between atoms: C13_22  and  N4_24 
REMARK    6  A    between atoms: N4_24  and  C14_26 
REMARK    7  A    between atoms: C14_26  and  C15_27 
REMARK    8  A    between atoms: C14_26  and  C22_34 
REMARK    9  A    between atoms: C15_27  and  C16_28 
REMARK   10  A    between atoms: C22_34  and  O5_36 
REMARK   11  A    between atoms: O5_36  and  C23_37 
REMARK   12  A    between atoms: C23_37  and  C24_38 
ROOT
HETATM    1  C7  UNL     1     -87.605 -14.890  14.065  1.00  0.00     0.243 C 
HETATM    2  O2  UNL     1     -88.197 -15.797  13.414  1.00  0.00    -0.271 OA
HETATM    3  N3  UNL     1     -87.273 -13.646  13.521  1.00  0.00    -0.337 N 
HETATM    4  C8  UNL     1     -86.480 -12.670  14.327  1.00  0.00     0.127 C 
HETATM    5  C9  UNL     1     -85.117 -12.702  13.610  1.00  0.00     0.020 C 
HETATM    6  C10 UNL     1     -85.300 -12.139  12.234  1.00  0.00     0.004 C 
HETATM    7  C11 UNL     1     -86.290 -12.960  11.410  1.00  0.00     0.035 C 
HETATM    8  C12 UNL     1     -87.565 -13.139  12.209  1.00  0.00     0.179 C 
ENDROOT
BRANCH   8   9
HETATM    9  C13 UNL     1     -88.623 -13.728  11.420  1.00  0.00     0.241 C 
HETATM   10  O3  UNL     1     -89.805 -13.256  11.624  1.00  0.00    -0.271 OA
HETATM   11  N4  UNL     1     -88.450 -14.759  10.479  1.00  0.00    -0.345 N 
ATOM     12  H4  UNL     1     -87.506 -15.118  10.336  1.00  0.00     0.163 HD
BRANCH  11  13
HETATM   13  C14 UNL     1     -89.542 -15.358   9.684  1.00  0.00     0.184 C 
BRANCH  13  14
HETATM   14  C15 UNL     1     -89.909 -16.638  10.263  1.00  0.00     0.040 C 
BRANCH  14  15
HETATM   15  C16 UNL     1     -91.256 -17.137  10.455  1.00  0.00    -0.012 C 
HETATM   16  C17 UNL     1     -91.967 -17.920   9.432  1.00  0.00     0.005 C 
HETATM   17  C18 UNL     1     -92.968 -18.847  10.153  1.00  0.00     0.000 C 
HETATM   18  C19 UNL     1     -93.584 -18.113  11.324  1.00  0.00     0.000 C 
HETATM   19  C20 UNL     1     -93.585 -16.619  11.117  1.00  0.00     0.000 C 
HETATM   20  C21 UNL     1     -92.178 -16.049  11.030  1.00  0.00     0.005 C 
ENDBRANCH  14  15
ENDBRANCH  13  14
BRANCH  13  21
HETATM   21  C22 UNL     1     -89.167 -15.224   8.266  1.00  0.00     0.281 C 
HETATM   22  O4  UNL     1     -90.133 -14.850   7.483  1.00  0.00    -0.263 OA
BRANCH  21  23
HETATM   23  O5  UNL     1     -88.001 -15.432   7.689  1.00  0.00    -0.317 OA
BRANCH  23  24
HETATM   24  C23 UNL     1     -87.054 -14.645   7.124  1.00  0.00     0.214 C 
BRANCH  24  25
HETATM   25  C24 UNL     1     -85.793 -14.316   7.825  1.00  0.00     0.202 C 
HETATM   26 CL1  UNL     1     -84.448 -13.996   6.753  1.00  0.00    -0.106 Cl
HETATM   27 CL2  UNL     1     -85.425 -15.706   8.919  1.00  0.00    -0.106 Cl
ENDBRANCH  24  25
ENDBRANCH  23  24
ENDBRANCH  21  23
ENDBRANCH  13  21
ENDBRANCH  11  13
ENDBRANCH   8   9
BRANCH   1  28
HETATM   28  C2  UNL     1     -87.275 -15.233  15.478  1.00  0.00     0.172 C 
HETATM   29  C1  UNL     1     -88.388 -14.736  16.395  1.00  0.00     0.042 C 
BRANCH  28  30
HETATM   30  N1  UNL     1     -87.275 -16.689  15.621  1.00  0.00    -0.346 N 
HETATM   31  C3  UNL     1     -86.039 -17.383  15.730  1.00  0.00     0.253 C 
HETATM   32  O1  UNL     1     -84.951 -16.757  15.706  1.00  0.00    -0.271 OA
ATOM     33  H1  UNL     1     -88.156 -17.202  15.641  1.00  0.00     0.163 HD
BRANCH  31  34
HETATM   34  C4  UNL     1     -85.990 -18.866  15.875  1.00  0.00     0.196 C 
HETATM   35  C5  UNL     1     -87.304 -19.331  16.410  1.00  0.00     0.056 C 
HETATM   36  C6  UNL     1     -85.711 -19.528  14.540  1.00  0.00     0.056 C 
BRANCH  34  37
HETATM   37  N2  UNL     1     -84.919 -19.204  16.767  1.00  0.00    -0.062 N 
ATOM     38  H23 UNL     1     -84.001 -19.072  16.342  1.00  0.00     0.275 HD
ATOM     39  H22 UNL     1     -84.819 -18.534  17.529  1.00  0.00     0.275 HD
ATOM     40  H21 UNL     1     -85.062 -20.157  17.101  1.00  0.00     0.275 HD
ENDBRANCH  34  37
ENDBRANCH  31  34
ENDBRANCH  28  30
ENDBRANCH   1  28
TORSDOF 12
ENDMDL
MODEL 3
REMARK VINA RESULT: -7.903578217      3.291      6.134
REMARK  12 active torsions:
REMARK  status: ('A' for Active; 'I' for Inactive)
REMARK    1  A    between atoms: C2_2  and  N1_3 
REMARK    2  A    between atoms: C2_2  and  C7_14 
REMARK       I    between atoms: N1_3  and  C3_5 
REMARK    3  A    between atoms: C3_5  and  C4_7 
REMARK    4  A    between atoms: C4_7  and  N2_10 
REMARK       I    between atoms: C7_14  and  N3_16 
REMARK    5  A    between atoms: C12_21  and  C13_22 
REMARK       I    between atoms: C13_22  and  N4_24 
REMARK    6  A    between atoms: N4_24  and  C14_26 
REMARK    7  A    between atoms: C14_26  and  C15_27 
REMARK    8  A    between atoms: C14_26  and  C22_34 
REMARK    9  A    between atoms: C15_27  and  C16_28 
REMARK   10  A    between atoms: C22_34  and  O5_36 
REMARK   11  A    between atoms: O5_36  and  C23_37 
REMARK   12  A    between atoms: C23_37  and  C24_38 
ROOT
HETATM    1  C7  UNL     1     -88.573 -15.949  13.621  1.00  0.00     0.243 C 
HETATM    2  O2  UNL     1     -88.369 -16.891  12.803  1.00  0.00    -0.271 OA
HETATM    3  N3  UNL     1     -88.214 -14.622  13.369  1.00  0.00    -0.337 N 
HETATM    4  C8  UNL     1     -88.394 -13.588  14.432  1.00  0.00     0.127 C 
HETATM    5  C9  UNL     1     -86.937 -13.300  14.842  1.00  0.00     0.020 C 
HETATM    6  C10 UNL     1     -86.243 -12.662  13.677  1.00  0.00     0.004 C 
HETATM    7  C11 UNL     1     -86.220 -13.580  12.456  1.00  0.00     0.035 C 
HETATM    8  C12 UNL     1     -87.628 -14.065  12.180  1.00  0.00     0.179 C 
ENDROOT
BRANCH   8   9
HETATM    9  C13 UNL     1     -87.723 -14.773  10.923  1.00  0.00     0.241 C 
HETATM   10  O3  UNL     1     -86.646 -15.360  10.527  1.00  0.00    -0.271 OA
HETATM   11  N4  UNL     1     -88.879 -14.852  10.126  1.00  0.00    -0.345 N 
ATOM     12  H4  UNL     1     -89.719 -14.378  10.459  1.00  0.00     0.163 HD
BRANCH  11  13
HETATM   13  C14 UNL     1     -88.961 -15.573   8.840  1.00  0.00     0.184 C 
BRANCH  13  14
HETATM   14  C15 UNL     1     -88.663 -14.654   7.756  1.00  0.00     0.040 C 
BRANCH  14  15
HETATM   15  C16 UNL     1     -87.343 -14.281   7.286  1.00  0.00    -0.012 C 
HETATM   16  C17 UNL     1     -86.622 -13.103   7.792  1.00  0.00     0.005 C 
HETATM   17  C18 UNL     1     -85.110 -13.382   7.670  1.00  0.00     0.000 C 
HETATM   18  C19 UNL     1     -84.835 -14.131   6.384  1.00  0.00     0.000 C 
HETATM   19  C20 UNL     1     -85.882 -13.852   5.334  1.00  0.00     0.000 C 
HETATM   20  C21 UNL     1     -87.261 -14.340   5.752  1.00  0.00     0.005 C 
ENDBRANCH  14  15
ENDBRANCH  13  14
BRANCH  13  21
HETATM   21  C22 UNL     1     -90.201 -16.367   8.868  1.00  0.00     0.281 C 
HETATM   22  O4  UNL     1     -91.136 -15.940   8.075  1.00  0.00    -0.263 OA
BRANCH  21  23
HETATM   23  O5  UNL     1     -90.489 -17.437   9.580  1.00  0.00    -0.317 OA
BRANCH  23  24
HETATM   24  C23 UNL     1     -91.361 -17.723  10.576  1.00  0.00     0.214 C 
BRANCH  24  25
HETATM   25  C24 UNL     1     -92.771 -18.078  10.302  1.00  0.00     0.202 C 
HETATM   26 CL1  UNL     1     -93.615 -18.746  11.682  1.00  0.00    -0.106 Cl
HETATM   27 CL2  UNL     1     -92.757 -19.251   8.929  1.00  0.00    -0.106 Cl
ENDBRANCH  24  25
ENDBRANCH  23  24
ENDBRANCH  21  23
ENDBRANCH  13  21
ENDBRANCH  11  13
ENDBRANCH   8   9
BRANCH   1  28
HETATM   28  C2  UNL     1     -89.231 -16.347  14.898  1.00  0.00     0.172 C 
HETATM   29  C1  UNL     1     -90.726 -16.543  14.658  1.00  0.00     0.042 C 
BRANCH  28  30
HETATM   30  N1  UNL     1     -88.727 -17.660  15.298  1.00  0.00    -0.346 N 
HETATM   31  C3  UNL     1     -88.173 -17.832  16.597  1.00  0.00     0.253 C 
HETATM   32  O1  UNL     1     -88.114 -16.868  17.398  1.00  0.00    -0.271 OA
ATOM     33  H1  UNL     1     -88.772 -18.446  14.651  1.00  0.00     0.163 HD
BRANCH  31  34
HETATM   34  C4  UNL     1     -87.644 -19.150  17.049  1.00  0.00     0.196 C 
HETATM   35  C5  UNL     1     -87.097 -19.871  15.860  1.00  0.00     0.056 C 
HETATM   36  C6  UNL     1     -86.555 -18.967  18.088  1.00  0.00     0.056 C 
BRANCH  34  37
HETATM   37  N2  UNL     1     -88.712 -19.889  17.656  1.00  0.00    -0.062 N 
ATOM     38  H23 UNL     1     -88.519 -20.890  17.699  1.00  0.00     0.275 HD
ATOM     39  H22 UNL     1     -88.785 -19.717  18.658  1.00  0.00     0.275 HD
ATOM     40  H21 UNL     1     -89.577 -19.679  17.159  1.00  0.00     0.275 HD
ENDBRANCH  34  37
ENDBRANCH  31  34
ENDBRANCH  28  30
ENDBRANCH   1  28
TORSDOF 12
ENDMDL
MODEL 4
REMARK VINA RESULT: -7.865976055      2.818      4.570
REMARK  12 active torsions:
REMARK  status: ('A' for Active; 'I' for Inactive)
REMARK    1  A    between atoms: C2_2  and  N1_3 
REMARK    2  A    between atoms: C2_2  and  C7_14 
REMARK       I    between atoms: N1_3  and  C3_5 
REMARK    3  A    between atoms: C3_5  and  C4_7 
REMARK    4  A    between atoms: C4_7  and  N2_10 
REMARK       I    between atoms: C7_14  and  N3_16 
REMARK    5  A    between atoms: C12_21  and  C13_22 
REMARK       I    between atoms: C13_22  and  N4_24 
REMARK    6  A    between atoms: N4_24  and  C14_26 
REMARK    7  A    between atoms: C14_26  and  C15_27 
REMARK    8  A    between atoms: C14_26  and  C22_34 
REMARK    9  A    between atoms: C15_27  and  C16_28 
REMARK   10  A    between atoms: C22_34  and  O5_36 
REMARK   11  A    between atoms: O5_36  and  C23_37 
REMARK   12  A    between atoms: C23_37  and  C24_38 
ROOT
HETATM    1  C7  UNL     1     -87.260 -14.754  12.895  1.00  0.00     0.243 C 
HETATM    2  O2  UNL     1     -87.343 -14.088  11.823  1.00  0.00    -0.271 OA
HETATM    3  N3  UNL     1     -88.301 -15.543  13.390  1.00  0.00    -0.337 N 
HETATM    4  C8  UNL     1     -88.158 -16.214  14.718  1.00  0.00     0.127 C 
HETATM    5  C9  UNL     1     -89.132 -15.399  15.590  1.00  0.00     0.020 C 
HETATM    6  C10 UNL     1     -90.522 -15.640  15.086  1.00  0.00     0.004 C 
HETATM    7  C11 UNL     1     -90.690 -15.187  13.638  1.00  0.00     0.035 C 
HETATM    8  C12 UNL     1     -89.586 -15.801  12.800  1.00  0.00     0.179 C 
ENDROOT
BRANCH   8   9
HETATM    9  C13 UNL     1     -89.792 -15.586  11.386  1.00  0.00     0.241 C 
HETATM   10  O3  UNL     1     -90.552 -14.592  11.074  1.00  0.00    -0.271 OA
HETATM   11  N4  UNL     1     -89.240 -16.373  10.360  1.00  0.00    -0.345 N 
ATOM     12  H4  UNL     1     -88.643 -17.156  10.631  1.00  0.00     0.163 HD
BRANCH  11  13
HETATM   13  C14 UNL     1     -89.464 -16.147   8.918  1.00  0.00     0.184 C 
BRANCH  13  14
HETATM   14  C15 UNL     1     -88.970 -14.829   8.558  1.00  0.00     0.040 C 
BRANCH  14  15
HETATM   15  C16 UNL     1     -87.781 -14.543   7.781  1.00  0.00    -0.012 C 
HETATM   16  C17 UNL     1     -87.626 -14.964   6.379  1.00  0.00     0.005 C 
HETATM   17  C18 UNL     1     -86.685 -13.960   5.682  1.00  0.00     0.000 C 
HETATM   18  C19 UNL     1     -85.582 -13.554   6.634  1.00  0.00     0.000 C 
HETATM   19  C20 UNL     1     -85.308 -14.618   7.668  1.00  0.00     0.000 C 
HETATM   20  C21 UNL     1     -86.504 -14.859   8.577  1.00  0.00     0.005 C 
ENDBRANCH  14  15
ENDBRANCH  13  14
BRANCH  13  21
HETATM   21  C22 UNL     1     -90.844 -16.568   8.624  1.00  0.00     0.281 C 
HETATM   22  O4  UNL     1     -91.591 -15.646   8.096  1.00  0.00    -0.263 OA
BRANCH  21  23
HETATM   23  O5  UNL     1     -91.420 -17.735   8.823  1.00  0.00    -0.317 OA
BRANCH  23  24
HETATM   24  C23 UNL     1     -92.482 -18.175   9.539  1.00  0.00     0.214 C 
BRANCH  24  25
HETATM   25  C24 UNL     1     -92.748 -17.697  10.915  1.00  0.00     0.202 C 
HETATM   26 CL1  UNL     1     -93.658 -18.824  11.893  1.00  0.00    -0.106 Cl
HETATM   27 CL2  UNL     1     -93.625 -16.125  10.761  1.00  0.00    -0.106 Cl
ENDBRANCH  24  25
ENDBRANCH  23  24
ENDBRANCH  21  23
ENDBRANCH  13  21
ENDBRANCH  11  13
ENDBRANCH   8   9
BRANCH   1  28
HETATM   28  C2  UNL     1     -85.958 -14.644  13.612  1.00  0.00     0.172 C 
HETATM   29  C1  UNL     1     -84.837 -14.423  12.601  1.00  0.00     0.042 C 
BRANCH  28  30
HETATM   30  N1  UNL     1     -85.977 -13.439  14.440  1.00  0.00    -0.346 N 
HETATM   31  C3  UNL     1     -85.658 -13.532  15.823  1.00  0.00     0.253 C 
HETATM   32  O1  UNL     1     -85.361 -14.639  16.336  1.00  0.00    -0.271 OA
ATOM     33  H1  UNL     1     -86.218 -12.537  14.028  1.00  0.00     0.163 HD
BRANCH  31  34
HETATM   34  C4  UNL     1     -85.667 -12.332  16.707  1.00  0.00     0.196 C 
HETATM   35  C5  UNL     1     -86.711 -12.528  17.757  1.00  0.00     0.056 C 
HETATM   36  C6  UNL     1     -84.312 -12.131  17.356  1.00  0.00     0.056 C 
BRANCH  34  37
HETATM   37  N2  UNL     1     -85.948 -11.176  15.907  1.00  0.00    -0.062 N 
ATOM     38  H23 UNL     1     -85.101 -10.710  15.582  1.00  0.00     0.275 HD
ATOM     39  H22 UNL     1     -86.335 -11.417  14.995  1.00  0.00     0.275 HD
ATOM     40  H21 UNL     1     -86.558 -10.553  16.437  1.00  0.00     0.275 HD
ENDBRANCH  34  37
ENDBRANCH  31  34
ENDBRANCH  28  30
ENDBRANCH   1  28
TORSDOF 12
ENDMDL
MODEL 5
REMARK VINA RESULT: -7.828462673      2.498      4.628
REMARK  12 active torsions:
REMARK  status: ('A' for Active; 'I' for Inactive)
REMARK    1  A    between atoms: C2_2  and  N1_3 
REMARK    2  A    between atoms: C2_2  and  C7_14 
REMARK       I    between atoms: N1_3  and  C3_5 
REMARK    3  A    between atoms: C3_5  and  C4_7 
REMARK    4  A    between atoms: C4_7  and  N2_10 
REMARK       I    between atoms: C7_14  and  N3_16 
REMARK    5  A    between atoms: C12_21  and  C13_22 
REMARK       I    between atoms: C13_22  and  N4_24 
REMARK    6  A    between atoms: N4_24  and  C14_26 
REMARK    7  A    between atoms: C14_26  and  C15_27 
REMARK    8  A    between atoms: C14_26  and  C22_34 
REMARK    9  A    between atoms: C15_27  and  C16_28 
REMARK   10  A    between atoms: C22_34  and  O5_36 
REMARK   11  A    between atoms: O5_36  and  C23_37 
REMARK   12  A    between atoms: C23_37  and  C24_38 
ROOT
HETATM    1  C7  UNL     1     -87.704 -14.644  14.106  1.00  0.00     0.243 C 
HETATM    2  O2  UNL     1     -88.331 -15.582  13.537  1.00  0.00    -0.271 OA
HETATM    3  N3  UNL     1     -87.320 -13.470  13.452  1.00  0.00    -0.337 N 
HETATM    4  C8  UNL     1     -86.489 -12.456  14.169  1.00  0.00     0.127 C 
HETATM    5  C9  UNL     1     -85.128 -12.609  13.465  1.00  0.00     0.020 C 
HETATM    6  C10 UNL     1     -85.286 -12.167  12.043  1.00  0.00     0.004 C 
HETATM    7  C11 UNL     1     -86.307 -13.020  11.292  1.00  0.00     0.035 C 
HETATM    8  C12 UNL     1     -87.590 -13.073  12.097  1.00  0.00     0.179 C 
ENDROOT
BRANCH   8   9
HETATM    9  C13 UNL     1     -88.669 -13.690  11.360  1.00  0.00     0.241 C 
HETATM   10  O3  UNL     1     -89.849 -13.229  11.602  1.00  0.00    -0.271 OA
HETATM   11  N4  UNL     1     -88.519 -14.734  10.431  1.00  0.00    -0.345 N 
ATOM     12  H4  UNL     1     -87.577 -15.084  10.257  1.00  0.00     0.163 HD
BRANCH  11  13
HETATM   13  C14 UNL     1     -89.633 -15.360   9.688  1.00  0.00     0.184 C 
BRANCH  13  14
HETATM   14  C15 UNL     1     -89.963 -16.633  10.305  1.00  0.00     0.040 C 
BRANCH  14  15
HETATM   15  C16 UNL     1     -91.293 -17.185  10.475  1.00  0.00    -0.012 C 
HETATM   16  C17 UNL     1     -91.977 -17.948   9.419  1.00  0.00     0.005 C 
HETATM   17  C18 UNL     1     -92.946 -18.936  10.100  1.00  0.00     0.000 C 
HETATM   18  C19 UNL     1     -93.585 -18.273  11.301  1.00  0.00     0.000 C 
HETATM   19  C20 UNL     1     -93.637 -16.772  11.156  1.00  0.00     0.000 C 
HETATM   20  C21 UNL     1     -92.249 -16.152  11.094  1.00  0.00     0.005 C 
ENDBRANCH  14  15
ENDBRANCH  13  14
BRANCH  13  21
HETATM   21  C22 UNL     1     -89.313 -15.249   8.255  1.00  0.00     0.281 C 
HETATM   22  O4  UNL     1     -90.298 -14.848   7.510  1.00  0.00    -0.263 OA
BRANCH  21  23
HETATM   23  O5  UNL     1     -88.181 -15.501   7.632  1.00  0.00    -0.317 OA
BRANCH  23  24
HETATM   24  C23 UNL     1     -87.229 -14.751   7.028  1.00  0.00     0.214 C 
BRANCH  24  25
HETATM   25  C24 UNL     1     -85.998 -14.331   7.735  1.00  0.00     0.202 C 
HETATM   26 CL1  UNL     1     -84.672 -13.923   6.670  1.00  0.00    -0.106 Cl
HETATM   27 CL2  UNL     1     -85.542 -15.685   8.839  1.00  0.00    -0.106 Cl
ENDBRANCH  24  25
ENDBRANCH  23  24
ENDBRANCH  21  23
ENDBRANCH  13  21
ENDBRANCH  11  13
ENDBRANCH   8   9
BRANCH   1  28
HETATM   28  C2  UNL     1     -87.390 -14.869  15.546  1.00  0.00     0.172 C 
HETATM   29  C1  UNL     1     -88.689 -15.029  16.330  1.00  0.00     0.042 C 
BRANCH  28  30
HETATM   30  N1  UNL     1     -86.695 -16.149  15.681  1.00  0.00    -0.346 N 
HETATM   31  C3  UNL     1     -85.287 -16.165  15.882  1.00  0.00     0.253 C 
HETATM   32  O1  UNL     1     -84.639 -15.092  15.944  1.00  0.00    -0.271 OA
ATOM     33  H1  UNL     1     -87.217 -17.024  15.632  1.00  0.00     0.163 HD
BRANCH  31  34
HETATM   34  C4  UNL     1     -84.536 -17.445  16.023  1.00  0.00     0.196 C 
HETATM   35  C5  UNL     1     -83.663 -17.347  17.231  1.00  0.00     0.056 C 
HETATM   36  C6  UNL     1     -85.488 -18.616  16.166  1.00  0.00     0.056 C 
BRANCH  34  37
HETATM   37  N2  UNL     1     -83.757 -17.652  14.837  1.00  0.00    -0.062 N 
ATOM     38  H23 UNL     1     -83.919 -18.569  14.420  1.00  0.00     0.275 HD
ATOM     39  H22 UNL     1     -84.079 -17.083  14.055  1.00  0.00     0.275 HD
ATOM     40  H21 UNL     1     -82.775 -17.491  15.060  1.00  0.00     0.275 HD
ENDBRANCH  34  37
ENDBRANCH  31  34
ENDBRANCH  28  30
ENDBRANCH   1  28
TORSDOF 12
ENDMDL
