MODEL 1
REMARK VINA RESULT: -8.515186674      0.000      0.000
REMARK  11 active torsions:
REMARK  status: ('A' for Active; 'I' for Inactive)
REMARK    1  A    between atoms: S1_2  and  N1_5 
REMARK    2  A    between atoms: N1_5  and  C2_7 
REMARK    3  A    between atoms: C5_10  and  C6_11 
REMARK    4  A    between atoms: C6_11  and  C7_12 
REMARK    5  A    between atoms: C7_12  and  N2_13 
REMARK    6  A    between atoms: C7_12  and  C11_23 
REMARK       I    between atoms: N2_13  and  C8_15 
REMARK    7  A    between atoms: C8_15  and  C9_17 
REMARK    8  A    between atoms: C9_17  and  C10_19 
REMARK    9  A    between atoms: C11_23  and  O4_24 
REMARK   10  A    between atoms: C11_23  and  N3_26 
REMARK   11  A    between atoms: C14_29  and  N4_30 
ROOT
HETATM    1  C7  UNL     1     -89.512 -15.002  10.449  1.00  0.00     0.163 C 
ENDROOT
BRANCH   1   2
HETATM    2  C6  UNL     1     -88.196 -15.623  10.150  1.00  0.00     0.072 C 
BRANCH   2   3
HETATM    3  C5  UNL     1     -87.580 -15.006   8.916  1.00  0.00    -0.056 A 
HETATM    4  C4  UNL     1     -86.694 -13.975   9.014  1.00  0.00     0.009 A 
HETATM    5  C3  UNL     1     -86.105 -13.405   7.881  1.00  0.00     0.030 A 
HETATM    6  C2  UNL     1     -86.421 -13.894   6.617  1.00  0.00     0.042 A 
HETATM    7  C23 UNL     1     -87.307 -14.925   6.518  1.00  0.00     0.030 A 
HETATM    8  C22 UNL     1     -87.879 -15.473   7.666  1.00  0.00     0.009 A 
BRANCH   6   9
HETATM    9  N1  UNL     1     -85.770 -13.278   5.498  1.00  0.00    -0.285 N 
ATOM     10  H1  UNL     1     -86.320 -12.627   4.937  1.00  0.00     0.178 HD
BRANCH   9  11
HETATM   11  S1  UNL     1     -84.159 -13.541   5.026  1.00  0.00     0.227 S 
HETATM   12  C1  UNL     1     -83.067 -13.591   6.417  1.00  0.00     0.186 C 
HETATM   13  O1  UNL     1     -84.056 -14.902   4.354  1.00  0.00    -0.206 OA
HETATM   14  O2  UNL     1     -83.666 -12.493   4.062  1.00  0.00    -0.206 OA
ENDBRANCH   9  11
ENDBRANCH   6   9
ENDBRANCH   2   3
ENDBRANCH   1   2
BRANCH   1  15
HETATM   15  N2  UNL     1     -90.604 -15.972  10.561  1.00  0.00    -0.347 N 
HETATM   16  C8  UNL     1     -91.437 -16.220   9.442  1.00  0.00     0.241 C 
HETATM   17  O3  UNL     1     -91.257 -15.625   8.331  1.00  0.00    -0.272 OA
ATOM     18  H2  UNL     1     -90.763 -16.465  11.439  1.00  0.00     0.163 HD
BRANCH  16  19
HETATM   19  C9  UNL     1     -92.568 -17.176   9.489  1.00  0.00     0.257 C 
HETATM   20  S2  UNL     1     -93.288 -17.292  11.128  1.00  0.00    -0.073 SA
BRANCH  19  21
HETATM   21  C10 UNL     1     -92.137 -18.581   9.097  1.00  0.00     0.409 C 
HETATM   22  F1  UNL     1     -92.303 -18.820   7.748  1.00  0.00    -0.169 F 
HETATM   23  F2  UNL     1     -92.906 -19.471   9.829  1.00  0.00    -0.169 F 
HETATM   24  F3  UNL     1     -90.819 -18.806   9.449  1.00  0.00    -0.169 F 
ENDBRANCH  19  21
ENDBRANCH  16  19
ENDBRANCH   1  15
BRANCH   1  25
HETATM   25  C11 UNL     1     -89.506 -14.094  11.589  1.00  0.00     0.137 C 
BRANCH  25  26
HETATM   26  O4  UNL     1     -90.719 -13.618  11.854  1.00  0.00    -0.348 OA
ATOM     27  H4  UNL     1     -91.078 -13.984  12.654  1.00  0.00     0.219 HD
ENDBRANCH  25  26
BRANCH  25  28
HETATM   28  N3  UNL     1     -88.540 -13.617  12.451  1.00  0.00    -0.364 N 
HETATM   29  C12 UNL     1     -88.171 -12.183  12.342  1.00  0.00     0.127 C 
HETATM   30  C13 UNL     1     -86.656 -12.201  12.261  1.00  0.00     0.055 C 
HETATM   31  C14 UNL     1     -86.163 -12.416  13.676  1.00  0.00     0.226 C 
HETATM   32  C20 UNL     1     -87.136 -13.278  14.377  1.00  0.00     0.055 C 
HETATM   33  C21 UNL     1     -87.832 -14.312  13.476  1.00  0.00     0.127 C 
BRANCH  31  34
HETATM   34  N4  UNL     1     -84.822 -12.916  13.611  1.00  0.00     0.093 N 
HETATM   35  C15 UNL     1     -84.197 -12.383  12.420  1.00  0.00     0.273 C 
HETATM   36  C16 UNL     1     -82.812 -11.845  12.645  1.00  0.00     0.030 C 
HETATM   37  C17 UNL     1     -82.770 -10.751  13.665  1.00  0.00     0.003 C 
HETATM   38  C18 UNL     1     -83.752 -11.049  14.796  1.00  0.00     0.030 C 
HETATM   39  C19 UNL     1     -84.007 -12.544  14.744  1.00  0.00     0.273 C 
ENDBRANCH  31  34
ENDBRANCH  25  28
ENDBRANCH   1  25
TORSDOF 11
ENDMDL
MODEL 2
REMARK VINA RESULT: -8.427407762      4.701      7.953
REMARK  11 active torsions:
REMARK  status: ('A' for Active; 'I' for Inactive)
REMARK    1  A    between atoms: S1_2  and  N1_5 
REMARK    2  A    between atoms: N1_5  and  C2_7 
REMARK    3  A    between atoms: C5_10  and  C6_11 
REMARK    4  A    between atoms: C6_11  and  C7_12 
REMARK    5  A    between atoms: C7_12  and  N2_13 
REMARK    6  A    between atoms: C7_12  and  C11_23 
REMARK       I    between atoms: N2_13  and  C8_15 
REMARK    7  A    between atoms: C8_15  and  C9_17 
REMARK    8  A    between atoms: C9_17  and  C10_19 
REMARK    9  A    between atoms: C11_23  and  O4_24 
REMARK   10  A    between atoms: C11_23  and  N3_26 
REMARK   11  A    between atoms: C14_29  and  N4_30 
ROOT
HETATM    1  C7  UNL     1     -87.154 -13.157  13.976  1.00  0.00     0.163 C 
ENDROOT
BRANCH   1   2
HETATM    2  C6  UNL     1     -87.717 -12.356  12.859  1.00  0.00     0.072 C 
BRANCH   2   3
HETATM    3  C5  UNL     1     -87.355 -12.966  11.525  1.00  0.00    -0.056 A 
HETATM    4  C4  UNL     1     -88.274 -13.665  10.800  1.00  0.00     0.009 A 
HETATM    5  C3  UNL     1     -87.957 -14.223   9.557  1.00  0.00     0.030 A 
HETATM    6  C2  UNL     1     -86.677 -14.067   9.036  1.00  0.00     0.042 A 
HETATM    7  C23 UNL     1     -85.757 -13.368   9.760  1.00  0.00     0.030 A 
HETATM    8  C22 UNL     1     -86.102 -12.824  10.997  1.00  0.00     0.009 A 
BRANCH   6   9
HETATM    9  N1  UNL     1     -86.420 -14.647   7.750  1.00  0.00    -0.285 N 
ATOM     10  H1  UNL     1     -86.003 -15.578   7.732  1.00  0.00     0.178 HD
BRANCH   9  11
HETATM   11  S1  UNL     1     -86.753 -13.915   6.253  1.00  0.00     0.227 S 
HETATM   12  C1  UNL     1     -85.334 -13.904   5.197  1.00  0.00     0.186 C 
HETATM   13  O1  UNL     1     -87.816 -14.729   5.530  1.00  0.00    -0.206 OA
HETATM   14  O2  UNL     1     -87.254 -12.502   6.405  1.00  0.00    -0.206 OA
ENDBRANCH   9  11
ENDBRANCH   6   9
ENDBRANCH   2   3
ENDBRANCH   1   2
BRANCH   1  15
HETATM   15  N2  UNL     1     -86.533 -12.343  15.023  1.00  0.00    -0.347 N 
HETATM   16  C8  UNL     1     -85.130 -12.148  15.019  1.00  0.00     0.241 C 
HETATM   17  O3  UNL     1     -84.388 -12.656  14.118  1.00  0.00    -0.272 OA
ATOM     18  H2  UNL     1     -87.108 -11.920  15.752  1.00  0.00     0.163 HD
BRANCH  16  19
HETATM   19  C9  UNL     1     -84.434 -11.349  16.055  1.00  0.00     0.257 C 
HETATM   20  S2  UNL     1     -82.661 -11.300  15.794  1.00  0.00    -0.073 SA
BRANCH  19  21
HETATM   21  C10 UNL     1     -84.659 -11.914  17.449  1.00  0.00     0.409 C 
HETATM   22  F1  UNL     1     -84.757 -13.290  17.446  1.00  0.00    -0.169 F 
HETATM   23  F2  UNL     1     -85.832 -11.361  17.936  1.00  0.00    -0.169 F 
HETATM   24  F3  UNL     1     -83.646 -11.523  18.305  1.00  0.00    -0.169 F 
ENDBRANCH  19  21
ENDBRANCH  16  19
ENDBRANCH   1  15
BRANCH   1  25
HETATM   25  C11 UNL     1     -88.079 -14.124  14.550  1.00  0.00     0.137 C 
BRANCH  25  26
HETATM   26  O4  UNL     1     -87.943 -14.221  15.870  1.00  0.00    -0.348 OA
ATOM     27  H4  UNL     1     -88.767 -14.089  16.323  1.00  0.00     0.219 HD
ENDBRANCH  25  26
BRANCH  25  28
HETATM   28  N3  UNL     1     -89.058 -14.957  14.047  1.00  0.00    -0.364 N 
HETATM   29  C12 UNL     1     -88.672 -16.356  13.733  1.00  0.00     0.127 C 
HETATM   30  C13 UNL     1     -89.181 -16.567  12.320  1.00  0.00     0.055 C 
HETATM   31  C14 UNL     1     -90.671 -16.804  12.441  1.00  0.00     0.226 C 
HETATM   32  C20 UNL     1     -91.174 -16.002  13.575  1.00  0.00     0.055 C 
HETATM   33  C21 UNL     1     -90.432 -14.673  13.790  1.00  0.00     0.127 C 
BRANCH  31  34
HETATM   34  N4  UNL     1     -91.273 -16.531  11.170  1.00  0.00     0.093 N 
HETATM   35  C15 UNL     1     -90.775 -17.498  10.217  1.00  0.00     0.273 C 
HETATM   36  C16 UNL     1     -91.843 -18.110   9.352  1.00  0.00     0.030 C 
HETATM   37  C17 UNL     1     -92.904 -18.808  10.143  1.00  0.00     0.003 C 
HETATM   38  C18 UNL     1     -93.199 -18.034  11.426  1.00  0.00     0.030 C 
HETATM   39  C19 UNL     1     -92.715 -16.617  11.178  1.00  0.00     0.273 C 
ENDBRANCH  31  34
ENDBRANCH  25  28
ENDBRANCH   1  25
TORSDOF 11
ENDMDL
MODEL 3
REMARK VINA RESULT: -8.400564565      1.982      2.451
REMARK  11 active torsions:
REMARK  status: ('A' for Active; 'I' for Inactive)
REMARK    1  A    between atoms: S1_2  and  N1_5 
REMARK    2  A    between atoms: N1_5  and  C2_7 
REMARK    3  A    between atoms: C5_10  and  C6_11 
REMARK    4  A    between atoms: C6_11  and  C7_12 
REMARK    5  A    between atoms: C7_12  and  N2_13 
REMARK    6  A    between atoms: C7_12  and  C11_23 
REMARK       I    between atoms: N2_13  and  C8_15 
REMARK    7  A    between atoms: C8_15  and  C9_17 
REMARK    8  A    between atoms: C9_17  and  C10_19 
REMARK    9  A    between atoms: C11_23  and  O4_24 
REMARK   10  A    between atoms: C11_23  and  N3_26 
REMARK   11  A    between atoms: C14_29  and  N4_30 
ROOT
HETATM    1  C7  UNL     1     -89.289 -14.931  10.518  1.00  0.00     0.163 C 
ENDROOT
BRANCH   1   2
HETATM    2  C6  UNL     1     -88.022 -15.633  10.193  1.00  0.00     0.072 C 
BRANCH   2   3
HETATM    3  C5  UNL     1     -87.366 -15.022   8.976  1.00  0.00    -0.056 A 
HETATM    4  C4  UNL     1     -87.667 -15.462   7.721  1.00  0.00     0.009 A 
HETATM    5  C3  UNL     1     -87.080 -14.896   6.585  1.00  0.00     0.030 A 
HETATM    6  C2  UNL     1     -86.165 -13.857   6.725  1.00  0.00     0.042 A 
HETATM    7  C23 UNL     1     -85.864 -13.416   7.980  1.00  0.00     0.030 A 
HETATM    8  C22 UNL     1     -86.465 -14.001   9.094  1.00  0.00     0.009 A 
BRANCH   6   9
HETATM    9  N1  UNL     1     -85.612 -13.308   5.522  1.00  0.00    -0.285 N 
ATOM     10  H1  UNL     1     -86.228 -12.739   4.941  1.00  0.00     0.178 HD
BRANCH   9  11
HETATM   11  S1  UNL     1     -84.016 -13.527   4.981  1.00  0.00     0.227 S 
HETATM   12  C1  UNL     1     -82.873 -13.628   6.327  1.00  0.00     0.186 C 
HETATM   13  O1  UNL     1     -83.922 -14.853   4.240  1.00  0.00    -0.206 OA
HETATM   14  O2  UNL     1     -83.571 -12.427   4.051  1.00  0.00    -0.206 OA
ENDBRANCH   9  11
ENDBRANCH   6   9
ENDBRANCH   2   3
ENDBRANCH   1   2
BRANCH   1  15
HETATM   15  N2  UNL     1     -90.450 -15.821  10.584  1.00  0.00    -0.347 N 
HETATM   16  C8  UNL     1     -91.237 -16.034   9.425  1.00  0.00     0.241 C 
HETATM   17  O3  UNL     1     -90.957 -15.475   8.317  1.00  0.00    -0.272 OA
ATOM     18  H2  UNL     1     -90.691 -16.286  11.460  1.00  0.00     0.163 HD
BRANCH  16  19
HETATM   19  C9  UNL     1     -92.432 -16.910   9.425  1.00  0.00     0.257 C 
HETATM   20  S2  UNL     1     -93.341 -16.814  10.968  1.00  0.00    -0.073 SA
BRANCH  19  21
HETATM   21  C10 UNL     1     -92.063 -18.370   9.220  1.00  0.00     0.409 C 
HETATM   22  F1  UNL     1     -92.228 -18.773   7.911  1.00  0.00    -0.169 F 
HETATM   23  F2  UNL     1     -92.877 -19.125  10.049  1.00  0.00    -0.169 F 
HETATM   24  F3  UNL     1     -90.759 -18.606   9.617  1.00  0.00    -0.169 F 
ENDBRANCH  19  21
ENDBRANCH  16  19
ENDBRANCH   1  15
BRANCH   1  25
HETATM   25  C11 UNL     1     -89.221 -14.079  11.698  1.00  0.00     0.137 C 
BRANCH  25  26
HETATM   26  O4  UNL     1     -89.259 -12.787  11.382  1.00  0.00    -0.348 OA
ATOM     27  H4  UNL     1     -90.083 -12.544  10.976  1.00  0.00     0.219 HD
ENDBRANCH  25  26
BRANCH  25  28
HETATM   28  N3  UNL     1     -89.127 -14.299  13.057  1.00  0.00    -0.364 N 
HETATM   29  C12 UNL     1     -89.045 -13.108  13.940  1.00  0.00     0.127 C 
HETATM   30  C13 UNL     1     -87.851 -13.397  14.830  1.00  0.00     0.055 C 
HETATM   31  C14 UNL     1     -88.334 -14.377  15.877  1.00  0.00     0.226 C 
HETATM   32  C20 UNL     1     -89.351 -15.249  15.256  1.00  0.00     0.055 C 
HETATM   33  C21 UNL     1     -89.115 -15.537  13.765  1.00  0.00     0.127 C 
BRANCH  31  34
HETATM   34  N4  UNL     1     -87.193 -15.045  16.427  1.00  0.00     0.093 N 
HETATM   35  C15 UNL     1     -86.003 -14.460  15.847  1.00  0.00     0.273 C 
HETATM   36  C16 UNL     1     -84.924 -14.150  16.847  1.00  0.00     0.030 C 
HETATM   37  C17 UNL     1     -85.376 -13.208  17.918  1.00  0.00     0.003 C 
HETATM   38  C18 UNL     1     -86.823 -13.505  18.304  1.00  0.00     0.030 C 
HETATM   39  C19 UNL     1     -87.087 -14.933  17.863  1.00  0.00     0.273 C 
ENDBRANCH  31  34
ENDBRANCH  25  28
ENDBRANCH   1  25
TORSDOF 11
ENDMDL
MODEL 4
REMARK VINA RESULT: -8.336383089      4.145      7.399
REMARK  11 active torsions:
REMARK  status: ('A' for Active; 'I' for Inactive)
REMARK    1  A    between atoms: S1_2  and  N1_5 
REMARK    2  A    between atoms: N1_5  and  C2_7 
REMARK    3  A    between atoms: C5_10  and  C6_11 
REMARK    4  A    between atoms: C6_11  and  C7_12 
REMARK    5  A    between atoms: C7_12  and  N2_13 
REMARK    6  A    between atoms: C7_12  and  C11_23 
REMARK       I    between atoms: N2_13  and  C8_15 
REMARK    7  A    between atoms: C8_15  and  C9_17 
REMARK    8  A    between atoms: C9_17  and  C10_19 
REMARK    9  A    between atoms: C11_23  and  O4_24 
REMARK   10  A    between atoms: C11_23  and  N3_26 
REMARK   11  A    between atoms: C14_29  and  N4_30 
ROOT
HETATM    1  C7  UNL     1     -86.738 -13.892  15.327  1.00  0.00     0.163 C 
ENDROOT
BRANCH   1   2
HETATM    2  C6  UNL     1     -88.124 -13.642  15.801  1.00  0.00     0.072 C 
BRANCH   2   3
HETATM    3  C5  UNL     1     -89.131 -14.284  14.876  1.00  0.00    -0.056 A 
HETATM    4  C4  UNL     1     -89.710 -15.478  15.188  1.00  0.00     0.009 A 
HETATM    5  C3  UNL     1     -90.655 -16.076  14.348  1.00  0.00     0.030 A 
HETATM    6  C2  UNL     1     -91.024 -15.447  13.164  1.00  0.00     0.042 A 
HETATM    7  C23 UNL     1     -90.445 -14.251  12.851  1.00  0.00     0.030 A 
HETATM    8  C22 UNL     1     -89.505 -13.680  13.708  1.00  0.00     0.009 A 
BRANCH   6   9
HETATM    9  N1  UNL     1     -92.010 -16.102  12.355  1.00  0.00    -0.285 N 
ATOM     10  H1  UNL     1     -92.146 -17.102  12.503  1.00  0.00     0.178 HD
BRANCH   9  11
HETATM   11  S1  UNL     1     -92.972 -15.354  11.171  1.00  0.00     0.227 S 
HETATM   12  C1  UNL     1     -92.019 -14.861   9.765  1.00  0.00     0.186 C 
HETATM   13  O1  UNL     1     -93.998 -16.356  10.662  1.00  0.00    -0.206 OA
HETATM   14  O2  UNL     1     -93.704 -14.150  11.706  1.00  0.00    -0.206 OA
ENDBRANCH   9  11
ENDBRANCH   6   9
ENDBRANCH   2   3
ENDBRANCH   1   2
BRANCH   1  15
HETATM   15  N2  UNL     1     -86.544 -15.231  14.768  1.00  0.00    -0.347 N 
HETATM   16  C8  UNL     1     -86.192 -16.303  15.625  1.00  0.00     0.241 C 
HETATM   17  O3  UNL     1     -86.047 -16.136  16.878  1.00  0.00    -0.272 OA
ATOM     18  H2  UNL     1     -86.661 -15.391  13.767  1.00  0.00     0.163 HD
BRANCH  16  19
HETATM   19  C9  UNL     1     -85.966 -17.680  15.125  1.00  0.00     0.257 C 
HETATM   20  S2  UNL     1     -85.002 -17.700  13.613  1.00  0.00    -0.073 SA
BRANCH  19  21
HETATM   21  C10 UNL     1     -87.275 -18.393  14.823  1.00  0.00     0.409 C 
HETATM   22  F1  UNL     1     -88.137 -18.380  15.900  1.00  0.00    -0.169 F 
HETATM   23  F2  UNL     1     -86.966 -19.701  14.485  1.00  0.00    -0.169 F 
HETATM   24  F3  UNL     1     -87.897 -17.831  13.723  1.00  0.00    -0.169 F 
ENDBRANCH  19  21
ENDBRANCH  16  19
ENDBRANCH   1  15
BRANCH   1  25
HETATM   25  C11 UNL     1     -86.217 -12.872  14.426  1.00  0.00     0.137 C 
BRANCH  25  26
HETATM   26  O4  UNL     1     -86.100 -11.691  15.024  1.00  0.00    -0.348 OA
ATOM     27  H4  UNL     1     -85.231 -11.321  14.914  1.00  0.00     0.219 HD
ENDBRANCH  25  26
BRANCH  25  28
HETATM   28  N3  UNL     1     -85.820 -12.849  13.104  1.00  0.00    -0.364 N 
HETATM   29  C12 UNL     1     -86.689 -12.129  12.140  1.00  0.00     0.127 C 
HETATM   30  C13 UNL     1     -86.888 -13.126  11.013  1.00  0.00     0.055 C 
HETATM   31  C14 UNL     1     -85.619 -13.089  10.190  1.00  0.00     0.226 C 
HETATM   32  C20 UNL     1     -84.487 -12.823  11.100  1.00  0.00     0.055 C 
HETATM   33  C21 UNL     1     -84.653 -13.416  12.509  1.00  0.00     0.127 C 
BRANCH  31  34
HETATM   34  N4  UNL     1     -85.539 -14.303   9.435  1.00  0.00     0.093 N 
HETATM   35  C15 UNL     1     -86.851 -14.912   9.416  1.00  0.00     0.273 C 
HETATM   36  C16 UNL     1     -87.283 -15.392   8.058  1.00  0.00     0.030 C 
HETATM   37  C17 UNL     1     -87.311 -14.300   7.035  1.00  0.00     0.003 C 
HETATM   38  C18 UNL     1     -86.145 -13.340   7.258  1.00  0.00     0.030 C 
HETATM   39  C19 UNL     1     -85.118 -14.112   8.067  1.00  0.00     0.273 C 
ENDBRANCH  31  34
ENDBRANCH  25  28
ENDBRANCH   1  25
TORSDOF 11
ENDMDL
MODEL 5
REMARK VINA RESULT: -8.258079788      1.127      1.938
REMARK  11 active torsions:
REMARK  status: ('A' for Active; 'I' for Inactive)
REMARK    1  A    between atoms: S1_2  and  N1_5 
REMARK    2  A    between atoms: N1_5  and  C2_7 
REMARK    3  A    between atoms: C5_10  and  C6_11 
REMARK    4  A    between atoms: C6_11  and  C7_12 
REMARK    5  A    between atoms: C7_12  and  N2_13 
REMARK    6  A    between atoms: C7_12  and  C11_23 
REMARK       I    between atoms: N2_13  and  C8_15 
REMARK    7  A    between atoms: C8_15  and  C9_17 
REMARK    8  A    between atoms: C9_17  and  C10_19 
REMARK    9  A    between atoms: C11_23  and  O4_24 
REMARK   10  A    between atoms: C11_23  and  N3_26 
REMARK   11  A    between atoms: C14_29  and  N4_30 
ROOT
HETATM    1  C7  UNL     1     -89.040 -14.738  10.318  1.00  0.00     0.163 C 
ENDROOT
BRANCH   1   2
HETATM    2  C6  UNL     1     -87.879 -15.550   9.872  1.00  0.00     0.072 C 
BRANCH   2   3
HETATM    3  C5  UNL     1     -87.234 -14.938   8.650  1.00  0.00    -0.056 A 
HETATM    4  C4  UNL     1     -86.213 -14.043   8.770  1.00  0.00     0.009 A 
HETATM    5  C3  UNL     1     -85.597 -13.479   7.648  1.00  0.00     0.030 A 
HETATM    6  C2  UNL     1     -86.025 -13.835   6.373  1.00  0.00     0.042 A 
HETATM    7  C23 UNL     1     -87.046 -14.731   6.252  1.00  0.00     0.030 A 
HETATM    8  C22 UNL     1     -87.642 -15.275   7.390  1.00  0.00     0.009 A 
BRANCH   6   9
HETATM    9  N1  UNL     1     -85.341 -13.236   5.264  1.00  0.00    -0.285 N 
ATOM     10  H1  UNL     1     -85.881 -12.614   4.662  1.00  0.00     0.178 HD
BRANCH   9  11
HETATM   11  S1  UNL     1     -83.706 -13.476   4.867  1.00  0.00     0.227 S 
HETATM   12  C1  UNL     1     -82.714 -13.749   6.305  1.00  0.00     0.186 C 
HETATM   13  O1  UNL     1     -83.583 -14.733   4.018  1.00  0.00    -0.206 OA
HETATM   14  O2  UNL     1     -83.129 -12.319   4.093  1.00  0.00    -0.206 OA
ENDBRANCH   9  11
ENDBRANCH   6   9
ENDBRANCH   2   3
ENDBRANCH   1   2
BRANCH   1  15
HETATM   15  N2  UNL     1     -90.255 -15.526  10.536  1.00  0.00    -0.347 N 
HETATM   16  C8  UNL     1     -91.095 -15.837   9.437  1.00  0.00     0.241 C 
HETATM   17  O3  UNL     1     -90.816 -15.455   8.256  1.00  0.00    -0.272 OA
ATOM     18  H2  UNL     1     -90.496 -15.849  11.473  1.00  0.00     0.163 HD
BRANCH  16  19
HETATM   19  C9  UNL     1     -92.345 -16.617   9.588  1.00  0.00     0.257 C 
HETATM   20  S2  UNL     1     -93.160 -16.293  11.152  1.00  0.00    -0.073 SA
BRANCH  19  21
HETATM   21  C10 UNL     1     -92.088 -18.114   9.526  1.00  0.00     0.409 C 
HETATM   22  F1  UNL     1     -90.902 -18.466  10.136  1.00  0.00    -0.169 F 
HETATM   23  F2  UNL     1     -92.053 -18.475   8.189  1.00  0.00    -0.169 F 
HETATM   24  F3  UNL     1     -93.132 -18.815  10.102  1.00  0.00    -0.169 F 
ENDBRANCH  19  21
ENDBRANCH  16  19
ENDBRANCH   1  15
BRANCH   1  25
HETATM   25  C11 UNL     1     -88.770 -13.875  11.460  1.00  0.00     0.137 C 
BRANCH  25  26
HETATM   26  O4  UNL     1     -89.858 -13.225  11.863  1.00  0.00    -0.348 OA
ATOM     27  H4  UNL     1     -89.664 -12.331  12.118  1.00  0.00     0.219 HD
ENDBRANCH  25  26
BRANCH  25  28
HETATM   28  N3  UNL     1     -87.654 -13.578  12.217  1.00  0.00    -0.364 N 
HETATM   29  C12 UNL     1     -87.189 -14.604  13.184  1.00  0.00     0.127 C 
HETATM   30  C13 UNL     1     -87.031 -13.835  14.483  1.00  0.00     0.055 C 
HETATM   31  C14 UNL     1     -85.727 -13.077  14.367  1.00  0.00     0.226 C 
HETATM   32  C20 UNL     1     -85.539 -12.697  12.952  1.00  0.00     0.055 C 
HETATM   33  C21 UNL     1     -86.845 -12.404  12.195  1.00  0.00     0.127 C 
BRANCH  31  34
HETATM   34  N4  UNL     1     -85.753 -11.995  15.304  1.00  0.00     0.093 N 
HETATM   35  C15 UNL     1     -86.118 -12.526  16.599  1.00  0.00     0.273 C 
HETATM   36  C16 UNL     1     -85.259 -12.029  17.729  1.00  0.00     0.030 C 
HETATM   37  C17 UNL     1     -83.809 -12.345  17.540  1.00  0.00     0.003 C 
HETATM   38  C18 UNL     1     -83.427 -12.207  16.068  1.00  0.00     0.030 C 
HETATM   39  C19 UNL     1     -84.486 -11.315  15.445  1.00  0.00     0.273 C 
ENDBRANCH  31  34
ENDBRANCH  25  28
ENDBRANCH   1  25
TORSDOF 11
ENDMDL
