MODEL 1
REMARK VINA RESULT: -8.346928333      0.000      0.000
REMARK  11 active torsions:
REMARK  status: ('A' for Active; 'I' for Inactive)
REMARK    1  A    between atoms: C4_4  and  C5_5 
REMARK    2  A    between atoms: C5_5  and  C6_6 
REMARK    3  A    between atoms: C5_5  and  C7_8 
REMARK    4  A    between atoms: C7_8  and  C9_10 
REMARK    5  A    between atoms: C9_10  and  O2_12 
REMARK    6  A    between atoms: O2_12  and  C10_13 
REMARK    7  A    between atoms: C14_17  and  O3_18 
REMARK    8  A    between atoms: O3_18  and  C15_19 
REMARK    9  A    between atoms: C19_23  and  O4_24 
REMARK   10  A    between atoms: C20_26  and  O5_27 
REMARK   11  A    between atoms: C21_29  and  O6_30 
ROOT
HETATM    1  C10 UNL     1     -69.738 -14.723  50.577  1.00  0.00     0.067 C 
HETATM    2  C11 UNL     1     -69.581 -16.175  50.168  1.00  0.00     0.047 C 
HETATM    3  C12 UNL     1     -68.497 -14.012  50.013  1.00  0.00     0.041 C 
HETATM    4  C13 UNL     1     -68.709 -12.532  50.363  1.00  0.00     0.035 C 
HETATM    5  C14 UNL     1     -68.546 -12.441  51.871  1.00  0.00     0.122 C 
HETATM    6  C22 UNL     1     -69.645 -13.213  52.573  1.00  0.00     0.035 C 
HETATM    7  C23 UNL     1     -69.740 -14.633  52.073  1.00  0.00     0.041 C 
ENDROOT
BRANCH   1   8
HETATM    8  O2  UNL     1     -70.836 -14.104  49.958  1.00  0.00    -0.310 OA
BRANCH   8   9
HETATM    9  C9  UNL     1     -72.027 -14.689  49.638  1.00  0.00     0.264 C 
HETATM   10  O1  UNL     1     -72.596 -15.391  50.514  1.00  0.00    -0.265 OA
BRANCH   9  11
HETATM   11  C7  UNL     1     -72.637 -14.495  48.282  1.00  0.00     0.089 C 
HETATM   12  C8  UNL     1     -74.089 -14.243  48.437  1.00  0.00     0.021 C 
BRANCH  11  13
HETATM   13  C5  UNL     1     -72.209 -15.523  47.313  1.00  0.00     0.042 C 
BRANCH  13  14
HETATM   14  C4  UNL     1     -71.171 -15.209  46.328  1.00  0.00     0.142 C 
HETATM   15  C3  UNL     1     -69.801 -14.900  46.804  1.00  0.00     0.077 C 
HETATM   16  C2  UNL     1     -69.181 -14.155  45.647  1.00  0.00     0.010 C 
HETATM   17  C1  UNL     1     -67.903 -13.848  45.540  1.00  0.00     0.025 C 
HETATM   18  C24 UNL     1     -70.299 -13.889  44.752  1.00  0.00     0.289 C 
HETATM   19  O7  UNL     1     -71.495 -14.157  45.436  1.00  0.00    -0.311 OA
HETATM   20  O8  UNL     1     -70.150 -13.483  43.562  1.00  0.00    -0.260 OA
ENDBRANCH  13  14
BRANCH  13  21
HETATM   21  C6  UNL     1     -71.890 -16.868  47.974  1.00  0.00     0.122 C 
HETATM   22 CL1  UNL     1     -71.914 -18.170  46.739  1.00  0.00    -0.130 Cl
ENDBRANCH  13  21
ENDBRANCH  11  13
ENDBRANCH   9  11
ENDBRANCH   8   9
ENDBRANCH   1   8
BRANCH   5  23
HETATM   23  O3  UNL     1     -67.297 -12.946  52.178  1.00  0.00    -0.374 OA
BRANCH  23  24
HETATM   24  C15 UNL     1     -66.295 -11.982  52.157  1.00  0.00     0.176 C 
HETATM   25  C16 UNL     1     -65.901 -11.725  53.569  1.00  0.00     0.012 C 
HETATM   26  C17 UNL     1     -64.730 -11.188  53.898  1.00  0.00    -0.054 C 
HETATM   27  C18 UNL     1     -64.367 -10.945  55.300  1.00  0.00     0.046 C 
HETATM   28  C19 UNL     1     -63.817 -10.848  52.771  1.00  0.00     0.178 C 
HETATM   29  C20 UNL     1     -63.803 -12.003  51.792  1.00  0.00     0.182 C 
HETATM   30  C21 UNL     1     -65.155 -12.357  51.269  1.00  0.00     0.182 C 
BRANCH  28  31
HETATM   31  O4  UNL     1     -64.258  -9.668  52.204  1.00  0.00    -0.389 OA
ATOM     32  H4  UNL     1     -63.966  -8.950  52.753  1.00  0.00     0.210 HD
ENDBRANCH  28  31
BRANCH  29  33
HETATM   33  O5  UNL     1     -63.217 -13.084  52.450  1.00  0.00    -0.390 OA
ATOM     34  H5  UNL     1     -62.537 -13.420  51.878  1.00  0.00     0.210 HD
ENDBRANCH  29  33
BRANCH  30  35
HETATM   35  O6  UNL     1     -65.286 -11.831  49.982  1.00  0.00    -0.390 OA
ATOM     36  H6  UNL     1     -64.482 -11.894  49.481  1.00  0.00     0.210 HD
ENDBRANCH  30  35
ENDBRANCH  23  24
ENDBRANCH   5  23
TORSDOF 11
ENDMDL
MODEL 2
REMARK VINA RESULT: -8.278659110      3.095      7.908
REMARK  11 active torsions:
REMARK  status: ('A' for Active; 'I' for Inactive)
REMARK    1  A    between atoms: C4_4  and  C5_5 
REMARK    2  A    between atoms: C5_5  and  C6_6 
REMARK    3  A    between atoms: C5_5  and  C7_8 
REMARK    4  A    between atoms: C7_8  and  C9_10 
REMARK    5  A    between atoms: C9_10  and  O2_12 
REMARK    6  A    between atoms: O2_12  and  C10_13 
REMARK    7  A    between atoms: C14_17  and  O3_18 
REMARK    8  A    between atoms: O3_18  and  C15_19 
REMARK    9  A    between atoms: C19_23  and  O4_24 
REMARK   10  A    between atoms: C20_26  and  O5_27 
REMARK   11  A    between atoms: C21_29  and  O6_30 
ROOT
HETATM    1  C10 UNL     1     -68.627 -13.611  53.205  1.00  0.00     0.067 C 
HETATM    2  C11 UNL     1     -68.970 -13.493  54.677  1.00  0.00     0.047 C 
HETATM    3  C12 UNL     1     -69.875 -13.109  52.460  1.00  0.00     0.041 C 
HETATM    4  C13 UNL     1     -69.484 -13.158  50.977  1.00  0.00     0.035 C 
HETATM    5  C14 UNL     1     -69.402 -14.634  50.624  1.00  0.00     0.122 C 
HETATM    6  C22 UNL     1     -68.277 -15.301  51.390  1.00  0.00     0.035 C 
HETATM    7  C23 UNL     1     -68.383 -15.053  52.874  1.00  0.00     0.041 C 
ENDROOT
BRANCH   1   8
HETATM    8  O2  UNL     1     -67.590 -12.746  52.821  1.00  0.00    -0.310 OA
BRANCH   8   9
HETATM    9  C9  UNL     1     -66.308 -12.751  53.291  1.00  0.00     0.264 C 
HETATM   10  O1  UNL     1     -66.059 -12.101  54.339  1.00  0.00    -0.265 OA
BRANCH   9  11
HETATM   11  C7  UNL     1     -65.232 -13.512  52.575  1.00  0.00     0.089 C 
HETATM   12  C8  UNL     1     -64.238 -13.988  53.565  1.00  0.00     0.021 C 
BRANCH  11  13
HETATM   13  C5  UNL     1     -64.738 -12.808  51.375  1.00  0.00     0.042 C 
BRANCH  13  14
HETATM   14  C4  UNL     1     -65.090 -13.304  50.043  1.00  0.00     0.142 C 
HETATM   15  C3  UNL     1     -66.307 -12.777  49.380  1.00  0.00     0.077 C 
HETATM   16  C2  UNL     1     -66.629 -13.824  48.341  1.00  0.00     0.010 C 
HETATM   17  C1  UNL     1     -67.521 -13.690  47.379  1.00  0.00     0.025 C 
HETATM   18  C24 UNL     1     -65.749 -14.938  48.670  1.00  0.00     0.289 C 
HETATM   19  O7  UNL     1     -65.198 -14.713  49.941  1.00  0.00    -0.311 OA
HETATM   20  O8  UNL     1     -65.557 -15.919  47.893  1.00  0.00    -0.260 OA
ENDBRANCH  13  14
BRANCH  13  21
HETATM   21  C6  UNL     1     -64.977 -11.296  51.432  1.00  0.00     0.122 C 
HETATM   22 CL1  UNL     1     -63.616 -10.501  52.291  1.00  0.00    -0.130 Cl
ENDBRANCH  13  21
ENDBRANCH  11  13
ENDBRANCH   9  11
ENDBRANCH   8   9
ENDBRANCH   1   8
BRANCH   5  23
HETATM   23  O3  UNL     1     -70.625 -15.195  50.930  1.00  0.00    -0.374 OA
BRANCH  23  24
HETATM   24  C15 UNL     1     -71.538 -15.128  49.882  1.00  0.00     0.176 C 
HETATM   25  C16 UNL     1     -71.205 -16.226  48.935  1.00  0.00     0.012 C 
HETATM   26  C17 UNL     1     -72.083 -16.708  48.061  1.00  0.00    -0.054 C 
HETATM   27  C18 UNL     1     -71.727 -17.793  47.138  1.00  0.00     0.046 C 
HETATM   28  C19 UNL     1     -73.438 -16.086  48.072  1.00  0.00     0.178 C 
HETATM   29  C20 UNL     1     -73.893 -15.939  49.509  1.00  0.00     0.182 C 
HETATM   30  C21 UNL     1     -72.954 -15.142  50.352  1.00  0.00     0.182 C 
BRANCH  28  31
HETATM   31  O4  UNL     1     -73.359 -14.878  47.407  1.00  0.00    -0.389 OA
ATOM     32  H4  UNL     1     -74.160 -14.397  47.576  1.00  0.00     0.210 HD
ENDBRANCH  28  31
BRANCH  29  33
HETATM   33  O5  UNL     1     -74.056 -17.229  50.016  1.00  0.00    -0.390 OA
ATOM     34  H5  UNL     1     -74.231 -17.140  50.945  1.00  0.00     0.210 HD
ENDBRANCH  29  33
BRANCH  30  35
HETATM   35  O6  UNL     1     -73.479 -13.858  50.508  1.00  0.00    -0.390 OA
ATOM     36  H6  UNL     1     -74.414 -13.865  50.674  1.00  0.00     0.210 HD
ENDBRANCH  30  35
ENDBRANCH  23  24
ENDBRANCH   5  23
TORSDOF 11
ENDMDL
MODEL 3
REMARK VINA RESULT: -8.262802196      1.405      1.863
REMARK  11 active torsions:
REMARK  status: ('A' for Active; 'I' for Inactive)
REMARK    1  A    between atoms: C4_4  and  C5_5 
REMARK    2  A    between atoms: C5_5  and  C6_6 
REMARK    3  A    between atoms: C5_5  and  C7_8 
REMARK    4  A    between atoms: C7_8  and  C9_10 
REMARK    5  A    between atoms: C9_10  and  O2_12 
REMARK    6  A    between atoms: O2_12  and  C10_13 
REMARK    7  A    between atoms: C14_17  and  O3_18 
REMARK    8  A    between atoms: O3_18  and  C15_19 
REMARK    9  A    between atoms: C19_23  and  O4_24 
REMARK   10  A    between atoms: C20_26  and  O5_27 
REMARK   11  A    between atoms: C21_29  and  O6_30 
ROOT
HETATM    1  C10 UNL     1     -69.838 -14.423  51.141  1.00  0.00     0.067 C 
HETATM    2  C11 UNL     1     -70.634 -14.372  52.430  1.00  0.00     0.047 C 
HETATM    3  C12 UNL     1     -68.520 -15.123  51.511  1.00  0.00     0.041 C 
HETATM    4  C13 UNL     1     -67.760 -15.240  50.183  1.00  0.00     0.035 C 
HETATM    5  C14 UNL     1     -67.347 -13.823  49.821  1.00  0.00     0.122 C 
HETATM    6  C22 UNL     1     -68.568 -12.968  49.547  1.00  0.00     0.035 C 
HETATM    7  C23 UNL     1     -69.559 -13.024  50.683  1.00  0.00     0.041 C 
ENDROOT
BRANCH   1   8
HETATM    8  O2  UNL     1     -70.436 -15.243  50.170  1.00  0.00    -0.310 OA
BRANCH   8   9
HETATM    9  C9  UNL     1     -71.709 -15.141  49.690  1.00  0.00     0.264 C 
HETATM   10  O1  UNL     1     -72.654 -15.507  50.437  1.00  0.00    -0.265 OA
BRANCH   9  11
HETATM   11  C7  UNL     1     -71.970 -14.608  48.313  1.00  0.00     0.089 C 
HETATM   12  C8  UNL     1     -73.337 -14.038  48.268  1.00  0.00     0.021 C 
BRANCH  11  13
HETATM   13  C5  UNL     1     -71.575 -15.554  47.251  1.00  0.00     0.042 C 
BRANCH  13  14
HETATM   14  C4  UNL     1     -70.538 -15.177  46.289  1.00  0.00     0.142 C 
HETATM   15  C3  UNL     1     -69.201 -14.779  46.794  1.00  0.00     0.077 C 
HETATM   16  C2  UNL     1     -68.604 -13.998  45.648  1.00  0.00     0.010 C 
HETATM   17  C1  UNL     1     -67.347 -13.610  45.567  1.00  0.00     0.025 C 
HETATM   18  C24 UNL     1     -69.717 -13.808  44.727  1.00  0.00     0.289 C 
HETATM   19  O7  UNL     1     -70.908 -14.150  45.385  1.00  0.00    -0.311 OA
HETATM   20  O8  UNL     1     -69.567 -13.396  43.538  1.00  0.00    -0.260 OA
ENDBRANCH  13  14
BRANCH  13  21
HETATM   21  C6  UNL     1     -71.284 -16.960  47.785  1.00  0.00     0.122 C 
HETATM   22 CL1  UNL     1     -72.044 -18.183  46.715  1.00  0.00    -0.130 Cl
ENDBRANCH  13  21
ENDBRANCH  11  13
ENDBRANCH   9  11
ENDBRANCH   8   9
ENDBRANCH   1   8
BRANCH   5  23
HETATM   23  O3  UNL     1     -66.611 -13.330  50.880  1.00  0.00    -0.374 OA
BRANCH  23  24
HETATM   24  C15 UNL     1     -65.363 -12.845  50.502  1.00  0.00     0.176 C 
HETATM   25  C16 UNL     1     -65.089 -11.639  51.329  1.00  0.00     0.012 C 
HETATM   26  C17 UNL     1     -63.860 -11.172  51.528  1.00  0.00    -0.054 C 
HETATM   27  C18 UNL     1     -63.619  -9.978  52.349  1.00  0.00     0.046 C 
HETATM   28  C19 UNL     1     -62.752 -11.922  50.872  1.00  0.00     0.178 C 
HETATM   29  C20 UNL     1     -62.978 -13.404  51.085  1.00  0.00     0.182 C 
HETATM   30  C21 UNL     1     -64.296 -13.885  50.577  1.00  0.00     0.182 C 
BRANCH  28  31
HETATM   31  O4  UNL     1     -62.728 -11.568  49.537  1.00  0.00    -0.389 OA
ATOM     32  H4  UNL     1     -61.969 -11.977  49.138  1.00  0.00     0.210 HD
ENDBRANCH  28  31
BRANCH  29  33
HETATM   33  O5  UNL     1     -62.846 -13.642  52.453  1.00  0.00    -0.390 OA
ATOM     34  H5  UNL     1     -63.665 -14.023  52.747  1.00  0.00     0.210 HD
ENDBRANCH  29  33
BRANCH  30  35
HETATM   35  O6  UNL     1     -64.092 -14.531  49.355  1.00  0.00    -0.390 OA
ATOM     36  H6  UNL     1     -64.007 -15.472  49.451  1.00  0.00     0.210 HD
ENDBRANCH  30  35
ENDBRANCH  23  24
ENDBRANCH   5  23
TORSDOF 11
ENDMDL
MODEL 4
REMARK VINA RESULT: -8.236159154      3.283      7.616
REMARK  11 active torsions:
REMARK  status: ('A' for Active; 'I' for Inactive)
REMARK    1  A    between atoms: C4_4  and  C5_5 
REMARK    2  A    between atoms: C5_5  and  C6_6 
REMARK    3  A    between atoms: C5_5  and  C7_8 
REMARK    4  A    between atoms: C7_8  and  C9_10 
REMARK    5  A    between atoms: C9_10  and  O2_12 
REMARK    6  A    between atoms: O2_12  and  C10_13 
REMARK    7  A    between atoms: C14_17  and  O3_18 
REMARK    8  A    between atoms: O3_18  and  C15_19 
REMARK    9  A    between atoms: C19_23  and  O4_24 
REMARK   10  A    between atoms: C20_26  and  O5_27 
REMARK   11  A    between atoms: C21_29  and  O6_30 
ROOT
HETATM    1  C10 UNL     1     -67.157 -14.740  50.018  1.00  0.00     0.067 C 
HETATM    2  C11 UNL     1     -66.253 -15.736  49.320  1.00  0.00     0.047 C 
HETATM    3  C12 UNL     1     -67.789 -15.519  51.183  1.00  0.00     0.041 C 
HETATM    4  C13 UNL     1     -68.637 -14.479  51.927  1.00  0.00     0.035 C 
HETATM    5  C14 UNL     1     -69.803 -14.165  51.005  1.00  0.00     0.122 C 
HETATM    6  C22 UNL     1     -69.312 -13.495  49.737  1.00  0.00     0.035 C 
HETATM    7  C23 UNL     1     -68.224 -14.295  49.065  1.00  0.00     0.041 C 
ENDROOT
BRANCH   1   8
HETATM    8  O2  UNL     1     -66.442 -13.690  50.617  1.00  0.00    -0.310 OA
BRANCH   8   9
HETATM    9  C9  UNL     1     -65.176 -13.284  50.306  1.00  0.00     0.264 C 
HETATM   10  O1  UNL     1     -64.223 -13.742  50.990  1.00  0.00    -0.265 OA
BRANCH   9  11
HETATM   11  C7  UNL     1     -64.933 -12.322  49.182  1.00  0.00     0.089 C 
HETATM   12  C8  UNL     1     -66.101 -11.420  49.059  1.00  0.00     0.021 C 
BRANCH  11  13
HETATM   13  C5  UNL     1     -64.435 -12.986  47.961  1.00  0.00     0.042 C 
BRANCH  13  14
HETATM   14  C4  UNL     1     -65.079 -12.722  46.673  1.00  0.00     0.142 C 
HETATM   15  C3  UNL     1     -66.470 -13.189  46.459  1.00  0.00     0.077 C 
HETATM   16  C2  UNL     1     -66.608 -13.220  44.955  1.00  0.00     0.010 C 
HETATM   17  C1  UNL     1     -67.740 -13.390  44.300  1.00  0.00     0.025 C 
HETATM   18  C24 UNL     1     -65.250 -13.026  44.467  1.00  0.00     0.289 C 
HETATM   19  O7  UNL     1     -64.360 -13.181  45.542  1.00  0.00    -0.311 OA
HETATM   20  O8  UNL     1     -64.981 -12.763  43.258  1.00  0.00    -0.260 OA
ENDBRANCH  13  14
BRANCH  13  21
HETATM   21  C6  UNL     1     -62.915 -12.872  47.800  1.00  0.00     0.122 C 
HETATM   22 CL1  UNL     1     -62.413 -11.161  48.001  1.00  0.00    -0.130 Cl
ENDBRANCH  13  21
ENDBRANCH  11  13
ENDBRANCH   9  11
ENDBRANCH   8   9
ENDBRANCH   1   8
BRANCH   5  23
HETATM   23  O3  UNL     1     -70.441 -15.359  50.732  1.00  0.00    -0.374 OA
BRANCH  23  24
HETATM   24  C15 UNL     1     -71.432 -15.244  49.763  1.00  0.00     0.176 C 
HETATM   25  C16 UNL     1     -71.211 -16.334  48.774  1.00  0.00     0.012 C 
HETATM   26  C17 UNL     1     -72.172 -16.771  47.967  1.00  0.00    -0.054 C 
HETATM   27  C18 UNL     1     -71.927 -17.849  46.999  1.00  0.00     0.046 C 
HETATM   28  C19 UNL     1     -73.501 -16.109  48.097  1.00  0.00     0.178 C 
HETATM   29  C20 UNL     1     -73.834 -15.975  49.568  1.00  0.00     0.182 C 
HETATM   30  C21 UNL     1     -72.806 -15.224  50.346  1.00  0.00     0.182 C 
BRANCH  28  31
HETATM   31  O4  UNL     1     -73.437 -14.891  47.448  1.00  0.00    -0.389 OA
ATOM     32  H4  UNL     1     -73.205 -14.229  48.088  1.00  0.00     0.210 HD
ENDBRANCH  28  31
BRANCH  29  33
HETATM   33  O5  UNL     1     -73.998 -17.268  50.065  1.00  0.00    -0.390 OA
ATOM     34  H5  UNL     1     -74.842 -17.292  50.499  1.00  0.00     0.210 HD
ENDBRANCH  29  33
BRANCH  30  35
HETATM   35  O6  UNL     1     -73.274 -13.927  50.564  1.00  0.00    -0.390 OA
ATOM     36  H6  UNL     1     -74.199 -13.906  50.781  1.00  0.00     0.210 HD
ENDBRANCH  30  35
ENDBRANCH  23  24
ENDBRANCH   5  23
TORSDOF 11
ENDMDL
MODEL 5
REMARK VINA RESULT: -8.205041951      1.294      2.419
REMARK  11 active torsions:
REMARK  status: ('A' for Active; 'I' for Inactive)
REMARK    1  A    between atoms: C4_4  and  C5_5 
REMARK    2  A    between atoms: C5_5  and  C6_6 
REMARK    3  A    between atoms: C5_5  and  C7_8 
REMARK    4  A    between atoms: C7_8  and  C9_10 
REMARK    5  A    between atoms: C9_10  and  O2_12 
REMARK    6  A    between atoms: O2_12  and  C10_13 
REMARK    7  A    between atoms: C14_17  and  O3_18 
REMARK    8  A    between atoms: O3_18  and  C15_19 
REMARK    9  A    between atoms: C19_23  and  O4_24 
REMARK   10  A    between atoms: C20_26  and  O5_27 
REMARK   11  A    between atoms: C21_29  and  O6_30 
ROOT
HETATM    1  C10 UNL     1     -70.479 -14.620  51.281  1.00  0.00     0.067 C 
HETATM    2  C11 UNL     1     -71.459 -14.439  52.423  1.00  0.00     0.047 C 
HETATM    3  C12 UNL     1     -69.247 -15.289  51.912  1.00  0.00     0.041 C 
HETATM    4  C13 UNL     1     -68.298 -15.540  50.732  1.00  0.00     0.035 C 
HETATM    5  C14 UNL     1     -67.806 -14.167  50.305  1.00  0.00     0.122 C 
HETATM    6  C22 UNL     1     -68.953 -13.334  49.767  1.00  0.00     0.035 C 
HETATM    7  C23 UNL     1     -70.105 -13.274  50.739  1.00  0.00     0.041 C 
ENDROOT
BRANCH   1   8
HETATM    8  O2  UNL     1     -70.940 -15.526  50.312  1.00  0.00    -0.310 OA
BRANCH   8   9
HETATM    9  C9  UNL     1     -72.105 -15.441  49.606  1.00  0.00     0.264 C 
HETATM   10  O1  UNL     1     -73.142 -15.946  50.112  1.00  0.00    -0.265 OA
BRANCH   9  11
HETATM   11  C7  UNL     1     -72.144 -14.765  48.268  1.00  0.00     0.089 C 
HETATM   12  C8  UNL     1     -73.440 -14.064  48.120  1.00  0.00     0.021 C 
BRANCH  11  13
HETATM   13  C5  UNL     1     -71.700 -15.647  47.171  1.00  0.00     0.042 C 
BRANCH  13  14
HETATM   14  C4  UNL     1     -70.592 -15.234  46.306  1.00  0.00     0.142 C 
HETATM   15  C3  UNL     1     -69.289 -14.891  46.925  1.00  0.00     0.077 C 
HETATM   16  C2  UNL     1     -68.602 -14.056  45.871  1.00  0.00     0.010 C 
HETATM   17  C1  UNL     1     -67.336 -13.688  45.900  1.00  0.00     0.025 C 
HETATM   18  C24 UNL     1     -69.645 -13.791  44.889  1.00  0.00     0.289 C 
HETATM   19  O7  UNL     1     -70.884 -14.149  45.442  1.00  0.00    -0.311 OA
HETATM   20  O8  UNL     1     -69.407 -13.313  43.740  1.00  0.00    -0.260 OA
ENDBRANCH  13  14
BRANCH  13  21
HETATM   21  C6  UNL     1     -71.476 -17.094  47.624  1.00  0.00     0.122 C 
HETATM   22 CL1  UNL     1     -72.537 -18.193  46.682  1.00  0.00    -0.130 Cl
ENDBRANCH  13  21
ENDBRANCH  11  13
ENDBRANCH   9  11
ENDBRANCH   8   9
ENDBRANCH   1   8
BRANCH   5  23
HETATM   23  O3  UNL     1     -67.227 -13.578  51.411  1.00  0.00    -0.374 OA
BRANCH  23  24
HETATM   24  C15 UNL     1     -65.849 -13.423  51.294  1.00  0.00     0.176 C 
HETATM   25  C16 UNL     1     -65.577 -12.925  49.918  1.00  0.00     0.012 C 
HETATM   26  C17 UNL     1     -64.453 -12.294  49.596  1.00  0.00    -0.054 C 
HETATM   27  C18 UNL     1     -64.210 -11.814  48.229  1.00  0.00     0.046 C 
HETATM   28  C19 UNL     1     -63.461 -12.105  50.692  1.00  0.00     0.178 C 
HETATM   29  C20 UNL     1     -64.192 -11.638  51.932  1.00  0.00     0.182 C 
HETATM   30  C21 UNL     1     -65.274 -12.566  52.372  1.00  0.00     0.182 C 
BRANCH  28  31
HETATM   31  O4  UNL     1     -62.797 -13.302  50.878  1.00  0.00    -0.389 OA
ATOM     32  H4  UNL     1     -63.151 -13.717  51.656  1.00  0.00     0.210 HD
ENDBRANCH  28  31
BRANCH  29  33
HETATM   33  O5  UNL     1     -64.699 -10.369  51.649  1.00  0.00    -0.390 OA
ATOM     34  H5  UNL     1     -64.126  -9.742  52.073  1.00  0.00     0.210 HD
ENDBRANCH  29  33
BRANCH  30  35
HETATM   35  O6  UNL     1     -64.805 -13.314  53.454  1.00  0.00    -0.390 OA
ATOM     36  H6  UNL     1     -64.144 -12.852  53.956  1.00  0.00     0.210 HD
ENDBRANCH  30  35
ENDBRANCH  23  24
ENDBRANCH   5  23
TORSDOF 11
ENDMDL
