MODEL 1
REMARK VINA RESULT: -7.294659211      0.000      0.000
REMARK  12 active torsions:
REMARK  status: ('A' for Active; 'I' for Inactive)
REMARK    1  A    between atoms: C3_3  and  C4_4 
REMARK    2  A    between atoms: C5_7  and  C6_8 
REMARK    3  A    between atoms: C6_8  and  O3_9 
REMARK    4  A    between atoms: C7_11  and  O4_12 
REMARK    5  A    between atoms: C8_14  and  O5_15 
REMARK    6  A    between atoms: C9_17  and  O6_18 
REMARK    7  A    between atoms: C12_23  and  O7_24 
REMARK    8  A    between atoms: O7_24  and  C13_25 
REMARK    9  A    between atoms: C13_25  and  C14_26 
REMARK   10  A    between atoms: C14_26  and  C15_27 
REMARK   11  A    between atoms: C15_27  and  O8_28 
REMARK   12  A    between atoms: O8_28  and  C16_29 
ROOT
HETATM    1  C1  UNL     1     -72.318 -15.205  49.951  1.00  0.00     0.049 C 
HETATM    2  C2  UNL     1     -70.926 -14.671  49.798  1.00  0.00    -0.044 A 
HETATM    3  C3  UNL     1     -70.309 -13.987  50.867  1.00  0.00    -0.016 A 
HETATM    4  C10 UNL     1     -69.021 -13.561  50.652  1.00  0.00     0.032 A 
HETATM    5  C11 UNL     1     -68.343 -13.787  49.439  1.00  0.00     0.045 A 
HETATM    6 BR1  UNL     1     -66.577 -13.152  49.234  1.00  0.00    -0.048 Br
HETATM    7  C12 UNL     1     -68.966 -14.457  48.407  1.00  0.00     0.092 A 
HETATM    8  C20 UNL     1     -70.239 -14.877  48.623  1.00  0.00    -0.021 A 
HETATM    9  C21 UNL     1     -70.916 -15.633  47.539  1.00  0.00     0.052 C 
ENDROOT
BRANCH   3  10
HETATM   10  C4  UNL     1     -71.146 -13.670  52.016  1.00  0.00     0.225 C 
HETATM   11  O1  UNL     1     -70.548 -12.399  52.500  1.00  0.00    -0.228 OA
HETATM   12  O2  UNL     1     -69.422 -12.701  52.944  1.00  0.00    -0.230 OA
HETATM   13  C5  UNL     1     -68.975 -13.048  54.122  1.00  0.00     0.215 C 
HETATM   14  C7  UNL     1     -68.749 -14.578  54.293  1.00  0.00     0.183 C 
HETATM   15  C8  UNL     1     -69.712 -15.287  53.326  1.00  0.00     0.181 C 
HETATM   16  C9  UNL     1     -70.951 -14.458  53.286  1.00  0.00     0.186 C 
BRANCH  13  17
HETATM   17  C6  UNL     1     -67.522 -12.508  54.258  1.00  0.00     0.201 C 
BRANCH  17  18
HETATM   18  O3  UNL     1     -67.221 -12.207  55.562  1.00  0.00    -0.398 OA
ATOM     19  H3  UNL     1     -67.312 -11.277  55.730  1.00  0.00     0.209 HD
ENDBRANCH  17  18
ENDBRANCH  13  17
BRANCH  14  20
HETATM   20  O4  UNL     1     -69.131 -14.910  55.587  1.00  0.00    -0.390 OA
ATOM     21  H4  UNL     1     -68.608 -14.382  56.180  1.00  0.00     0.210 HD
ENDBRANCH  14  20
BRANCH  15  22
HETATM   22  O5  UNL     1     -70.030 -16.507  53.906  1.00  0.00    -0.390 OA
ATOM     23  H5  UNL     1     -69.699 -16.479  54.796  1.00  0.00     0.210 HD
ENDBRANCH  15  22
BRANCH  16  24
HETATM   24  O6  UNL     1     -72.111 -15.265  53.530  1.00  0.00    -0.390 OA
ATOM     25  H6  UNL     1     -72.708 -14.795  54.100  1.00  0.00     0.210 HD
ENDBRANCH  16  24
ENDBRANCH   3  10
BRANCH   7  26
HETATM   26  O7  UNL     1     -68.261 -14.651  47.226  1.00  0.00    -0.349 OA
BRANCH  26  27
HETATM   27  C13 UNL     1     -68.532 -13.684  46.241  1.00  0.00     0.178 C 
BRANCH  27  28
HETATM   28  C14 UNL     1     -67.934 -13.840  44.908  1.00  0.00     0.053 C 
BRANCH  28  29
HETATM   29  C15 UNL     1     -66.729 -13.034  44.619  1.00  0.00     0.171 C 
BRANCH  29  30
HETATM   30  O8  UNL     1     -65.975 -12.549  45.611  1.00  0.00    -0.381 OA
BRANCH  30  31
HETATM   31  C16 UNL     1     -64.714 -12.912  45.859  1.00  0.00     0.050 C 
HETATM   32  C17 UNL     1     -63.868 -12.028  46.746  1.00  0.00     0.045 C 
HETATM   33  C18 UNL     1     -64.759 -14.260  46.617  1.00  0.00     0.045 C 
HETATM   34  C19 UNL     1     -63.918 -13.237  44.601  1.00  0.00     0.045 C 
ENDBRANCH  30  31
ENDBRANCH  29  30
ENDBRANCH  28  29
ENDBRANCH  27  28
ENDBRANCH  26  27
ENDBRANCH   7  26
TORSDOF 12
ENDMDL
MODEL 2
REMARK VINA RESULT: -7.278285929      3.464      6.571
REMARK  12 active torsions:
REMARK  status: ('A' for Active; 'I' for Inactive)
REMARK    1  A    between atoms: C3_3  and  C4_4 
REMARK    2  A    between atoms: C5_7  and  C6_8 
REMARK    3  A    between atoms: C6_8  and  O3_9 
REMARK    4  A    between atoms: C7_11  and  O4_12 
REMARK    5  A    between atoms: C8_14  and  O5_15 
REMARK    6  A    between atoms: C9_17  and  O6_18 
REMARK    7  A    between atoms: C12_23  and  O7_24 
REMARK    8  A    between atoms: O7_24  and  C13_25 
REMARK    9  A    between atoms: C13_25  and  C14_26 
REMARK   10  A    between atoms: C14_26  and  C15_27 
REMARK   11  A    between atoms: C15_27  and  O8_28 
REMARK   12  A    between atoms: O8_28  and  C16_29 
ROOT
HETATM    1  C1  UNL     1     -68.834 -14.842  46.016  1.00  0.00     0.049 C 
HETATM    2  C2  UNL     1     -69.142 -14.585  47.459  1.00  0.00    -0.044 A 
HETATM    3  C3  UNL     1     -70.461 -14.733  47.939  1.00  0.00    -0.016 A 
HETATM    4  C10 UNL     1     -70.648 -14.512  49.282  1.00  0.00     0.032 A 
HETATM    5  C11 UNL     1     -69.591 -14.156  50.142  1.00  0.00     0.045 A 
HETATM    6 BR1  UNL     1     -69.949 -13.860  51.972  1.00  0.00    -0.048 Br
HETATM    7  C12 UNL     1     -68.310 -14.016  49.652  1.00  0.00     0.092 A 
HETATM    8  C20 UNL     1     -68.130 -14.237  48.324  1.00  0.00    -0.021 A 
HETATM    9  C21 UNL     1     -66.752 -14.128  47.782  1.00  0.00     0.052 C 
ENDROOT
BRANCH   3  10
HETATM   10  C4  UNL     1     -71.502 -14.949  46.943  1.00  0.00     0.225 C 
HETATM   11  O1  UNL     1     -72.376 -13.764  47.140  1.00  0.00    -0.228 OA
HETATM   12  O2  UNL     1     -72.907 -13.914  48.258  1.00  0.00    -0.230 OA
HETATM   13  C5  UNL     1     -74.019 -14.466  48.668  1.00  0.00     0.215 C 
HETATM   14  C7  UNL     1     -73.840 -15.890  49.269  1.00  0.00     0.183 C 
HETATM   15  C8  UNL     1     -72.585 -16.499  48.621  1.00  0.00     0.181 C 
HETATM   16  C9  UNL     1     -72.553 -15.995  47.218  1.00  0.00     0.186 C 
BRANCH  13  17
HETATM   17  C6  UNL     1     -74.517 -13.670  49.909  1.00  0.00     0.201 C 
BRANCH  17  18
HETATM   18  O3  UNL     1     -73.670 -13.832  50.976  1.00  0.00    -0.398 OA
ATOM     19  H3  UNL     1     -74.125 -14.199  51.725  1.00  0.00     0.209 HD
ENDBRANCH  17  18
ENDBRANCH  13  17
BRANCH  14  20
HETATM   20  O4  UNL     1     -74.933 -16.648  48.868  1.00  0.00    -0.390 OA
ATOM     21  H4  UNL     1     -74.633 -17.544  48.765  1.00  0.00     0.210 HD
ENDBRANCH  14  20
BRANCH  15  22
HETATM   22  O5  UNL     1     -72.786 -17.872  48.581  1.00  0.00    -0.390 OA
ATOM     23  H5  UNL     1     -72.182 -18.216  47.933  1.00  0.00     0.210 HD
ENDBRANCH  15  22
BRANCH  16  24
HETATM   24  O6  UNL     1     -72.399 -17.080  46.292  1.00  0.00    -0.390 OA
ATOM     25  H6  UNL     1     -73.256 -17.396  46.031  1.00  0.00     0.210 HD
ENDBRANCH  16  24
ENDBRANCH   3  10
BRANCH   7  26
HETATM   26  O7  UNL     1     -67.302 -13.658  50.537  1.00  0.00    -0.349 OA
BRANCH  26  27
HETATM   27  C13 UNL     1     -66.949 -14.681  51.435  1.00  0.00     0.178 C 
BRANCH  27  28
HETATM   28  C14 UNL     1     -66.206 -15.845  50.930  1.00  0.00     0.053 C 
BRANCH  28  29
HETATM   29  C15 UNL     1     -65.506 -16.675  51.933  1.00  0.00     0.171 C 
BRANCH  29  30
HETATM   30  O8  UNL     1     -65.708 -17.996  51.989  1.00  0.00    -0.381 OA
BRANCH  30  31
HETATM   31  C16 UNL     1     -66.412 -18.622  52.935  1.00  0.00     0.050 C 
HETATM   32  C17 UNL     1     -67.891 -18.331  53.049  1.00  0.00     0.045 C 
HETATM   33  C18 UNL     1     -66.358 -20.138  52.627  1.00  0.00     0.045 C 
HETATM   34  C19 UNL     1     -65.791 -18.518  54.322  1.00  0.00     0.045 C 
ENDBRANCH  30  31
ENDBRANCH  29  30
ENDBRANCH  28  29
ENDBRANCH  27  28
ENDBRANCH  26  27
ENDBRANCH   7  26
TORSDOF 12
ENDMDL
MODEL 3
REMARK VINA RESULT: -7.232690981      2.786      6.395
REMARK  12 active torsions:
REMARK  status: ('A' for Active; 'I' for Inactive)
REMARK    1  A    between atoms: C3_3  and  C4_4 
REMARK    2  A    between atoms: C5_7  and  C6_8 
REMARK    3  A    between atoms: C6_8  and  O3_9 
REMARK    4  A    between atoms: C7_11  and  O4_12 
REMARK    5  A    between atoms: C8_14  and  O5_15 
REMARK    6  A    between atoms: C9_17  and  O6_18 
REMARK    7  A    between atoms: C12_23  and  O7_24 
REMARK    8  A    between atoms: O7_24  and  C13_25 
REMARK    9  A    between atoms: C13_25  and  C14_26 
REMARK   10  A    between atoms: C14_26  and  C15_27 
REMARK   11  A    between atoms: C15_27  and  O8_28 
REMARK   12  A    between atoms: O8_28  and  C16_29 
ROOT
HETATM    1  C1  UNL     1     -69.189 -14.422  45.504  1.00  0.00     0.049 C 
HETATM    2  C2  UNL     1     -69.283 -14.642  46.983  1.00  0.00    -0.044 A 
HETATM    3  C3  UNL     1     -70.405 -15.298  47.532  1.00  0.00    -0.016 A 
HETATM    4  C10 UNL     1     -70.392 -15.488  48.892  1.00  0.00     0.032 A 
HETATM    5  C11 UNL     1     -69.326 -15.057  49.705  1.00  0.00     0.045 A 
HETATM    6 BR1  UNL     1     -69.406 -15.353  51.568  1.00  0.00    -0.048 Br
HETATM    7  C12 UNL     1     -68.240 -14.417  49.148  1.00  0.00     0.092 A 
HETATM    8  C20 UNL     1     -68.256 -14.232  47.802  1.00  0.00    -0.021 A 
HETATM    9  C21 UNL     1     -67.078 -13.578  47.176  1.00  0.00     0.052 C 
ENDROOT
BRANCH   3  10
HETATM   10  C4  UNL     1     -71.518 -15.562  46.630  1.00  0.00     0.225 C 
HETATM   11  O1  UNL     1     -72.312 -14.311  46.736  1.00  0.00    -0.228 OA
HETATM   12  O2  UNL     1     -72.777 -14.300  47.893  1.00  0.00    -0.230 OA
HETATM   13  C5  UNL     1     -73.889 -14.732  48.428  1.00  0.00     0.215 C 
HETATM   14  C7  UNL     1     -73.748 -16.087  49.182  1.00  0.00     0.183 C 
HETATM   15  C8  UNL     1     -72.573 -16.842  48.538  1.00  0.00     0.181 C 
HETATM   16  C9  UNL     1     -72.603 -16.504  47.086  1.00  0.00     0.186 C 
BRANCH  13  17
HETATM   17  C6  UNL     1     -74.262 -13.772  49.594  1.00  0.00     0.201 C 
BRANCH  17  18
HETATM   18  O3  UNL     1     -73.490 -14.010  50.702  1.00  0.00    -0.398 OA
ATOM     19  H3  UNL     1     -73.609 -14.896  51.022  1.00  0.00     0.209 HD
ENDBRANCH  17  18
ENDBRANCH  13  17
BRANCH  14  20
HETATM   20  O4  UNL     1     -74.904 -16.818  48.936  1.00  0.00    -0.390 OA
ATOM     21  H4  UNL     1     -74.726 -17.388  48.197  1.00  0.00     0.210 HD
ENDBRANCH  14  20
BRANCH  15  22
HETATM   22  O5  UNL     1     -72.850 -18.195  48.671  1.00  0.00    -0.390 OA
ATOM     23  H5  UNL     1     -72.807 -18.391  49.600  1.00  0.00     0.210 HD
ENDBRANCH  15  22
BRANCH  16  24
HETATM   24  O6  UNL     1     -72.568 -17.694  46.287  1.00  0.00    -0.390 OA
ATOM     25  H6  UNL     1     -72.352 -18.438  46.838  1.00  0.00     0.210 HD
ENDBRANCH  16  24
ENDBRANCH   3  10
BRANCH   7  26
HETATM   26  O7  UNL     1     -67.215 -14.004  49.989  1.00  0.00    -0.349 OA
BRANCH  26  27
HETATM   27  C13 UNL     1     -67.117 -12.607  50.116  1.00  0.00     0.178 C 
BRANCH  27  28
HETATM   28  C14 UNL     1     -68.280 -11.854  50.605  1.00  0.00     0.053 C 
BRANCH  28  29
HETATM   29  C15 UNL     1     -68.419 -11.719  52.070  1.00  0.00     0.171 C 
BRANCH  29  30
HETATM   30  O8  UNL     1     -67.352 -11.809  52.870  1.00  0.00    -0.381 OA
BRANCH  30  31
HETATM   31  C16 UNL     1     -67.194 -12.719  53.835  1.00  0.00     0.050 C 
HETATM   32  C17 UNL     1     -66.443 -13.991  53.514  1.00  0.00     0.045 C 
HETATM   33  C18 UNL     1     -66.351 -12.066  54.956  1.00  0.00     0.045 C 
HETATM   34  C19 UNL     1     -68.494 -13.090  54.537  1.00  0.00     0.045 C 
ENDBRANCH  30  31
ENDBRANCH  29  30
ENDBRANCH  28  29
ENDBRANCH  27  28
ENDBRANCH  26  27
ENDBRANCH   7  26
TORSDOF 12
ENDMDL
MODEL 4
REMARK VINA RESULT: -7.176841287      2.865      6.389
REMARK  12 active torsions:
REMARK  status: ('A' for Active; 'I' for Inactive)
REMARK    1  A    between atoms: C3_3  and  C4_4 
REMARK    2  A    between atoms: C5_7  and  C6_8 
REMARK    3  A    between atoms: C6_8  and  O3_9 
REMARK    4  A    between atoms: C7_11  and  O4_12 
REMARK    5  A    between atoms: C8_14  and  O5_15 
REMARK    6  A    between atoms: C9_17  and  O6_18 
REMARK    7  A    between atoms: C12_23  and  O7_24 
REMARK    8  A    between atoms: O7_24  and  C13_25 
REMARK    9  A    between atoms: C13_25  and  C14_26 
REMARK   10  A    between atoms: C14_26  and  C15_27 
REMARK   11  A    between atoms: C15_27  and  O8_28 
REMARK   12  A    between atoms: O8_28  and  C16_29 
ROOT
HETATM    1  C1  UNL     1     -68.918 -14.807  45.887  1.00  0.00     0.049 C 
HETATM    2  C2  UNL     1     -69.197 -14.512  47.330  1.00  0.00    -0.044 A 
HETATM    3  C3  UNL     1     -70.499 -14.679  47.848  1.00  0.00    -0.016 A 
HETATM    4  C10 UNL     1     -70.657 -14.419  49.187  1.00  0.00     0.032 A 
HETATM    5  C11 UNL     1     -69.590 -14.008  50.008  1.00  0.00     0.045 A 
HETATM    6 BR1  UNL     1     -69.909 -13.661  51.836  1.00  0.00    -0.048 Br
HETATM    7  C12 UNL     1     -68.326 -13.849  49.480  1.00  0.00     0.092 A 
HETATM    8  C20 UNL     1     -68.173 -14.109  48.156  1.00  0.00    -0.021 A 
HETATM    9  C21 UNL     1     -66.813 -13.981  47.574  1.00  0.00     0.052 C 
ENDROOT
BRANCH   3  10
HETATM   10  C4  UNL     1     -71.559 -14.955  46.887  1.00  0.00     0.225 C 
HETATM   11  O1  UNL     1     -72.464 -13.793  47.076  1.00  0.00    -0.228 OA
HETATM   12  O2  UNL     1     -72.960 -13.929  48.212  1.00  0.00    -0.230 OA
HETATM   13  C5  UNL     1     -74.043 -14.505  48.667  1.00  0.00     0.215 C 
HETATM   14  C7  UNL     1     -73.801 -15.906  49.301  1.00  0.00     0.183 C 
HETATM   15  C8  UNL     1     -72.546 -16.493  48.635  1.00  0.00     0.181 C 
HETATM   16  C9  UNL     1     -72.567 -16.027  47.218  1.00  0.00     0.186 C 
BRANCH  13  17
HETATM   17  C6  UNL     1     -74.533 -13.692  49.900  1.00  0.00     0.201 C 
BRANCH  17  18
HETATM   18  O3  UNL     1     -73.652 -13.795  50.946  1.00  0.00    -0.398 OA
ATOM     19  H3  UNL     1     -73.719 -14.641  51.371  1.00  0.00     0.209 HD
ENDBRANCH  17  18
ENDBRANCH  13  17
BRANCH  14  20
HETATM   20  O4  UNL     1     -74.880 -16.709  48.950  1.00  0.00    -0.390 OA
ATOM     21  H4  UNL     1     -74.577 -17.310  48.279  1.00  0.00     0.210 HD
ENDBRANCH  14  20
BRANCH  15  22
HETATM   22  O5  UNL     1     -72.703 -17.871  48.637  1.00  0.00    -0.390 OA
ATOM     23  H5  UNL     1     -71.844 -18.243  48.472  1.00  0.00     0.210 HD
ENDBRANCH  15  22
BRANCH  16  24
HETATM   24  O6  UNL     1     -72.402 -17.131  46.318  1.00  0.00    -0.390 OA
ATOM     25  H6  UNL     1     -72.311 -17.934  46.817  1.00  0.00     0.210 HD
ENDBRANCH  16  24
ENDBRANCH   3  10
BRANCH   7  26
HETATM   26  O7  UNL     1     -67.305 -13.436  50.326  1.00  0.00    -0.349 OA
BRANCH  26  27
HETATM   27  C13 UNL     1     -67.119 -12.041  50.347  1.00  0.00     0.178 C 
BRANCH  27  28
HETATM   28  C14 UNL     1     -65.922 -11.494  51.000  1.00  0.00     0.053 C 
BRANCH  28  29
HETATM   29  C15 UNL     1     -65.694 -11.881  52.408  1.00  0.00     0.171 C 
BRANCH  29  30
HETATM   30  O8  UNL     1     -66.720 -12.019  53.255  1.00  0.00    -0.381 OA
BRANCH  30  31
HETATM   31  C16 UNL     1     -66.754 -12.874  54.280  1.00  0.00     0.050 C 
HETATM   32  C17 UNL     1     -68.027 -12.985  55.088  1.00  0.00     0.045 C 
HETATM   33  C18 UNL     1     -66.556 -14.297  53.706  1.00  0.00     0.045 C 
HETATM   34  C19 UNL     1     -65.585 -12.712  55.243  1.00  0.00     0.045 C 
ENDBRANCH  30  31
ENDBRANCH  29  30
ENDBRANCH  28  29
ENDBRANCH  27  28
ENDBRANCH  26  27
ENDBRANCH   7  26
TORSDOF 12
ENDMDL
MODEL 5
REMARK VINA RESULT: -7.170523758      2.819      6.741
REMARK  12 active torsions:
REMARK  status: ('A' for Active; 'I' for Inactive)
REMARK    1  A    between atoms: C3_3  and  C4_4 
REMARK    2  A    between atoms: C5_7  and  C6_8 
REMARK    3  A    between atoms: C6_8  and  O3_9 
REMARK    4  A    between atoms: C7_11  and  O4_12 
REMARK    5  A    between atoms: C8_14  and  O5_15 
REMARK    6  A    between atoms: C9_17  and  O6_18 
REMARK    7  A    between atoms: C12_23  and  O7_24 
REMARK    8  A    between atoms: O7_24  and  C13_25 
REMARK    9  A    between atoms: C13_25  and  C14_26 
REMARK   10  A    between atoms: C14_26  and  C15_27 
REMARK   11  A    between atoms: C15_27  and  O8_28 
REMARK   12  A    between atoms: O8_28  and  C16_29 
ROOT
HETATM    1  C1  UNL     1     -68.866 -14.863  45.917  1.00  0.00     0.049 C 
HETATM    2  C2  UNL     1     -69.165 -14.467  47.331  1.00  0.00    -0.044 A 
HETATM    3  C3  UNL     1     -70.478 -14.579  47.834  1.00  0.00    -0.016 A 
HETATM    4  C10 UNL     1     -70.656 -14.226  49.150  1.00  0.00     0.032 A 
HETATM    5  C11 UNL     1     -69.596 -13.777  49.961  1.00  0.00     0.045 A 
HETATM    6 BR1  UNL     1     -69.942 -13.303  51.756  1.00  0.00    -0.048 Br
HETATM    7  C12 UNL     1     -68.321 -13.674  49.448  1.00  0.00     0.092 A 
HETATM    8  C20 UNL     1     -68.149 -14.024  48.147  1.00  0.00    -0.021 A 
HETATM    9  C21 UNL     1     -66.777 -13.957  47.584  1.00  0.00     0.052 C 
ENDROOT
BRANCH   3  10
HETATM   10  C4  UNL     1     -71.525 -14.903  46.875  1.00  0.00     0.225 C 
HETATM   11  O1  UNL     1     -72.464 -13.763  47.037  1.00  0.00    -0.228 OA
HETATM   12  O2  UNL     1     -72.961 -13.890  48.174  1.00  0.00    -0.230 OA
HETATM   13  C5  UNL     1     -74.030 -14.487  48.635  1.00  0.00     0.215 C 
HETATM   14  C7  UNL     1     -73.753 -15.867  49.297  1.00  0.00     0.183 C 
HETATM   15  C8  UNL     1     -72.478 -16.432  48.648  1.00  0.00     0.181 C 
HETATM   16  C9  UNL     1     -72.505 -15.995  47.223  1.00  0.00     0.186 C 
BRANCH  13  17
HETATM   17  C6  UNL     1     -74.548 -13.664  49.850  1.00  0.00     0.201 C 
BRANCH  17  18
HETATM   18  O3  UNL     1     -73.698 -13.768  50.921  1.00  0.00    -0.398 OA
ATOM     19  H3  UNL     1     -73.553 -12.923  51.329  1.00  0.00     0.209 HD
ENDBRANCH  17  18
ENDBRANCH  13  17
BRANCH  14  20
HETATM   20  O4  UNL     1     -74.807 -16.707  48.957  1.00  0.00    -0.390 OA
ATOM     21  H4  UNL     1     -74.474 -17.596  48.967  1.00  0.00     0.210 HD
ENDBRANCH  14  20
BRANCH  15  22
HETATM   22  O5  UNL     1     -72.597 -17.815  48.676  1.00  0.00    -0.390 OA
ATOM     23  H5  UNL     1     -72.046 -18.120  49.388  1.00  0.00     0.210 HD
ENDBRANCH  15  22
BRANCH  16  24
HETATM   24  O6  UNL     1     -72.306 -17.111  46.345  1.00  0.00    -0.390 OA
ATOM     25  H6  UNL     1     -73.045 -17.182  45.752  1.00  0.00     0.210 HD
ENDBRANCH  16  24
ENDBRANCH   3  10
BRANCH   7  26
HETATM   26  O7  UNL     1     -67.309 -13.220  50.283  1.00  0.00    -0.349 OA
BRANCH  26  27
HETATM   27  C13 UNL     1     -66.681 -14.243  51.017  1.00  0.00     0.178 C 
BRANCH  27  28
HETATM   28  C14 UNL     1     -65.943 -13.891  52.238  1.00  0.00     0.053 C 
BRANCH  28  29
HETATM   29  C15 UNL     1     -66.655 -14.060  53.521  1.00  0.00     0.171 C 
BRANCH  29  30
HETATM   30  O8  UNL     1     -66.865 -15.278  54.033  1.00  0.00    -0.381 OA
BRANCH  30  31
HETATM   31  C16 UNL     1     -67.987 -15.669  54.643  1.00  0.00     0.050 C 
HETATM   32  C17 UNL     1     -68.927 -14.611  55.174  1.00  0.00     0.045 C 
HETATM   33  C18 UNL     1     -68.840 -16.432  53.601  1.00  0.00     0.045 C 
HETATM   34  C19 UNL     1     -67.753 -16.702  55.738  1.00  0.00     0.045 C 
ENDBRANCH  30  31
ENDBRANCH  29  30
ENDBRANCH  28  29
ENDBRANCH  27  28
ENDBRANCH  26  27
ENDBRANCH   7  26
TORSDOF 12
ENDMDL
