MODEL 1
REMARK VINA RESULT: -8.309940004      0.000      0.000
REMARK  11 active torsions:
REMARK  status: ('A' for Active; 'I' for Inactive)
REMARK    1  A    between atoms: N1_2  and  C2_3 
REMARK    2  A    between atoms: N1_2  and  C22_34 
REMARK    3  A    between atoms: C2_3  and  C3_4 
REMARK    4  A    between atoms: C6_8  and  O1_9 
REMARK    5  A    between atoms: O1_9  and  C7_10 
REMARK    6  A    between atoms: C8_12  and  C9_13 
REMARK    7  A    between atoms: C9_13  and  O3_14 
REMARK    8  A    between atoms: C10_16  and  O4_17 
REMARK    9  A    between atoms: C11_19  and  O5_20 
REMARK   10  A    between atoms: C12_22  and  O6_23 
REMARK   11  A    between atoms: C13_25  and  C14_26 
ROOT
HETATM    1  C3  UNL     1     -67.541 -14.003  52.646  1.00  0.00    -0.028 A 
HETATM    2  C4  UNL     1     -68.806 -14.076  53.158  1.00  0.00     0.035 A 
HETATM    3  C5  UNL     1     -69.874 -14.174  52.316  1.00  0.00     0.069 A 
HETATM    4 CL1  UNL     1     -71.470 -14.409  53.034  1.00  0.00    -0.081 Cl
HETATM    5  C6  UNL     1     -69.685 -14.202  50.924  1.00  0.00     0.104 A 
HETATM    6  C13 UNL     1     -68.420 -14.143  50.350  1.00  0.00     0.002 A 
HETATM    7  C21 UNL     1     -67.361 -14.040  51.288  1.00  0.00     0.023 A 
ENDROOT
BRANCH   5   8
HETATM    8  O1  UNL     1     -70.825 -14.292  50.202  1.00  0.00    -0.315 OA
BRANCH   8   9
HETATM    9  C7  UNL     1     -71.619 -15.409  49.881  1.00  0.00     0.298 C 
HETATM   10  O2  UNL     1     -71.065 -16.004  48.761  1.00  0.00    -0.348 OA
HETATM   11  C8  UNL     1     -71.847 -16.432  47.749  1.00  0.00     0.179 C 
HETATM   12  C10 UNL     1     -72.901 -15.481  47.302  1.00  0.00     0.180 C 
HETATM   13  C11 UNL     1     -73.434 -14.606  48.379  1.00  0.00     0.183 C 
HETATM   14  C12 UNL     1     -73.031 -15.043  49.774  1.00  0.00     0.205 C 
BRANCH  11  15
HETATM   15  C9  UNL     1     -72.243 -17.883  47.757  1.00  0.00     0.198 C 
BRANCH  15  16
HETATM   16  O3  UNL     1     -71.942 -18.582  46.596  1.00  0.00    -0.398 OA
ATOM     17  H3  UNL     1     -71.780 -19.511  46.715  1.00  0.00     0.209 HD
ENDBRANCH  15  16
ENDBRANCH  11  15
BRANCH  12  18
HETATM   18  O4  UNL     1     -72.384 -14.589  46.316  1.00  0.00    -0.390 OA
ATOM     19  H4  UNL     1     -72.045 -13.801  46.725  1.00  0.00     0.210 HD
ENDBRANCH  12  18
BRANCH  13  20
HETATM   20  O5  UNL     1     -73.027 -13.263  48.267  1.00  0.00    -0.390 OA
ATOM     21  H5  UNL     1     -72.556 -12.944  49.027  1.00  0.00     0.210 HD
ENDBRANCH  13  20
BRANCH  14  22
HETATM   22  O6  UNL     1     -73.322 -13.914  50.580  1.00  0.00    -0.388 OA
ATOM     23  H6  UNL     1     -74.246 -13.697  50.536  1.00  0.00     0.210 HD
ENDBRANCH  14  22
ENDBRANCH   8   9
ENDBRANCH   5   8
BRANCH   6  24
HETATM   24  C14 UNL     1     -68.152 -14.162  48.903  1.00  0.00    -0.067 C 
HETATM   25  C15 UNL     1     -67.116 -15.216  48.539  1.00  0.00     0.035 C 
HETATM   26  C16 UNL     1     -66.105 -14.752  47.574  1.00  0.00     0.004 C 
HETATM   27  C17 UNL     1     -66.556 -13.732  46.573  1.00  0.00     0.000 C 
HETATM   28  C18 UNL     1     -67.755 -14.121  45.778  1.00  0.00     0.000 C 
HETATM   29  C19 UNL     1     -69.021 -14.305  46.544  1.00  0.00     0.004 C 
HETATM   30  C20 UNL     1     -69.047 -13.642  47.901  1.00  0.00     0.035 C 
ENDBRANCH   6  24
BRANCH   1  31
HETATM   31  C2  UNL     1     -66.411 -13.787  53.569  1.00  0.00     0.311 C 
BRANCH  31  32
HETATM   32  N1  UNL     1     -65.544 -12.742  53.078  1.00  0.00     0.097 N 
HETATM   33  C1  UNL     1     -64.190 -13.072  52.860  1.00  0.00     0.310 C 
BRANCH  32  34
HETATM   34  C22 UNL     1     -65.806 -11.552  53.818  1.00  0.00     0.270 C 
HETATM   35  C23 UNL     1     -64.589 -10.775  54.299  1.00  0.00     0.205 C 
HETATM   36  O7  UNL     1     -64.883 -11.153  55.612  1.00  0.00    -0.387 OA
HETATM   37  C24 UNL     1     -66.106 -11.761  55.278  1.00  0.00     0.205 C 
ENDBRANCH  32  34
ENDBRANCH  31  32
ENDBRANCH   1  31
TORSDOF 11
ENDMDL
MODEL 2
REMARK VINA RESULT: -8.167695516      3.706      6.378
REMARK  11 active torsions:
REMARK  status: ('A' for Active; 'I' for Inactive)
REMARK    1  A    between atoms: N1_2  and  C2_3 
REMARK    2  A    between atoms: N1_2  and  C22_34 
REMARK    3  A    between atoms: C2_3  and  C3_4 
REMARK    4  A    between atoms: C6_8  and  O1_9 
REMARK    5  A    between atoms: O1_9  and  C7_10 
REMARK    6  A    between atoms: C8_12  and  C9_13 
REMARK    7  A    between atoms: C9_13  and  O3_14 
REMARK    8  A    between atoms: C10_16  and  O4_17 
REMARK    9  A    between atoms: C11_19  and  O5_20 
REMARK   10  A    between atoms: C12_22  and  O6_23 
REMARK   11  A    between atoms: C13_25  and  C14_26 
ROOT
HETATM    1  C3  UNL     1     -66.416 -13.154  44.651  1.00  0.00    -0.028 A 
HETATM    2  C4  UNL     1     -67.695 -13.324  44.200  1.00  0.00     0.035 A 
HETATM    3  C5  UNL     1     -68.682 -13.674  45.072  1.00  0.00     0.069 A 
HETATM    4 CL1  UNL     1     -70.337 -13.740  44.462  1.00  0.00    -0.081 Cl
HETATM    5  C6  UNL     1     -68.396 -13.861  46.436  1.00  0.00     0.104 A 
HETATM    6  C13 UNL     1     -67.115 -13.690  46.951  1.00  0.00     0.002 A 
HETATM    7  C21 UNL     1     -66.144 -13.328  45.982  1.00  0.00     0.023 A 
ENDROOT
BRANCH   5   8
HETATM    8  O1  UNL     1     -69.459 -14.215  47.191  1.00  0.00    -0.315 OA
BRANCH   8   9
HETATM    9  C7  UNL     1     -69.883 -15.480  47.642  1.00  0.00     0.298 C 
HETATM   10  O2  UNL     1     -70.679 -16.028  46.650  1.00  0.00    -0.348 OA
HETATM   11  C8  UNL     1     -71.830 -16.658  46.960  1.00  0.00     0.179 C 
HETATM   12  C10 UNL     1     -72.710 -15.953  47.932  1.00  0.00     0.180 C 
HETATM   13  C11 UNL     1     -71.982 -15.129  48.932  1.00  0.00     0.183 C 
HETATM   14  C12 UNL     1     -70.489 -15.395  48.969  1.00  0.00     0.205 C 
BRANCH  11  15
HETATM   15  C9  UNL     1     -71.774 -18.154  47.102  1.00  0.00     0.198 C 
BRANCH  15  16
HETATM   16  O3  UNL     1     -72.612 -18.859  46.248  1.00  0.00    -0.398 OA
ATOM     17  H3  UNL     1     -72.196 -19.199  45.465  1.00  0.00     0.209 HD
ENDBRANCH  15  16
ENDBRANCH  11  15
BRANCH  12  18
HETATM   18  O4  UNL     1     -73.574 -15.042  47.255  1.00  0.00    -0.390 OA
ATOM     19  H4  UNL     1     -74.422 -15.008  47.682  1.00  0.00     0.210 HD
ENDBRANCH  12  18
BRANCH  13  20
HETATM   20  O5  UNL     1     -72.118 -13.743  48.728  1.00  0.00    -0.390 OA
ATOM     21  H5  UNL     1     -72.814 -13.351  49.241  1.00  0.00     0.210 HD
ENDBRANCH  13  20
BRANCH  14  22
HETATM   22  O6  UNL     1     -69.967 -14.293  49.693  1.00  0.00    -0.388 OA
ATOM     23  H6  UNL     1     -70.461 -14.149  50.492  1.00  0.00     0.210 HD
ENDBRANCH  14  22
ENDBRANCH   8   9
ENDBRANCH   5   8
BRANCH   6  24
HETATM   24  C14 UNL     1     -66.746 -13.875  48.363  1.00  0.00    -0.067 C 
HETATM   25  C15 UNL     1     -65.783 -15.040  48.542  1.00  0.00     0.035 C 
HETATM   26  C16 UNL     1     -66.103 -15.909  49.687  1.00  0.00     0.004 C 
HETATM   27  C17 UNL     1     -66.746 -15.248  50.868  1.00  0.00     0.000 C 
HETATM   28  C18 UNL     1     -66.000 -14.081  51.417  1.00  0.00     0.000 C 
HETATM   29  C19 UNL     1     -65.859 -12.905  50.511  1.00  0.00     0.004 C 
HETATM   30  C20 UNL     1     -66.852 -12.853  49.373  1.00  0.00     0.035 C 
ENDBRANCH   6  24
BRANCH   1  31
HETATM   31  C2  UNL     1     -65.346 -12.883  43.673  1.00  0.00     0.311 C 
BRANCH  31  32
HETATM   32  N1  UNL     1     -64.059 -13.263  44.207  1.00  0.00     0.097 N 
HETATM   33  C1  UNL     1     -63.659 -12.665  45.419  1.00  0.00     0.310 C 
BRANCH  32  34
HETATM   34  C22 UNL     1     -63.109 -13.259  43.143  1.00  0.00     0.270 C 
HETATM   35  C23 UNL     1     -61.736 -12.692  43.467  1.00  0.00     0.205 C 
HETATM   36  O7  UNL     1     -62.015 -11.588  42.656  1.00  0.00    -0.387 OA
HETATM   37  C24 UNL     1     -63.232 -12.108  42.182  1.00  0.00     0.205 C 
ENDBRANCH  32  34
ENDBRANCH  31  32
ENDBRANCH   1  31
TORSDOF 11
ENDMDL
MODEL 3
REMARK VINA RESULT: -8.135219874      1.535      2.012
REMARK  11 active torsions:
REMARK  status: ('A' for Active; 'I' for Inactive)
REMARK    1  A    between atoms: N1_2  and  C2_3 
REMARK    2  A    between atoms: N1_2  and  C22_34 
REMARK    3  A    between atoms: C2_3  and  C3_4 
REMARK    4  A    between atoms: C6_8  and  O1_9 
REMARK    5  A    between atoms: O1_9  and  C7_10 
REMARK    6  A    between atoms: C8_12  and  C9_13 
REMARK    7  A    between atoms: C9_13  and  O3_14 
REMARK    8  A    between atoms: C10_16  and  O4_17 
REMARK    9  A    between atoms: C11_19  and  O5_20 
REMARK   10  A    between atoms: C12_22  and  O6_23 
REMARK   11  A    between atoms: C13_25  and  C14_26 
ROOT
HETATM    1  C3  UNL     1     -67.540 -14.005  52.623  1.00  0.00    -0.028 A 
HETATM    2  C4  UNL     1     -68.800 -14.087  53.145  1.00  0.00     0.035 A 
HETATM    3  C5  UNL     1     -69.875 -14.185  52.311  1.00  0.00     0.069 A 
HETATM    4 CL1  UNL     1     -71.464 -14.431  53.039  1.00  0.00    -0.081 Cl
HETATM    5  C6  UNL     1     -69.697 -14.204  50.917  1.00  0.00     0.104 A 
HETATM    6  C13 UNL     1     -68.436 -14.136  50.334  1.00  0.00     0.002 A 
HETATM    7  C21 UNL     1     -67.370 -14.034  51.265  1.00  0.00     0.023 A 
ENDROOT
BRANCH   5   8
HETATM    8  O1  UNL     1     -70.841 -14.296  50.204  1.00  0.00    -0.315 OA
BRANCH   8   9
HETATM    9  C7  UNL     1     -71.631 -15.415  49.879  1.00  0.00     0.298 C 
HETATM   10  O2  UNL     1     -71.078 -16.001  48.753  1.00  0.00    -0.348 OA
HETATM   11  C8  UNL     1     -71.860 -16.427  47.742  1.00  0.00     0.179 C 
HETATM   12  C10 UNL     1     -72.921 -15.479  47.303  1.00  0.00     0.180 C 
HETATM   13  C11 UNL     1     -73.454 -14.613  48.387  1.00  0.00     0.183 C 
HETATM   14  C12 UNL     1     -73.045 -15.056  49.778  1.00  0.00     0.205 C 
BRANCH  11  15
HETATM   15  C9  UNL     1     -72.249 -17.880  47.743  1.00  0.00     0.198 C 
BRANCH  15  16
HETATM   16  O3  UNL     1     -71.933 -18.575  46.583  1.00  0.00    -0.398 OA
ATOM     17  H3  UNL     1     -72.062 -19.515  46.629  1.00  0.00     0.209 HD
ENDBRANCH  15  16
ENDBRANCH  11  15
BRANCH  12  18
HETATM   18  O4  UNL     1     -72.412 -14.579  46.321  1.00  0.00    -0.390 OA
ATOM     19  H4  UNL     1     -72.011 -13.824  46.737  1.00  0.00     0.210 HD
ENDBRANCH  12  18
BRANCH  13  20
HETATM   20  O5  UNL     1     -73.055 -13.267  48.281  1.00  0.00    -0.390 OA
ATOM     21  H5  UNL     1     -73.727 -12.650  48.547  1.00  0.00     0.210 HD
ENDBRANCH  13  20
BRANCH  14  22
HETATM   22  O6  UNL     1     -73.339 -13.933  50.592  1.00  0.00    -0.388 OA
ATOM     23  H6  UNL     1     -74.235 -13.969  50.908  1.00  0.00     0.210 HD
ENDBRANCH  14  22
ENDBRANCH   8   9
ENDBRANCH   5   8
BRANCH   6  24
HETATM   24  C14 UNL     1     -68.179 -14.146  48.885  1.00  0.00    -0.067 C 
HETATM   25  C15 UNL     1     -67.143 -15.195  48.507  1.00  0.00     0.035 C 
HETATM   26  C16 UNL     1     -66.141 -14.722  47.537  1.00  0.00     0.004 C 
HETATM   27  C17 UNL     1     -66.602 -13.698  46.545  1.00  0.00     0.000 C 
HETATM   28  C18 UNL     1     -67.807 -14.085  45.757  1.00  0.00     0.000 C 
HETATM   29  C19 UNL     1     -69.066 -14.278  46.531  1.00  0.00     0.004 C 
HETATM   30  C20 UNL     1     -69.084 -13.623  47.893  1.00  0.00     0.035 C 
ENDBRANCH   6  24
BRANCH   1  31
HETATM   31  C2  UNL     1     -66.404 -13.789  53.539  1.00  0.00     0.311 C 
BRANCH  31  32
HETATM   32  N1  UNL     1     -65.796 -15.048  53.902  1.00  0.00     0.097 N 
HETATM   33  C1  UNL     1     -66.011 -15.516  55.214  1.00  0.00     0.310 C 
BRANCH  32  34
HETATM   34  C22 UNL     1     -64.451 -15.053  53.428  1.00  0.00     0.270 C 
HETATM   35  C23 UNL     1     -64.223 -15.666  52.054  1.00  0.00     0.205 C 
HETATM   36  O7  UNL     1     -63.568 -16.744  52.658  1.00  0.00    -0.387 OA
HETATM   37  C24 UNL     1     -63.596 -16.179  53.945  1.00  0.00     0.205 C 
ENDBRANCH  32  34
ENDBRANCH  31  32
ENDBRANCH   1  31
TORSDOF 11
ENDMDL
MODEL 4
REMARK VINA RESULT: -8.042613125      4.566      8.270
REMARK  11 active torsions:
REMARK  status: ('A' for Active; 'I' for Inactive)
REMARK    1  A    between atoms: N1_2  and  C2_3 
REMARK    2  A    between atoms: N1_2  and  C22_34 
REMARK    3  A    between atoms: C2_3  and  C3_4 
REMARK    4  A    between atoms: C6_8  and  O1_9 
REMARK    5  A    between atoms: O1_9  and  C7_10 
REMARK    6  A    between atoms: C8_12  and  C9_13 
REMARK    7  A    between atoms: C9_13  and  O3_14 
REMARK    8  A    between atoms: C10_16  and  O4_17 
REMARK    9  A    between atoms: C11_19  and  O5_20 
REMARK   10  A    between atoms: C12_22  and  O6_23 
REMARK   11  A    between atoms: C13_25  and  C14_26 
ROOT
HETATM    1  C3  UNL     1     -70.165 -14.533  46.823  1.00  0.00    -0.028 A 
HETATM    2  C4  UNL     1     -69.671 -14.246  45.581  1.00  0.00     0.035 A 
HETATM    3  C5  UNL     1     -68.332 -14.055  45.411  1.00  0.00     0.069 A 
HETATM    4 CL1  UNL     1     -67.734 -13.829  43.765  1.00  0.00    -0.081 Cl
HETATM    5  C6  UNL     1     -67.453 -14.151  46.503  1.00  0.00     0.104 A 
HETATM    6  C13 UNL     1     -67.900 -14.453  47.785  1.00  0.00     0.002 A 
HETATM    7  C21 UNL     1     -69.304 -14.636  47.883  1.00  0.00     0.023 A 
ENDROOT
BRANCH   5   8
HETATM    8  O1  UNL     1     -66.154 -13.931  46.202  1.00  0.00    -0.315 OA
BRANCH   8   9
HETATM    9  C7  UNL     1     -65.551 -12.917  45.433  1.00  0.00     0.298 C 
HETATM   10  O2  UNL     1     -64.833 -13.534  44.423  1.00  0.00    -0.348 OA
HETATM   11  C8  UNL     1     -63.594 -13.111  44.100  1.00  0.00     0.179 C 
HETATM   12  C10 UNL     1     -62.676 -12.869  45.246  1.00  0.00     0.180 C 
HETATM   13  C11 UNL     1     -63.354 -12.412  46.487  1.00  0.00     0.183 C 
HETATM   14  C12 UNL     1     -64.795 -11.991  46.276  1.00  0.00     0.205 C 
BRANCH  11  15
HETATM   15  C9  UNL     1     -63.480 -12.137  42.959  1.00  0.00     0.198 C 
BRANCH  15  16
HETATM   16  O3  UNL     1     -64.583 -12.084  42.117  1.00  0.00    -0.398 OA
ATOM     17  H3  UNL     1     -64.773 -11.227  41.755  1.00  0.00     0.209 HD
ENDBRANCH  15  16
ENDBRANCH  11  15
BRANCH  12  18
HETATM   18  O4  UNL     1     -62.000 -14.071  45.608  1.00  0.00    -0.390 OA
ATOM     19  H4  UNL     1     -62.080 -14.230  46.542  1.00  0.00     0.210 HD
ENDBRANCH  12  18
BRANCH  13  20
HETATM   20  O5  UNL     1     -63.385 -13.386  47.503  1.00  0.00    -0.390 OA
ATOM     21  H5  UNL     1     -64.166 -13.927  47.486  1.00  0.00     0.210 HD
ENDBRANCH  13  20
BRANCH  14  22
HETATM   22  O6  UNL     1     -65.332 -11.949  47.587  1.00  0.00    -0.388 OA
ATOM     23  H6  UNL     1     -65.390 -11.054  47.900  1.00  0.00     0.210 HD
ENDBRANCH  14  22
ENDBRANCH   8   9
ENDBRANCH   5   8
BRANCH   6  24
HETATM   24  C14 UNL     1     -67.037 -14.563  48.972  1.00  0.00    -0.067 C 
HETATM   25  C15 UNL     1     -67.571 -13.736  50.132  1.00  0.00     0.035 C 
HETATM   26  C16 UNL     1     -66.535 -12.972  50.848  1.00  0.00     0.004 C 
HETATM   27  C17 UNL     1     -65.169 -13.586  50.900  1.00  0.00     0.000 C 
HETATM   28  C18 UNL     1     -65.124 -14.974  51.441  1.00  0.00     0.000 C 
HETATM   29  C19 UNL     1     -65.842 -16.013  50.649  1.00  0.00     0.004 C 
HETATM   30  C20 UNL     1     -66.113 -15.643  49.209  1.00  0.00     0.035 C 
ENDBRANCH   6  24
BRANCH   1  31
HETATM   31  C2  UNL     1     -71.626 -14.627  47.003  1.00  0.00     0.311 C 
BRANCH  31  32
HETATM   32  N1  UNL     1     -71.980 -15.864  47.658  1.00  0.00     0.097 N 
HETATM   33  C1  UNL     1     -71.818 -17.056  46.923  1.00  0.00     0.310 C 
BRANCH  32  34
HETATM   34  C22 UNL     1     -73.228 -15.682  48.324  1.00  0.00     0.270 C 
HETATM   35  C23 UNL     1     -73.162 -15.160  49.751  1.00  0.00     0.205 C 
HETATM   36  O7  UNL     1     -73.578 -16.411  50.215  1.00  0.00    -0.387 OA
HETATM   37  C24 UNL     1     -73.816 -16.928  48.929  1.00  0.00     0.205 C 
ENDBRANCH  32  34
ENDBRANCH  31  32
ENDBRANCH   1  31
TORSDOF 11
ENDMDL
MODEL 5
REMARK VINA RESULT: -7.828269664      2.554      7.084
REMARK  11 active torsions:
REMARK  status: ('A' for Active; 'I' for Inactive)
REMARK    1  A    between atoms: N1_2  and  C2_3 
REMARK    2  A    between atoms: N1_2  and  C22_34 
REMARK    3  A    between atoms: C2_3  and  C3_4 
REMARK    4  A    between atoms: C6_8  and  O1_9 
REMARK    5  A    between atoms: O1_9  and  C7_10 
REMARK    6  A    between atoms: C8_12  and  C9_13 
REMARK    7  A    between atoms: C9_13  and  O3_14 
REMARK    8  A    between atoms: C10_16  and  O4_17 
REMARK    9  A    between atoms: C11_19  and  O5_20 
REMARK   10  A    between atoms: C12_22  and  O6_23 
REMARK   11  A    between atoms: C13_25  and  C14_26 
ROOT
HETATM    1  C3  UNL     1     -70.984 -15.462  49.079  1.00  0.00    -0.028 A 
HETATM    2  C4  UNL     1     -71.127 -14.954  50.340  1.00  0.00     0.035 A 
HETATM    3  C5  UNL     1     -70.118 -14.226  50.897  1.00  0.00     0.069 A 
HETATM    4 CL1  UNL     1     -70.412 -13.476  52.467  1.00  0.00    -0.081 Cl
HETATM    5  C6  UNL     1     -68.929 -13.992  50.184  1.00  0.00     0.104 A 
HETATM    6  C13 UNL     1     -68.736 -14.474  48.894  1.00  0.00     0.002 A 
HETATM    7  C21 UNL     1     -69.828 -15.223  48.384  1.00  0.00     0.023 A 
ENDROOT
BRANCH   5   8
HETATM    8  O1  UNL     1     -68.006 -13.265  50.852  1.00  0.00    -0.315 OA
BRANCH   8   9
HETATM    9  C7  UNL     1     -66.896 -13.673  51.616  1.00  0.00     0.298 C 
HETATM   10  O2  UNL     1     -67.370 -14.470  52.644  1.00  0.00    -0.348 OA
HETATM   11  C8  UNL     1     -66.900 -14.329  53.899  1.00  0.00     0.179 C 
HETATM   12  C10 UNL     1     -66.801 -12.930  54.398  1.00  0.00     0.180 C 
HETATM   13  C11 UNL     1     -66.515 -11.922  53.343  1.00  0.00     0.183 C 
HETATM   14  C12 UNL     1     -66.082 -12.529  52.023  1.00  0.00     0.205 C 
BRANCH  11  15
HETATM   15  C9  UNL     1     -65.785 -15.247  54.319  1.00  0.00     0.198 C 
BRANCH  15  16
HETATM   16  O3  UNL     1     -64.554 -14.632  54.506  1.00  0.00    -0.398 OA
ATOM     17  H3  UNL     1     -63.832 -15.221  54.689  1.00  0.00     0.209 HD
ENDBRANCH  15  16
ENDBRANCH  11  15
BRANCH  12  18
HETATM   18  O4  UNL     1     -68.036 -12.519  54.983  1.00  0.00    -0.390 OA
ATOM     19  H4  UNL     1     -68.274 -13.098  55.697  1.00  0.00     0.210 HD
ENDBRANCH  12  18
BRANCH  13  20
HETATM   20  O5  UNL     1     -67.613 -11.095  53.041  1.00  0.00    -0.390 OA
ATOM     21  H5  UNL     1     -67.807 -11.045  52.113  1.00  0.00     0.210 HD
ENDBRANCH  13  20
BRANCH  14  22
HETATM   22  O6  UNL     1     -66.214 -11.461  51.099  1.00  0.00    -0.388 OA
ATOM     23  H6  UNL     1     -65.677 -11.610  50.331  1.00  0.00     0.210 HD
ENDBRANCH  14  22
ENDBRANCH   8   9
ENDBRANCH   5   8
BRANCH   6  24
HETATM   24  C14 UNL     1     -67.517 -14.271  48.095  1.00  0.00    -0.067 C 
HETATM   25  C15 UNL     1     -66.482 -15.354  48.367  1.00  0.00     0.035 C 
HETATM   26  C16 UNL     1     -65.108 -14.844  48.515  1.00  0.00     0.004 C 
HETATM   27  C17 UNL     1     -64.760 -13.623  47.719  1.00  0.00     0.000 C 
HETATM   28  C18 UNL     1     -65.017 -13.733  46.255  1.00  0.00     0.000 C 
HETATM   29  C19 UNL     1     -66.440 -13.907  45.848  1.00  0.00     0.004 C 
HETATM   30  C20 UNL     1     -67.456 -13.491  46.886  1.00  0.00     0.035 C 
ENDBRANCH   6  24
BRANCH   1  31
HETATM   31  C2  UNL     1     -72.042 -16.336  48.540  1.00  0.00     0.311 C 
BRANCH  31  32
HETATM   32  N1  UNL     1     -73.320 -16.014  49.131  1.00  0.00     0.097 N 
HETATM   33  C1  UNL     1     -74.098 -17.086  49.613  1.00  0.00     0.310 C 
BRANCH  32  34
HETATM   34  C22 UNL     1     -73.978 -15.064  48.295  1.00  0.00     0.270 C 
HETATM   35  C23 UNL     1     -73.084 -14.229  47.391  1.00  0.00     0.205 C 
HETATM   36  O7  UNL     1     -73.366 -13.105  48.172  1.00  0.00    -0.387 OA
HETATM   37  C24 UNL     1     -74.327 -13.761  48.962  1.00  0.00     0.205 C 
ENDBRANCH  32  34
ENDBRANCH  31  32
ENDBRANCH   1  31
TORSDOF 11
ENDMDL
