MODEL 1
REMARK VINA RESULT: -8.453327469      0.000      0.000
REMARK  11 active torsions:
REMARK  status: ('A' for Active; 'I' for Inactive)
REMARK    1  A    between atoms: C2_2  and  C5_5 
REMARK    2  A    between atoms: C5_5  and  O2_7 
REMARK    3  A    between atoms: O2_7  and  C6_8 
REMARK    4  A    between atoms: C6_8  and  C7_9 
REMARK    5  A    between atoms: C8_11  and  C9_12 
REMARK    6  A    between atoms: C12_15  and  N1_16 
REMARK    7  A    between atoms: N1_16  and  S1_18 
REMARK    8  A    between atoms: S1_18  and  C13_21 
REMARK    9  A    between atoms: C21_30  and  O6_31 
REMARK   10  A    between atoms: C22_33  and  O7_34 
REMARK   11  A    between atoms: C23_36  and  O8_37 
ROOT
HETATM    1  C7  UNL     1     -69.696 -13.887  53.315  1.00  0.00     0.178 C 
HETATM    2  O3  UNL     1     -68.823 -14.497  52.405  1.00  0.00    -0.368 OA
HETATM    3  C8  UNL     1     -67.657 -13.734  52.450  1.00  0.00     0.186 C 
HETATM    4  C21 UNL     1     -66.944 -14.153  53.732  1.00  0.00     0.182 C 
HETATM    5  C22 UNL     1     -67.767 -13.581  54.879  1.00  0.00     0.181 C 
HETATM    6  C23 UNL     1     -69.213 -14.001  54.727  1.00  0.00     0.180 C 
ENDROOT
BRANCH   3   7
HETATM    7  C9  UNL     1     -66.797 -13.867  51.271  1.00  0.00    -0.027 A 
HETATM    8  C10 UNL     1     -66.528 -15.068  50.648  1.00  0.00     0.012 A 
HETATM    9  C11 UNL     1     -65.714 -15.125  49.538  1.00  0.00     0.031 A 
HETATM   10  C12 UNL     1     -65.123 -13.992  48.985  1.00  0.00     0.042 A 
HETATM   11  C19 UNL     1     -65.387 -12.791  49.600  1.00  0.00     0.031 A 
HETATM   12  C20 UNL     1     -66.211 -12.748  50.720  1.00  0.00     0.012 A 
BRANCH  10  13
HETATM   13  N1  UNL     1     -64.299 -14.073  47.839  1.00  0.00    -0.281 N 
ATOM     14  H1  UNL     1     -63.485 -14.689  47.859  1.00  0.00     0.179 HD
BRANCH  13  15
HETATM   15  S1  UNL     1     -64.618 -13.176  46.422  1.00  0.00     0.263 S 
HETATM   16  O4  UNL     1     -64.428 -11.697  46.606  1.00  0.00    -0.200 OA
HETATM   17  O5  UNL     1     -63.708 -13.687  45.311  1.00  0.00    -0.200 OA
BRANCH  15  18
HETATM   18  C13 UNL     1     -66.268 -13.418  45.880  1.00  0.00     0.080 A 
HETATM   19  C14 UNL     1     -66.619 -12.937  44.640  1.00  0.00     0.028 A 
HETATM   20  C15 UNL     1     -67.885 -13.073  44.113  1.00  0.00     0.044 A 
HETATM   21  C16 UNL     1     -68.815 -13.721  44.887  1.00  0.00     0.116 A 
HETATM   22  F1  UNL     1     -70.081 -13.883  44.421  1.00  0.00    -0.206 F 
HETATM   23  C17 UNL     1     -68.476 -14.206  46.131  1.00  0.00     0.044 A 
HETATM   24  C18 UNL     1     -67.201 -14.066  46.654  1.00  0.00     0.028 A 
ENDBRANCH  15  18
ENDBRANCH  13  15
ENDBRANCH  10  13
ENDBRANCH   3   7
BRANCH   4  25
HETATM   25  O6  UNL     1     -67.072 -15.550  53.827  1.00  0.00    -0.390 OA
ATOM     26  H6  UNL     1     -66.617 -15.812  54.619  1.00  0.00     0.210 HD
ENDBRANCH   4  25
BRANCH   1  27
HETATM   27  C6  UNL     1     -71.101 -14.438  53.240  1.00  0.00     0.213 C 
BRANCH  27  28
HETATM   28  O2  UNL     1     -71.195 -15.142  52.013  1.00  0.00    -0.318 OA
BRANCH  28  29
HETATM   29  C5  UNL     1     -71.686 -14.604  50.846  1.00  0.00     0.266 C 
HETATM   30  O1  UNL     1     -72.812 -14.063  50.863  1.00  0.00    -0.264 OA
BRANCH  29  31
HETATM   31  C2  UNL     1     -70.890 -14.663  49.584  1.00  0.00     0.037 C 
HETATM   32  C1  UNL     1     -69.975 -13.489  49.436  1.00  0.00     0.025 C 
HETATM   33  C3  UNL     1     -71.856 -14.748  48.425  1.00  0.00     0.025 C 
HETATM   34  C4  UNL     1     -70.045 -15.938  49.559  1.00  0.00     0.025 C 
ENDBRANCH  29  31
ENDBRANCH  28  29
ENDBRANCH  27  28
ENDBRANCH   1  27
BRANCH   5  35
HETATM   35  O7  UNL     1     -67.621 -12.188  54.794  1.00  0.00    -0.390 OA
ATOM     36  H7  UNL     1     -67.942 -11.844  55.619  1.00  0.00     0.210 HD
ENDBRANCH   5  35
BRANCH   6  37
HETATM   37  O8  UNL     1     -69.405 -15.255  55.274  1.00  0.00    -0.390 OA
ATOM     38  H8  UNL     1     -69.377 -15.261  56.223  1.00  0.00     0.210 HD
ENDBRANCH   6  37
TORSDOF 11
ENDMDL
MODEL 2
REMARK VINA RESULT: -8.373981951      2.995      5.512
REMARK  11 active torsions:
REMARK  status: ('A' for Active; 'I' for Inactive)
REMARK    1  A    between atoms: C2_2  and  C5_5 
REMARK    2  A    between atoms: C5_5  and  O2_7 
REMARK    3  A    between atoms: O2_7  and  C6_8 
REMARK    4  A    between atoms: C6_8  and  C7_9 
REMARK    5  A    between atoms: C8_11  and  C9_12 
REMARK    6  A    between atoms: C12_15  and  N1_16 
REMARK    7  A    between atoms: N1_16  and  S1_18 
REMARK    8  A    between atoms: S1_18  and  C13_21 
REMARK    9  A    between atoms: C21_30  and  O6_31 
REMARK   10  A    between atoms: C22_33  and  O7_34 
REMARK   11  A    between atoms: C23_36  and  O8_37 
ROOT
HETATM    1  C7  UNL     1     -72.195 -15.261  49.802  1.00  0.00     0.178 C 
HETATM    2  O3  UNL     1     -71.477 -14.417  48.945  1.00  0.00    -0.368 OA
HETATM    3  C8  UNL     1     -70.837 -15.268  48.045  1.00  0.00     0.186 C 
HETATM    4  C21 UNL     1     -71.915 -15.698  47.054  1.00  0.00     0.182 C 
HETATM    5  C22 UNL     1     -72.835 -16.643  47.816  1.00  0.00     0.181 C 
HETATM    6  C23 UNL     1     -73.301 -15.979  49.094  1.00  0.00     0.180 C 
ENDROOT
BRANCH   3   7
HETATM    7  C9  UNL     1     -69.674 -14.680  47.376  1.00  0.00    -0.027 A 
HETATM    8  C10 UNL     1     -69.470 -14.720  46.012  1.00  0.00     0.012 A 
HETATM    9  C11 UNL     1     -68.356 -14.144  45.443  1.00  0.00     0.031 A 
HETATM   10  C12 UNL     1     -67.382 -13.495  46.197  1.00  0.00     0.042 A 
HETATM   11  C19 UNL     1     -67.578 -13.450  47.558  1.00  0.00     0.031 A 
HETATM   12  C20 UNL     1     -68.707 -14.036  48.119  1.00  0.00     0.012 A 
BRANCH  10  13
HETATM   13  N1  UNL     1     -66.251 -12.901  45.591  1.00  0.00    -0.281 N 
ATOM     14  H1  UNL     1     -66.367 -12.412  44.703  1.00  0.00     0.179 HD
BRANCH  13  15
HETATM   15  S1  UNL     1     -64.698 -12.973  46.295  1.00  0.00     0.263 S 
HETATM   16  O4  UNL     1     -64.341 -11.734  47.066  1.00  0.00    -0.200 OA
HETATM   17  O5  UNL     1     -64.635 -14.194  47.206  1.00  0.00    -0.200 OA
BRANCH  15  18
HETATM   18  C13 UNL     1     -63.460 -13.190  45.071  1.00  0.00     0.080 A 
HETATM   19  C14 UNL     1     -63.837 -13.128  43.750  1.00  0.00     0.028 A 
HETATM   20  C15 UNL     1     -62.949 -13.281  42.708  1.00  0.00     0.044 A 
HETATM   21  C16 UNL     1     -61.636 -13.505  43.037  1.00  0.00     0.116 A 
HETATM   22  F1  UNL     1     -60.714 -13.664  42.051  1.00  0.00    -0.206 F 
HETATM   23  C17 UNL     1     -61.245 -13.568  44.357  1.00  0.00     0.044 A 
HETATM   24  C18 UNL     1     -62.144 -13.413  45.399  1.00  0.00     0.028 A 
ENDBRANCH  15  18
ENDBRANCH  13  15
ENDBRANCH  10  13
ENDBRANCH   3   7
BRANCH   4  25
HETATM   25  O6  UNL     1     -72.684 -14.556  46.773  1.00  0.00    -0.390 OA
ATOM     26  H6  UNL     1     -73.595 -14.823  46.816  1.00  0.00     0.210 HD
ENDBRANCH   4  25
BRANCH   1  27
HETATM   27  C6  UNL     1     -72.775 -14.535  50.992  1.00  0.00     0.213 C 
BRANCH  27  28
HETATM   28  O2  UNL     1     -71.716 -13.790  51.569  1.00  0.00    -0.318 OA
BRANCH  28  29
HETATM   29  C5  UNL     1     -71.017 -14.178  52.689  1.00  0.00     0.266 C 
HETATM   30  O1  UNL     1     -71.561 -14.965  53.493  1.00  0.00    -0.264 OA
BRANCH  29  31
HETATM   31  C2  UNL     1     -69.635 -13.670  52.939  1.00  0.00     0.037 C 
HETATM   32  C1  UNL     1     -69.239 -13.793  54.376  1.00  0.00     0.025 C 
HETATM   33  C3  UNL     1     -69.575 -12.232  52.480  1.00  0.00     0.025 C 
HETATM   34  C4  UNL     1     -68.630 -14.453  52.094  1.00  0.00     0.025 C 
ENDBRANCH  29  31
ENDBRANCH  28  29
ENDBRANCH  27  28
ENDBRANCH   1  27
BRANCH   5  35
HETATM   35  O7  UNL     1     -72.070 -17.790  48.078  1.00  0.00    -0.390 OA
ATOM     36  H7  UNL     1     -72.112 -17.918  49.018  1.00  0.00     0.210 HD
ENDBRANCH   5  35
BRANCH   6  37
HETATM   37  O8  UNL     1     -74.401 -15.181  48.842  1.00  0.00    -0.390 OA
ATOM     38  H8  UNL     1     -74.757 -15.293  47.969  1.00  0.00     0.210 HD
ENDBRANCH   6  37
TORSDOF 11
ENDMDL
MODEL 3
REMARK VINA RESULT: -8.373304023      2.869      5.332
REMARK  11 active torsions:
REMARK  status: ('A' for Active; 'I' for Inactive)
REMARK    1  A    between atoms: C2_2  and  C5_5 
REMARK    2  A    between atoms: C5_5  and  O2_7 
REMARK    3  A    between atoms: O2_7  and  C6_8 
REMARK    4  A    between atoms: C6_8  and  C7_9 
REMARK    5  A    between atoms: C8_11  and  C9_12 
REMARK    6  A    between atoms: C12_15  and  N1_16 
REMARK    7  A    between atoms: N1_16  and  S1_18 
REMARK    8  A    between atoms: S1_18  and  C13_21 
REMARK    9  A    between atoms: C21_30  and  O6_31 
REMARK   10  A    between atoms: C22_33  and  O7_34 
REMARK   11  A    between atoms: C23_36  and  O8_37 
ROOT
HETATM    1  C7  UNL     1     -71.961 -14.920  50.480  1.00  0.00     0.178 C 
HETATM    2  O3  UNL     1     -71.155 -14.142  49.640  1.00  0.00    -0.368 OA
HETATM    3  C8  UNL     1     -71.075 -14.857  48.445  1.00  0.00     0.186 C 
HETATM    4  C21 UNL     1     -72.404 -14.617  47.736  1.00  0.00     0.182 C 
HETATM    5  C22 UNL     1     -73.450 -15.393  48.526  1.00  0.00     0.181 C 
HETATM    6  C23 UNL     1     -73.372 -15.011  49.987  1.00  0.00     0.180 C 
ENDROOT
BRANCH   3   7
HETATM    7  C9  UNL     1     -69.928 -14.508  47.604  1.00  0.00    -0.027 A 
HETATM    8  C10 UNL     1     -69.941 -14.562  46.225  1.00  0.00     0.012 A 
HETATM    9  C11 UNL     1     -68.830 -14.215  45.490  1.00  0.00     0.031 A 
HETATM   10  C12 UNL     1     -67.642 -13.796  46.083  1.00  0.00     0.042 A 
HETATM   11  C19 UNL     1     -67.620 -13.739  47.458  1.00  0.00     0.031 A 
HETATM   12  C20 UNL     1     -68.750 -14.092  48.187  1.00  0.00     0.012 A 
BRANCH  10  13
HETATM   13  N1  UNL     1     -66.515 -13.435  45.309  1.00  0.00    -0.281 N 
ATOM     14  H1  UNL     1     -66.630 -13.302  44.304  1.00  0.00     0.179 HD
BRANCH  13  15
HETATM   15  S1  UNL     1     -64.969 -13.214  45.997  1.00  0.00     0.263 S 
HETATM   16  O4  UNL     1     -64.822 -11.896  46.706  1.00  0.00    -0.200 OA
HETATM   17  O5  UNL     1     -64.702 -14.362  46.964  1.00  0.00    -0.200 OA
BRANCH  15  18
HETATM   18  C13 UNL     1     -63.717 -13.280  44.772  1.00  0.00     0.080 A 
HETATM   19  C14 UNL     1     -64.095 -13.182  43.452  1.00  0.00     0.028 A 
HETATM   20  C15 UNL     1     -63.197 -13.219  42.409  1.00  0.00     0.044 A 
HETATM   21  C16 UNL     1     -61.871 -13.362  42.734  1.00  0.00     0.116 A 
HETATM   22  F1  UNL     1     -60.938 -13.406  41.747  1.00  0.00    -0.206 F 
HETATM   23  C17 UNL     1     -61.479 -13.460  44.052  1.00  0.00     0.044 A 
HETATM   24  C18 UNL     1     -62.389 -13.422  45.095  1.00  0.00     0.028 A 
ENDBRANCH  15  18
ENDBRANCH  13  15
ENDBRANCH  10  13
ENDBRANCH   3   7
BRANCH   4  25
HETATM   25  O6  UNL     1     -72.718 -13.259  47.915  1.00  0.00    -0.390 OA
ATOM     26  H6  UNL     1     -73.027 -13.166  48.808  1.00  0.00     0.210 HD
ENDBRANCH   4  25
BRANCH   1  27
HETATM   27  C6  UNL     1     -71.979 -14.419  51.905  1.00  0.00     0.213 C 
BRANCH  27  28
HETATM   28  O2  UNL     1     -71.085 -13.321  51.960  1.00  0.00    -0.318 OA
BRANCH  28  29
HETATM   29  C5  UNL     1     -69.929 -13.299  52.707  1.00  0.00     0.266 C 
HETATM   30  O1  UNL     1     -69.986 -13.641  53.907  1.00  0.00    -0.264 OA
BRANCH  29  31
HETATM   31  C2  UNL     1     -68.634 -12.877  52.096  1.00  0.00     0.037 C 
HETATM   32  C1  UNL     1     -68.820 -11.841  51.034  1.00  0.00     0.025 C 
HETATM   33  C3  UNL     1     -67.955 -14.107  51.541  1.00  0.00     0.025 C 
HETATM   34  C4  UNL     1     -67.712 -12.302  53.172  1.00  0.00     0.025 C 
ENDBRANCH  29  31
ENDBRANCH  28  29
ENDBRANCH  27  28
ENDBRANCH   1  27
BRANCH   5  35
HETATM   35  O7  UNL     1     -73.147 -16.749  48.328  1.00  0.00    -0.390 OA
ATOM     36  H7  UNL     1     -72.207 -16.786  48.195  1.00  0.00     0.210 HD
ENDBRANCH   5  35
BRANCH   6  37
HETATM   37  O8  UNL     1     -74.110 -13.866  50.221  1.00  0.00    -0.390 OA
ATOM     38  H8  UNL     1     -75.040 -14.029  50.315  1.00  0.00     0.210 HD
ENDBRANCH   6  37
TORSDOF 11
ENDMDL
MODEL 4
REMARK VINA RESULT: -8.343778377      3.058      5.537
REMARK  11 active torsions:
REMARK  status: ('A' for Active; 'I' for Inactive)
REMARK    1  A    between atoms: C2_2  and  C5_5 
REMARK    2  A    between atoms: C5_5  and  O2_7 
REMARK    3  A    between atoms: O2_7  and  C6_8 
REMARK    4  A    between atoms: C6_8  and  C7_9 
REMARK    5  A    between atoms: C8_11  and  C9_12 
REMARK    6  A    between atoms: C12_15  and  N1_16 
REMARK    7  A    between atoms: N1_16  and  S1_18 
REMARK    8  A    between atoms: S1_18  and  C13_21 
REMARK    9  A    between atoms: C21_30  and  O6_31 
REMARK   10  A    between atoms: C22_33  and  O7_34 
REMARK   11  A    between atoms: C23_36  and  O8_37 
ROOT
HETATM    1  C7  UNL     1     -72.287 -15.194  49.805  1.00  0.00     0.178 C 
HETATM    2  O3  UNL     1     -71.548 -14.361  48.954  1.00  0.00    -0.368 OA
HETATM    3  C8  UNL     1     -70.874 -15.226  48.092  1.00  0.00     0.186 C 
HETATM    4  C21 UNL     1     -71.917 -15.685  47.077  1.00  0.00     0.182 C 
HETATM    5  C22 UNL     1     -72.854 -16.620  47.829  1.00  0.00     0.181 C 
HETATM    6  C23 UNL     1     -73.365 -15.934  49.077  1.00  0.00     0.180 C 
ENDROOT
BRANCH   3   7
HETATM    7  C9  UNL     1     -69.694 -14.643  47.448  1.00  0.00    -0.027 A 
HETATM    8  C10 UNL     1     -68.663 -14.038  48.135  1.00  0.00     0.012 A 
HETATM    9  C11 UNL     1     -67.577 -13.513  47.471  1.00  0.00     0.031 A 
HETATM   10  C12 UNL     1     -67.455 -13.561  46.084  1.00  0.00     0.042 A 
HETATM   11  C19 UNL     1     -68.479 -14.163  45.390  1.00  0.00     0.031 A 
HETATM   12  C20 UNL     1     -69.570 -14.688  46.075  1.00  0.00     0.012 A 
BRANCH  10  13
HETATM   13  N1  UNL     1     -66.327 -13.024  45.422  1.00  0.00    -0.281 N 
ATOM     14  H1  UNL     1     -66.450 -12.601  44.502  1.00  0.00     0.179 HD
BRANCH  13  15
HETATM   15  S1  UNL     1     -64.765 -13.059  46.110  1.00  0.00     0.263 S 
HETATM   16  O4  UNL     1     -64.439 -11.820  46.895  1.00  0.00    -0.200 OA
HETATM   17  O5  UNL     1     -64.658 -14.289  47.005  1.00  0.00    -0.200 OA
BRANCH  15  18
HETATM   18  C13 UNL     1     -63.534 -13.222  44.873  1.00  0.00     0.080 A 
HETATM   19  C14 UNL     1     -62.232 -13.415  45.275  1.00  0.00     0.028 A 
HETATM   20  C15 UNL     1     -61.186 -13.558  44.390  1.00  0.00     0.044 A 
HETATM   21  C16 UNL     1     -61.490 -13.498  43.053  1.00  0.00     0.116 A 
HETATM   22  F1  UNL     1     -60.499 -13.631  42.133  1.00  0.00    -0.206 F 
HETATM   23  C17 UNL     1     -62.789 -13.305  42.637  1.00  0.00     0.044 A 
HETATM   24  C18 UNL     1     -63.835 -13.163  43.533  1.00  0.00     0.028 A 
ENDBRANCH  15  18
ENDBRANCH  13  15
ENDBRANCH  10  13
ENDBRANCH   3   7
BRANCH   4  25
HETATM   25  O6  UNL     1     -72.685 -14.554  46.748  1.00  0.00    -0.390 OA
ATOM     26  H6  UNL     1     -72.509 -13.901  47.415  1.00  0.00     0.210 HD
ENDBRANCH   4  25
BRANCH   1  27
HETATM   27  C6  UNL     1     -72.910 -14.448  50.961  1.00  0.00     0.213 C 
BRANCH  27  28
HETATM   28  O2  UNL     1     -71.855 -13.771  51.622  1.00  0.00    -0.318 OA
BRANCH  28  29
HETATM   29  C5  UNL     1     -71.030 -14.351  52.559  1.00  0.00     0.266 C 
HETATM   30  O1  UNL     1     -71.548 -14.944  53.529  1.00  0.00    -0.264 OA
BRANCH  29  31
HETATM   31  C2  UNL     1     -69.545 -14.273  52.420  1.00  0.00     0.037 C 
HETATM   32  C1  UNL     1     -68.853 -14.245  53.746  1.00  0.00     0.025 C 
HETATM   33  C3  UNL     1     -69.215 -13.042  51.609  1.00  0.00     0.025 C 
HETATM   34  C4  UNL     1     -69.030 -15.480  51.634  1.00  0.00     0.025 C 
ENDBRANCH  29  31
ENDBRANCH  28  29
ENDBRANCH  27  28
ENDBRANCH   1  27
BRANCH   5  35
HETATM   35  O7  UNL     1     -72.090 -17.756  48.138  1.00  0.00    -0.390 OA
ATOM     36  H7  UNL     1     -71.672 -17.567  48.970  1.00  0.00     0.210 HD
ENDBRANCH   5  35
BRANCH   6  37
HETATM   37  O8  UNL     1     -74.462 -15.150  48.775  1.00  0.00    -0.390 OA
ATOM     38  H8  UNL     1     -74.933 -15.440  48.003  1.00  0.00     0.210 HD
ENDBRANCH   6  37
TORSDOF 11
ENDMDL
MODEL 5
REMARK VINA RESULT: -8.340546525      2.633      5.517
REMARK  11 active torsions:
REMARK  status: ('A' for Active; 'I' for Inactive)
REMARK    1  A    between atoms: C2_2  and  C5_5 
REMARK    2  A    between atoms: C5_5  and  O2_7 
REMARK    3  A    between atoms: O2_7  and  C6_8 
REMARK    4  A    between atoms: C6_8  and  C7_9 
REMARK    5  A    between atoms: C8_11  and  C9_12 
REMARK    6  A    between atoms: C12_15  and  N1_16 
REMARK    7  A    between atoms: N1_16  and  S1_18 
REMARK    8  A    between atoms: S1_18  and  C13_21 
REMARK    9  A    between atoms: C21_30  and  O6_31 
REMARK   10  A    between atoms: C22_33  and  O7_34 
REMARK   11  A    between atoms: C23_36  and  O8_37 
ROOT
HETATM    1  C7  UNL     1     -71.997 -15.383  49.661  1.00  0.00     0.178 C 
HETATM    2  O3  UNL     1     -70.949 -14.646  49.092  1.00  0.00    -0.368 OA
HETATM    3  C8  UNL     1     -70.269 -15.550  48.277  1.00  0.00     0.186 C 
HETATM    4  C21 UNL     1     -71.125 -15.693  47.022  1.00  0.00     0.182 C 
HETATM    5  C22 UNL     1     -72.359 -16.480  47.442  1.00  0.00     0.181 C 
HETATM    6  C23 UNL     1     -73.002 -15.818  48.641  1.00  0.00     0.180 C 
ENDROOT
BRANCH   3   7
HETATM    7  C9  UNL     1     -68.890 -15.166  47.965  1.00  0.00    -0.027 A 
HETATM    8  C10 UNL     1     -68.521 -14.489  46.821  1.00  0.00     0.012 A 
HETATM    9  C11 UNL     1     -67.206 -14.152  46.588  1.00  0.00     0.031 A 
HETATM   10  C12 UNL     1     -66.183 -14.470  47.478  1.00  0.00     0.042 A 
HETATM   11  C19 UNL     1     -66.543 -15.146  48.622  1.00  0.00     0.031 A 
HETATM   12  C20 UNL     1     -67.875 -15.479  48.844  1.00  0.00     0.012 A 
BRANCH  10  13
HETATM   13  N1  UNL     1     -64.841 -14.107  47.224  1.00  0.00    -0.281 N 
ATOM     14  H1  UNL     1     -64.296 -14.663  46.564  1.00  0.00     0.179 HD
BRANCH  13  15
HETATM   15  S1  UNL     1     -64.100 -12.769  47.981  1.00  0.00     0.263 S 
HETATM   16  O4  UNL     1     -62.641 -12.987  48.270  1.00  0.00    -0.200 OA
HETATM   17  O5  UNL     1     -64.280 -11.546  47.088  1.00  0.00    -0.200 OA
BRANCH  15  18
HETATM   18  C13 UNL     1     -64.876 -12.399  49.510  1.00  0.00     0.080 A 
HETATM   19  C14 UNL     1     -64.261 -12.821  50.667  1.00  0.00     0.028 A 
HETATM   20  C15 UNL     1     -64.779 -12.584  51.921  1.00  0.00     0.044 A 
HETATM   21  C16 UNL     1     -65.964 -11.894  51.985  1.00  0.00     0.116 A 
HETATM   22  F1  UNL     1     -66.524 -11.632  53.195  1.00  0.00    -0.206 F 
HETATM   23  C17 UNL     1     -66.589 -11.466  50.834  1.00  0.00     0.044 A 
HETATM   24  C18 UNL     1     -66.062 -11.708  49.576  1.00  0.00     0.028 A 
ENDBRANCH  15  18
ENDBRANCH  13  15
ENDBRANCH  10  13
ENDBRANCH   3   7
BRANCH   4  25
HETATM   25  O6  UNL     1     -71.583 -14.404  46.697  1.00  0.00    -0.390 OA
ATOM     26  H6  UNL     1     -72.512 -14.484  46.512  1.00  0.00     0.210 HD
ENDBRANCH   4  25
BRANCH   1  27
HETATM   27  C6  UNL     1     -72.716 -14.630  50.756  1.00  0.00     0.213 C 
BRANCH  27  28
HETATM   28  O2  UNL     1     -71.742 -13.830  51.404  1.00  0.00    -0.318 OA
BRANCH  28  29
HETATM   29  C5  UNL     1     -71.106 -14.178  52.574  1.00  0.00     0.266 C 
HETATM   30  O1  UNL     1     -71.685 -14.956  53.362  1.00  0.00    -0.264 OA
BRANCH  29  31
HETATM   31  C2  UNL     1     -69.751 -13.640  52.895  1.00  0.00     0.037 C 
HETATM   32  C1  UNL     1     -69.406 -13.802  54.341  1.00  0.00     0.025 C 
HETATM   33  C3  UNL     1     -69.718 -12.184  52.490  1.00  0.00     0.025 C 
HETATM   34  C4  UNL     1     -68.691 -14.361  52.063  1.00  0.00     0.025 C 
ENDBRANCH  29  31
ENDBRANCH  28  29
ENDBRANCH  27  28
ENDBRANCH   1  27
BRANCH   5  35
HETATM   35  O7  UNL     1     -71.902 -17.771  47.747  1.00  0.00    -0.390 OA
ATOM     36  H7  UNL     1     -71.454 -18.077  46.967  1.00  0.00     0.210 HD
ENDBRANCH   5  35
BRANCH   6  37
HETATM   37  O8  UNL     1     -73.844 -14.802  48.231  1.00  0.00    -0.390 OA
ATOM     38  H8  UNL     1     -73.925 -14.737  47.287  1.00  0.00     0.210 HD
ENDBRANCH   6  37
TORSDOF 11
ENDMDL
