MODEL 1
REMARK VINA RESULT: -8.280151674      0.000      0.000
REMARK  13 active torsions:
REMARK  status: ('A' for Active; 'I' for Inactive)
REMARK    1  A    between atoms: C3_3  and  C4_4 
REMARK    2  A    between atoms: C4_4  and  N1_7 
REMARK    3  A    between atoms: N1_7  and  C7_8 
REMARK    4  A    between atoms: N1_7  and  C15_17 
REMARK    5  A    between atoms: C7_8  and  C8_9 
REMARK    6  A    between atoms: C20_23  and  O1_24 
REMARK    7  A    between atoms: O1_24  and  C21_25 
REMARK    8  A    between atoms: C21_25  and  C22_26 
REMARK    9  A    between atoms: C23_28  and  C24_29 
REMARK   10  A    between atoms: C24_29  and  O3_30 
REMARK   11  A    between atoms: C25_32  and  O4_33 
REMARK   12  A    between atoms: C26_35  and  O5_36 
REMARK   13  A    between atoms: C27_38  and  O6_39 
ROOT
HETATM    1  C1  UNL     1     -66.317 -12.319  54.456  1.00  0.00     0.112 C 
HETATM    2  C2  UNL     1     -66.316 -12.530  53.007  1.00  0.00    -0.108 C 
HETATM    3  C3  UNL     1     -66.301 -12.693  51.801  1.00  0.00    -0.076 C 
ENDROOT
BRANCH   3   4
HETATM    4  C4  UNL     1     -66.294 -12.917  50.346  1.00  0.00     0.089 C 
HETATM    5  C5  UNL     1     -67.449 -12.202  49.728  1.00  0.00     0.053 C 
HETATM    6  C6  UNL     1     -65.030 -12.236  49.794  1.00  0.00     0.053 C 
BRANCH   4   7
HETATM    7  N1  UNL     1     -66.254 -14.337  50.073  1.00  0.00    -0.355 N 
BRANCH   7   8
HETATM    8  C7  UNL     1     -65.689 -14.721  48.796  1.00  0.00     0.163 C 
BRANCH   8   9
HETATM    9  C8  UNL     1     -66.513 -14.413  47.631  1.00  0.00    -0.040 A 
HETATM   10  C9  UNL     1     -67.767 -15.032  47.584  1.00  0.00     0.010 A 
HETATM   11  C10 UNL     1     -68.630 -14.825  46.529  1.00  0.00     0.023 A 
HETATM   12  C11 UNL     1     -68.200 -13.982  45.525  1.00  0.00     0.044 A 
HETATM   13  C12 UNL     1     -69.100 -13.758  44.413  1.00  0.00     0.099 C 
HETATM   14  C13 UNL     1     -66.959 -13.366  45.565  1.00  0.00     0.023 A 
HETATM   15  N2  UNL     1     -69.830 -13.592  43.528  1.00  0.00    -0.191 NA
HETATM   16  C14 UNL     1     -66.111 -13.575  46.612  1.00  0.00     0.010 A 
ENDBRANCH   8   9
ENDBRANCH   7   8
BRANCH   7  17
HETATM   17  C15 UNL     1     -66.710 -15.350  50.984  1.00  0.00     0.068 A 
HETATM   18  C16 UNL     1     -65.824 -16.066  51.742  1.00  0.00     0.074 A 
HETATM   19  C17 UNL     1     -66.258 -17.036  52.623  1.00  0.00     0.118 A 
HETATM   20  F1  UNL     1     -65.357 -17.722  53.352  1.00  0.00    -0.206 F 
HETATM   21  C18 UNL     1     -67.612 -17.282  52.739  1.00  0.00     0.045 A 
HETATM   22  C19 UNL     1     -68.510 -16.571  51.986  1.00  0.00     0.042 A 
HETATM   23  C20 UNL     1     -68.086 -15.609  51.110  1.00  0.00     0.095 A 
BRANCH  23  24
HETATM   24  O1  UNL     1     -68.934 -14.864  50.327  1.00  0.00    -0.346 OA
BRANCH  24  25
HETATM   25  C21 UNL     1     -70.246 -14.551  50.349  1.00  0.00     0.210 C 
BRANCH  25  26
HETATM   26  C22 UNL     1     -71.146 -14.996  49.228  1.00  0.00     0.177 C 
HETATM   27  O2  UNL     1     -70.878 -16.309  48.985  1.00  0.00    -0.371 OA
HETATM   28  C23 UNL     1     -71.782 -17.116  48.442  1.00  0.00     0.177 C 
HETATM   29  C25 UNL     1     -73.221 -16.744  48.545  1.00  0.00     0.180 C 
HETATM   30  C26 UNL     1     -73.457 -15.260  48.474  1.00  0.00     0.180 C 
HETATM   31  C27 UNL     1     -72.559 -14.662  49.549  1.00  0.00     0.180 C 
BRANCH  28  32
HETATM   32  C24 UNL     1     -71.440 -17.314  46.964  1.00  0.00     0.198 C 
BRANCH  32  33
HETATM   33  O3  UNL     1     -72.545 -17.719  46.239  1.00  0.00    -0.398 OA
ATOM     34  H3  UNL     1     -72.656 -17.197  45.452  1.00  0.00     0.209 HD
ENDBRANCH  32  33
ENDBRANCH  28  32
BRANCH  29  35
HETATM   35  O4  UNL     1     -73.750 -17.190  49.756  1.00  0.00    -0.390 OA
ATOM     36  H4  UNL     1     -73.627 -16.533  50.430  1.00  0.00     0.210 HD
ENDBRANCH  29  35
BRANCH  30  37
HETATM   37  O5  UNL     1     -73.219 -14.725  47.232  1.00  0.00    -0.390 OA
ATOM     38  H5  UNL     1     -73.901 -14.916  46.599  1.00  0.00     0.210 HD
ENDBRANCH  30  37
BRANCH  31  39
HETATM   39  O6  UNL     1     -73.012 -15.126  50.764  1.00  0.00    -0.390 OA
ATOM     40  H6  UNL     1     -73.926 -15.384  50.785  1.00  0.00     0.210 HD
ENDBRANCH  31  39
ENDBRANCH  25  26
ENDBRANCH  24  25
ENDBRANCH  23  24
ENDBRANCH   7  17
ENDBRANCH   4   7
ENDBRANCH   3   4
TORSDOF 13
ENDMDL
MODEL 2
REMARK VINA RESULT: -8.050417615      1.526      4.741
REMARK  13 active torsions:
REMARK  status: ('A' for Active; 'I' for Inactive)
REMARK    1  A    between atoms: C3_3  and  C4_4 
REMARK    2  A    between atoms: C4_4  and  N1_7 
REMARK    3  A    between atoms: N1_7  and  C7_8 
REMARK    4  A    between atoms: N1_7  and  C15_17 
REMARK    5  A    between atoms: C7_8  and  C8_9 
REMARK    6  A    between atoms: C20_23  and  O1_24 
REMARK    7  A    between atoms: O1_24  and  C21_25 
REMARK    8  A    between atoms: C21_25  and  C22_26 
REMARK    9  A    between atoms: C23_28  and  C24_29 
REMARK   10  A    between atoms: C24_29  and  O3_30 
REMARK   11  A    between atoms: C25_32  and  O4_33 
REMARK   12  A    between atoms: C26_35  and  O5_36 
REMARK   13  A    between atoms: C27_38  and  O6_39 
ROOT
HETATM    1  C1  UNL     1     -70.203 -14.433  45.973  1.00  0.00     0.112 C 
HETATM    2  C2  UNL     1     -68.917 -14.375  46.669  1.00  0.00    -0.108 C 
HETATM    3  C3  UNL     1     -67.840 -14.316  47.235  1.00  0.00    -0.076 C 
ENDROOT
BRANCH   3   4
HETATM    4  C4  UNL     1     -66.552 -14.247  47.944  1.00  0.00     0.089 C 
HETATM    5  C5  UNL     1     -65.775 -15.495  47.684  1.00  0.00     0.053 C 
HETATM    6  C6  UNL     1     -65.747 -13.107  47.300  1.00  0.00     0.053 C 
BRANCH   4   7
HETATM    7  N1  UNL     1     -66.783 -13.967  49.344  1.00  0.00    -0.355 N 
BRANCH   7   8
HETATM    8  C7  UNL     1     -66.960 -12.571  49.689  1.00  0.00     0.163 C 
BRANCH   8   9
HETATM    9  C8  UNL     1     -66.308 -12.145  50.924  1.00  0.00    -0.040 A 
HETATM   10  C9  UNL     1     -64.963 -11.773  50.813  1.00  0.00     0.010 A 
HETATM   11  C10 UNL     1     -64.240 -11.362  51.911  1.00  0.00     0.023 A 
HETATM   12  C11 UNL     1     -64.901 -11.336  53.122  1.00  0.00     0.044 A 
HETATM   13  C12 UNL     1     -64.149 -10.905  54.282  1.00  0.00     0.099 C 
HETATM   14  C13 UNL     1     -66.232 -11.704  53.240  1.00  0.00     0.023 A 
HETATM   15  N2  UNL     1     -63.532 -10.562  55.201  1.00  0.00    -0.191 NA
HETATM   16  C14 UNL     1     -66.942 -12.110  52.148  1.00  0.00     0.010 A 
ENDBRANCH   8   9
ENDBRANCH   7   8
BRANCH   7  17
HETATM   17  C15 UNL     1     -66.866 -14.970  50.368  1.00  0.00     0.068 A 
HETATM   18  C16 UNL     1     -65.737 -15.480  50.949  1.00  0.00     0.074 A 
HETATM   19  C17 UNL     1     -65.813 -16.440  51.937  1.00  0.00     0.118 A 
HETATM   20  F1  UNL     1     -64.680 -16.920  52.485  1.00  0.00    -0.206 F 
HETATM   21  C18 UNL     1     -67.053 -16.889  52.345  1.00  0.00     0.045 A 
HETATM   22  C19 UNL     1     -68.192 -16.386  51.773  1.00  0.00     0.042 A 
HETATM   23  C20 UNL     1     -68.123 -15.435  50.791  1.00  0.00     0.095 A 
BRANCH  23  24
HETATM   24  O1  UNL     1     -69.226 -14.891  50.178  1.00  0.00    -0.346 OA
BRANCH  24  25
HETATM   25  C21 UNL     1     -70.560 -14.928  50.376  1.00  0.00     0.210 C 
BRANCH  25  26
HETATM   26  C22 UNL     1     -71.479 -15.331  49.255  1.00  0.00     0.177 C 
HETATM   27  O2  UNL     1     -71.191 -16.624  48.936  1.00  0.00    -0.371 OA
HETATM   28  C23 UNL     1     -72.093 -17.420  48.372  1.00  0.00     0.177 C 
HETATM   29  C25 UNL     1     -73.537 -17.083  48.528  1.00  0.00     0.180 C 
HETATM   30  C26 UNL     1     -73.802 -15.602  48.542  1.00  0.00     0.180 C 
HETATM   31  C27 UNL     1     -72.890 -15.044  49.627  1.00  0.00     0.180 C 
BRANCH  28  32
HETATM   32  C24 UNL     1     -71.785 -17.532  46.878  1.00  0.00     0.198 C 
BRANCH  32  33
HETATM   33  O3  UNL     1     -72.288 -18.703  46.343  1.00  0.00    -0.398 OA
ATOM     34  H3  UNL     1     -71.672 -19.421  46.436  1.00  0.00     0.209 HD
ENDBRANCH  32  33
ENDBRANCH  28  32
BRANCH  29  35
HETATM   35  O4  UNL     1     -74.027 -17.604  49.727  1.00  0.00    -0.390 OA
ATOM     36  H4  UNL     1     -74.749 -17.074  50.044  1.00  0.00     0.210 HD
ENDBRANCH  29  35
BRANCH  30  37
HETATM   37  O5  UNL     1     -73.606 -14.997  47.326  1.00  0.00    -0.390 OA
ATOM     38  H5  UNL     1     -72.806 -14.487  47.280  1.00  0.00     0.210 HD
ENDBRANCH  30  37
BRANCH  31  39
HETATM   39  O6  UNL     1     -73.303 -15.581  50.825  1.00  0.00    -0.390 OA
ATOM     40  H6  UNL     1     -73.995 -16.230  50.763  1.00  0.00     0.210 HD
ENDBRANCH  31  39
ENDBRANCH  25  26
ENDBRANCH  24  25
ENDBRANCH  23  24
ENDBRANCH   7  17
ENDBRANCH   4   7
ENDBRANCH   3   4
TORSDOF 13
ENDMDL
MODEL 3
REMARK VINA RESULT: -7.923358155      2.427      5.183
REMARK  13 active torsions:
REMARK  status: ('A' for Active; 'I' for Inactive)
REMARK    1  A    between atoms: C3_3  and  C4_4 
REMARK    2  A    between atoms: C4_4  and  N1_7 
REMARK    3  A    between atoms: N1_7  and  C7_8 
REMARK    4  A    between atoms: N1_7  and  C15_17 
REMARK    5  A    between atoms: C7_8  and  C8_9 
REMARK    6  A    between atoms: C20_23  and  O1_24 
REMARK    7  A    between atoms: O1_24  and  C21_25 
REMARK    8  A    between atoms: C21_25  and  C22_26 
REMARK    9  A    between atoms: C23_28  and  C24_29 
REMARK   10  A    between atoms: C24_29  and  O3_30 
REMARK   11  A    between atoms: C25_32  and  O4_33 
REMARK   12  A    between atoms: C26_35  and  O5_36 
REMARK   13  A    between atoms: C27_38  and  O6_39 
ROOT
HETATM    1  C1  UNL     1     -69.211 -14.430  55.176  1.00  0.00     0.112 C 
HETATM    2  C2  UNL     1     -68.300 -14.576  54.039  1.00  0.00    -0.108 C 
HETATM    3  C3  UNL     1     -67.527 -14.696  53.105  1.00  0.00    -0.076 C 
ENDROOT
BRANCH   3   4
HETATM    4  C4  UNL     1     -66.613 -14.857  51.963  1.00  0.00     0.089 C 
HETATM    5  C5  UNL     1     -65.206 -14.917  52.458  1.00  0.00     0.053 C 
HETATM    6  C6  UNL     1     -66.904 -16.236  51.348  1.00  0.00     0.053 C 
BRANCH   4   7
HETATM    7  N1  UNL     1     -66.862 -13.815  50.991  1.00  0.00    -0.355 N 
BRANCH   7   8
HETATM    8  C7  UNL     1     -67.103 -12.492  51.530  1.00  0.00     0.163 C 
BRANCH   8   9
HETATM    9  C8  UNL     1     -65.928 -11.814  52.070  1.00  0.00    -0.040 A 
HETATM   10  C9  UNL     1     -65.956 -11.532  53.441  1.00  0.00     0.010 A 
HETATM   11  C10 UNL     1     -64.908 -10.888  54.061  1.00  0.00     0.023 A 
HETATM   12  C11 UNL     1     -63.833 -10.535  53.271  1.00  0.00     0.044 A 
HETATM   13  C12 UNL     1     -62.728  -9.858  53.914  1.00  0.00     0.099 C 
HETATM   14  C13 UNL     1     -63.799 -10.810  51.913  1.00  0.00     0.023 A 
HETATM   15  N2  UNL     1     -61.852  -9.313  54.444  1.00  0.00    -0.191 NA
HETATM   16  C14 UNL     1     -64.840 -11.449  51.305  1.00  0.00     0.010 A 
ENDBRANCH   8   9
ENDBRANCH   7   8
BRANCH   7  17
HETATM   17  C15 UNL     1     -66.857 -14.015  49.569  1.00  0.00     0.068 A 
HETATM   18  C16 UNL     1     -65.687 -14.011  48.860  1.00  0.00     0.074 A 
HETATM   19  C17 UNL     1     -65.678 -14.208  47.494  1.00  0.00     0.118 A 
HETATM   20  F1  UNL     1     -64.507 -14.197  46.829  1.00  0.00    -0.206 F 
HETATM   21  C18 UNL     1     -66.875 -14.415  46.837  1.00  0.00     0.045 A 
HETATM   22  C19 UNL     1     -68.054 -14.422  47.535  1.00  0.00     0.042 A 
HETATM   23  C20 UNL     1     -68.070 -14.226  48.889  1.00  0.00     0.095 A 
BRANCH  23  24
HETATM   24  O1  UNL     1     -69.216 -14.220  49.646  1.00  0.00    -0.346 OA
BRANCH  24  25
HETATM   25  C21 UNL     1     -70.168 -15.122  49.966  1.00  0.00     0.210 C 
BRANCH  25  26
HETATM   26  C22 UNL     1     -71.287 -15.413  49.003  1.00  0.00     0.177 C 
HETATM   27  O2  UNL     1     -71.230 -16.740  48.701  1.00  0.00    -0.371 OA
HETATM   28  C23 UNL     1     -72.305 -17.410  48.303  1.00  0.00     0.177 C 
HETATM   29  C25 UNL     1     -73.650 -16.867  48.647  1.00  0.00     0.180 C 
HETATM   30  C26 UNL     1     -73.703 -15.364  48.636  1.00  0.00     0.180 C 
HETATM   31  C27 UNL     1     -72.575 -14.919  49.558  1.00  0.00     0.180 C 
BRANCH  28  32
HETATM   32  C24 UNL     1     -72.236 -17.597  46.786  1.00  0.00     0.198 C 
BRANCH  32  33
HETATM   33  O3  UNL     1     -72.554 -18.892  46.420  1.00  0.00    -0.398 OA
ATOM     34  H3  UNL     1     -72.438 -19.029  45.487  1.00  0.00     0.209 HD
ENDBRANCH  32  33
ENDBRANCH  28  32
BRANCH  29  35
HETATM   35  O4  UNL     1     -74.029 -17.287  49.923  1.00  0.00    -0.390 OA
ATOM     36  H4  UNL     1     -74.298 -16.542  50.447  1.00  0.00     0.210 HD
ENDBRANCH  29  35
BRANCH  30  37
HETATM   37  O5  UNL     1     -73.604 -14.819  47.380  1.00  0.00    -0.390 OA
ATOM     38  H5  UNL     1     -72.880 -15.167  46.872  1.00  0.00     0.210 HD
ENDBRANCH  30  37
BRANCH  31  39
HETATM   39  O6  UNL     1     -72.881 -15.365  50.824  1.00  0.00    -0.390 OA
ATOM     40  H6  UNL     1     -73.239 -16.244  50.869  1.00  0.00     0.210 HD
ENDBRANCH  31  39
ENDBRANCH  25  26
ENDBRANCH  24  25
ENDBRANCH  23  24
ENDBRANCH   7  17
ENDBRANCH   4   7
ENDBRANCH   3   4
TORSDOF 13
ENDMDL
MODEL 4
REMARK VINA RESULT: -7.899208802      1.891      3.137
REMARK  13 active torsions:
REMARK  status: ('A' for Active; 'I' for Inactive)
REMARK    1  A    between atoms: C3_3  and  C4_4 
REMARK    2  A    between atoms: C4_4  and  N1_7 
REMARK    3  A    between atoms: N1_7  and  C7_8 
REMARK    4  A    between atoms: N1_7  and  C15_17 
REMARK    5  A    between atoms: C7_8  and  C8_9 
REMARK    6  A    between atoms: C20_23  and  O1_24 
REMARK    7  A    between atoms: O1_24  and  C21_25 
REMARK    8  A    between atoms: C21_25  and  C22_26 
REMARK    9  A    between atoms: C23_28  and  C24_29 
REMARK   10  A    between atoms: C24_29  and  O3_30 
REMARK   11  A    between atoms: C25_32  and  O4_33 
REMARK   12  A    between atoms: C26_35  and  O5_36 
REMARK   13  A    between atoms: C27_38  and  O6_39 
ROOT
HETATM    1  C1  UNL     1     -66.078 -18.883  52.759  1.00  0.00     0.112 C 
HETATM    2  C2  UNL     1     -65.857 -17.491  52.360  1.00  0.00    -0.108 C 
HETATM    3  C3  UNL     1     -65.677 -16.339  52.011  1.00  0.00    -0.076 C 
ENDROOT
BRANCH   3   4
HETATM    4  C4  UNL     1     -65.469 -14.937  51.613  1.00  0.00     0.089 C 
HETATM    5  C5  UNL     1     -65.503 -14.067  52.825  1.00  0.00     0.053 C 
HETATM    6  C6  UNL     1     -64.038 -14.836  51.060  1.00  0.00     0.053 C 
BRANCH   4   7
HETATM    7  N1  UNL     1     -66.426 -14.575  50.590  1.00  0.00    -0.355 N 
BRANCH   7   8
HETATM    8  C7  UNL     1     -66.584 -15.525  49.508  1.00  0.00     0.163 C 
BRANCH   8   9
HETATM    9  C8  UNL     1     -66.903 -14.942  48.208  1.00  0.00    -0.040 A 
HETATM   10  C9  UNL     1     -68.244 -15.016  47.813  1.00  0.00     0.010 A 
HETATM   11  C10 UNL     1     -68.663 -14.508  46.603  1.00  0.00     0.023 A 
HETATM   12  C11 UNL     1     -67.703 -13.926  45.801  1.00  0.00     0.044 A 
HETATM   13  C12 UNL     1     -68.134 -13.389  44.528  1.00  0.00     0.099 C 
HETATM   14  C13 UNL     1     -66.373 -13.850  46.185  1.00  0.00     0.023 A 
HETATM   15  N2  UNL     1     -68.496 -12.968  43.510  1.00  0.00    -0.191 NA
HETATM   16  C14 UNL     1     -65.965 -14.355  47.385  1.00  0.00     0.010 A 
ENDBRANCH   8   9
ENDBRANCH   7   8
BRANCH   7  17
HETATM   17  C15 UNL     1     -67.215 -13.376  50.607  1.00  0.00     0.068 A 
HETATM   18  C16 UNL     1     -66.715 -12.196  50.125  1.00  0.00     0.074 A 
HETATM   19  C17 UNL     1     -67.473 -11.043  50.134  1.00  0.00     0.118 A 
HETATM   20  F1  UNL     1     -66.948  -9.900  49.653  1.00  0.00    -0.206 F 
HETATM   21  C18 UNL     1     -68.758 -11.086  50.638  1.00  0.00     0.045 A 
HETATM   22  C19 UNL     1     -69.270 -12.260  51.123  1.00  0.00     0.042 A 
HETATM   23  C20 UNL     1     -68.524 -13.407  51.118  1.00  0.00     0.095 A 
BRANCH  23  24
HETATM   24  O1  UNL     1     -68.979 -14.615  51.590  1.00  0.00    -0.346 OA
BRANCH  24  25
HETATM   25  C21 UNL     1     -69.767 -15.603  51.118  1.00  0.00     0.210 C 
BRANCH  25  26
HETATM   26  C22 UNL     1     -70.752 -15.322  50.016  1.00  0.00     0.177 C 
HETATM   27  O2  UNL     1     -70.992 -16.498  49.373  1.00  0.00    -0.371 OA
HETATM   28  C23 UNL     1     -72.125 -16.713  48.714  1.00  0.00     0.177 C 
HETATM   29  C25 UNL     1     -73.321 -15.898  49.070  1.00  0.00     0.180 C 
HETATM   30  C26 UNL     1     -72.982 -14.486  49.462  1.00  0.00     0.180 C 
HETATM   31  C27 UNL     1     -71.941 -14.618  50.566  1.00  0.00     0.180 C 
BRANCH  28  32
HETATM   32  C24 UNL     1     -71.862 -16.552  47.216  1.00  0.00     0.198 C 
BRANCH  32  33
HETATM   33  O3  UNL     1     -72.480 -17.548  46.483  1.00  0.00    -0.398 OA
ATOM     34  H3  UNL     1     -72.288 -17.468  45.555  1.00  0.00     0.209 HD
ENDBRANCH  32  33
ENDBRANCH  28  32
BRANCH  29  35
HETATM   35  O4  UNL     1     -73.996 -16.476  50.146  1.00  0.00    -0.390 OA
ATOM     36  H4  UNL     1     -74.020 -15.874  50.880  1.00  0.00     0.210 HD
ENDBRANCH  29  35
BRANCH  30  37
HETATM   37  O5  UNL     1     -72.543 -13.716  48.413  1.00  0.00    -0.390 OA
ATOM     38  H5  UNL     1     -72.373 -12.812  48.651  1.00  0.00     0.210 HD
ENDBRANCH  30  37
BRANCH  31  39
HETATM   39  O6  UNL     1     -72.552 -15.239  51.631  1.00  0.00    -0.390 OA
ATOM     40  H6  UNL     1     -73.114 -15.972  51.407  1.00  0.00     0.210 HD
ENDBRANCH  31  39
ENDBRANCH  25  26
ENDBRANCH  24  25
ENDBRANCH  23  24
ENDBRANCH   7  17
ENDBRANCH   4   7
ENDBRANCH   3   4
TORSDOF 13
ENDMDL
MODEL 5
REMARK VINA RESULT: -7.827935325      2.268      4.905
REMARK  13 active torsions:
REMARK  status: ('A' for Active; 'I' for Inactive)
REMARK    1  A    between atoms: C3_3  and  C4_4 
REMARK    2  A    between atoms: C4_4  and  N1_7 
REMARK    3  A    between atoms: N1_7  and  C7_8 
REMARK    4  A    between atoms: N1_7  and  C15_17 
REMARK    5  A    between atoms: C7_8  and  C8_9 
REMARK    6  A    between atoms: C20_23  and  O1_24 
REMARK    7  A    between atoms: O1_24  and  C21_25 
REMARK    8  A    between atoms: C21_25  and  C22_26 
REMARK    9  A    between atoms: C23_28  and  C24_29 
REMARK   10  A    between atoms: C24_29  and  O3_30 
REMARK   11  A    between atoms: C25_32  and  O4_33 
REMARK   12  A    between atoms: C26_35  and  O5_36 
REMARK   13  A    between atoms: C27_38  and  O6_39 
ROOT
HETATM    1  C1  UNL     1     -69.883 -13.428  53.667  1.00  0.00     0.112 C 
HETATM    2  C2  UNL     1     -68.842 -13.064  52.704  1.00  0.00    -0.108 C 
HETATM    3  C3  UNL     1     -67.984 -12.772  51.890  1.00  0.00    -0.076 C 
ENDROOT
BRANCH   3   4
HETATM    4  C4  UNL     1     -66.945 -12.394  50.918  1.00  0.00     0.089 C 
HETATM    5  C5  UNL     1     -67.420 -11.234  50.110  1.00  0.00     0.053 C 
HETATM    6  C6  UNL     1     -65.741 -11.883  51.727  1.00  0.00     0.053 C 
BRANCH   4   7
HETATM    7  N1  UNL     1     -66.566 -13.552  50.138  1.00  0.00    -0.355 N 
BRANCH   7   8
HETATM    8  C7  UNL     1     -65.780 -14.552  50.831  1.00  0.00     0.163 C 
BRANCH   8   9
HETATM    9  C8  UNL     1     -66.512 -15.356  51.806  1.00  0.00    -0.040 A 
HETATM   10  C9  UNL     1     -66.126 -15.205  53.142  1.00  0.00     0.010 A 
HETATM   11  C10 UNL     1     -66.737 -15.918  54.150  1.00  0.00     0.023 A 
HETATM   12  C11 UNL     1     -67.746 -16.784  53.782  1.00  0.00     0.044 A 
HETATM   13  C12 UNL     1     -68.396 -17.536  54.834  1.00  0.00     0.099 C 
HETATM   14  C13 UNL     1     -68.134 -16.939  52.460  1.00  0.00     0.023 A 
HETATM   15  N2  UNL     1     -68.903 -18.134  55.688  1.00  0.00    -0.191 NA
HETATM   16  C14 UNL     1     -67.524 -16.230  51.467  1.00  0.00     0.010 A 
ENDBRANCH   8   9
ENDBRANCH   7   8
BRANCH   7  17
HETATM   17  C15 UNL     1     -66.938 -13.762  48.767  1.00  0.00     0.068 A 
HETATM   18  C16 UNL     1     -66.021 -13.635  47.760  1.00  0.00     0.074 A 
HETATM   19  C17 UNL     1     -66.373 -13.842  46.441  1.00  0.00     0.118 A 
HETATM   20  F1  UNL     1     -65.443 -13.708  45.477  1.00  0.00    -0.206 F 
HETATM   21  C18 UNL     1     -67.676 -14.184  46.139  1.00  0.00     0.045 A 
HETATM   22  C19 UNL     1     -68.605 -14.314  47.138  1.00  0.00     0.042 A 
HETATM   23  C20 UNL     1     -68.262 -14.110  48.447  1.00  0.00     0.095 A 
BRANCH  23  24
HETATM   24  O1  UNL     1     -69.145 -14.224  49.494  1.00  0.00    -0.346 OA
BRANCH  24  25
HETATM   25  C21 UNL     1     -70.105 -15.099  49.859  1.00  0.00     0.210 C 
BRANCH  25  26
HETATM   26  C22 UNL     1     -71.247 -15.399  48.926  1.00  0.00     0.177 C 
HETATM   27  O2  UNL     1     -71.220 -16.736  48.664  1.00  0.00    -0.371 OA
HETATM   28  C23 UNL     1     -72.314 -17.398  48.307  1.00  0.00     0.177 C 
HETATM   29  C25 UNL     1     -73.642 -16.821  48.659  1.00  0.00     0.180 C 
HETATM   30  C26 UNL     1     -73.669 -15.318  48.603  1.00  0.00     0.180 C 
HETATM   31  C27 UNL     1     -72.516 -14.866  49.489  1.00  0.00     0.180 C 
BRANCH  28  32
HETATM   32  C24 UNL     1     -72.277 -17.632  46.795  1.00  0.00     0.198 C 
BRANCH  32  33
HETATM   33  O3  UNL     1     -72.762 -18.884  46.464  1.00  0.00    -0.398 OA
ATOM     34  H3  UNL     1     -73.702 -18.867  46.326  1.00  0.00     0.209 HD
ENDBRANCH  32  33
ENDBRANCH  28  32
BRANCH  29  35
HETATM   35  O4  UNL     1     -74.003 -17.195  49.954  1.00  0.00    -0.390 OA
ATOM     36  H4  UNL     1     -73.338 -16.918  50.573  1.00  0.00     0.210 HD
ENDBRANCH  29  35
BRANCH  30  37
HETATM   37  O5  UNL     1     -73.584 -14.813  47.329  1.00  0.00    -0.390 OA
ATOM     38  H5  UNL     1     -73.359 -13.892  47.300  1.00  0.00     0.210 HD
ENDBRANCH  30  37
BRANCH  31  39
HETATM   39  O6  UNL     1     -72.805 -15.268  50.774  1.00  0.00    -0.390 OA
ATOM     40  H6  UNL     1     -73.653 -15.680  50.890  1.00  0.00     0.210 HD
ENDBRANCH  31  39
ENDBRANCH  25  26
ENDBRANCH  24  25
ENDBRANCH  23  24
ENDBRANCH   7  17
ENDBRANCH   4   7
ENDBRANCH   3   4
TORSDOF 13
ENDMDL
