MODEL 1
REMARK VINA RESULT: -9.393212337      0.000      0.000
REMARK  12 active torsions:
REMARK  status: ('A' for Active; 'I' for Inactive)
REMARK    1  A    between atoms: C5_5  and  C6_6 
REMARK    2  A    between atoms: C8_8  and  O1_9 
REMARK    3  A    between atoms: C9_11  and  C11_13 
REMARK    4  A    between atoms: C12_14  and  C13_15 
REMARK    5  A    between atoms: C13_15  and  O2_16 
REMARK    6  A    between atoms: O2_16  and  C14_17 
REMARK    7  A    between atoms: C15_18  and  O3_19 
REMARK    8  A    between atoms: C16_21  and  O4_22 
REMARK    9  A    between atoms: C17_24  and  O5_25 
REMARK   10  A    between atoms: C18_27  and  O6_28 
REMARK   11  A    between atoms: O6_28  and  C19_29 
REMARK   12  A    between atoms: C19_29  and  C20_31 
ROOT
HETATM    1  C14 UNL     1     -71.365 -14.602  49.417  1.00  0.00     0.185 C 
HETATM    2  C15 UNL     1     -72.477 -15.019  50.372  1.00  0.00     0.181 C 
HETATM    3  C16 UNL     1     -73.155 -16.153  49.673  1.00  0.00     0.180 C 
HETATM    4  C17 UNL     1     -73.121 -15.776  48.221  1.00  0.00     0.181 C 
HETATM    5  C18 UNL     1     -71.981 -14.835  48.063  1.00  0.00     0.195 C 
ENDROOT
BRANCH   1   6
HETATM    6  O2  UNL     1     -70.191 -15.264  49.627  1.00  0.00    -0.377 OA
BRANCH   6   7
HETATM    7  C13 UNL     1     -69.505 -14.943  50.770  1.00  0.00     0.195 C 
BRANCH   7   8
HETATM    8  C12 UNL     1     -68.903 -16.123  51.419  1.00  0.00    -0.002 C 
HETATM    9  C11 UNL     1     -67.995 -15.991  52.384  1.00  0.00     0.011 C 
BRANCH   9  10
HETATM   10  C9  UNL     1     -67.402 -17.200  53.023  1.00  0.00     0.101 C 
HETATM   11  C8  UNL     1     -67.253 -16.880  54.512  1.00  0.00     0.158 C 
HETATM   12  C7  UNL     1     -68.562 -17.360  55.031  1.00  0.00     0.067 C 
HETATM   13  C6  UNL     1     -68.958 -18.419  54.096  1.00  0.00     0.129 C 
HETATM   14  O8  UNL     1     -68.241 -18.285  52.943  1.00  0.00    -0.368 OA
HETATM   15  C10 UNL     1     -66.092 -17.495  52.371  1.00  0.00     0.053 C 
BRANCH  11  16
HETATM   16  O1  UNL     1     -67.092 -15.507  54.704  1.00  0.00    -0.392 OA
ATOM     17  H1  UNL     1     -66.225 -15.297  55.030  1.00  0.00     0.210 HD
ENDBRANCH  11  16
BRANCH  13  18
HETATM   18  C5  UNL     1     -68.892 -19.820  54.605  1.00  0.00     0.015 C 
HETATM   19  C4  UNL     1     -70.164 -20.477  54.945  1.00  0.00     0.007 C 
HETATM   20  C3  UNL     1     -69.873 -21.975  54.783  1.00  0.00     0.005 C 
HETATM   21  C2  UNL     1     -68.470 -22.099  54.291  1.00  0.00    -0.018 C 
HETATM   22  C1  UNL     1     -67.569 -22.397  55.469  1.00  0.00     0.010 C 
HETATM   23  C26 UNL     1     -68.166 -20.767  53.665  1.00  0.00     0.011 C 
ENDBRANCH  13  18
ENDBRANCH   9  10
ENDBRANCH   7   8
ENDBRANCH   6   7
ENDBRANCH   1   6
BRANCH   2  24
HETATM   24  O3  UNL     1     -73.374 -13.928  50.429  1.00  0.00    -0.390 OA
ATOM     25  H3  UNL     1     -73.261 -13.539  51.287  1.00  0.00     0.210 HD
ENDBRANCH   2  24
BRANCH   5  26
HETATM   26  O6  UNL     1     -71.058 -15.168  47.070  1.00  0.00    -0.307 OA
BRANCH  26  27
HETATM   27  C19 UNL     1     -70.782 -14.453  45.941  1.00  0.00     0.293 C 
HETATM   28  O7  UNL     1     -71.745 -14.155  45.210  1.00  0.00    -0.259 OA
BRANCH  27  29
HETATM   29  C20 UNL     1     -69.437 -14.035  45.569  1.00  0.00     0.039 A 
HETATM   30  C21 UNL     1     -68.390 -14.150  46.458  1.00  0.00     0.020 A 
HETATM   31  C22 UNL     1     -67.108 -13.754  46.108  1.00  0.00     0.043 A 
HETATM   32  C23 UNL     1     -66.838 -13.233  44.865  1.00  0.00     0.116 A 
HETATM   33  F1  UNL     1     -65.564 -12.842  44.526  1.00  0.00    -0.206 F 
HETATM   34  C24 UNL     1     -67.876 -13.114  43.968  1.00  0.00     0.043 A 
HETATM   35  C25 UNL     1     -69.163 -13.515  44.329  1.00  0.00     0.020 A 
ENDBRANCH  27  29
ENDBRANCH  26  27
ENDBRANCH   5  26
BRANCH   3  36
HETATM   36  O4  UNL     1     -74.476 -16.206  50.160  1.00  0.00    -0.390 OA
ATOM     37  H4  UNL     1     -74.941 -15.470  49.782  1.00  0.00     0.210 HD
ENDBRANCH   3  36
BRANCH   4  38
HETATM   38  O5  UNL     1     -73.065 -16.880  47.377  1.00  0.00    -0.390 OA
ATOM     39  H5  UNL     1     -73.090 -16.644  46.458  1.00  0.00     0.210 HD
ENDBRANCH   4  38
TORSDOF 12
ENDMDL
MODEL 2
REMARK VINA RESULT: -9.331303418      3.251      4.601
REMARK  12 active torsions:
REMARK  status: ('A' for Active; 'I' for Inactive)
REMARK    1  A    between atoms: C5_5  and  C6_6 
REMARK    2  A    between atoms: C8_8  and  O1_9 
REMARK    3  A    between atoms: C9_11  and  C11_13 
REMARK    4  A    between atoms: C12_14  and  C13_15 
REMARK    5  A    between atoms: C13_15  and  O2_16 
REMARK    6  A    between atoms: O2_16  and  C14_17 
REMARK    7  A    between atoms: C15_18  and  O3_19 
REMARK    8  A    between atoms: C16_21  and  O4_22 
REMARK    9  A    between atoms: C17_24  and  O5_25 
REMARK   10  A    between atoms: C18_27  and  O6_28 
REMARK   11  A    between atoms: O6_28  and  C19_29 
REMARK   12  A    between atoms: C19_29  and  C20_31 
ROOT
HETATM    1  C14 UNL     1     -68.917 -13.491  51.347  1.00  0.00     0.185 C 
HETATM    2  C15 UNL     1     -68.154 -12.779  52.457  1.00  0.00     0.181 C 
HETATM    3  C16 UNL     1     -68.716 -13.355  53.716  1.00  0.00     0.180 C 
HETATM    4  C17 UNL     1     -70.173 -13.556  53.423  1.00  0.00     0.181 C 
HETATM    5  C18 UNL     1     -70.287 -13.674  51.946  1.00  0.00     0.195 C 
ENDROOT
BRANCH   1   6
HETATM    6  O2  UNL     1     -68.322 -14.647  50.932  1.00  0.00    -0.377 OA
BRANCH   6   7
HETATM    7  C13 UNL     1     -67.074 -14.905  51.437  1.00  0.00     0.195 C 
BRANCH   7   8
HETATM    8  C12 UNL     1     -66.947 -16.281  51.957  1.00  0.00    -0.002 C 
HETATM    9  C11 UNL     1     -67.415 -16.610  53.159  1.00  0.00     0.011 C 
BRANCH   9  10
HETATM   10  C9  UNL     1     -67.273 -18.007  53.659  1.00  0.00     0.101 C 
HETATM   11  C8  UNL     1     -67.044 -17.911  55.168  1.00  0.00     0.158 C 
HETATM   12  C7  UNL     1     -68.446 -17.973  55.665  1.00  0.00     0.067 C 
HETATM   13  C6  UNL     1     -69.163 -18.735  54.636  1.00  0.00     0.129 C 
HETATM   14  O8  UNL     1     -68.427 -18.731  53.488  1.00  0.00    -0.368 OA
HETATM   15  C10 UNL     1     -66.131 -18.656  52.951  1.00  0.00     0.053 C 
BRANCH  11  16
HETATM   16  O1  UNL     1     -66.433 -16.700  55.495  1.00  0.00    -0.392 OA
ATOM     17  H1  UNL     1     -65.629 -16.569  55.006  1.00  0.00     0.210 HD
ENDBRANCH  11  16
BRANCH  13  18
HETATM   18  C5  UNL     1     -69.581 -20.120  54.999  1.00  0.00     0.015 C 
HETATM   19  C4  UNL     1     -71.013 -20.353  55.241  1.00  0.00     0.007 C 
HETATM   20  C3  UNL     1     -71.212 -21.844  54.931  1.00  0.00     0.005 C 
HETATM   21  C2  UNL     1     -69.899 -22.374  54.461  1.00  0.00    -0.018 C 
HETATM   22  C1  UNL     1     -69.209 -23.055  55.622  1.00  0.00     0.010 C 
HETATM   23  C26 UNL     1     -69.148 -21.163  53.983  1.00  0.00     0.011 C 
ENDBRANCH  13  18
ENDBRANCH   9  10
ENDBRANCH   7   8
ENDBRANCH   6   7
ENDBRANCH   1   6
BRANCH   2  24
HETATM   24  O3  UNL     1     -68.531 -11.418  52.380  1.00  0.00    -0.390 OA
ATOM     25  H3  UNL     1     -67.743 -10.917  52.552  1.00  0.00     0.210 HD
ENDBRANCH   2  24
BRANCH   5  26
HETATM   26  O6  UNL     1     -70.963 -14.804  51.482  1.00  0.00    -0.307 OA
BRANCH  26  27
HETATM   27  C19 UNL     1     -72.017 -14.825  50.617  1.00  0.00     0.293 C 
HETATM   28  O7  UNL     1     -72.919 -13.987  50.803  1.00  0.00    -0.259 OA
BRANCH  27  29
HETATM   29  C20 UNL     1     -72.125 -15.768  49.511  1.00  0.00     0.039 A 
HETATM   30  C21 UNL     1     -73.308 -16.428  49.260  1.00  0.00     0.020 A 
HETATM   31  C22 UNL     1     -73.416 -17.326  48.208  1.00  0.00     0.043 A 
HETATM   32  C23 UNL     1     -72.347 -17.588  47.383  1.00  0.00     0.116 A 
HETATM   33  F1  UNL     1     -72.461 -18.481  46.343  1.00  0.00    -0.206 F 
HETATM   34  C24 UNL     1     -71.160 -16.934  47.625  1.00  0.00     0.043 A 
HETATM   35  C25 UNL     1     -71.061 -16.033  48.686  1.00  0.00     0.020 A 
ENDBRANCH  27  29
ENDBRANCH  26  27
ENDBRANCH   5  26
BRANCH   3  36
HETATM   36  O4  UNL     1     -68.522 -12.395  54.730  1.00  0.00    -0.390 OA
ATOM     37  H4  UNL     1     -69.278 -11.820  54.717  1.00  0.00     0.210 HD
ENDBRANCH   3  36
BRANCH   4  38
HETATM   38  O5  UNL     1     -70.723 -14.625  54.121  1.00  0.00    -0.390 OA
ATOM     39  H5  UNL     1     -71.557 -14.909  53.766  1.00  0.00     0.210 HD
ENDBRANCH   4  38
TORSDOF 12
ENDMDL
MODEL 3
REMARK VINA RESULT: -9.021176064      3.797      7.649
REMARK  12 active torsions:
REMARK  status: ('A' for Active; 'I' for Inactive)
REMARK    1  A    between atoms: C5_5  and  C6_6 
REMARK    2  A    between atoms: C8_8  and  O1_9 
REMARK    3  A    between atoms: C9_11  and  C11_13 
REMARK    4  A    between atoms: C12_14  and  C13_15 
REMARK    5  A    between atoms: C13_15  and  O2_16 
REMARK    6  A    between atoms: O2_16  and  C14_17 
REMARK    7  A    between atoms: C15_18  and  O3_19 
REMARK    8  A    between atoms: C16_21  and  O4_22 
REMARK    9  A    between atoms: C17_24  and  O5_25 
REMARK   10  A    between atoms: C18_27  and  O6_28 
REMARK   11  A    between atoms: O6_28  and  C19_29 
REMARK   12  A    between atoms: C19_29  and  C20_31 
ROOT
HETATM    1  C14 UNL     1     -68.275 -14.615  52.581  1.00  0.00     0.185 C 
HETATM    2  C15 UNL     1     -68.152 -14.169  54.033  1.00  0.00     0.181 C 
HETATM    3  C16 UNL     1     -69.471 -14.524  54.638  1.00  0.00     0.180 C 
HETATM    4  C17 UNL     1     -70.470 -14.255  53.551  1.00  0.00     0.181 C 
HETATM    5  C18 UNL     1     -69.723 -14.347  52.270  1.00  0.00     0.195 C 
ENDROOT
BRANCH   1   6
HETATM    6  O2  UNL     1     -67.879 -15.904  52.372  1.00  0.00    -0.377 OA
BRANCH   6   7
HETATM    7  C13 UNL     1     -66.839 -16.089  51.499  1.00  0.00     0.195 C 
BRANCH   7   8
HETATM    8  C12 UNL     1     -66.948 -15.237  50.298  1.00  0.00    -0.002 C 
HETATM    9  C11 UNL     1     -66.143 -14.193  50.119  1.00  0.00     0.011 C 
BRANCH   9  10
HETATM   10  C9  UNL     1     -66.275 -13.349  48.897  1.00  0.00     0.101 C 
HETATM   11  C8  UNL     1     -65.232 -13.856  47.899  1.00  0.00     0.158 C 
HETATM   12  C7  UNL     1     -66.026 -14.880  47.166  1.00  0.00     0.067 C 
HETATM   13  C6  UNL     1     -67.412 -14.410  47.273  1.00  0.00     0.129 C 
HETATM   14  O8  UNL     1     -67.498 -13.509  48.294  1.00  0.00    -0.368 OA
HETATM   15  C10 UNL     1     -66.054 -11.922  49.274  1.00  0.00     0.053 C 
BRANCH  11  16
HETATM   16  O1  UNL     1     -64.149 -14.425  48.570  1.00  0.00    -0.392 OA
ATOM     17  H1  UNL     1     -63.635 -14.983  47.998  1.00  0.00     0.210 HD
ENDBRANCH  11  16
BRANCH  13  18
HETATM   18  C5  UNL     1     -68.033 -13.870  46.029  1.00  0.00     0.015 C 
HETATM   19  C4  UNL     1     -67.153 -13.166  45.084  1.00  0.00     0.007 C 
HETATM   20  C3  UNL     1     -67.850 -13.327  43.725  1.00  0.00     0.005 C 
HETATM   21  C2  UNL     1     -69.058 -14.174  43.949  1.00  0.00    -0.018 C 
HETATM   22  C1  UNL     1     -70.264 -13.270  44.079  1.00  0.00     0.010 C 
HETATM   23  C26 UNL     1     -68.768 -14.923  45.218  1.00  0.00     0.011 C 
ENDBRANCH  13  18
ENDBRANCH   9  10
ENDBRANCH   7   8
ENDBRANCH   6   7
ENDBRANCH   1   6
BRANCH   2  24
HETATM   24  O3  UNL     1     -68.037 -12.761  54.002  1.00  0.00    -0.390 OA
ATOM     25  H3  UNL     1     -67.614 -12.513  54.815  1.00  0.00     0.210 HD
ENDBRANCH   2  24
BRANCH   5  26
HETATM   26  O6  UNL     1     -70.267 -15.209  51.316  1.00  0.00    -0.307 OA
BRANCH  26  27
HETATM   27  C19 UNL     1     -70.676 -14.878  50.057  1.00  0.00     0.293 C 
HETATM   28  O7  UNL     1     -70.500 -13.700  49.696  1.00  0.00    -0.259 OA
BRANCH  27  29
HETATM   29  C20 UNL     1     -71.296 -15.829  49.142  1.00  0.00     0.039 A 
HETATM   30  C21 UNL     1     -72.632 -16.147  49.254  1.00  0.00     0.020 A 
HETATM   31  C22 UNL     1     -73.226 -17.051  48.385  1.00  0.00     0.043 A 
HETATM   32  C23 UNL     1     -72.503 -17.659  47.386  1.00  0.00     0.116 A 
HETATM   33  F1  UNL     1     -73.099 -18.554  46.529  1.00  0.00    -0.206 F 
HETATM   34  C24 UNL     1     -71.168 -17.347  47.265  1.00  0.00     0.043 A 
HETATM   35  C25 UNL     1     -70.578 -16.437  48.144  1.00  0.00     0.020 A 
ENDBRANCH  27  29
ENDBRANCH  26  27
ENDBRANCH   5  26
BRANCH   3  36
HETATM   36  O4  UNL     1     -69.664 -13.665  55.738  1.00  0.00    -0.390 OA
ATOM     37  H4  UNL     1     -69.890 -14.211  56.482  1.00  0.00     0.210 HD
ENDBRANCH   3  36
BRANCH   4  38
HETATM   38  O5  UNL     1     -71.581 -15.087  53.620  1.00  0.00    -0.390 OA
ATOM     39  H5  UNL     1     -72.402 -14.612  53.579  1.00  0.00     0.210 HD
ENDBRANCH   4  38
TORSDOF 12
ENDMDL
MODEL 4
REMARK VINA RESULT: -8.953190562      3.991      5.815
REMARK  12 active torsions:
REMARK  status: ('A' for Active; 'I' for Inactive)
REMARK    1  A    between atoms: C5_5  and  C6_6 
REMARK    2  A    between atoms: C8_8  and  O1_9 
REMARK    3  A    between atoms: C9_11  and  C11_13 
REMARK    4  A    between atoms: C12_14  and  C13_15 
REMARK    5  A    between atoms: C13_15  and  O2_16 
REMARK    6  A    between atoms: O2_16  and  C14_17 
REMARK    7  A    between atoms: C15_18  and  O3_19 
REMARK    8  A    between atoms: C16_21  and  O4_22 
REMARK    9  A    between atoms: C17_24  and  O5_25 
REMARK   10  A    between atoms: C18_27  and  O6_28 
REMARK   11  A    between atoms: O6_28  and  C19_29 
REMARK   12  A    between atoms: C19_29  and  C20_31 
ROOT
HETATM    1  C14 UNL     1     -72.063 -15.109  49.146  1.00  0.00     0.185 C 
HETATM    2  C15 UNL     1     -73.250 -15.827  49.776  1.00  0.00     0.181 C 
HETATM    3  C16 UNL     1     -73.441 -17.038  48.921  1.00  0.00     0.180 C 
HETATM    4  C17 UNL     1     -73.129 -16.572  47.529  1.00  0.00     0.181 C 
HETATM    5  C18 UNL     1     -72.242 -15.389  47.678  1.00  0.00     0.195 C 
ENDROOT
BRANCH   1   6
HETATM    6  O2  UNL     1     -70.859 -15.500  49.655  1.00  0.00    -0.377 OA
BRANCH   6   7
HETATM    7  C13 UNL     1     -70.405 -14.809  50.748  1.00  0.00     0.195 C 
BRANCH   7   8
HETATM    8  C12 UNL     1     -69.400 -13.787  50.396  1.00  0.00    -0.002 C 
HETATM    9  C11 UNL     1     -68.894 -12.971  51.317  1.00  0.00     0.011 C 
BRANCH   9  10
HETATM   10  C9  UNL     1     -67.880 -11.949  50.934  1.00  0.00     0.101 C 
HETATM   11  C8  UNL     1     -66.989 -11.734  52.159  1.00  0.00     0.158 C 
HETATM   12  C7  UNL     1     -65.927 -12.747  51.909  1.00  0.00     0.067 C 
HETATM   13  C6  UNL     1     -65.895 -12.888  50.449  1.00  0.00     0.129 C 
HETATM   14  O8  UNL     1     -67.056 -12.395  49.930  1.00  0.00    -0.368 OA
HETATM   15  C10 UNL     1     -68.589 -10.701  50.522  1.00  0.00     0.053 C 
BRANCH  11  16
HETATM   16  O1  UNL     1     -67.695 -12.004  53.332  1.00  0.00    -0.392 OA
ATOM     17  H1  UNL     1     -68.288 -11.297  53.556  1.00  0.00     0.210 HD
ENDBRANCH  11  16
BRANCH  13  18
HETATM   18  C5  UNL     1     -64.710 -12.313  49.747  1.00  0.00     0.015 C 
HETATM   19  C4  UNL     1     -63.627 -11.770  50.581  1.00  0.00     0.007 C 
HETATM   20  C3  UNL     1     -62.376 -11.884  49.700  1.00  0.00     0.005 C 
HETATM   21  C2  UNL     1     -62.792 -12.552  48.431  1.00  0.00    -0.018 C 
HETATM   22  C1  UNL     1     -63.021 -11.489  47.380  1.00  0.00     0.010 C 
HETATM   23  C26 UNL     1     -64.054 -13.287  48.783  1.00  0.00     0.011 C 
ENDBRANCH  13  18
ENDBRANCH   9  10
ENDBRANCH   7   8
ENDBRANCH   6   7
ENDBRANCH   1   6
BRANCH   2  24
HETATM   24  O3  UNL     1     -74.363 -14.974  49.598  1.00  0.00    -0.390 OA
ATOM     25  H3  UNL     1     -75.005 -15.477  49.111  1.00  0.00     0.210 HD
ENDBRANCH   2  24
BRANCH   5  26
HETATM   26  O6  UNL     1     -71.045 -15.440  46.960  1.00  0.00    -0.307 OA
BRANCH  26  27
HETATM   27  C19 UNL     1     -70.647 -14.580  45.978  1.00  0.00     0.293 C 
HETATM   28  O7  UNL     1     -71.525 -14.166  45.199  1.00  0.00    -0.259 OA
BRANCH  27  29
HETATM   29  C20 UNL     1     -69.268 -14.140  45.813  1.00  0.00     0.039 A 
HETATM   30  C21 UNL     1     -68.356 -14.276  46.837  1.00  0.00     0.020 A 
HETATM   31  C22 UNL     1     -67.042 -13.859  46.683  1.00  0.00     0.043 A 
HETATM   32  C23 UNL     1     -66.606 -13.297  45.507  1.00  0.00     0.116 A 
HETATM   33  F1  UNL     1     -65.302 -12.885  45.363  1.00  0.00    -0.206 F 
HETATM   34  C24 UNL     1     -67.508 -13.156  44.477  1.00  0.00     0.043 A 
HETATM   35  C25 UNL     1     -68.829 -13.578  44.641  1.00  0.00     0.020 A 
ENDBRANCH  27  29
ENDBRANCH  26  27
ENDBRANCH   5  26
BRANCH   3  36
HETATM   36  O4  UNL     1     -74.792 -17.421  49.044  1.00  0.00    -0.390 OA
ATOM     37  H4  UNL     1     -75.140 -17.500  48.164  1.00  0.00     0.210 HD
ENDBRANCH   3  36
BRANCH   4  38
HETATM   38  O5  UNL     1     -72.603 -17.578  46.727  1.00  0.00    -0.390 OA
ATOM     39  H5  UNL     1     -71.947 -17.260  46.118  1.00  0.00     0.210 HD
ENDBRANCH   4  38
TORSDOF 12
ENDMDL
MODEL 5
REMARK VINA RESULT: -8.950665687      4.034      8.312
REMARK  12 active torsions:
REMARK  status: ('A' for Active; 'I' for Inactive)
REMARK    1  A    between atoms: C5_5  and  C6_6 
REMARK    2  A    between atoms: C8_8  and  O1_9 
REMARK    3  A    between atoms: C9_11  and  C11_13 
REMARK    4  A    between atoms: C12_14  and  C13_15 
REMARK    5  A    between atoms: C13_15  and  O2_16 
REMARK    6  A    between atoms: O2_16  and  C14_17 
REMARK    7  A    between atoms: C15_18  and  O3_19 
REMARK    8  A    between atoms: C16_21  and  O4_22 
REMARK    9  A    between atoms: C17_24  and  O5_25 
REMARK   10  A    between atoms: C18_27  and  O6_28 
REMARK   11  A    between atoms: O6_28  and  C19_29 
REMARK   12  A    between atoms: C19_29  and  C20_31 
ROOT
HETATM    1  C14 UNL     1     -68.804 -14.304  52.028  1.00  0.00     0.185 C 
HETATM    2  C15 UNL     1     -68.410 -13.914  53.447  1.00  0.00     0.181 C 
HETATM    3  C16 UNL     1     -69.536 -14.418  54.291  1.00  0.00     0.180 C 
HETATM    4  C17 UNL     1     -70.763 -14.196  53.456  1.00  0.00     0.181 C 
HETATM    5  C18 UNL     1     -70.302 -14.160  52.044  1.00  0.00     0.195 C 
ENDROOT
BRANCH   1   6
HETATM    6  O2  UNL     1     -68.357 -15.539  51.659  1.00  0.00    -0.377 OA
BRANCH   6   7
HETATM    7  C13 UNL     1     -67.162 -15.581  50.988  1.00  0.00     0.195 C 
BRANCH   7   8
HETATM    8  C12 UNL     1     -67.260 -15.031  49.622  1.00  0.00    -0.002 C 
HETATM    9  C11 UNL     1     -66.244 -14.371  49.071  1.00  0.00     0.011 C 
BRANCH   9  10
HETATM   10  C9  UNL     1     -66.369 -13.825  47.690  1.00  0.00     0.101 C 
HETATM   11  C8  UNL     1     -65.869 -12.380  47.741  1.00  0.00     0.158 C 
HETATM   12  C7  UNL     1     -64.426 -12.576  47.434  1.00  0.00     0.067 C 
HETATM   13  C6  UNL     1     -64.389 -13.798  46.624  1.00  0.00     0.129 C 
HETATM   14  O8  UNL     1     -65.555 -14.485  46.802  1.00  0.00    -0.368 OA
HETATM   15  C10 UNL     1     -67.798 -13.918  47.265  1.00  0.00     0.053 C 
BRANCH  11  16
HETATM   16  O1  UNL     1     -66.059 -11.842  49.015  1.00  0.00    -0.392 OA
ATOM     17  H1  UNL     1     -66.908 -11.426  49.098  1.00  0.00     0.210 HD
ENDBRANCH  11  16
BRANCH  13  18
HETATM   18  C5  UNL     1     -64.085 -13.630  45.173  1.00  0.00     0.015 C 
HETATM   19  C4  UNL     1     -65.215 -13.359  44.272  1.00  0.00     0.007 C 
HETATM   20  C3  UNL     1     -64.586 -12.614  43.087  1.00  0.00     0.005 C 
HETATM   21  C2  UNL     1     -63.137 -12.434  43.401  1.00  0.00    -0.018 C 
HETATM   22  C1  UNL     1     -62.353 -13.519  42.698  1.00  0.00     0.010 C 
HETATM   23  C26 UNL     1     -63.055 -12.549  44.897  1.00  0.00     0.011 C 
ENDBRANCH  13  18
ENDBRANCH   9  10
ENDBRANCH   7   8
ENDBRANCH   6   7
ENDBRANCH   1   6
BRANCH   2  24
HETATM   24  O3  UNL     1     -68.422 -12.501  53.483  1.00  0.00    -0.390 OA
ATOM     25  H3  UNL     1     -67.884 -12.215  52.754  1.00  0.00     0.210 HD
ENDBRANCH   2  24
BRANCH   5  26
HETATM   26  O6  UNL     1     -70.965 -15.026  51.172  1.00  0.00    -0.307 OA
BRANCH  26  27
HETATM   27  C19 UNL     1     -71.161 -14.842  49.834  1.00  0.00     0.293 C 
HETATM   28  O7  UNL     1     -70.902 -13.716  49.373  1.00  0.00    -0.259 OA
BRANCH  27  29
HETATM   29  C20 UNL     1     -71.652 -15.890  48.947  1.00  0.00     0.039 A 
HETATM   30  C21 UNL     1     -70.843 -16.417  47.964  1.00  0.00     0.020 A 
HETATM   31  C22 UNL     1     -71.305 -17.415  47.118  1.00  0.00     0.043 A 
HETATM   32  C23 UNL     1     -72.583 -17.909  47.231  1.00  0.00     0.116 A 
HETATM   33  F1  UNL     1     -73.034 -18.897  46.388  1.00  0.00    -0.206 F 
HETATM   34  C24 UNL     1     -73.399 -17.390  48.210  1.00  0.00     0.043 A 
HETATM   35  C25 UNL     1     -72.926 -16.386  49.057  1.00  0.00     0.020 A 
ENDBRANCH  27  29
ENDBRANCH  26  27
ENDBRANCH   5  26
BRANCH   3  36
HETATM   36  O4  UNL     1     -69.559 -13.631  55.459  1.00  0.00    -0.390 OA
ATOM     37  H4  UNL     1     -70.442 -13.289  55.547  1.00  0.00     0.210 HD
ENDBRANCH   3  36
BRANCH   4  38
HETATM   38  O5  UNL     1     -71.761 -15.132  53.703  1.00  0.00    -0.390 OA
ATOM     39  H5  UNL     1     -71.714 -15.883  53.124  1.00  0.00     0.210 HD
ENDBRANCH   4  38
TORSDOF 12
ENDMDL
