MODEL 1
REMARK VINA RESULT: -7.424822145      0.000      0.000
REMARK  7 active torsions:
REMARK  status: ('A' for Active; 'I' for Inactive)
REMARK    1  A    between atoms: C9_9  and  O1_10 
REMARK    2  A    between atoms: C14_17  and  C15_18 
REMARK    3  A    between atoms: C15_18  and  S1_19 
REMARK    4  A    between atoms: S1_19  and  C16_20 
REMARK    5  A    between atoms: C16_20  and  C17_21 
REMARK    6  A    between atoms: C17_21  and  N1_22 
REMARK    7  A    between atoms: C17_21  and  C23_32 
REMARK       I    between atoms: N1_22  and  C18_24 
REMARK       I    between atoms: C18_24  and  N2_26 
ROOT
HETATM    1  C1  UNL     1    -103.178 -15.709  46.844  1.00  0.00     0.022 C 
HETATM    2  C2  UNL     1    -102.303 -16.495  47.798  1.00  0.00     0.003 C 
HETATM    3  C3  UNL     1    -102.548 -17.976  47.362  1.00  0.00     0.022 C 
HETATM    4  C4  UNL     1    -102.923 -16.365  49.132  1.00  0.00    -0.012 C 
HETATM    5  C5  UNL     1    -102.193 -16.322  50.387  1.00  0.00    -0.080 C 
HETATM    6  C6  UNL     1    -101.003 -17.175  50.605  1.00  0.00     0.041 C 
HETATM    7  C7  UNL     1     -99.677 -16.492  50.396  1.00  0.00     0.022 C 
HETATM    8  C8  UNL     1     -99.576 -15.145  51.023  1.00  0.00     0.045 C 
HETATM    9  C9  UNL     1    -100.679 -14.301  50.443  1.00  0.00     0.062 C 
HETATM   10  C10 UNL     1    -101.983 -14.879  50.877  1.00  0.00     0.071 C 
HETATM   11  C11 UNL     1    -100.670 -14.185  48.960  1.00  0.00     0.048 C 
HETATM   12  C12 UNL     1    -100.081 -15.287  48.199  1.00  0.00     0.054 A 
HETATM   13  C13 UNL     1     -99.425 -16.380  48.935  1.00  0.00     0.134 A 
HETATM   14  O2  UNL     1    -100.206 -17.304  48.297  1.00  0.00    -0.372 OA
HETATM   15  C14 UNL     1    -100.917 -16.289  47.565  1.00  0.00     0.086 A 
ENDROOT
BRANCH  15  16
HETATM   16  C15 UNL     1    -100.477 -16.553  46.102  1.00  0.00     0.113 C 
BRANCH  16  17
HETATM   17  S1  UNL     1    -100.419 -15.158  45.069  1.00  0.00    -0.164 SA
BRANCH  17  18
HETATM   18  C16 UNL     1     -99.032 -14.544  44.251  1.00  0.00     0.110 C 
BRANCH  18  19
HETATM   19  C17 UNL     1     -97.737 -15.199  44.228  1.00  0.00     0.196 C 
BRANCH  19  20
HETATM   20  N1  UNL     1     -96.931 -14.628  45.357  1.00  0.00    -0.328 N 
HETATM   21  C18 UNL     1     -96.725 -15.404  46.489  1.00  0.00     0.319 C 
HETATM   22  O3  UNL     1     -97.192 -16.581  46.574  1.00  0.00    -0.247 OA
HETATM   23  N2  UNL     1     -95.984 -14.888  47.576  1.00  0.00    -0.330 N 
HETATM   24  C19 UNL     1     -95.769 -15.691  48.749  1.00  0.00     0.153 C 
HETATM   25  C22 UNL     1     -95.446 -13.552  47.508  1.00  0.00     0.153 C 
HETATM   26  C20 UNL     1     -94.422 -15.325  49.325  1.00  0.00     0.187 C 
HETATM   27  O4  UNL     1     -94.251 -13.984  49.557  1.00  0.00    -0.388 OA
HETATM   28  C21 UNL     1     -95.150 -13.145  48.950  1.00  0.00     0.187 C 
ATOM     29  H1  UNL     1     -96.543 -13.687  45.294  1.00  0.00     0.165 HD
ENDBRANCH  19  20
BRANCH  19  30
HETATM   30  C23 UNL     1     -96.933 -14.959  43.001  1.00  0.00     0.197 C 
HETATM   31  O5  UNL     1     -96.397 -16.034  42.498  1.00  0.00    -0.646 OA
HETATM   32  O6  UNL     1     -96.718 -13.783  42.399  1.00  0.00    -0.646 OA
ENDBRANCH  19  30
ENDBRANCH  18  19
ENDBRANCH  17  18
ENDBRANCH  16  17
ENDBRANCH  15  16
BRANCH   9  33
HETATM   33  O1  UNL     1    -100.579 -13.040  51.071  1.00  0.00    -0.390 OA
ATOM     34  H1  UNL     1    -101.466 -12.792  51.306  1.00  0.00     0.210 HD
ENDBRANCH   9  33
TORSDOF 7
ENDMDL
MODEL 2
REMARK VINA RESULT: -7.304842464      1.956      3.224
REMARK  7 active torsions:
REMARK  status: ('A' for Active; 'I' for Inactive)
REMARK    1  A    between atoms: C9_9  and  O1_10 
REMARK    2  A    between atoms: C14_17  and  C15_18 
REMARK    3  A    between atoms: C15_18  and  S1_19 
REMARK    4  A    between atoms: S1_19  and  C16_20 
REMARK    5  A    between atoms: C16_20  and  C17_21 
REMARK    6  A    between atoms: C17_21  and  N1_22 
REMARK    7  A    between atoms: C17_21  and  C23_32 
REMARK       I    between atoms: N1_22  and  C18_24 
REMARK       I    between atoms: C18_24  and  N2_26 
ROOT
HETATM    1  C1  UNL     1    -100.692 -17.624  51.000  1.00  0.00     0.022 C 
HETATM    2  C2  UNL     1     -99.685 -16.505  50.840  1.00  0.00     0.003 C 
HETATM    3  C3  UNL     1     -98.319 -17.263  50.797  1.00  0.00     0.022 C 
HETATM    4  C4  UNL     1     -99.686 -15.761  52.116  1.00  0.00    -0.012 C 
HETATM    5  C5  UNL     1     -99.465 -14.331  52.245  1.00  0.00    -0.080 C 
HETATM    6  C6  UNL     1     -98.465 -13.637  51.404  1.00  0.00     0.041 C 
HETATM    7  C7  UNL     1     -99.022 -12.928  50.197  1.00  0.00     0.022 C 
HETATM    8  C8  UNL     1    -100.244 -12.122  50.469  1.00  0.00     0.045 C 
HETATM    9  C9  UNL     1    -101.279 -13.059  51.030  1.00  0.00     0.062 C 
HETATM   10  C10 UNL     1    -100.790 -13.556  52.349  1.00  0.00     0.071 C 
HETATM   11  C11 UNL     1    -101.608 -14.224  50.166  1.00  0.00     0.048 C 
HETATM   12  C12 UNL     1    -100.571 -14.703  49.252  1.00  0.00     0.054 A 
HETATM   13  C13 UNL     1     -99.317 -13.938  49.147  1.00  0.00     0.134 A 
HETATM   14  O2  UNL     1     -98.587 -15.062  49.421  1.00  0.00    -0.372 OA
HETATM   15  C14 UNL     1     -99.770 -15.869  49.573  1.00  0.00     0.086 A 
ENDROOT
BRANCH  15  16
HETATM   16  C15 UNL     1     -99.676 -16.842  48.371  1.00  0.00     0.113 C 
BRANCH  16  17
HETATM   17  S1  UNL     1    -100.678 -16.455  47.007  1.00  0.00    -0.164 SA
BRANCH  17  18
HETATM   18  C16 UNL     1    -100.289 -16.702  45.345  1.00  0.00     0.110 C 
BRANCH  18  19
HETATM   19  C17 UNL     1     -99.645 -15.715  44.498  1.00  0.00     0.196 C 
BRANCH  19  20
HETATM   20  N1  UNL     1     -98.666 -14.968  45.354  1.00  0.00    -0.328 N 
HETATM   21  C18 UNL     1     -97.323 -14.990  45.005  1.00  0.00     0.319 C 
HETATM   22  O3  UNL     1     -96.920 -15.616  43.976  1.00  0.00    -0.247 OA
HETATM   23  N2  UNL     1     -96.374 -14.309  45.800  1.00  0.00    -0.330 N 
HETATM   24  C19 UNL     1     -94.982 -14.331  45.439  1.00  0.00     0.153 C 
HETATM   25  C22 UNL     1     -96.803 -13.595  46.976  1.00  0.00     0.153 C 
HETATM   26  C20 UNL     1     -94.369 -13.018  45.864  1.00  0.00     0.187 C 
HETATM   27  O4  UNL     1     -94.574 -12.697  47.182  1.00  0.00    -0.388 OA
HETATM   28  C21 UNL     1     -95.552 -13.406  47.832  1.00  0.00     0.187 C 
ATOM     29  H1  UNL     1     -98.981 -14.454  46.176  1.00  0.00     0.165 HD
ENDBRANCH  19  20
BRANCH  19  30
HETATM   30  C23 UNL     1    -100.553 -14.683  43.934  1.00  0.00     0.197 C 
HETATM   31  O5  UNL     1    -100.065 -13.476  43.954  1.00  0.00    -0.646 OA
HETATM   32  O6  UNL     1    -101.780 -14.879  43.434  1.00  0.00    -0.646 OA
ENDBRANCH  19  30
ENDBRANCH  18  19
ENDBRANCH  17  18
ENDBRANCH  16  17
ENDBRANCH  15  16
BRANCH   9  33
HETATM   33  O1  UNL     1    -102.416 -12.269  51.305  1.00  0.00    -0.390 OA
ATOM     34  H1  UNL     1    -102.949 -12.292  50.520  1.00  0.00     0.210 HD
ENDBRANCH   9  33
TORSDOF 7
ENDMDL
MODEL 3
REMARK VINA RESULT: -7.107021196      2.166      3.711
REMARK  7 active torsions:
REMARK  status: ('A' for Active; 'I' for Inactive)
REMARK    1  A    between atoms: C9_9  and  O1_10 
REMARK    2  A    between atoms: C14_17  and  C15_18 
REMARK    3  A    between atoms: C15_18  and  S1_19 
REMARK    4  A    between atoms: S1_19  and  C16_20 
REMARK    5  A    between atoms: C16_20  and  C17_21 
REMARK    6  A    between atoms: C17_21  and  N1_22 
REMARK    7  A    between atoms: C17_21  and  C23_32 
REMARK       I    between atoms: N1_22  and  C18_24 
REMARK       I    between atoms: C18_24  and  N2_26 
ROOT
HETATM    1  C1  UNL     1     -97.696 -15.367  49.872  1.00  0.00     0.022 C 
HETATM    2  C2  UNL     1     -98.870 -14.605  50.451  1.00  0.00     0.003 C 
HETATM    3  C3  UNL     1     -98.623 -13.145  49.951  1.00  0.00     0.022 C 
HETATM    4  C4  UNL     1     -98.657 -14.565  51.912  1.00  0.00    -0.012 C 
HETATM    5  C5  UNL     1     -99.716 -14.586  52.906  1.00  0.00    -0.080 C 
HETATM    6  C6  UNL     1    -100.980 -13.847  52.688  1.00  0.00     0.041 C 
HETATM    7  C7  UNL     1    -102.131 -14.679  52.185  1.00  0.00     0.022 C 
HETATM    8  C8  UNL     1    -102.306 -15.976  52.894  1.00  0.00     0.045 C 
HETATM    9  C9  UNL     1    -101.020 -16.743  52.742  1.00  0.00     0.062 C 
HETATM   10  C10 UNL     1     -99.947 -16.001  53.465  1.00  0.00     0.071 C 
HETATM   11  C11 UNL     1    -100.587 -16.975  51.338  1.00  0.00     0.048 C 
HETATM   12  C12 UNL     1    -101.011 -16.002  50.331  1.00  0.00     0.054 A 
HETATM   13  C13 UNL     1    -101.936 -14.930  50.732  1.00  0.00     0.134 A 
HETATM   14  O2  UNL     1    -101.077 -13.982  50.249  1.00  0.00    -0.372 OA
HETATM   15  C14 UNL     1    -100.107 -14.971  49.858  1.00  0.00     0.086 A 
ENDROOT
BRANCH  15  16
HETATM   16  C15 UNL     1    -100.120 -14.870  48.312  1.00  0.00     0.113 C 
BRANCH  16  17
HETATM   17  S1  UNL     1    -100.153 -16.381  47.457  1.00  0.00    -0.164 SA
BRANCH  17  18
HETATM   18  C16 UNL     1    -100.249 -16.591  45.748  1.00  0.00     0.110 C 
BRANCH  18  19
HETATM   19  C17 UNL     1     -99.472 -15.835  44.784  1.00  0.00     0.196 C 
BRANCH  19  20
HETATM   20  N1  UNL     1     -98.477 -15.021  45.557  1.00  0.00    -0.328 N 
HETATM   21  C18 UNL     1     -97.153 -15.013  45.139  1.00  0.00     0.319 C 
HETATM   22  O3  UNL     1     -96.782 -15.668  44.116  1.00  0.00    -0.247 OA
HETATM   23  N2  UNL     1     -96.189 -14.270  45.856  1.00  0.00    -0.330 N 
HETATM   24  C19 UNL     1     -94.817 -14.261  45.424  1.00  0.00     0.153 C 
HETATM   25  C22 UNL     1     -96.582 -13.522  47.024  1.00  0.00     0.153 C 
HETATM   26  C20 UNL     1     -94.230 -12.912  45.763  1.00  0.00     0.187 C 
HETATM   27  O4  UNL     1     -94.379 -12.544  47.077  1.00  0.00    -0.388 OA
HETATM   28  C21 UNL     1     -95.296 -13.257  47.805  1.00  0.00     0.187 C 
ATOM     29  H1  UNL     1     -98.767 -14.485  46.374  1.00  0.00     0.165 HD
ENDBRANCH  19  20
BRANCH  19  30
HETATM   30  C23 UNL     1    -100.249 -14.857  43.978  1.00  0.00     0.197 C 
HETATM   31  O5  UNL     1     -99.932 -13.614  44.198  1.00  0.00    -0.646 OA
HETATM   32  O6  UNL     1    -101.211 -15.134  43.089  1.00  0.00    -0.646 OA
ENDBRANCH  19  30
ENDBRANCH  18  19
ENDBRANCH  17  18
ENDBRANCH  16  17
ENDBRANCH  15  16
BRANCH   9  33
HETATM   33  O1  UNL     1    -101.200 -17.955  53.445  1.00  0.00    -0.390 OA
ATOM     34  H1  UNL     1    -102.139 -18.083  53.513  1.00  0.00     0.210 HD
ENDBRANCH   9  33
TORSDOF 7
ENDMDL
MODEL 4
REMARK VINA RESULT: -7.010841585      1.817      4.255
REMARK  7 active torsions:
REMARK  status: ('A' for Active; 'I' for Inactive)
REMARK    1  A    between atoms: C9_9  and  O1_10 
REMARK    2  A    between atoms: C14_17  and  C15_18 
REMARK    3  A    between atoms: C15_18  and  S1_19 
REMARK    4  A    between atoms: S1_19  and  C16_20 
REMARK    5  A    between atoms: C16_20  and  C17_21 
REMARK    6  A    between atoms: C17_21  and  N1_22 
REMARK    7  A    between atoms: C17_21  and  C23_32 
REMARK       I    between atoms: N1_22  and  C18_24 
REMARK       I    between atoms: C18_24  and  N2_26 
ROOT
HETATM    1  C1  UNL     1    -100.058 -15.200  48.043  1.00  0.00     0.022 C 
HETATM    2  C2  UNL     1    -100.608 -15.781  49.329  1.00  0.00     0.003 C 
HETATM    3  C3  UNL     1    -101.482 -16.976  48.829  1.00  0.00     0.022 C 
HETATM    4  C4  UNL     1    -101.561 -14.785  49.859  1.00  0.00    -0.012 C 
HETATM    5  C5  UNL     1    -101.805 -14.537  51.269  1.00  0.00    -0.080 C 
HETATM    6  C6  UNL     1    -101.841 -15.651  52.243  1.00  0.00     0.041 C 
HETATM    7  C7  UNL     1    -100.569 -15.864  53.022  1.00  0.00     0.022 C 
HETATM    8  C8  UNL     1     -99.962 -14.615  53.557  1.00  0.00     0.045 C 
HETATM    9  C9  UNL     1     -99.693 -13.713  52.383  1.00  0.00     0.062 C 
HETATM   10  C10 UNL     1    -101.003 -13.328  51.783  1.00  0.00     0.071 C 
HETATM   11  C11 UNL     1     -98.828 -14.297  51.324  1.00  0.00     0.048 C 
HETATM   12  C12 UNL     1     -98.833 -15.752  51.174  1.00  0.00     0.054 A 
HETATM   13  C13 UNL     1     -99.588 -16.559  52.147  1.00  0.00     0.134 A 
HETATM   14  O2  UNL     1    -100.277 -17.169  51.135  1.00  0.00    -0.372 OA
HETATM   15  C14 UNL     1     -99.605 -16.394  50.126  1.00  0.00     0.086 A 
ENDROOT
BRANCH  15  16
HETATM   16  C15 UNL     1     -98.768 -17.462  49.377  1.00  0.00     0.113 C 
BRANCH  16  17
HETATM   17  S1  UNL     1     -97.572 -16.848  48.278  1.00  0.00    -0.164 SA
BRANCH  17  18
HETATM   18  C16 UNL     1     -96.199 -15.888  48.686  1.00  0.00     0.110 C 
BRANCH  18  19
HETATM   19  C17 UNL     1     -95.902 -14.593  48.104  1.00  0.00     0.196 C 
BRANCH  19  20
HETATM   20  N1  UNL     1     -95.452 -14.834  46.693  1.00  0.00    -0.328 N 
HETATM   21  C18 UNL     1     -96.343 -14.588  45.658  1.00  0.00     0.319 C 
HETATM   22  O3  UNL     1     -97.514 -14.154  45.886  1.00  0.00    -0.247 OA
HETATM   23  N2  UNL     1     -95.954 -14.820  44.319  1.00  0.00    -0.330 N 
HETATM   24  C19 UNL     1     -96.876 -14.566  43.246  1.00  0.00     0.153 C 
HETATM   25  C22 UNL     1     -94.632 -15.318  44.032  1.00  0.00     0.153 C 
HETATM   26  C20 UNL     1     -96.080 -14.116  42.044  1.00  0.00     0.187 C 
HETATM   27  O4  UNL     1     -95.065 -14.967  41.686  1.00  0.00    -0.388 OA
HETATM   28  C21 UNL     1     -94.700 -15.901  42.622  1.00  0.00     0.187 C 
ATOM     29  H1  UNL     1     -94.511 -15.173  46.499  1.00  0.00     0.165 HD
ENDBRANCH  19  20
BRANCH  19  30
HETATM   30  C23 UNL     1     -94.793 -13.850  48.756  1.00  0.00     0.197 C 
HETATM   31  O5  UNL     1     -93.695 -13.809  48.057  1.00  0.00    -0.646 OA
HETATM   32  O6  UNL     1     -94.823 -13.251  49.954  1.00  0.00    -0.646 OA
ENDBRANCH  19  30
ENDBRANCH  18  19
ENDBRANCH  17  18
ENDBRANCH  16  17
ENDBRANCH  15  16
BRANCH   9  33
HETATM   33  O1  UNL     1     -99.143 -12.527  52.918  1.00  0.00    -0.390 OA
ATOM     34  H1  UNL     1     -99.869 -12.050  53.303  1.00  0.00     0.210 HD
ENDBRANCH   9  33
TORSDOF 7
ENDMDL
MODEL 5
REMARK VINA RESULT: -7.000709818      3.049      6.441
REMARK  7 active torsions:
REMARK  status: ('A' for Active; 'I' for Inactive)
REMARK    1  A    between atoms: C9_9  and  O1_10 
REMARK    2  A    between atoms: C14_17  and  C15_18 
REMARK    3  A    between atoms: C15_18  and  S1_19 
REMARK    4  A    between atoms: S1_19  and  C16_20 
REMARK    5  A    between atoms: C16_20  and  C17_21 
REMARK    6  A    between atoms: C17_21  and  N1_22 
REMARK    7  A    between atoms: C17_21  and  C23_32 
REMARK       I    between atoms: N1_22  and  C18_24 
REMARK       I    between atoms: C18_24  and  N2_26 
ROOT
HETATM    1  C1  UNL     1     -97.029 -16.073  46.143  1.00  0.00     0.022 C 
HETATM    2  C2  UNL     1     -96.867 -14.966  47.164  1.00  0.00     0.003 C 
HETATM    3  C3  UNL     1     -97.068 -13.670  46.313  1.00  0.00     0.022 C 
HETATM    4  C4  UNL     1     -95.443 -14.969  47.554  1.00  0.00    -0.012 C 
HETATM    5  C5  UNL     1     -94.943 -14.632  48.876  1.00  0.00    -0.080 C 
HETATM    6  C6  UNL     1     -95.549 -13.534  49.662  1.00  0.00     0.041 C 
HETATM    7  C7  UNL     1     -96.546 -13.966  50.705  1.00  0.00     0.022 C 
HETATM    8  C8  UNL     1     -96.108 -15.126  51.529  1.00  0.00     0.045 C 
HETATM    9  C9  UNL     1     -95.837 -16.265  50.584  1.00  0.00     0.062 C 
HETATM   10  C10 UNL     1     -94.678 -15.889  49.723  1.00  0.00     0.071 C 
HETATM   11  C11 UNL     1     -96.981 -16.649  49.714  1.00  0.00     0.048 C 
HETATM   12  C12 UNL     1     -97.959 -15.611  49.387  1.00  0.00     0.054 A 
HETATM   13  C13 UNL     1     -97.829 -14.293  50.029  1.00  0.00     0.134 A 
HETATM   14  O2  UNL     1     -97.835 -13.677  48.807  1.00  0.00    -0.372 OA
HETATM   15  C14 UNL     1     -97.929 -14.931  48.106  1.00  0.00     0.086 A 
ENDROOT
BRANCH  15  16
HETATM   16  C15 UNL     1     -99.339 -14.860  47.467  1.00  0.00     0.113 C 
BRANCH  16  17
HETATM   17  S1  UNL     1    -100.126 -16.385  47.205  1.00  0.00    -0.164 SA
BRANCH  17  18
HETATM   18  C16 UNL     1    -101.821 -16.691  47.283  1.00  0.00     0.110 C 
BRANCH  18  19
HETATM   19  C17 UNL     1    -102.714 -16.116  48.272  1.00  0.00     0.196 C 
BRANCH  19  20
HETATM   20  N1  UNL     1    -102.096 -16.354  49.618  1.00  0.00    -0.328 N 
HETATM   21  C18 UNL     1    -101.678 -15.260  50.363  1.00  0.00     0.319 C 
HETATM   22  O3  UNL     1    -101.822 -14.075  49.930  1.00  0.00    -0.247 OA
HETATM   23  N2  UNL     1    -101.078 -15.453  51.628  1.00  0.00    -0.330 N 
HETATM   24  C19 UNL     1    -100.644 -14.320  52.400  1.00  0.00     0.153 C 
HETATM   25  C22 UNL     1    -100.897 -16.787  52.141  1.00  0.00     0.153 C 
HETATM   26  C20 UNL     1    -100.812 -14.660  53.862  1.00  0.00     0.187 C 
HETATM   27  O4  UNL     1    -100.207 -15.831  54.244  1.00  0.00    -0.388 OA
HETATM   28  C21 UNL     1     -99.834 -16.678  53.232  1.00  0.00     0.187 C 
ATOM     29  H1  UNL     1    -101.985 -17.301  49.979  1.00  0.00     0.165 HD
ENDBRANCH  19  20
BRANCH  19  30
HETATM   30  C23 UNL     1    -104.064 -16.734  48.336  1.00  0.00     0.197 C 
HETATM   31  O5  UNL     1    -104.845 -16.214  49.237  1.00  0.00    -0.646 OA
HETATM   32  O6  UNL     1    -104.522 -17.742  47.582  1.00  0.00    -0.646 OA
ENDBRANCH  19  30
ENDBRANCH  18  19
ENDBRANCH  17  18
ENDBRANCH  16  17
ENDBRANCH  15  16
BRANCH   9  33
HETATM   33  O1  UNL     1     -95.398 -17.342  51.384  1.00  0.00    -0.390 OA
ATOM     34  H1  UNL     1     -95.940 -18.086  51.145  1.00  0.00     0.210 HD
ENDBRANCH   9  33
TORSDOF 7
ENDMDL
