MODEL 1
REMARK VINA RESULT: -8.000700048      0.000      0.000
REMARK  7 active torsions:
REMARK  status: ('A' for Active; 'I' for Inactive)
REMARK    1  A    between atoms: C2_2  and  C4_4 
REMARK    2  A    between atoms: C2_2  and  C6_12 
REMARK       I    between atoms: C4_4  and  N1_6 
REMARK    3  A    between atoms: N1_6  and  S1_8 
REMARK    4  A    between atoms: C17_23  and  O4_24 
REMARK    5  A    between atoms: C20_28  and  C21_29 
REMARK    6  A    between atoms: N2_30  and  N3_32 
REMARK       I    between atoms: N3_32  and  C22_34 
REMARK    7  A    between atoms: C22_34  and  C23_36 
ROOT
HETATM    1  C6  UNL     1     -97.461 -14.596  49.805  1.00  0.00     0.011 C 
HETATM    2  C7  UNL     1     -98.371 -14.025  48.712  1.00  0.00     0.007 C 
HETATM    3  C8  UNL     1     -99.711 -14.524  49.146  1.00  0.00     0.011 C 
HETATM    4  C9  UNL     1     -99.493 -15.811  49.912  1.00  0.00    -0.024 C 
HETATM    5  C10 UNL     1     -99.852 -16.919  48.919  1.00  0.00     0.017 C 
HETATM    6  C11 UNL     1     -98.042 -15.836  50.316  1.00  0.00    -0.031 C 
HETATM    7  C12 UNL     1     -97.435 -17.112  49.828  1.00  0.00     0.016 C 
HETATM    8  C13 UNL     1     -97.867 -15.888  51.842  1.00  0.00     0.011 C 
HETATM    9  C14 UNL     1     -98.788 -15.017  52.607  1.00  0.00     0.007 C 
HETATM   10  C15 UNL     1    -100.176 -14.901  52.129  1.00  0.00     0.002 C 
HETATM   11  C16 UNL     1    -101.258 -14.954  53.176  1.00  0.00     0.037 C 
HETATM   12  C17 UNL     1    -101.482 -16.303  53.770  1.00  0.00     0.118 C 
HETATM   13  C18 UNL     1    -100.863 -17.423  53.038  1.00  0.00     0.033 C 
HETATM   14  C19 UNL     1    -100.711 -17.293  51.564  1.00  0.00     0.018 C 
HETATM   15  C20 UNL     1    -100.492 -15.911  51.027  1.00  0.00     0.005 C 
ENDROOT
BRANCH   1  16
HETATM   16  C2  UNL     1     -96.092 -14.495  49.263  1.00  0.00     0.039 C 
HETATM   17  C1  UNL     1     -95.971 -13.910  47.896  1.00  0.00     0.025 C 
HETATM   18  C3  UNL     1     -95.190 -15.671  49.379  1.00  0.00     0.025 C 
BRANCH  16  19
HETATM   19  C4  UNL     1     -95.438 -13.474  50.190  1.00  0.00     0.239 C 
HETATM   20  O1  UNL     1     -94.626 -12.618  49.765  1.00  0.00    -0.272 OA
HETATM   21  N1  UNL     1     -95.735 -13.468  51.573  1.00  0.00    -0.254 N 
ATOM     22  H1  UNL     1     -96.393 -14.151  51.950  1.00  0.00     0.181 HD
BRANCH  21  23
HETATM   23  S1  UNL     1     -94.999 -12.321  52.629  1.00  0.00     0.229 S 
HETATM   24  C5  UNL     1     -95.974 -12.222  54.135  1.00  0.00     0.186 C 
HETATM   25  O2  UNL     1     -95.037 -10.936  52.015  1.00  0.00    -0.206 OA
HETATM   26  O3  UNL     1     -93.576 -12.643  52.911  1.00  0.00    -0.206 OA
ENDBRANCH  21  23
ENDBRANCH  16  19
ENDBRANCH   1  16
BRANCH  15  27
HETATM   27  C21 UNL     1    -101.820 -15.450  50.486  1.00  0.00     0.091 C 
HETATM   28  N2  UNL     1    -102.771 -16.278  50.231  1.00  0.00    -0.312 N 
ATOM     29  H2  UNL     1    -102.598 -17.267  50.407  1.00  0.00     0.185 HD
BRANCH  28  30
HETATM   30  N3  UNL     1    -104.010 -15.920  49.734  1.00  0.00    -0.265 N 
HETATM   31  C22 UNL     1    -104.566 -16.532  48.585  1.00  0.00     0.297 C 
HETATM   32  O5  UNL     1    -103.954 -17.430  47.962  1.00  0.00    -0.263 OA
ATOM     33  H3  UNL     1    -104.542 -15.193  50.211  1.00  0.00     0.190 HD
BRANCH  31  34
HETATM   34  C23 UNL     1    -105.883 -16.131  48.087  1.00  0.00     0.334 C 
HETATM   35  O6  UNL     1    -106.531 -15.185  48.629  1.00  0.00    -0.296 OA
ENDBRANCH  31  34
ENDBRANCH  28  30
ENDBRANCH  15  27
BRANCH  12  36
HETATM   36  O4  UNL     1    -102.857 -16.578  53.973  1.00  0.00    -0.396 OA
ATOM     37  H4  UNL     1    -102.994 -17.301  54.574  1.00  0.00     0.210 HD
ENDBRANCH  12  36
TORSDOF 7
ENDMDL
MODEL 2
REMARK VINA RESULT: -7.762468715      3.901      8.961
REMARK  7 active torsions:
REMARK  status: ('A' for Active; 'I' for Inactive)
REMARK    1  A    between atoms: C2_2  and  C4_4 
REMARK    2  A    between atoms: C2_2  and  C6_12 
REMARK       I    between atoms: C4_4  and  N1_6 
REMARK    3  A    between atoms: N1_6  and  S1_8 
REMARK    4  A    between atoms: C17_23  and  O4_24 
REMARK    5  A    between atoms: C20_28  and  C21_29 
REMARK    6  A    between atoms: N2_30  and  N3_32 
REMARK       I    between atoms: N3_32  and  C22_34 
REMARK    7  A    between atoms: C22_34  and  C23_36 
ROOT
HETATM    1  C6  UNL     1     -99.395 -15.342  48.614  1.00  0.00     0.011 C 
HETATM    2  C7  UNL     1     -98.821 -14.123  49.344  1.00  0.00     0.007 C 
HETATM    3  C8  UNL     1     -97.683 -13.747  48.452  1.00  0.00     0.011 C 
HETATM    4  C9  UNL     1     -97.209 -15.007  47.759  1.00  0.00    -0.024 C 
HETATM    5  C10 UNL     1     -95.948 -15.419  48.522  1.00  0.00     0.017 C 
HETATM    6  C11 UNL     1     -98.323 -16.016  47.885  1.00  0.00    -0.031 C 
HETATM    7  C12 UNL     1     -97.770 -17.259  48.501  1.00  0.00     0.016 C 
HETATM    8  C13 UNL     1     -98.848 -16.469  46.514  1.00  0.00     0.011 C 
HETATM    9  C14 UNL     1     -98.995 -15.390  45.511  1.00  0.00     0.007 C 
HETATM   10  C15 UNL     1     -97.966 -14.338  45.481  1.00  0.00     0.002 C 
HETATM   11  C16 UNL     1     -97.475 -13.910  44.123  1.00  0.00     0.037 C 
HETATM   12  C17 UNL     1     -96.604 -14.906  43.434  1.00  0.00     0.118 C 
HETATM   13  C18 UNL     1     -96.092 -15.991  44.291  1.00  0.00     0.033 C 
HETATM   14  C19 UNL     1     -95.862 -15.693  45.730  1.00  0.00     0.018 C 
HETATM   15  C20 UNL     1     -96.766 -14.680  46.364  1.00  0.00     0.005 C 
ENDROOT
BRANCH   1  16
HETATM   16  C2  UNL     1    -100.262 -16.014  49.602  1.00  0.00     0.039 C 
HETATM   17  C1  UNL     1    -100.428 -15.315  50.909  1.00  0.00     0.025 C 
HETATM   18  C3  UNL     1    -100.077 -17.470  49.839  1.00  0.00     0.025 C 
BRANCH  16  19
HETATM   19  C4  UNL     1    -101.637 -15.950  48.941  1.00  0.00     0.239 C 
HETATM   20  O1  UNL     1    -102.328 -14.904  48.951  1.00  0.00    -0.272 OA
HETATM   21  N1  UNL     1    -102.173 -17.087  48.292  1.00  0.00    -0.254 N 
ATOM     22  H1  UNL     1    -101.634 -17.953  48.266  1.00  0.00     0.181 HD
BRANCH  21  23
HETATM   23  S1  UNL     1    -103.726 -17.025  47.545  1.00  0.00     0.229 S 
HETATM   24  C5  UNL     1    -104.952 -16.649  48.805  1.00  0.00     0.186 C 
HETATM   25  O2  UNL     1    -104.101 -18.384  46.990  1.00  0.00    -0.206 OA
HETATM   26  O3  UNL     1    -103.774 -16.056  46.420  1.00  0.00    -0.206 OA
ENDBRANCH  21  23
ENDBRANCH  16  19
ENDBRANCH   1  16
BRANCH  15  27
HETATM   27  C21 UNL     1     -95.987 -13.394  46.428  1.00  0.00     0.091 C 
HETATM   28  N2  UNL     1     -94.734 -13.347  46.137  1.00  0.00    -0.312 N 
ATOM     29  H2  UNL     1     -94.279 -14.215  45.859  1.00  0.00     0.185 HD
BRANCH  28  30
HETATM   30  N3  UNL     1     -93.963 -12.200  46.175  1.00  0.00    -0.265 N 
HETATM   31  C22 UNL     1     -93.409 -11.627  45.005  1.00  0.00     0.297 C 
HETATM   32  O5  UNL     1     -93.593 -12.139  43.876  1.00  0.00    -0.263 OA
ATOM     33  H3  UNL     1     -93.787 -11.753  47.074  1.00  0.00     0.190 HD
BRANCH  31  34
HETATM   34  C23 UNL     1     -92.597 -10.411  45.080  1.00  0.00     0.334 C 
HETATM   35  O6  UNL     1     -93.128  -9.261  45.014  1.00  0.00    -0.296 OA
ENDBRANCH  31  34
ENDBRANCH  28  30
ENDBRANCH  15  27
BRANCH  12  36
HETATM   36  O4  UNL     1     -95.522 -14.293  42.756  1.00  0.00    -0.396 OA
ATOM     37  H4  UNL     1     -95.696 -14.182  41.828  1.00  0.00     0.210 HD
ENDBRANCH  12  36
TORSDOF 7
ENDMDL
MODEL 3
REMARK VINA RESULT: -7.592599320      2.930      4.078
REMARK  7 active torsions:
REMARK  status: ('A' for Active; 'I' for Inactive)
REMARK    1  A    between atoms: C2_2  and  C4_4 
REMARK    2  A    between atoms: C2_2  and  C6_12 
REMARK       I    between atoms: C4_4  and  N1_6 
REMARK    3  A    between atoms: N1_6  and  S1_8 
REMARK    4  A    between atoms: C17_23  and  O4_24 
REMARK    5  A    between atoms: C20_28  and  C21_29 
REMARK    6  A    between atoms: N2_30  and  N3_32 
REMARK       I    between atoms: N3_32  and  C22_34 
REMARK    7  A    between atoms: C22_34  and  C23_36 
ROOT
HETATM    1  C6  UNL     1     -96.155 -14.380  47.475  1.00  0.00     0.011 C 
HETATM    2  C7  UNL     1     -97.124 -14.721  46.338  1.00  0.00     0.007 C 
HETATM    3  C8  UNL     1     -98.415 -14.866  47.076  1.00  0.00     0.011 C 
HETATM    4  C9  UNL     1     -98.087 -15.310  48.486  1.00  0.00    -0.024 C 
HETATM    5  C10 UNL     1     -98.377 -16.812  48.498  1.00  0.00     0.017 C 
HETATM    6  C11 UNL     1     -96.631 -14.994  48.713  1.00  0.00    -0.031 C 
HETATM    7  C12 UNL     1     -95.938 -16.241  49.153  1.00  0.00     0.016 C 
HETATM    8  C13 UNL     1     -96.427 -14.011  49.877  1.00  0.00     0.011 C 
HETATM    9  C14 UNL     1     -97.399 -12.896  49.932  1.00  0.00     0.007 C 
HETATM   10  C15 UNL     1     -98.800 -13.189  49.585  1.00  0.00     0.002 C 
HETATM   11  C16 UNL     1     -99.857 -12.584  50.471  1.00  0.00     0.037 C 
HETATM   12  C17 UNL     1     -99.967 -13.207  51.822  1.00  0.00     0.118 C 
HETATM   13  C18 UNL     1     -99.277 -14.501  51.975  1.00  0.00     0.033 C 
HETATM   14  C19 UNL     1     -99.160 -15.375  50.777  1.00  0.00     0.018 C 
HETATM   15  C20 UNL     1     -99.057 -14.690  49.449  1.00  0.00     0.005 C 
ENDROOT
BRANCH   1  16
HETATM   16  C2  UNL     1     -94.807 -14.601  46.916  1.00  0.00     0.039 C 
HETATM   17  C1  UNL     1     -94.750 -15.327  45.614  1.00  0.00     0.025 C 
HETATM   18  C3  UNL     1     -93.738 -15.111  47.814  1.00  0.00     0.025 C 
BRANCH  16  19
HETATM   19  C4  UNL     1     -94.337 -13.184  46.600  1.00  0.00     0.239 C 
HETATM   20  O1  UNL     1     -94.651 -12.207  47.320  1.00  0.00    -0.272 OA
HETATM   21  N1  UNL     1     -93.524 -12.934  45.470  1.00  0.00    -0.254 N 
ATOM     22  H1  UNL     1     -93.250 -13.709  44.865  1.00  0.00     0.181 HD
BRANCH  21  23
HETATM   23  S1  UNL     1     -92.990 -11.335  45.104  1.00  0.00     0.229 S 
HETATM   24  C5  UNL     1     -92.741 -11.208  43.328  1.00  0.00     0.186 C 
HETATM   25  O2  UNL     1     -91.638 -11.071  45.735  1.00  0.00    -0.206 OA
HETATM   26  O3  UNL     1     -93.926 -10.297  45.607  1.00  0.00    -0.206 OA
ENDBRANCH  21  23
ENDBRANCH  16  19
ENDBRANCH   1  16
BRANCH  15  27
HETATM   27  C21 UNL     1    -100.424 -14.766  48.824  1.00  0.00     0.091 C 
HETATM   28  N2  UNL     1    -101.411 -15.335  49.421  1.00  0.00    -0.312 N 
ATOM     29  H2  UNL     1    -101.239 -15.738  50.342  1.00  0.00     0.185 HD
BRANCH  28  30
HETATM   30  N3  UNL     1    -102.688 -15.437  48.904  1.00  0.00    -0.265 N 
HETATM   31  C22 UNL     1    -103.170 -16.634  48.321  1.00  0.00     0.297 C 
HETATM   32  O5  UNL     1    -102.455 -17.660  48.248  1.00  0.00    -0.263 OA
ATOM     33  H3  UNL     1    -103.304 -14.625  48.942  1.00  0.00     0.190 HD
BRANCH  31  34
HETATM   34  C23 UNL     1    -104.530 -16.710  47.783  1.00  0.00     0.334 C 
HETATM   35  O6  UNL     1    -104.984 -15.809  47.014  1.00  0.00    -0.296 OA
ENDBRANCH  31  34
ENDBRANCH  28  30
ENDBRANCH  15  27
BRANCH  12  36
HETATM   36  O4  UNL     1    -101.314 -13.341  52.242  1.00  0.00    -0.396 OA
ATOM     37  H4  UNL     1    -101.400 -13.311  53.188  1.00  0.00     0.210 HD
ENDBRANCH  12  36
TORSDOF 7
ENDMDL
MODEL 4
REMARK VINA RESULT: -7.546235970      3.224      7.917
REMARK  7 active torsions:
REMARK  status: ('A' for Active; 'I' for Inactive)
REMARK    1  A    between atoms: C2_2  and  C4_4 
REMARK    2  A    between atoms: C2_2  and  C6_12 
REMARK       I    between atoms: C4_4  and  N1_6 
REMARK    3  A    between atoms: N1_6  and  S1_8 
REMARK    4  A    between atoms: C17_23  and  O4_24 
REMARK    5  A    between atoms: C20_28  and  C21_29 
REMARK    6  A    between atoms: N2_30  and  N3_32 
REMARK       I    between atoms: N3_32  and  C22_34 
REMARK    7  A    between atoms: C22_34  and  C23_36 
ROOT
HETATM    1  C6  UNL     1    -100.267 -15.632  48.599  1.00  0.00     0.011 C 
HETATM    2  C7  UNL     1    -100.621 -14.236  49.122  1.00  0.00     0.007 C 
HETATM    3  C8  UNL     1     -99.415 -13.907  49.940  1.00  0.00     0.011 C 
HETATM    4  C9  UNL     1     -98.830 -15.212  50.437  1.00  0.00    -0.024 C 
HETATM    5  C10 UNL     1     -99.291 -15.315  51.892  1.00  0.00     0.017 C 
HETATM    6  C11 UNL     1     -99.398 -16.302  49.565  1.00  0.00    -0.031 C 
HETATM    7  C12 UNL     1    -100.036 -17.328  50.443  1.00  0.00     0.016 C 
HETATM    8  C13 UNL     1     -98.301 -17.071  48.813  1.00  0.00     0.011 C 
HETATM    9  C14 UNL     1     -97.215 -16.230  48.259  1.00  0.00     0.007 C 
HETATM   10  C15 UNL     1     -96.752 -15.089  49.066  1.00  0.00     0.002 C 
HETATM   11  C16 UNL     1     -95.263 -14.877  49.146  1.00  0.00     0.037 C 
HETATM   12  C17 UNL     1     -94.536 -15.876  49.981  1.00  0.00     0.118 C 
HETATM   13  C18 UNL     1     -95.389 -16.706  50.851  1.00  0.00     0.033 C 
HETATM   14  C19 UNL     1     -96.653 -16.111  51.362  1.00  0.00     0.018 C 
HETATM   15  C20 UNL     1     -97.334 -15.110  50.479  1.00  0.00     0.005 C 
ENDROOT
BRANCH   1  16
HETATM   16  C2  UNL     1    -101.539 -16.199  48.111  1.00  0.00     0.039 C 
HETATM   17  C1  UNL     1    -102.780 -15.505  48.562  1.00  0.00     0.025 C 
HETATM   18  C3  UNL     1    -101.740 -17.670  48.187  1.00  0.00     0.025 C 
BRANCH  16  19
HETATM   19  C4  UNL     1    -101.467 -15.944  46.608  1.00  0.00     0.239 C 
HETATM   20  O1  UNL     1    -102.476 -16.040  45.871  1.00  0.00    -0.272 OA
HETATM   21  N1  UNL     1    -100.240 -15.587  46.000  1.00  0.00    -0.254 N 
ATOM     22  H1  UNL     1     -99.400 -15.499  46.574  1.00  0.00     0.181 HD
BRANCH  21  23
HETATM   23  S1  UNL     1    -100.148 -15.300  44.302  1.00  0.00     0.229 S 
HETATM   24  C5  UNL     1     -98.521 -14.634  43.923  1.00  0.00     0.186 C 
HETATM   25  O2  UNL     1    -101.142 -14.233  43.891  1.00  0.00    -0.206 OA
HETATM   26  O3  UNL     1    -100.446 -16.518  43.505  1.00  0.00    -0.206 OA
ENDBRANCH  21  23
ENDBRANCH  16  19
ENDBRANCH   1  16
BRANCH  15  27
HETATM   27  C21 UNL     1     -96.989 -13.752  51.031  1.00  0.00     0.091 C 
HETATM   28  N2  UNL     1     -96.151 -13.607  51.996  1.00  0.00    -0.312 N 
ATOM     29  H2  UNL     1     -95.722 -14.447  52.382  1.00  0.00     0.185 HD
BRANCH  28  30
HETATM   30  N3  UNL     1     -95.791 -12.390  52.546  1.00  0.00    -0.265 N 
HETATM   31  C22 UNL     1     -94.471 -12.122  52.979  1.00  0.00     0.297 C 
HETATM   32  O5  UNL     1     -93.564 -12.981  52.883  1.00  0.00    -0.263 OA
ATOM     33  H3  UNL     1     -96.500 -11.663  52.643  1.00  0.00     0.190 HD
BRANCH  31  34
HETATM   34  C23 UNL     1     -94.123 -10.822  53.556  1.00  0.00     0.334 C 
HETATM   35  O6  UNL     1     -93.757 -10.717  54.766  1.00  0.00    -0.296 OA
ENDBRANCH  31  34
ENDBRANCH  28  30
ENDBRANCH  15  27
BRANCH  12  36
HETATM   36  O4  UNL     1     -93.511 -15.282  50.758  1.00  0.00    -0.396 OA
ATOM     37  H4  UNL     1     -92.682 -15.736  50.666  1.00  0.00     0.210 HD
ENDBRANCH  12  36
TORSDOF 7
ENDMDL
MODEL 5
REMARK VINA RESULT: -7.512116492      2.494      3.308
REMARK  7 active torsions:
REMARK  status: ('A' for Active; 'I' for Inactive)
REMARK    1  A    between atoms: C2_2  and  C4_4 
REMARK    2  A    between atoms: C2_2  and  C6_12 
REMARK       I    between atoms: C4_4  and  N1_6 
REMARK    3  A    between atoms: N1_6  and  S1_8 
REMARK    4  A    between atoms: C17_23  and  O4_24 
REMARK    5  A    between atoms: C20_28  and  C21_29 
REMARK    6  A    between atoms: N2_30  and  N3_32 
REMARK       I    between atoms: N3_32  and  C22_34 
REMARK    7  A    between atoms: C22_34  and  C23_36 
ROOT
HETATM    1  C6  UNL     1     -98.659 -14.970  47.429  1.00  0.00     0.011 C 
HETATM    2  C7  UNL     1    -100.064 -15.012  46.819  1.00  0.00     0.007 C 
HETATM    3  C8  UNL     1    -100.918 -15.132  48.038  1.00  0.00     0.011 C 
HETATM    4  C9  UNL     1    -100.100 -15.833  49.102  1.00  0.00    -0.024 C 
HETATM    5  C10 UNL     1    -100.609 -17.276  49.095  1.00  0.00     0.017 C 
HETATM    6  C11 UNL     1     -98.656 -15.722  48.683  1.00  0.00    -0.031 C 
HETATM    7  C12 UNL     1     -98.067 -17.094  48.642  1.00  0.00     0.016 C 
HETATM    8  C13 UNL     1     -97.809 -14.971  49.722  1.00  0.00     0.011 C 
HETATM    9  C14 UNL     1     -98.457 -13.779  50.314  1.00  0.00     0.007 C 
HETATM   10  C15 UNL     1     -99.898 -13.855  50.604  1.00  0.00     0.002 C 
HETATM   11  C16 UNL     1    -100.354 -13.289  51.924  1.00  0.00     0.037 C 
HETATM   12  C17 UNL     1     -99.980 -14.109  53.114  1.00  0.00     0.118 C 
HETATM   13  C18 UNL     1     -99.524 -15.478  52.815  1.00  0.00     0.033 C 
HETATM   14  C19 UNL     1    -100.082 -16.153  51.612  1.00  0.00     0.018 C 
HETATM   15  C20 UNL     1    -100.442 -15.275  50.452  1.00  0.00     0.005 C 
ENDROOT
BRANCH   1  16
HETATM   16  C2  UNL     1     -97.740 -15.245  46.307  1.00  0.00     0.039 C 
HETATM   17  C1  UNL     1     -98.177 -14.756  44.968  1.00  0.00     0.025 C 
HETATM   18  C3  UNL     1     -97.169 -16.612  46.171  1.00  0.00     0.025 C 
BRANCH  16  19
HETATM   19  C4  UNL     1     -96.518 -14.401  46.658  1.00  0.00     0.239 C 
HETATM   20  O1  UNL     1     -96.614 -13.184  46.940  1.00  0.00    -0.272 OA
HETATM   21  N1  UNL     1     -95.228 -14.980  46.674  1.00  0.00    -0.254 N 
ATOM     22  H1  UNL     1     -95.117 -15.970  46.451  1.00  0.00     0.181 HD
BRANCH  21  23
HETATM   23  S1  UNL     1     -93.841 -14.034  47.068  1.00  0.00     0.229 S 
HETATM   24  C5  UNL     1     -93.656 -12.748  45.826  1.00  0.00     0.186 C 
HETATM   25  O2  UNL     1     -92.585 -14.877  46.988  1.00  0.00    -0.206 OA
HETATM   26  O3  UNL     1     -93.912 -13.470  48.441  1.00  0.00    -0.206 OA
ENDBRANCH  21  23
ENDBRANCH  16  19
ENDBRANCH   1  16
BRANCH  15  27
HETATM   27  C21 UNL     1    -101.936 -15.097  50.500  1.00  0.00     0.091 C 
HETATM   28  N2  UNL     1    -102.695 -15.913  51.143  1.00  0.00    -0.312 N 
ATOM     29  H2  UNL     1    -102.250 -16.694  51.624  1.00  0.00     0.185 HD
BRANCH  28  30
HETATM   30  N3  UNL     1    -104.070 -15.805  51.227  1.00  0.00    -0.265 N 
HETATM   31  C22 UNL     1    -104.913 -16.033  50.113  1.00  0.00     0.297 C 
HETATM   32  O5  UNL     1    -104.445 -16.345  48.993  1.00  0.00    -0.263 OA
ATOM     33  H3  UNL     1    -104.492 -15.552  52.121  1.00  0.00     0.190 HD
BRANCH  31  34
HETATM   34  C23 UNL     1    -106.366 -15.912  50.237  1.00  0.00     0.334 C 
HETATM   35  O6  UNL     1    -106.892 -15.015  50.964  1.00  0.00    -0.296 OA
ENDBRANCH  31  34
ENDBRANCH  28  30
ENDBRANCH  15  27
BRANCH  12  36
HETATM   36  O4  UNL     1    -101.018 -14.159  54.077  1.00  0.00    -0.396 OA
ATOM     37  H4  UNL     1    -100.736 -13.840  54.926  1.00  0.00     0.210 HD
ENDBRANCH  12  36
TORSDOF 7
ENDMDL
