MODEL 1
REMARK VINA RESULT: -7.104307178      0.000      0.000
REMARK  6 active torsions:
REMARK  status: ('A' for Active; 'I' for Inactive)
REMARK    1  A    between atoms: C2_2  and  C3_3 
REMARK    2  A    between atoms: C3_3  and  N1_4 
REMARK    3  A    between atoms: C6_11  and  C7_12 
REMARK    4  A    between atoms: C16_26  and  C17_27 
REMARK    5  A    between atoms: C17_27  and  C18_28 
REMARK    6  A    between atoms: C21_33  and  O5_34 
ROOT
HETATM    1  N1  UNL     1    -100.229 -16.145  51.605  1.00  0.00    -0.363 N 
ATOM      2  H1  UNL     1     -99.443 -16.794  51.648  1.00  0.00     0.165 HD
HETATM    3  C4  UNL     1    -100.685 -16.022  50.443  1.00  0.00     0.132 C 
HETATM    4  C5  UNL     1    -101.799 -15.138  50.202  1.00  0.00     0.271 C 
HETATM    5  O1  UNL     1    -101.715 -14.051  50.849  1.00  0.00    -0.266 OA
HETATM    6  N2  UNL     1    -102.965 -15.295  49.360  1.00  0.00    -0.342 N 
ATOM      7  H2  UNL     1    -103.587 -14.494  49.248  1.00  0.00     0.163 HD
HETATM    8  C6  UNL     1    -103.308 -16.536  48.658  1.00  0.00     0.187 C 
HETATM    9  C8  UNL     1    -102.127 -17.147  48.012  1.00  0.00     0.248 C 
HETATM   10  O2  UNL     1    -102.469 -17.980  47.080  1.00  0.00    -0.271 OA
HETATM   11  N3  UNL     1    -100.708 -17.021  48.188  1.00  0.00    -0.310 N 
HETATM   12  C9  UNL     1    -100.131 -17.109  46.853  1.00  0.00     0.132 C 
HETATM   13  C10 UNL     1    -100.594 -15.917  46.071  1.00  0.00     0.023 C 
HETATM   14  C11 UNL     1    -100.079 -15.847  44.672  1.00  0.00     0.039 C 
HETATM   15  C12 UNL     1     -98.710 -15.161  44.566  1.00  0.00     0.063 C 
HETATM   16  C13 UNL     1     -98.968 -13.677  44.702  1.00  0.00     0.046 C 
HETATM   17  C14 UNL     1     -98.256 -15.369  43.138  1.00  0.00     0.046 C 
HETATM   18  O3  UNL     1     -97.833 -15.563  45.523  1.00  0.00    -0.309 OA
HETATM   19  C15 UNL     1     -97.000 -15.076  46.434  1.00  0.00     0.282 C 
HETATM   20  O4  UNL     1     -95.781 -14.795  46.344  1.00  0.00    -0.263 OA
HETATM   21  C16 UNL     1     -97.583 -14.802  47.820  1.00  0.00     0.184 C 
HETATM   22  N4  UNL     1     -97.663 -16.048  48.522  1.00  0.00    -0.355 N 
ATOM     23  H4  UNL     1     -96.848 -16.638  48.349  1.00  0.00     0.162 HD
HETATM   24  C21 UNL     1     -98.562 -16.650  49.370  1.00  0.00     0.166 C 
HETATM   25  C22 UNL     1     -99.998 -16.868  49.400  1.00  0.00     0.120 C 
ENDROOT
BRANCH   1  26
HETATM   26  C3  UNL     1    -100.546 -15.602  52.854  1.00  0.00     0.061 C 
BRANCH  26  27
HETATM   27  C2  UNL     1     -99.506 -14.651  53.386  1.00  0.00     0.040 C 
HETATM   28  C1  UNL     1     -98.112 -15.239  53.295  1.00  0.00     0.010 C 
ENDBRANCH  26  27
ENDBRANCH   1  26
BRANCH  24  29
HETATM   29  O5  UNL     1     -97.953 -17.160  50.427  1.00  0.00    -0.345 OA
ATOM     30  H5  UNL     1     -98.367 -17.969  50.704  1.00  0.00     0.219 HD
ENDBRANCH  24  29
BRANCH   8  31
HETATM   31  C7  UNL     1    -104.368 -16.163  47.655  1.00  0.00     0.120 C 
HETATM   32  S1  UNL     1    -106.036 -16.151  48.325  1.00  0.00    -0.095 SA
ENDBRANCH   8  31
BRANCH  21  33
HETATM   33  C17 UNL     1     -96.621 -13.878  48.562  1.00  0.00     0.039 C 
BRANCH  33  34
HETATM   34  C18 UNL     1     -96.949 -13.742  50.006  1.00  0.00    -0.020 C 
HETATM   35  C19 UNL     1     -98.256 -12.998  50.225  1.00  0.00     0.009 C 
HETATM   36  C20 UNL     1     -95.869 -13.005  50.773  1.00  0.00     0.009 C 
ENDBRANCH  33  34
ENDBRANCH  21  33
TORSDOF 6
ENDMDL
MODEL 2
REMARK VINA RESULT: -6.965059805      3.239      6.046
REMARK  6 active torsions:
REMARK  status: ('A' for Active; 'I' for Inactive)
REMARK    1  A    between atoms: C2_2  and  C3_3 
REMARK    2  A    between atoms: C3_3  and  N1_4 
REMARK    3  A    between atoms: C6_11  and  C7_12 
REMARK    4  A    between atoms: C16_26  and  C17_27 
REMARK    5  A    between atoms: C17_27  and  C18_28 
REMARK    6  A    between atoms: C21_33  and  O5_34 
ROOT
HETATM    1  N1  UNL     1     -96.974 -13.479  52.935  1.00  0.00    -0.363 N 
ATOM      2  H1  UNL     1     -97.660 -12.754  53.144  1.00  0.00     0.165 HD
HETATM    3  C4  UNL     1     -97.117 -13.957  51.785  1.00  0.00     0.132 C 
HETATM    4  C5  UNL     1     -96.230 -14.998  51.327  1.00  0.00     0.271 C 
HETATM    5  O1  UNL     1     -95.976 -15.859  52.223  1.00  0.00    -0.266 OA
HETATM    6  N2  UNL     1     -95.602 -15.207  50.040  1.00  0.00    -0.342 N 
ATOM      7  H2  UNL     1     -95.090 -16.077  49.892  1.00  0.00     0.163 HD
HETATM    8  C6  UNL     1     -95.657 -14.244  48.935  1.00  0.00     0.187 C 
HETATM    9  C8  UNL     1     -97.016 -13.690  48.755  1.00  0.00     0.248 C 
HETATM   10  O2  UNL     1     -97.171 -13.179  47.575  1.00  0.00    -0.271 OA
HETATM   11  N3  UNL     1     -98.181 -13.597  49.588  1.00  0.00    -0.310 N 
HETATM   12  C9  UNL     1     -99.321 -13.797  48.704  1.00  0.00     0.132 C 
HETATM   13  C10 UNL     1     -99.256 -15.199  48.177  1.00  0.00     0.023 C 
HETATM   14  C11 UNL     1    -100.369 -15.573  47.255  1.00  0.00     0.039 C 
HETATM   15  C12 UNL     1    -101.612 -16.097  47.989  1.00  0.00     0.063 C 
HETATM   16  C13 UNL     1    -101.289 -17.512  48.413  1.00  0.00     0.046 C 
HETATM   17  C14 UNL     1    -102.690 -16.220  46.935  1.00  0.00     0.046 C 
HETATM   18  O3  UNL     1    -101.942 -15.356  49.080  1.00  0.00    -0.309 OA
HETATM   19  C15 UNL     1    -102.237 -15.484  50.367  1.00  0.00     0.282 C 
HETATM   20  O4  UNL     1    -103.348 -15.633  50.929  1.00  0.00    -0.263 OA
HETATM   21  C16 UNL     1    -101.063 -15.450  51.346  1.00  0.00     0.184 C 
HETATM   22  N4  UNL     1    -100.687 -14.081  51.541  1.00  0.00    -0.355 N 
ATOM     23  H4  UNL     1    -101.500 -13.467  51.599  1.00  0.00     0.162 HD
HETATM   24  C21 UNL     1     -99.508 -13.388  51.671  1.00  0.00     0.166 C 
HETATM   25  C22 UNL     1     -98.232 -13.341  50.977  1.00  0.00     0.120 C 
ENDROOT
BRANCH   1  26
HETATM   26  C3  UNL     1     -96.094 -13.707  53.998  1.00  0.00     0.061 C 
BRANCH  26  27
HETATM   27  C2  UNL     1     -96.335 -12.818  55.190  1.00  0.00     0.040 C 
HETATM   28  C1  UNL     1     -97.757 -12.938  55.698  1.00  0.00     0.010 C 
ENDBRANCH  26  27
ENDBRANCH   1  26
BRANCH  24  29
HETATM   29  O5  UNL     1     -99.557 -12.550  52.692  1.00  0.00    -0.345 OA
ATOM     30  H5  UNL     1     -98.973 -12.825  53.390  1.00  0.00     0.219 HD
ENDBRANCH  24  29
BRANCH   8  31
HETATM   31  C7  UNL     1     -95.188 -14.991  47.715  1.00  0.00     0.120 C 
HETATM   32  S1  UNL     1     -93.664 -14.351  47.007  1.00  0.00    -0.095 SA
ENDBRANCH   8  31
BRANCH  21  33
HETATM   33  C17 UNL     1    -101.542 -16.026  52.677  1.00  0.00     0.039 C 
BRANCH  33  34
HETATM   34  C18 UNL     1    -100.673 -17.124  53.176  1.00  0.00    -0.020 C 
HETATM   35  C19 UNL     1     -99.379 -16.598  53.776  1.00  0.00     0.009 C 
HETATM   36  C20 UNL     1    -100.305 -18.108  52.083  1.00  0.00     0.009 C 
ENDBRANCH  33  34
ENDBRANCH  21  33
TORSDOF 6
ENDMDL
MODEL 3
REMARK VINA RESULT: -6.916026169      3.021      7.113
REMARK  6 active torsions:
REMARK  status: ('A' for Active; 'I' for Inactive)
REMARK    1  A    between atoms: C2_2  and  C3_3 
REMARK    2  A    between atoms: C3_3  and  N1_4 
REMARK    3  A    between atoms: C6_11  and  C7_12 
REMARK    4  A    between atoms: C16_26  and  C17_27 
REMARK    5  A    between atoms: C17_27  and  C18_28 
REMARK    6  A    between atoms: C21_33  and  O5_34 
ROOT
HETATM    1  N1  UNL     1     -95.629 -15.524  47.307  1.00  0.00    -0.363 N 
ATOM      2  H1  UNL     1     -95.819 -16.514  47.152  1.00  0.00     0.165 HD
HETATM    3  C4  UNL     1     -96.096 -15.109  48.395  1.00  0.00     0.132 C 
HETATM    4  C5  UNL     1     -95.920 -13.728  48.769  1.00  0.00     0.271 C 
HETATM    5  O1  UNL     1     -96.076 -12.930  47.797  1.00  0.00    -0.266 OA
HETATM    6  N2  UNL     1     -95.603 -13.128  50.047  1.00  0.00    -0.342 N 
ATOM      7  H2  UNL     1     -95.631 -12.111  50.119  1.00  0.00     0.163 HD
HETATM    8  C6  UNL     1     -95.242 -13.893  51.245  1.00  0.00     0.187 C 
HETATM    9  C8  UNL     1     -96.126 -15.063  51.437  1.00  0.00     0.248 C 
HETATM   10  O2  UNL     1     -96.092 -15.493  52.659  1.00  0.00    -0.271 OA
HETATM   11  N3  UNL     1     -96.999 -15.814  50.580  1.00  0.00    -0.310 N 
HETATM   12  C9  UNL     1     -98.147 -16.179  51.399  1.00  0.00     0.132 C 
HETATM   13  C10 UNL     1     -98.863 -14.917  51.777  1.00  0.00     0.023 C 
HETATM   14  C11 UNL     1    -100.082 -15.117  52.616  1.00  0.00     0.039 C 
HETATM   15  C12 UNL     1    -101.349 -15.378  51.789  1.00  0.00     0.063 C 
HETATM   16  C13 UNL     1    -101.773 -14.039  51.229  1.00  0.00     0.046 C 
HETATM   17  C14 UNL     1    -102.418 -15.762  52.787  1.00  0.00     0.046 C 
HETATM   18  O3  UNL     1    -101.153 -16.259  50.772  1.00  0.00    -0.309 OA
HETATM   19  C15 UNL     1    -101.362 -16.398  49.469  1.00  0.00     0.282 C 
HETATM   20  O4  UNL     1    -102.337 -16.896  48.858  1.00  0.00    -0.263 OA
HETATM   21  C16 UNL     1    -100.264 -15.882  48.540  1.00  0.00     0.184 C 
HETATM   22  N4  UNL     1     -99.217 -16.860  48.503  1.00  0.00    -0.355 N 
ATOM     23  H4  UNL     1     -99.585 -17.812  48.484  1.00  0.00     0.162 HD
HETATM   24  C21 UNL     1     -97.843 -16.839  48.487  1.00  0.00     0.166 C 
HETATM   25  C22 UNL     1     -96.792 -16.158  49.225  1.00  0.00     0.120 C 
ENDROOT
BRANCH   1  26
HETATM   26  C3  UNL     1     -94.910 -14.945  46.256  1.00  0.00     0.061 C 
BRANCH  26  27
HETATM   27  C2  UNL     1     -95.543 -15.143  44.903  1.00  0.00     0.040 C 
HETATM   28  C1  UNL     1     -94.517 -15.536  43.859  1.00  0.00     0.010 C 
ENDBRANCH  26  27
ENDBRANCH   1  26
BRANCH  24  29
HETATM   29  O5  UNL     1     -97.364 -17.650  47.559  1.00  0.00    -0.345 OA
ATOM     30  H5  UNL     1     -96.456 -17.451  47.366  1.00  0.00     0.219 HD
ENDBRANCH  24  29
BRANCH   8  31
HETATM   31  C7  UNL     1     -95.334 -12.926  52.395  1.00  0.00     0.120 C 
HETATM   32  S1  UNL     1     -94.953 -11.226  51.952  1.00  0.00    -0.095 SA
ENDBRANCH   8  31
BRANCH  21  33
HETATM   33  C17 UNL     1    -100.858 -15.742  47.140  1.00  0.00     0.039 C 
BRANCH  33  34
HETATM   34  C18 UNL     1     -99.840 -15.872  46.065  1.00  0.00    -0.020 C 
HETATM   35  C19 UNL     1     -98.955 -14.640  45.966  1.00  0.00     0.009 C 
HETATM   36  C20 UNL     1    -100.468 -16.096  44.703  1.00  0.00     0.009 C 
ENDBRANCH  33  34
ENDBRANCH  21  33
TORSDOF 6
ENDMDL
MODEL 4
REMARK VINA RESULT: -6.889231584      3.433      6.203
REMARK  6 active torsions:
REMARK  status: ('A' for Active; 'I' for Inactive)
REMARK    1  A    between atoms: C2_2  and  C3_3 
REMARK    2  A    between atoms: C3_3  and  N1_4 
REMARK    3  A    between atoms: C6_11  and  C7_12 
REMARK    4  A    between atoms: C16_26  and  C17_27 
REMARK    5  A    between atoms: C17_27  and  C18_28 
REMARK    6  A    between atoms: C21_33  and  O5_34 
ROOT
HETATM    1  N1  UNL     1     -98.672 -13.781  54.434  1.00  0.00    -0.363 N 
ATOM      2  H1  UNL     1     -99.234 -13.004  54.086  1.00  0.00     0.165 HD
HETATM    3  C4  UNL     1     -97.859 -14.206  53.579  1.00  0.00     0.132 C 
HETATM    4  C5  UNL     1     -96.987 -15.307  53.905  1.00  0.00     0.271 C 
HETATM    5  O1  UNL     1     -97.568 -16.216  54.570  1.00  0.00    -0.266 OA
HETATM    6  N2  UNL     1     -95.590 -15.528  53.600  1.00  0.00    -0.342 N 
ATOM      7  H2  UNL     1     -95.186 -16.435  53.834  1.00  0.00     0.163 HD
HETATM    8  C6  UNL     1     -94.718 -14.528  52.975  1.00  0.00     0.187 C 
HETATM    9  C8  UNL     1     -95.385 -13.848  51.844  1.00  0.00     0.248 C 
HETATM   10  O2  UNL     1     -94.528 -13.285  51.052  1.00  0.00    -0.271 OA
HETATM   11  N3  UNL     1     -96.751 -13.677  51.439  1.00  0.00    -0.310 N 
HETATM   12  C9  UNL     1     -96.747 -13.743  49.983  1.00  0.00     0.132 C 
HETATM   13  C10 UNL     1     -96.329 -15.127  49.586  1.00  0.00     0.023 C 
HETATM   14  C11 UNL     1     -96.284 -15.368  48.113  1.00  0.00     0.039 C 
HETATM   15  C12 UNL     1     -97.636 -15.801  47.530  1.00  0.00     0.063 C 
HETATM   16  C13 UNL     1     -97.817 -17.253  47.912  1.00  0.00     0.046 C 
HETATM   17  C14 UNL     1     -97.458 -15.791  46.028  1.00  0.00     0.046 C 
HETATM   18  O3  UNL     1     -98.681 -15.071  48.000  1.00  0.00    -0.309 OA
HETATM   19  C15 UNL     1     -99.886 -15.215  48.537  1.00  0.00     0.282 C 
HETATM   20  O4  UNL     1    -101.012 -15.281  47.987  1.00  0.00    -0.263 OA
HETATM   21  C16 UNL     1     -99.950 -15.320  50.060  1.00  0.00     0.184 C 
HETATM   22  N4  UNL     1     -99.838 -13.998  50.602  1.00  0.00    -0.355 N 
ATOM     23  H4  UNL     1    -100.359 -13.314  50.052  1.00  0.00     0.162 HD
HETATM   24  C21 UNL     1     -99.205 -13.419  51.675  1.00  0.00     0.166 C 
HETATM   25  C22 UNL     1     -97.878 -13.464  52.265  1.00  0.00     0.120 C 
ENDROOT
BRANCH   1  26
HETATM   26  C3  UNL     1     -98.988 -14.124  55.753  1.00  0.00     0.061 C 
BRANCH  26  27
HETATM   27  C2  UNL     1    -100.424 -14.536  55.948  1.00  0.00     0.040 C 
HETATM   28  C1  UNL     1    -100.531 -15.960  56.457  1.00  0.00     0.010 C 
ENDBRANCH  26  27
ENDBRANCH   1  26
BRANCH  24  29
HETATM   29  O5  UNL     1    -100.022 -12.614  52.333  1.00  0.00    -0.345 OA
ATOM     30  H5  UNL     1    -100.929 -12.788  52.109  1.00  0.00     0.219 HD
ENDBRANCH  24  29
BRANCH   8  31
HETATM   31  C7  UNL     1     -93.486 -15.272  52.535  1.00  0.00     0.120 C 
HETATM   32  S1  UNL     1     -93.814 -16.928  51.915  1.00  0.00    -0.095 SA
ENDBRANCH   8  31
BRANCH  21  33
HETATM   33  C17 UNL     1    -101.313 -15.894  50.437  1.00  0.00     0.039 C 
BRANCH  33  34
HETATM   34  C18 UNL     1    -101.270 -16.720  51.673  1.00  0.00    -0.020 C 
HETATM   35  C19 UNL     1    -101.764 -15.953  52.888  1.00  0.00     0.009 C 
HETATM   36  C20 UNL     1     -99.872 -17.218  51.982  1.00  0.00     0.009 C 
ENDBRANCH  33  34
ENDBRANCH  21  33
TORSDOF 6
ENDMDL
MODEL 5
REMARK VINA RESULT: -6.733366938      2.928      6.196
REMARK  6 active torsions:
REMARK  status: ('A' for Active; 'I' for Inactive)
REMARK    1  A    between atoms: C2_2  and  C3_3 
REMARK    2  A    between atoms: C3_3  and  N1_4 
REMARK    3  A    between atoms: C6_11  and  C7_12 
REMARK    4  A    between atoms: C16_26  and  C17_27 
REMARK    5  A    between atoms: C17_27  and  C18_28 
REMARK    6  A    between atoms: C21_33  and  O5_34 
ROOT
HETATM    1  N1  UNL     1    -101.940 -15.397  50.309  1.00  0.00    -0.363 N 
ATOM      2  H1  UNL     1    -101.934 -14.446  49.940  1.00  0.00     0.165 HD
HETATM    3  C4  UNL     1    -101.116 -15.554  51.241  1.00  0.00     0.132 C 
HETATM    4  C5  UNL     1    -100.991 -16.843  51.876  1.00  0.00     0.271 C 
HETATM    5  O1  UNL     1    -101.036 -17.805  51.052  1.00  0.00    -0.266 OA
HETATM    6  N2  UNL     1    -100.826 -17.199  53.269  1.00  0.00    -0.342 N 
ATOM      7  H2  UNL     1    -100.647 -18.177  53.496  1.00  0.00     0.163 HD
HETATM    8  C6  UNL     1    -100.901 -16.238  54.375  1.00  0.00     0.187 C 
HETATM    9  C8  UNL     1    -100.159 -14.995  54.075  1.00  0.00     0.248 C 
HETATM   10  O2  UNL     1     -99.875 -14.336  55.154  1.00  0.00    -0.271 OA
HETATM   11  N3  UNL     1     -99.691 -14.370  52.871  1.00  0.00    -0.310 N 
HETATM   12  C9  UNL     1     -98.405 -13.772  53.204  1.00  0.00     0.132 C 
HETATM   13  C10 UNL     1     -97.452 -14.881  53.535  1.00  0.00     0.023 C 
HETATM   14  C11 UNL     1     -96.073 -14.435  53.892  1.00  0.00     0.039 C 
HETATM   15  C12 UNL     1     -95.161 -14.255  52.669  1.00  0.00     0.063 C 
HETATM   16  C13 UNL     1     -94.758 -15.646  52.233  1.00  0.00     0.046 C 
HETATM   17  C14 UNL     1     -93.898 -13.607  53.192  1.00  0.00     0.046 C 
HETATM   18  O3  UNL     1     -95.767 -13.609  51.639  1.00  0.00    -0.309 OA
HETATM   19  C15 UNL     1     -95.983 -13.716  50.334  1.00  0.00     0.282 C 
HETATM   20  O4  UNL     1     -95.312 -13.283  49.367  1.00  0.00    -0.263 OA
HETATM   21  C16 UNL     1     -97.235 -14.480  49.907  1.00  0.00     0.184 C 
HETATM   22  N4  UNL     1     -98.360 -13.604  50.047  1.00  0.00    -0.355 N 
ATOM     23  H4  UNL     1     -98.142 -12.652  49.753  1.00  0.00     0.162 HD
HETATM   24  C21 UNL     1     -99.660 -13.723  50.478  1.00  0.00     0.166 C 
HETATM   25  C22 UNL     1    -100.341 -14.316  51.617  1.00  0.00     0.120 C 
ENDROOT
BRANCH   1  26
HETATM   26  C3  UNL     1    -102.863 -16.220  49.657  1.00  0.00     0.061 C 
BRANCH  26  27
HETATM   27  C2  UNL     1    -102.692 -16.262  48.161  1.00  0.00     0.040 C 
HETATM   28  C1  UNL     1    -102.605 -17.685  47.648  1.00  0.00     0.010 C 
ENDBRANCH  26  27
ENDBRANCH   1  26
BRANCH  24  29
HETATM   29  O5  UNL     1    -100.498 -13.147  49.633  1.00  0.00    -0.345 OA
ATOM     30  H5  UNL     1    -100.069 -12.453  49.146  1.00  0.00     0.219 HD
ENDBRANCH  24  29
BRANCH   8  31
HETATM   31  C7  UNL     1    -100.342 -16.951  55.578  1.00  0.00     0.120 C 
HETATM   32  S1  UNL     1    -101.529 -17.181  56.908  1.00  0.00    -0.095 SA
ENDBRANCH   8  31
BRANCH  21  33
HETATM   33  C17 UNL     1     -97.081 -14.853  48.434  1.00  0.00     0.039 C 
BRANCH  33  34
HETATM   34  C18 UNL     1     -97.645 -16.192  48.115  1.00  0.00    -0.020 C 
HETATM   35  C19 UNL     1     -99.023 -16.092  47.482  1.00  0.00     0.009 C 
HETATM   36  C20 UNL     1     -97.769 -17.070  49.345  1.00  0.00     0.009 C 
ENDBRANCH  33  34
ENDBRANCH  21  33
TORSDOF 6
ENDMDL
