MODEL 1
REMARK VINA RESULT: -8.708331047      0.000      0.000
REMARK  6 active torsions:
REMARK  status: ('A' for Active; 'I' for Inactive)
REMARK    1  A    between atoms: O1_2  and  C2_3 
REMARK    2  A    between atoms: C4_5  and  O2_6 
REMARK    3  A    between atoms: C6_9  and  C7_10 
REMARK    4  A    between atoms: C12_16  and  C13_17 
REMARK    5  A    between atoms: C18_25  and  C19_26 
REMARK    6  A    between atoms: C18_25  and  C22_29 
ROOT
HETATM    1  C7  UNL     1     -88.952 -16.963  10.032  1.00  0.00     0.033 C 
HETATM    2  C8  UNL     1     -88.888 -16.153  11.101  1.00  0.00     0.048 C 
HETATM    3  S1  UNL     1     -87.838 -14.727  11.266  1.00  0.00    -0.116 SA
HETATM    4  C9  UNL     1     -87.817 -14.791  13.130  1.00  0.00     0.020 C 
HETATM    5  C10 UNL     1     -86.415 -15.145  13.437  1.00  0.00     0.028 C 
HETATM    6  C11 UNL     1     -88.053 -13.323  13.509  1.00  0.00     0.028 C 
HETATM    7  C12 UNL     1     -88.907 -15.694  13.550  1.00  0.00     0.111 C 
HETATM    8  C23 UNL     1     -89.593 -16.187  12.320  1.00  0.00     0.175 C 
HETATM    9  O3  UNL     1     -90.800 -16.626  12.427  1.00  0.00    -0.291 OA
ENDROOT
BRANCH   7  10
HETATM   10  C13 UNL     1     -88.555 -16.846  14.443  1.00  0.00    -0.023 C 
HETATM   11  C14 UNL     1     -87.786 -16.534  15.542  1.00  0.00     0.017 C 
HETATM   12  C15 UNL     1     -87.483 -17.711  16.373  1.00  0.00     0.138 C 
HETATM   13  C16 UNL     1     -88.202 -17.581  17.705  1.00  0.00     0.050 C 
HETATM   14  C17 UNL     1     -86.002 -17.815  16.659  1.00  0.00     0.050 C 
HETATM   15  N1  UNL     1     -87.904 -18.806  15.603  1.00  0.00    -0.042 N 
HETATM   16  C18 UNL     1     -88.617 -18.300  14.453  1.00  0.00     0.249 C 
ATOM     17  H12 UNL     1     -87.136 -19.425  15.347  1.00  0.00     0.280 HD
ATOM     18  H11 UNL     1     -88.451 -19.479  16.140  1.00  0.00     0.280 HD
BRANCH  16  19
HETATM   19  C19 UNL     1     -89.857 -19.072  14.351  1.00  0.00     0.027 C 
HETATM   20  C20 UNL     1     -91.004 -18.464  15.184  1.00  0.00     0.012 C 
HETATM   21  C21 UNL     1     -89.821 -20.480  14.967  1.00  0.00     0.012 C 
ENDBRANCH  16  19
BRANCH  16  22
HETATM   22  C22 UNL     1     -87.679 -18.766  13.273  1.00  0.00     0.425 C 
HETATM   23  F1  UNL     1     -86.807 -17.817  12.905  1.00  0.00    -0.168 F 
HETATM   24  F2  UNL     1     -88.432 -19.210  12.270  1.00  0.00    -0.168 F 
HETATM   25  F3  UNL     1     -87.015 -19.889  13.806  1.00  0.00    -0.168 F 
ENDBRANCH  16  22
ENDBRANCH   7  10
BRANCH   1  26
HETATM   26  C6  UNL     1     -88.113 -16.690   8.887  1.00  0.00    -0.029 A 
HETATM   27  C5  UNL     1     -88.738 -16.350   7.686  1.00  0.00     0.048 A 
HETATM   28  C4  UNL     1     -88.009 -16.093   6.550  1.00  0.00     0.069 A 
HETATM   29  C3  UNL     1     -86.620 -16.166   6.569  1.00  0.00     0.073 A 
HETATM   30  C2  UNL     1     -85.994 -16.498   7.734  1.00  0.00     0.071 A 
HETATM   31  C24 UNL     1     -86.736 -16.755   8.876  1.00  0.00     0.048 A 
BRANCH  28  32
HETATM   32  O2  UNL     1     -88.671 -15.756   5.371  1.00  0.00    -0.361 OA
ATOM     33  H2  UNL     1     -89.612 -15.871   5.308  1.00  0.00     0.217 HD
ENDBRANCH  28  32
BRANCH  30  34
HETATM   34  O1  UNL     1     -84.589 -16.582   7.791  1.00  0.00    -0.356 OA
HETATM   35  C1  UNL     1     -83.955 -17.152   8.928  1.00  0.00     0.210 C 
ENDBRANCH  30  34
ENDBRANCH   1  26
TORSDOF 6
ENDMDL
MODEL 2
REMARK VINA RESULT: -8.023887718      1.073      2.069
REMARK  6 active torsions:
REMARK  status: ('A' for Active; 'I' for Inactive)
REMARK    1  A    between atoms: O1_2  and  C2_3 
REMARK    2  A    between atoms: C4_5  and  O2_6 
REMARK    3  A    between atoms: C6_9  and  C7_10 
REMARK    4  A    between atoms: C12_16  and  C13_17 
REMARK    5  A    between atoms: C18_25  and  C19_26 
REMARK    6  A    between atoms: C18_25  and  C22_29 
ROOT
HETATM    1  C7  UNL     1     -87.832 -17.079  10.215  1.00  0.00     0.033 C 
HETATM    2  C8  UNL     1     -88.021 -16.244  11.250  1.00  0.00     0.048 C 
HETATM    3  S1  UNL     1     -86.994 -14.853  11.666  1.00  0.00    -0.116 SA
HETATM    4  C9  UNL     1     -87.471 -14.867  13.467  1.00  0.00     0.020 C 
HETATM    5  C10 UNL     1     -86.218 -15.264  14.143  1.00  0.00     0.028 C 
HETATM    6  C11 UNL     1     -87.739 -13.383  13.747  1.00  0.00     0.028 C 
HETATM    7  C12 UNL     1     -88.671 -15.719  13.597  1.00  0.00     0.111 C 
HETATM    8  C23 UNL     1     -89.025 -16.220  12.236  1.00  0.00     0.175 C 
HETATM    9  O3  UNL     1     -90.234 -16.612  12.025  1.00  0.00    -0.291 OA
ENDROOT
BRANCH   7  10
HETATM   10  C13 UNL     1     -88.617 -16.859  14.569  1.00  0.00    -0.023 C 
HETATM   11  C14 UNL     1     -87.889 -16.630  15.716  1.00  0.00     0.017 C 
HETATM   12  C15 UNL     1     -87.884 -17.788  16.624  1.00  0.00     0.138 C 
HETATM   13  C16 UNL     1     -88.664 -17.442  17.881  1.00  0.00     0.050 C 
HETATM   14  C17 UNL     1     -86.477 -18.152  17.043  1.00  0.00     0.050 C 
HETATM   15  N1  UNL     1     -88.448 -18.830  15.872  1.00  0.00    -0.042 N 
HETATM   16  C18 UNL     1     -88.960 -18.272  14.642  1.00  0.00     0.249 C 
ATOM     17  H12 UNL     1     -87.796 -19.598  15.713  1.00  0.00     0.280 HD
ATOM     18  H11 UNL     1     -89.153 -19.353  16.390  1.00  0.00     0.280 HD
BRANCH  16  19
HETATM   19  C19 UNL     1     -90.313 -18.801  14.468  1.00  0.00     0.027 C 
HETATM   20  C20 UNL     1     -91.399 -17.829  14.972  1.00  0.00     0.012 C 
HETATM   21  C21 UNL     1     -90.665 -20.031  15.321  1.00  0.00     0.012 C 
ENDBRANCH  16  19
BRANCH  16  22
HETATM   22  C22 UNL     1     -88.041 -18.979  13.572  1.00  0.00     0.425 C 
HETATM   23  F1  UNL     1     -86.898 -18.314  13.356  1.00  0.00    -0.168 F 
HETATM   24  F2  UNL     1     -88.748 -19.187  12.464  1.00  0.00    -0.168 F 
HETATM   25  F3  UNL     1     -87.795 -20.246  14.136  1.00  0.00    -0.168 F 
ENDBRANCH  16  22
ENDBRANCH   7  10
BRANCH   1  26
HETATM   26  C6  UNL     1     -86.708 -16.867   9.331  1.00  0.00    -0.029 A 
HETATM   27  C5  UNL     1     -85.462 -17.349   9.734  1.00  0.00     0.048 A 
HETATM   28  C4  UNL     1     -84.343 -17.171   8.957  1.00  0.00     0.069 A 
HETATM   29  C3  UNL     1     -84.425 -16.502   7.740  1.00  0.00     0.073 A 
HETATM   30  C2  UNL     1     -85.636 -16.025   7.332  1.00  0.00     0.071 A 
HETATM   31  C24 UNL     1     -86.760 -16.208   8.121  1.00  0.00     0.048 A 
BRANCH  28  32
HETATM   32  O2  UNL     1     -83.116 -17.668   9.395  1.00  0.00    -0.361 OA
ATOM     33  H2  UNL     1     -83.022 -17.975  10.289  1.00  0.00     0.217 HD
ENDBRANCH  28  32
BRANCH  30  34
HETATM   34  O1  UNL     1     -85.757 -15.341   6.106  1.00  0.00    -0.356 OA
HETATM   35  C1  UNL     1     -86.842 -15.631   5.234  1.00  0.00     0.210 C 
ENDBRANCH  30  34
ENDBRANCH   1  26
TORSDOF 6
ENDMDL
MODEL 3
REMARK VINA RESULT: -7.998589646      3.306      7.154
REMARK  6 active torsions:
REMARK  status: ('A' for Active; 'I' for Inactive)
REMARK    1  A    between atoms: O1_2  and  C2_3 
REMARK    2  A    between atoms: C4_5  and  O2_6 
REMARK    3  A    between atoms: C6_9  and  C7_10 
REMARK    4  A    between atoms: C12_16  and  C13_17 
REMARK    5  A    between atoms: C18_25  and  C19_26 
REMARK    6  A    between atoms: C18_25  and  C22_29 
ROOT
HETATM    1  C7  UNL     1     -88.130 -16.849  14.496  1.00  0.00     0.033 C 
HETATM    2  C8  UNL     1     -88.248 -16.425  13.228  1.00  0.00     0.048 C 
HETATM    3  S1  UNL     1     -89.482 -16.956  12.062  1.00  0.00    -0.116 SA
HETATM    4  C9  UNL     1     -88.441 -16.552  10.570  1.00  0.00     0.020 C 
HETATM    5  C10 UNL     1     -88.149 -17.882   9.995  1.00  0.00     0.028 C 
HETATM    6  C11 UNL     1     -89.441 -15.826   9.661  1.00  0.00     0.028 C 
HETATM    7  C12 UNL     1     -87.329 -15.696  11.029  1.00  0.00     0.111 C 
HETATM    8  C23 UNL     1     -87.486 -15.490  12.499  1.00  0.00     0.175 C 
HETATM    9  O3  UNL     1     -86.917 -14.468  13.038  1.00  0.00    -0.291 OA
ENDROOT
BRANCH   7  10
HETATM   10  C13 UNL     1     -85.931 -16.138  10.717  1.00  0.00    -0.023 C 
HETATM   11  C14 UNL     1     -85.483 -17.237  11.415  1.00  0.00     0.017 C 
HETATM   12  C15 UNL     1     -84.107 -17.615  11.054  1.00  0.00     0.138 C 
HETATM   13  C16 UNL     1     -84.129 -18.950  10.331  1.00  0.00     0.050 C 
HETATM   14  C17 UNL     1     -83.240 -17.772  12.283  1.00  0.00     0.050 C 
HETATM   15  N1  UNL     1     -83.641 -16.548  10.270  1.00  0.00    -0.042 N 
HETATM   16  C18 UNL     1     -84.754 -15.669   9.998  1.00  0.00     0.249 C 
ATOM     17  H12 UNL     1     -82.852 -16.063  10.694  1.00  0.00     0.280 HD
ATOM     18  H11 UNL     1     -83.170 -16.861   9.421  1.00  0.00     0.280 HD
BRANCH  16  19
HETATM   19  C19 UNL     1     -84.727 -15.382   8.563  1.00  0.00     0.027 C 
HETATM   20  C20 UNL     1     -85.966 -15.929   7.825  1.00  0.00     0.012 C 
HETATM   21  C21 UNL     1     -83.625 -16.094   7.760  1.00  0.00     0.012 C 
ENDBRANCH  16  19
BRANCH  16  22
HETATM   22  C22 UNL     1     -84.305 -14.355  10.745  1.00  0.00     0.425 C 
HETATM   23  F1  UNL     1     -83.911 -14.589  12.004  1.00  0.00    -0.168 F 
HETATM   24  F2  UNL     1     -85.277 -13.451  10.655  1.00  0.00    -0.168 F 
HETATM   25  F3  UNL     1     -83.238 -13.878   9.958  1.00  0.00    -0.168 F 
ENDBRANCH  16  22
ENDBRANCH   7  10
BRANCH   1  26
HETATM   26  C6  UNL     1     -89.069 -17.823  15.007  1.00  0.00    -0.029 A 
HETATM   27  C5  UNL     1     -90.150 -17.356  15.756  1.00  0.00     0.048 A 
HETATM   28  C4  UNL     1     -91.074 -18.222  16.289  1.00  0.00     0.069 A 
HETATM   29  C3  UNL     1     -90.955 -19.594  16.094  1.00  0.00     0.073 A 
HETATM   30  C2  UNL     1     -89.904 -20.065  15.363  1.00  0.00     0.071 A 
HETATM   31  C24 UNL     1     -88.976 -19.187  14.829  1.00  0.00     0.048 A 
BRANCH  28  32
HETATM   32  O2  UNL     1     -92.140 -17.716  17.031  1.00  0.00    -0.361 OA
ATOM     33  H2  UNL     1     -92.392 -18.137  17.845  1.00  0.00     0.217 HD
ENDBRANCH  28  32
BRANCH  30  34
HETATM   34  O1  UNL     1     -89.750 -21.449  15.145  1.00  0.00    -0.356 OA
HETATM   35  C1  UNL     1     -89.001 -21.915  14.030  1.00  0.00     0.210 C 
ENDBRANCH  30  34
ENDBRANCH   1  26
TORSDOF 6
ENDMDL
MODEL 4
REMARK VINA RESULT: -7.823903610      3.142      7.004
REMARK  6 active torsions:
REMARK  status: ('A' for Active; 'I' for Inactive)
REMARK    1  A    between atoms: O1_2  and  C2_3 
REMARK    2  A    between atoms: C4_5  and  O2_6 
REMARK    3  A    between atoms: C6_9  and  C7_10 
REMARK    4  A    between atoms: C12_16  and  C13_17 
REMARK    5  A    between atoms: C18_25  and  C19_26 
REMARK    6  A    between atoms: C18_25  and  C22_29 
ROOT
HETATM    1  C7  UNL     1     -87.273 -17.703  14.928  1.00  0.00     0.033 C 
HETATM    2  C8  UNL     1     -87.257 -16.567  14.214  1.00  0.00     0.048 C 
HETATM    3  S1  UNL     1     -88.677 -15.756  13.513  1.00  0.00    -0.116 SA
HETATM    4  C9  UNL     1     -87.697 -14.902  12.176  1.00  0.00     0.020 C 
HETATM    5  C10 UNL     1     -88.176 -15.555  10.940  1.00  0.00     0.028 C 
HETATM    6  C11 UNL     1     -88.251 -13.472  12.229  1.00  0.00     0.028 C 
HETATM    7  C12 UNL     1     -86.271 -14.998  12.547  1.00  0.00     0.111 C 
HETATM    8  C23 UNL     1     -86.184 -15.732  13.844  1.00  0.00     0.175 C 
HETATM    9  O3  UNL     1     -85.130 -15.573  14.567  1.00  0.00    -0.291 OA
ENDROOT
BRANCH   7  10
HETATM   10  C13 UNL     1     -85.328 -15.600  11.549  1.00  0.00    -0.023 C 
HETATM   11  C14 UNL     1     -85.509 -15.201  10.243  1.00  0.00     0.017 C 
HETATM   12  C15 UNL     1     -84.547 -15.827   9.321  1.00  0.00     0.138 C 
HETATM   13  C16 UNL     1     -83.603 -14.765   8.786  1.00  0.00     0.050 C 
HETATM   14  C17 UNL     1     -85.249 -16.456   8.139  1.00  0.00     0.050 C 
HETATM   15  N1  UNL     1     -83.915 -16.818  10.089  1.00  0.00    -0.042 N 
HETATM   16  C18 UNL     1     -84.328 -16.655  11.463  1.00  0.00     0.249 C 
ATOM     17  H12 UNL     1     -84.088 -17.759   9.736  1.00  0.00     0.280 HD
ATOM     18  H11 UNL     1     -82.901 -16.813   9.980  1.00  0.00     0.280 HD
BRANCH  16  19
HETATM   19  C19 UNL     1     -83.114 -16.707  12.280  1.00  0.00     0.027 C 
HETATM   20  C20 UNL     1     -82.520 -15.309  12.547  1.00  0.00     0.012 C 
HETATM   21  C21 UNL     1     -81.895 -17.375  11.622  1.00  0.00     0.012 C 
ENDBRANCH  16  19
BRANCH  16  22
HETATM   22  C22 UNL     1     -85.117 -17.998  11.714  1.00  0.00     0.425 C 
HETATM   23  F1  UNL     1     -86.430 -17.876  11.472  1.00  0.00    -0.168 F 
HETATM   24  F2  UNL     1     -84.845 -18.438  12.940  1.00  0.00    -0.168 F 
HETATM   25  F3  UNL     1     -84.516 -18.904  10.818  1.00  0.00    -0.168 F 
ENDBRANCH  16  22
ENDBRANCH   7  10
BRANCH   1  26
HETATM   26  C6  UNL     1     -88.535 -18.364  15.177  1.00  0.00    -0.029 A 
HETATM   27  C5  UNL     1     -89.494 -17.678  15.925  1.00  0.00     0.048 A 
HETATM   28  C4  UNL     1     -90.710 -18.246  16.218  1.00  0.00     0.069 A 
HETATM   29  C3  UNL     1     -91.019 -19.528  15.773  1.00  0.00     0.073 A 
HETATM   30  C2  UNL     1     -90.092 -20.211  15.042  1.00  0.00     0.071 A 
HETATM   31  C24 UNL     1     -88.868 -19.632  14.750  1.00  0.00     0.048 A 
BRANCH  28  32
HETATM   32  O2  UNL     1     -91.641 -17.527  16.966  1.00  0.00    -0.361 OA
ATOM     33  H2  UNL     1     -91.343 -16.923  17.636  1.00  0.00     0.217 HD
ENDBRANCH  28  32
BRANCH  30  34
HETATM   34  O1  UNL     1     -90.369 -21.511  14.576  1.00  0.00    -0.356 OA
HETATM   35  C1  UNL     1     -89.303 -22.395  14.255  1.00  0.00     0.210 C 
ENDBRANCH  30  34
ENDBRANCH   1  26
TORSDOF 6
ENDMDL
MODEL 5
REMARK VINA RESULT: -7.732460478      2.047      3.134
REMARK  6 active torsions:
REMARK  status: ('A' for Active; 'I' for Inactive)
REMARK    1  A    between atoms: O1_2  and  C2_3 
REMARK    2  A    between atoms: C4_5  and  O2_6 
REMARK    3  A    between atoms: C6_9  and  C7_10 
REMARK    4  A    between atoms: C12_16  and  C13_17 
REMARK    5  A    between atoms: C18_25  and  C19_26 
REMARK    6  A    between atoms: C18_25  and  C22_29 
ROOT
HETATM    1  C7  UNL     1     -87.277 -17.308   9.672  1.00  0.00     0.033 C 
HETATM    2  C8  UNL     1     -87.592 -16.554  10.738  1.00  0.00     0.048 C 
HETATM    3  S1  UNL     1     -87.698 -14.779  10.764  1.00  0.00    -0.116 SA
HETATM    4  C9  UNL     1     -87.365 -14.651  12.594  1.00  0.00     0.020 C 
HETATM    5  C10 UNL     1     -86.039 -14.000  12.648  1.00  0.00     0.028 C 
HETATM    6  C11 UNL     1     -88.431 -13.648  13.051  1.00  0.00     0.028 C 
HETATM    7  C12 UNL     1     -87.539 -16.001  13.167  1.00  0.00     0.111 C 
HETATM    8  C23 UNL     1     -87.918 -16.925  12.057  1.00  0.00     0.175 C 
HETATM    9  O3  UNL     1     -88.525 -18.021  12.355  1.00  0.00    -0.291 OA
ENDROOT
BRANCH   7  10
HETATM   10  C13 UNL     1     -86.400 -16.579  13.953  1.00  0.00    -0.023 C 
HETATM   11  C14 UNL     1     -85.340 -17.048  13.209  1.00  0.00     0.017 C 
HETATM   12  C15 UNL     1     -84.260 -17.595  14.046  1.00  0.00     0.138 C 
HETATM   13  C16 UNL     1     -83.040 -16.697  13.938  1.00  0.00     0.050 C 
HETATM   14  C17 UNL     1     -83.855 -18.977  13.585  1.00  0.00     0.050 C 
HETATM   15  N1  UNL     1     -84.809 -17.659  15.336  1.00  0.00    -0.042 N 
HETATM   16  C18 UNL     1     -86.087 -16.986  15.315  1.00  0.00     0.249 C 
ATOM     17  H12 UNL     1     -84.873 -18.613  15.690  1.00  0.00     0.280 HD
ATOM     18  H11 UNL     1     -84.181 -17.289  16.050  1.00  0.00     0.280 HD
BRANCH  16  19
HETATM   19  C19 UNL     1     -86.111 -16.087  16.470  1.00  0.00     0.027 C 
HETATM   20  C20 UNL     1     -85.930 -14.608  16.073  1.00  0.00     0.012 C 
HETATM   21  C21 UNL     1     -84.935 -16.227  17.450  1.00  0.00     0.012 C 
ENDBRANCH  16  19
BRANCH  16  22
HETATM   22  C22 UNL     1     -87.072 -18.177  15.631  1.00  0.00     0.425 C 
HETATM   23  F1  UNL     1     -87.074 -19.112  14.671  1.00  0.00    -0.168 F 
HETATM   24  F2  UNL     1     -88.280 -17.683  15.889  1.00  0.00    -0.168 F 
HETATM   25  F3  UNL     1     -86.582 -18.696  16.846  1.00  0.00    -0.168 F 
ENDBRANCH  16  22
ENDBRANCH   7  10
BRANCH   1  26
HETATM   26  C6  UNL     1     -86.993 -16.663   8.409  1.00  0.00    -0.029 A 
HETATM   27  C5  UNL     1     -88.053 -16.475   7.520  1.00  0.00     0.048 A 
HETATM   28  C4  UNL     1     -87.858 -15.886   6.294  1.00  0.00     0.069 A 
HETATM   29  C3  UNL     1     -86.593 -15.458   5.906  1.00  0.00     0.073 A 
HETATM   30  C2  UNL     1     -85.548 -15.635   6.764  1.00  0.00     0.071 A 
HETATM   31  C24 UNL     1     -85.750 -16.230   7.999  1.00  0.00     0.048 A 
BRANCH  28  32
HETATM   32  O2  UNL     1     -88.943 -15.716   5.435  1.00  0.00    -0.361 OA
ATOM     33  H2  UNL     1     -88.958 -14.983   4.831  1.00  0.00     0.217 HD
ENDBRANCH  28  32
BRANCH  30  34
HETATM   34  O1  UNL     1     -84.251 -15.216   6.405  1.00  0.00    -0.356 OA
HETATM   35  C1  UNL     1     -83.836 -15.271   5.047  1.00  0.00     0.210 C 
ENDBRANCH  30  34
ENDBRANCH   1  26
TORSDOF 6
ENDMDL
