MODEL 1
REMARK VINA RESULT: -8.300105972      0.000      0.000
REMARK  5 active torsions:
REMARK  status: ('A' for Active; 'I' for Inactive)
REMARK    1  A    between atoms: O1_1  and  C1_3 
REMARK    2  A    between atoms: C4_6  and  O2_7 
REMARK    3  A    between atoms: N1_9  and  C5_10 
REMARK    4  A    between atoms: N2_13  and  C8_14 
REMARK    5  A    between atoms: C8_14  and  C9_15 
ROOT
HETATM    1  C1  UNL     1     -84.389 -15.373   6.200  1.00  0.00     0.153 A 
HETATM    2  C2  UNL     1     -83.135 -15.307   5.600  1.00  0.00     0.028 A 
HETATM    3  C3  UNL     1     -82.221 -15.997   6.363  1.00  0.00     0.016 A 
HETATM    4  C4  UNL     1     -82.948 -16.481   7.430  1.00  0.00     0.152 A 
HETATM    5  N1  UNL     1     -84.248 -16.086   7.300  1.00  0.00    -0.301 N 
HETATM    6  C17 UNL     1     -80.828 -16.045   5.895  1.00  0.00     0.013 C 
HETATM    7  C18 UNL     1     -80.071 -14.911   6.578  1.00  0.00     0.017 C 
HETATM    8  C19 UNL     1     -78.635 -15.366   6.484  1.00  0.00     0.001 C 
HETATM    9  C20 UNL     1     -78.641 -16.837   6.192  1.00  0.00     0.001 C 
HETATM   10  C21 UNL     1     -80.097 -17.284   6.353  1.00  0.00     0.017 C 
HETATM   11  C22 UNL     1     -80.710 -15.909   4.422  1.00  0.00     0.182 C 
HETATM   12  O3  UNL     1     -81.851 -15.616   3.730  1.00  0.00    -0.385 OA
HETATM   13  C23 UNL     1     -82.651 -14.655   4.348  1.00  0.00     0.211 C 
ENDROOT
BRANCH   5  14
HETATM   14  C5  UNL     1     -85.243 -16.444   8.268  1.00  0.00     0.115 C 
HETATM   15  C6  UNL     1     -86.389 -17.204   7.644  1.00  0.00     0.047 C 
HETATM   16  C7  UNL     1     -87.749 -16.608   7.994  1.00  0.00     0.124 C 
HETATM   17  N2  UNL     1     -87.821 -16.621   9.431  1.00  0.00    -0.388 N 
HETATM   18  C15 UNL     1     -86.860 -15.794  10.059  1.00  0.00     0.144 C 
HETATM   19  C16 UNL     1     -85.777 -15.317   9.071  1.00  0.00     0.123 C 
HETATM   20 CL3  UNL     1     -84.490 -14.661  10.149  1.00  0.00    -0.121 Cl
BRANCH  17  21
HETATM   21  C8  UNL     1     -89.108 -16.710   9.994  1.00  0.00     0.097 C 
BRANCH  21  22
HETATM   22  C9  UNL     1     -89.040 -17.389  11.315  1.00  0.00    -0.019 A 
HETATM   23  C10 UNL     1     -88.228 -18.486  11.516  1.00  0.00     0.014 A 
HETATM   24  C11 UNL     1     -88.166 -19.106  12.730  1.00  0.00     0.026 A 
HETATM   25  C12 UNL     1     -88.914 -18.655  13.793  1.00  0.00     0.055 A 
HETATM   26 CL1  UNL     1     -88.781 -19.507  15.328  1.00  0.00    -0.083 Cl
HETATM   27  C13 UNL     1     -89.727 -17.566  13.614  1.00  0.00     0.056 A 
HETATM   28 CL2  UNL     1     -90.672 -17.004  14.977  1.00  0.00    -0.083 Cl
HETATM   29  C14 UNL     1     -89.778 -16.951  12.381  1.00  0.00     0.038 A 
ENDBRANCH  21  22
ENDBRANCH  17  21
ENDBRANCH   5  14
BRANCH   1  30
HETATM   30  O1  UNL     1     -85.531 -14.767   5.662  1.00  0.00    -0.345 OA
ATOM     31  H1  UNL     1     -86.048 -14.121   6.131  1.00  0.00     0.219 HD
ENDBRANCH   1  30
BRANCH   4  32
HETATM   32  O2  UNL     1     -82.422 -17.244   8.463  1.00  0.00    -0.345 OA
ATOM     33  H2  UNL     1     -82.931 -17.812   9.029  1.00  0.00     0.219 HD
ENDBRANCH   4  32
TORSDOF 5
ENDMDL
MODEL 2
REMARK VINA RESULT: -8.083084842      3.117      9.453
REMARK  5 active torsions:
REMARK  status: ('A' for Active; 'I' for Inactive)
REMARK    1  A    between atoms: O1_1  and  C1_3 
REMARK    2  A    between atoms: C4_6  and  O2_7 
REMARK    3  A    between atoms: N1_9  and  C5_10 
REMARK    4  A    between atoms: N2_13  and  C8_14 
REMARK    5  A    between atoms: C8_14  and  C9_15 
ROOT
HETATM    1  C1  UNL     1     -86.886 -16.534   7.851  1.00  0.00     0.153 A 
HETATM    2  C2  UNL     1     -88.004 -16.727   8.657  1.00  0.00     0.028 A 
HETATM    3  C3  UNL     1     -87.712 -16.353   9.949  1.00  0.00     0.016 A 
HETATM    4  C4  UNL     1     -86.401 -15.932   9.904  1.00  0.00     0.152 A 
HETATM    5  N1  UNL     1     -85.935 -16.055   8.627  1.00  0.00    -0.301 N 
HETATM    6  C17 UNL     1     -88.771 -16.482  10.961  1.00  0.00     0.013 C 
HETATM    7  C18 UNL     1     -88.596 -17.833  11.644  1.00  0.00     0.017 C 
HETATM    8  C19 UNL     1     -89.318 -17.639  12.955  1.00  0.00     0.001 C 
HETATM    9  C20 UNL     1     -89.478 -16.164  13.174  1.00  0.00     0.001 C 
HETATM   10  C21 UNL     1     -88.627 -15.492  12.091  1.00  0.00     0.017 C 
HETATM   11  C22 UNL     1     -90.135 -16.388  10.382  1.00  0.00     0.182 C 
HETATM   12  O3  UNL     1     -90.233 -16.347   9.020  1.00  0.00    -0.385 OA
HETATM   13  C23 UNL     1     -89.377 -17.235   8.369  1.00  0.00     0.211 C 
ENDROOT
BRANCH   5  14
HETATM   14  C5  UNL     1     -84.593 -15.689   8.277  1.00  0.00     0.115 C 
HETATM   15  C6  UNL     1     -84.550 -14.814   7.049  1.00  0.00     0.047 C 
HETATM   16  C7  UNL     1     -83.581 -15.334   5.990  1.00  0.00     0.124 C 
HETATM   17  N2  UNL     1     -82.299 -15.406   6.638  1.00  0.00    -0.388 N 
HETATM   18  C15 UNL     1     -82.249 -16.336   7.704  1.00  0.00     0.144 C 
HETATM   19  C16 UNL     1     -83.653 -16.824   8.109  1.00  0.00     0.123 C 
HETATM   20 CL3  UNL     1     -83.370 -17.634   9.694  1.00  0.00    -0.121 Cl
BRANCH  17  21
HETATM   21  C8  UNL     1     -81.169 -15.263   5.811  1.00  0.00     0.097 C 
BRANCH  21  22
HETATM   22  C9  UNL     1     -80.617 -13.888   5.938  1.00  0.00    -0.019 A 
HETATM   23  C10 UNL     1     -80.481 -13.280   7.168  1.00  0.00     0.014 A 
HETATM   24  C11 UNL     1     -79.972 -12.019   7.280  1.00  0.00     0.026 A 
HETATM   25  C12 UNL     1     -79.580 -11.313   6.167  1.00  0.00     0.055 A 
HETATM   26 CL1  UNL     1     -78.933  -9.691   6.392  1.00  0.00    -0.083 Cl
HETATM   27  C13 UNL     1     -79.706 -11.899   4.934  1.00  0.00     0.056 A 
HETATM   28 CL2  UNL     1     -79.201 -10.989   3.527  1.00  0.00    -0.083 Cl
HETATM   29  C14 UNL     1     -80.222 -13.175   4.837  1.00  0.00     0.038 A 
ENDBRANCH  21  22
ENDBRANCH  17  21
ENDBRANCH   5  14
BRANCH   1  30
HETATM   30  O1  UNL     1     -86.867 -16.823   6.481  1.00  0.00    -0.345 OA
ATOM     31  H1  UNL     1     -86.068 -16.869   5.969  1.00  0.00     0.219 HD
ENDBRANCH   1  30
BRANCH   4  32
HETATM   32  O2  UNL     1     -85.684 -15.462  10.997  1.00  0.00    -0.345 OA
ATOM     33  H2  UNL     1     -85.391 -14.565  11.106  1.00  0.00     0.219 HD
ENDBRANCH   4  32
TORSDOF 5
ENDMDL
MODEL 3
REMARK VINA RESULT: -7.958638352      0.678      1.223
REMARK  5 active torsions:
REMARK  status: ('A' for Active; 'I' for Inactive)
REMARK    1  A    between atoms: O1_1  and  C1_3 
REMARK    2  A    between atoms: C4_6  and  O2_7 
REMARK    3  A    between atoms: N1_9  and  C5_10 
REMARK    4  A    between atoms: N2_13  and  C8_14 
REMARK    5  A    between atoms: C8_14  and  C9_15 
ROOT
HETATM    1  C1  UNL     1     -84.481 -15.442   6.340  1.00  0.00     0.153 A 
HETATM    2  C2  UNL     1     -83.234 -15.397   5.725  1.00  0.00     0.028 A 
HETATM    3  C3  UNL     1     -82.312 -16.063   6.499  1.00  0.00     0.016 A 
HETATM    4  C4  UNL     1     -83.027 -16.511   7.589  1.00  0.00     0.152 A 
HETATM    5  N1  UNL     1     -84.328 -16.119   7.461  1.00  0.00    -0.301 N 
HETATM    6  C17 UNL     1     -80.924 -16.128   6.018  1.00  0.00     0.013 C 
HETATM    7  C18 UNL     1     -80.159 -14.974   6.654  1.00  0.00     0.017 C 
HETATM    8  C19 UNL     1     -78.724 -15.433   6.560  1.00  0.00     0.001 C 
HETATM    9  C20 UNL     1     -78.734 -16.913   6.315  1.00  0.00     0.001 C 
HETATM   10  C21 UNL     1     -80.189 -17.352   6.507  1.00  0.00     0.017 C 
HETATM   11  C22 UNL     1     -80.823 -16.040   4.540  1.00  0.00     0.182 C 
HETATM   12  O3  UNL     1     -81.971 -15.768   3.851  1.00  0.00    -0.385 OA
HETATM   13  C23 UNL     1     -82.764 -14.787   4.447  1.00  0.00     0.211 C 
ENDROOT
BRANCH   5  14
HETATM   14  C5  UNL     1     -85.313 -16.444   8.452  1.00  0.00     0.115 C 
HETATM   15  C6  UNL     1     -86.490 -17.178   7.857  1.00  0.00     0.047 C 
HETATM   16  C7  UNL     1     -87.827 -16.545   8.230  1.00  0.00     0.124 C 
HETATM   17  N2  UNL     1     -87.870 -16.546   9.667  1.00  0.00    -0.388 N 
HETATM   18  C15 UNL     1     -86.876 -15.739  10.270  1.00  0.00     0.144 C 
HETATM   19  C16 UNL     1     -85.801 -15.298   9.257  1.00  0.00     0.123 C 
HETATM   20 CL3  UNL     1     -84.476 -14.668  10.304  1.00  0.00    -0.121 Cl
BRANCH  17  21
HETATM   21  C8  UNL     1     -89.148 -16.597  10.257  1.00  0.00     0.097 C 
BRANCH  21  22
HETATM   22  C9  UNL     1     -89.028 -16.916  11.704  1.00  0.00    -0.019 A 
HETATM   23  C10 UNL     1     -89.146 -15.934  12.667  1.00  0.00     0.014 A 
HETATM   24  C11 UNL     1     -89.036 -16.231  13.994  1.00  0.00     0.026 A 
HETATM   25  C12 UNL     1     -88.804 -17.519  14.414  1.00  0.00     0.055 A 
HETATM   26 CL1  UNL     1     -88.674 -17.824  16.143  1.00  0.00    -0.083 Cl
HETATM   27  C13 UNL     1     -88.683 -18.510  13.474  1.00  0.00     0.056 A 
HETATM   28 CL2  UNL     1     -88.388 -20.145  14.024  1.00  0.00    -0.083 Cl
HETATM   29  C14 UNL     1     -88.796 -18.194  12.136  1.00  0.00     0.038 A 
ENDBRANCH  21  22
ENDBRANCH  17  21
ENDBRANCH   5  14
BRANCH   1  30
HETATM   30  O1  UNL     1     -85.628 -14.852   5.797  1.00  0.00    -0.345 OA
ATOM     31  H1  UNL     1     -86.391 -14.622   6.314  1.00  0.00     0.219 HD
ENDBRANCH   1  30
BRANCH   4  32
HETATM   32  O2  UNL     1     -82.490 -17.241   8.641  1.00  0.00    -0.345 OA
ATOM     33  H2  UNL     1     -81.861 -16.904   9.268  1.00  0.00     0.219 HD
ENDBRANCH   4  32
TORSDOF 5
ENDMDL
MODEL 4
REMARK VINA RESULT: -7.775453860      1.396      1.628
REMARK  5 active torsions:
REMARK  status: ('A' for Active; 'I' for Inactive)
REMARK    1  A    between atoms: O1_1  and  C1_3 
REMARK    2  A    between atoms: C4_6  and  O2_7 
REMARK    3  A    between atoms: N1_9  and  C5_10 
REMARK    4  A    between atoms: N2_13  and  C8_14 
REMARK    5  A    between atoms: C8_14  and  C9_15 
ROOT
HETATM    1  C1  UNL     1     -85.057 -15.763   7.445  1.00  0.00     0.153 A 
HETATM    2  C2  UNL     1     -83.978 -15.735   6.567  1.00  0.00     0.028 A 
HETATM    3  C3  UNL     1     -82.838 -16.139   7.223  1.00  0.00     0.016 A 
HETATM    4  C4  UNL     1     -83.251 -16.411   8.509  1.00  0.00     0.152 A 
HETATM    5  N1  UNL     1     -84.592 -16.174   8.608  1.00  0.00    -0.301 N 
HETATM    6  C17 UNL     1     -81.580 -16.177   6.462  1.00  0.00     0.013 C 
HETATM    7  C18 UNL     1     -80.863 -14.851   6.685  1.00  0.00     0.017 C 
HETATM    8  C19 UNL     1     -79.429 -15.189   6.356  1.00  0.00     0.001 C 
HETATM    9  C20 UNL     1     -79.291 -16.682   6.398  1.00  0.00     0.001 C 
HETATM   10  C21 UNL     1     -80.605 -17.201   6.990  1.00  0.00     0.017 C 
HETATM   11  C22 UNL     1     -81.794 -16.391   5.009  1.00  0.00     0.182 C 
HETATM   12  O3  UNL     1     -83.083 -16.374   4.559  1.00  0.00    -0.385 OA
HETATM   13  C23 UNL     1     -83.862 -15.365   5.126  1.00  0.00     0.211 C 
ENDROOT
BRANCH   5  14
HETATM   14  C5  UNL     1     -85.302 -16.372   9.837  1.00  0.00     0.115 C 
HETATM   15  C6  UNL     1     -86.549 -17.200   9.640  1.00  0.00     0.047 C 
HETATM   16  C7  UNL     1     -87.792 -16.541  10.231  1.00  0.00     0.124 C 
HETATM   17  N2  UNL     1     -87.500 -16.342  11.625  1.00  0.00    -0.388 N 
HETATM   18  C15 UNL     1     -86.432 -15.444  11.863  1.00  0.00     0.144 C 
HETATM   19  C16 UNL     1     -85.645 -15.133  10.576  1.00  0.00     0.123 C 
HETATM   20 CL3  UNL     1     -84.144 -14.342  11.187  1.00  0.00    -0.121 Cl
BRANCH  17  21
HETATM   21  C8  UNL     1     -88.602 -16.330  12.502  1.00  0.00     0.097 C 
BRANCH  21  22
HETATM   22  C9  UNL     1     -88.800 -17.681  13.089  1.00  0.00    -0.019 A 
HETATM   23  C10 UNL     1     -87.986 -18.740  12.743  1.00  0.00     0.014 A 
HETATM   24  C11 UNL     1     -88.169 -19.978  13.285  1.00  0.00     0.026 A 
HETATM   25  C12 UNL     1     -89.174 -20.210  14.196  1.00  0.00     0.055 A 
HETATM   26 CL1  UNL     1     -89.349 -21.834  14.851  1.00  0.00    -0.083 Cl
HETATM   27  C13 UNL     1     -89.994 -19.171  14.554  1.00  0.00     0.056 A 
HETATM   28 CL2  UNL     1     -91.268 -19.481  15.714  1.00  0.00    -0.083 Cl
HETATM   29  C14 UNL     1     -89.796 -17.925  13.997  1.00  0.00     0.038 A 
ENDBRANCH  21  22
ENDBRANCH  17  21
ENDBRANCH   5  14
BRANCH   1  30
HETATM   30  O1  UNL     1     -86.359 -15.405   7.074  1.00  0.00    -0.345 OA
ATOM     31  H1  UNL     1     -87.098 -15.433   7.672  1.00  0.00     0.219 HD
ENDBRANCH   1  30
BRANCH   4  32
HETATM   32  O2  UNL     1     -82.419 -16.854   9.530  1.00  0.00    -0.345 OA
ATOM     33  H2  UNL     1     -82.527 -16.637  10.448  1.00  0.00     0.219 HD
ENDBRANCH   4  32
TORSDOF 5
ENDMDL
MODEL 5
REMARK VINA RESULT: -7.671225636      2.981      4.523
REMARK  5 active torsions:
REMARK  status: ('A' for Active; 'I' for Inactive)
REMARK    1  A    between atoms: O1_1  and  C1_3 
REMARK    2  A    between atoms: C4_6  and  O2_7 
REMARK    3  A    between atoms: N1_9  and  C5_10 
REMARK    4  A    between atoms: N2_13  and  C8_14 
REMARK    5  A    between atoms: C8_14  and  C9_15 
ROOT
HETATM    1  C1  UNL     1     -83.805 -15.430  11.386  1.00  0.00     0.153 A 
HETATM    2  C2  UNL     1     -83.145 -15.112  10.203  1.00  0.00     0.028 A 
HETATM    3  C3  UNL     1     -83.720 -15.793   9.155  1.00  0.00     0.016 A 
HETATM    4  C4  UNL     1     -84.737 -16.525   9.728  1.00  0.00     0.152 A 
HETATM    5  N1  UNL     1     -84.760 -16.283  11.072  1.00  0.00    -0.301 N 
HETATM    6  C17 UNL     1     -83.161 -15.590   7.810  1.00  0.00     0.013 C 
HETATM    7  C18 UNL     1     -82.142 -16.696   7.560  1.00  0.00     0.017 C 
HETATM    8  C19 UNL     1     -82.055 -16.735   6.055  1.00  0.00     0.001 C 
HETATM    9  C20 UNL     1     -83.263 -16.033   5.510  1.00  0.00     0.001 C 
HETATM   10  C21 UNL     1     -84.179 -15.793   6.714  1.00  0.00     0.017 C 
HETATM   11  C22 UNL     1     -82.510 -14.266   7.651  1.00  0.00     0.182 C 
HETATM   12  O3  UNL     1     -82.384 -13.495   8.772  1.00  0.00    -0.385 OA
HETATM   13  C23 UNL     1     -81.994 -14.210   9.904  1.00  0.00     0.211 C 
ENDROOT
BRANCH   5  14
HETATM   14  C5  UNL     1     -85.719 -16.911  11.933  1.00  0.00     0.115 C 
HETATM   15  C6  UNL     1     -86.701 -15.916  12.503  1.00  0.00     0.047 C 
HETATM   16  C7  UNL     1     -86.818 -16.010  14.021  1.00  0.00     0.124 C 
HETATM   17  N2  UNL     1     -87.213 -17.365  14.298  1.00  0.00    -0.388 N 
HETATM   18  C15 UNL     1     -86.247 -18.329  13.921  1.00  0.00     0.144 C 
HETATM   19  C16 UNL     1     -85.144 -17.722  13.033  1.00  0.00     0.123 C 
HETATM   20 CL3  UNL     1     -84.307 -19.171  12.362  1.00  0.00    -0.121 Cl
BRANCH  17  21
HETATM   21  C8  UNL     1     -87.955 -17.575  15.476  1.00  0.00     0.097 C 
BRANCH  21  22
HETATM   22  C9  UNL     1     -89.064 -18.528  15.214  1.00  0.00    -0.019 A 
HETATM   23  C10 UNL     1     -90.378 -18.109  15.183  1.00  0.00     0.014 A 
HETATM   24  C11 UNL     1     -91.394 -18.986  14.942  1.00  0.00     0.026 A 
HETATM   25  C12 UNL     1     -91.140 -20.320  14.721  1.00  0.00     0.055 A 
HETATM   26 CL1  UNL     1     -92.503 -21.391  14.416  1.00  0.00    -0.083 Cl
HETATM   27  C13 UNL     1     -89.841 -20.758  14.748  1.00  0.00     0.056 A 
HETATM   28 CL2  UNL     1     -89.533 -22.458  14.464  1.00  0.00    -0.083 Cl
HETATM   29  C14 UNL     1     -88.825 -19.859  14.993  1.00  0.00     0.038 A 
ENDBRANCH  21  22
ENDBRANCH  17  21
ENDBRANCH   5  14
BRANCH   1  30
HETATM   30  O1  UNL     1     -83.452 -14.896  12.631  1.00  0.00    -0.345 OA
ATOM     31  H1  UNL     1     -82.836 -15.313  13.222  1.00  0.00     0.219 HD
ENDBRANCH   1  30
BRANCH   4  32
HETATM   32  O2  UNL     1     -85.592 -17.370   9.033  1.00  0.00    -0.345 OA
ATOM     33  H2  UNL     1     -86.103 -17.117   8.273  1.00  0.00     0.219 HD
ENDBRANCH   4  32
TORSDOF 5
ENDMDL
