MODEL 1
REMARK VINA RESULT: -8.270745163      0.000      0.000
REMARK  6 active torsions:
REMARK  status: ('A' for Active; 'I' for Inactive)
REMARK    1  A    between atoms: C2_2  and  O1_3 
REMARK    2  A    between atoms: O1_3  and  C3_4 
REMARK    3  A    between atoms: C3_4  and  C4_6 
REMARK    4  A    between atoms: C5_7  and  C6_8 
REMARK       I    between atoms: C6_8  and  N1_10 
REMARK       I    between atoms: N1_10  and  C7_12 
REMARK       I    between atoms: C7_12  and  N2_14 
REMARK    5  A    between atoms: N2_14  and  C8_16 
REMARK    6  A    between atoms: C14_22  and  C15_23 
ROOT
HETATM    1  C6  UNL     1     -86.285 -17.254  10.867  1.00  0.00     0.267 C 
HETATM    2  O3  UNL     1     -86.229 -18.196  10.008  1.00  0.00    -0.267 OA
HETATM    3  N1  UNL     1     -85.577 -16.103  10.634  1.00  0.00    -0.274 N 
ATOM      4  H1  UNL     1     -85.647 -15.376  11.346  1.00  0.00     0.173 HD
HETATM    5  C7  UNL     1     -84.765 -15.813   9.521  1.00  0.00     0.327 C 
HETATM    6  O4  UNL     1     -84.216 -14.649   9.562  1.00  0.00    -0.247 OA
HETATM    7  N2  UNL     1     -84.519 -16.632   8.438  1.00  0.00    -0.308 N 
ATOM      8  H2  UNL     1     -84.987 -17.538   8.455  1.00  0.00     0.170 HD
ENDROOT
BRANCH   1   9
HETATM    9  C5  UNL     1     -87.142 -17.557  12.041  1.00  0.00     0.090 A 
HETATM   10  C4  UNL     1     -88.355 -17.163  12.453  1.00  0.00     0.069 A 
HETATM   11  C17 UNL     1     -88.832 -17.677  13.629  1.00  0.00    -0.023 A 
HETATM   12  C16 UNL     1     -88.038 -18.553  14.293  1.00  0.00    -0.005 A 
HETATM   13  C18 UNL     1     -90.147 -17.442  14.368  1.00  0.00     0.021 C 
HETATM   14  S1  UNL     1     -86.667 -18.663  13.318  1.00  0.00    -0.087 SA
HETATM   15  C21 UNL     1     -88.585 -19.104  15.583  1.00  0.00     0.026 C 
HETATM   16  C20 UNL     1     -89.890 -19.774  15.204  1.00  0.00     0.010 C 
HETATM   17  C22 UNL     1     -88.960 -17.942  16.510  1.00  0.00     0.010 C 
HETATM   18  C19 UNL     1     -90.794 -18.799  14.509  1.00  0.00     0.010 C 
HETATM   19  C23 UNL     1     -89.746 -16.933  15.736  1.00  0.00     0.010 C 
BRANCH  10  20
HETATM   20  C3  UNL     1     -89.219 -16.195  11.694  1.00  0.00     0.295 C 
HETATM   21  O2  UNL     1     -88.938 -14.969  11.701  1.00  0.00    -0.259 OA
BRANCH  20  22
HETATM   22  O1  UNL     1     -90.321 -16.617  10.980  1.00  0.00    -0.318 OA
BRANCH  22  23
HETATM   23  C2  UNL     1     -90.371 -16.395   9.574  1.00  0.00     0.174 C 
HETATM   24  C1  UNL     1     -89.489 -17.409   8.878  1.00  0.00     0.034 C 
ENDBRANCH  22  23
ENDBRANCH  20  22
ENDBRANCH  10  20
ENDBRANCH   1   9
BRANCH   7  25
HETATM   25  C8  UNL     1     -83.695 -16.379   7.293  1.00  0.00     0.051 A 
HETATM   26  C9  UNL     1     -82.327 -16.517   7.314  1.00  0.00     0.037 A 
HETATM   27  C10 UNL     1     -81.514 -16.299   6.191  1.00  0.00    -0.060 A 
HETATM   28  C11 UNL     1     -80.031 -16.461   6.259  1.00  0.00     0.048 C 
HETATM   29  C12 UNL     1     -82.131 -15.931   5.024  1.00  0.00     0.007 A 
HETATM   30  C13 UNL     1     -83.491 -15.786   4.970  1.00  0.00     0.019 A 
HETATM   31  C14 UNL     1     -84.293 -16.008   6.108  1.00  0.00     0.074 A 
BRANCH  31  32
HETATM   32  C15 UNL     1     -85.751 -15.824   6.008  1.00  0.00     0.419 C 
HETATM   33  F1  UNL     1     -86.212 -14.718   6.692  1.00  0.00    -0.166 F 
HETATM   34  F2  UNL     1     -86.479 -16.976   6.277  1.00  0.00    -0.166 F 
HETATM   35  F3  UNL     1     -86.034 -15.518   4.652  1.00  0.00    -0.166 F 
ENDBRANCH  31  32
ENDBRANCH   7  25
TORSDOF 6
ENDMDL
MODEL 2
REMARK VINA RESULT: -8.128526441      0.765      1.396
REMARK  6 active torsions:
REMARK  status: ('A' for Active; 'I' for Inactive)
REMARK    1  A    between atoms: C2_2  and  O1_3 
REMARK    2  A    between atoms: O1_3  and  C3_4 
REMARK    3  A    between atoms: C3_4  and  C4_6 
REMARK    4  A    between atoms: C5_7  and  C6_8 
REMARK       I    between atoms: C6_8  and  N1_10 
REMARK       I    between atoms: N1_10  and  C7_12 
REMARK       I    between atoms: C7_12  and  N2_14 
REMARK    5  A    between atoms: N2_14  and  C8_16 
REMARK    6  A    between atoms: C14_22  and  C15_23 
ROOT
HETATM    1  C6  UNL     1     -86.304 -17.258  10.856  1.00  0.00     0.267 C 
HETATM    2  O3  UNL     1     -86.253 -18.195   9.990  1.00  0.00    -0.267 OA
HETATM    3  N1  UNL     1     -85.596 -16.107  10.628  1.00  0.00    -0.274 N 
ATOM      4  H1  UNL     1     -85.662 -15.385  11.345  1.00  0.00     0.173 HD
HETATM    5  C7  UNL     1     -84.787 -15.811   9.515  1.00  0.00     0.327 C 
HETATM    6  O4  UNL     1     -84.237 -14.647   9.562  1.00  0.00    -0.247 OA
HETATM    7  N2  UNL     1     -84.547 -16.622   8.425  1.00  0.00    -0.308 N 
ATOM      8  H2  UNL     1     -85.015 -17.528   8.437  1.00  0.00     0.170 HD
ENDROOT
BRANCH   1   9
HETATM    9  C5  UNL     1     -87.158 -17.568  12.031  1.00  0.00     0.090 A 
HETATM   10  C4  UNL     1     -88.372 -17.181  12.447  1.00  0.00     0.069 A 
HETATM   11  C17 UNL     1     -88.844 -17.700  13.622  1.00  0.00    -0.023 A 
HETATM   12  C16 UNL     1     -88.045 -18.575  14.282  1.00  0.00    -0.005 A 
HETATM   13  C18 UNL     1     -90.159 -17.473  14.365  1.00  0.00     0.021 C 
HETATM   14  S1  UNL     1     -86.676 -18.676  13.304  1.00  0.00    -0.087 SA
HETATM   15  C21 UNL     1     -88.587 -19.132  15.571  1.00  0.00     0.026 C 
HETATM   16  C20 UNL     1     -89.890 -19.806  15.193  1.00  0.00     0.010 C 
HETATM   17  C22 UNL     1     -88.964 -17.975  16.502  1.00  0.00     0.010 C 
HETATM   18  C19 UNL     1     -90.800 -18.833  14.502  1.00  0.00     0.010 C 
HETATM   19  C23 UNL     1     -89.756 -16.966  15.734  1.00  0.00     0.010 C 
BRANCH  10  20
HETATM   20  C3  UNL     1     -89.241 -16.214  11.692  1.00  0.00     0.295 C 
HETATM   21  O2  UNL     1     -90.297 -16.620  11.144  1.00  0.00    -0.259 OA
BRANCH  20  22
HETATM   22  O1  UNL     1     -88.911 -14.879  11.584  1.00  0.00    -0.318 OA
BRANCH  22  23
HETATM   23  C2  UNL     1     -88.330 -14.210  12.699  1.00  0.00     0.174 C 
HETATM   24  C1  UNL     1     -87.979 -12.792  12.303  1.00  0.00     0.034 C 
ENDBRANCH  22  23
ENDBRANCH  20  22
ENDBRANCH  10  20
ENDBRANCH   1   9
BRANCH   7  25
HETATM   25  C8  UNL     1     -83.726 -16.363   7.278  1.00  0.00     0.051 A 
HETATM   26  C9  UNL     1     -82.357 -16.489   7.298  1.00  0.00     0.037 A 
HETATM   27  C10 UNL     1     -81.548 -16.264   6.173  1.00  0.00    -0.060 A 
HETATM   28  C11 UNL     1     -80.063 -16.413   6.240  1.00  0.00     0.048 C 
HETATM   29  C12 UNL     1     -82.169 -15.901   5.008  1.00  0.00     0.007 A 
HETATM   30  C13 UNL     1     -83.531 -15.768   4.956  1.00  0.00     0.019 A 
HETATM   31  C14 UNL     1     -84.329 -15.997   6.095  1.00  0.00     0.074 A 
BRANCH  31  32
HETATM   32  C15 UNL     1     -85.788 -15.825   5.996  1.00  0.00     0.419 C 
HETATM   33  F1  UNL     1     -86.258 -14.723   6.682  1.00  0.00    -0.166 F 
HETATM   34  F2  UNL     1     -86.506 -16.983   6.266  1.00  0.00    -0.166 F 
HETATM   35  F3  UNL     1     -86.076 -15.520   4.641  1.00  0.00    -0.166 F 
ENDBRANCH  31  32
ENDBRANCH   7  25
TORSDOF 6
ENDMDL
MODEL 3
REMARK VINA RESULT: -7.935601206      3.227      4.945
REMARK  6 active torsions:
REMARK  status: ('A' for Active; 'I' for Inactive)
REMARK    1  A    between atoms: C2_2  and  O1_3 
REMARK    2  A    between atoms: O1_3  and  C3_4 
REMARK    3  A    between atoms: C3_4  and  C4_6 
REMARK    4  A    between atoms: C5_7  and  C6_8 
REMARK       I    between atoms: C6_8  and  N1_10 
REMARK       I    between atoms: N1_10  and  C7_12 
REMARK       I    between atoms: C7_12  and  N2_14 
REMARK    5  A    between atoms: N2_14  and  C8_16 
REMARK    6  A    between atoms: C14_22  and  C15_23 
ROOT
HETATM    1  C6  UNL     1     -86.963 -16.498  14.121  1.00  0.00     0.267 C 
HETATM    2  O3  UNL     1     -86.466 -17.530  13.559  1.00  0.00    -0.267 OA
HETATM    3  N1  UNL     1     -87.409 -15.466  13.336  1.00  0.00    -0.274 N 
ATOM      4  H1  UNL     1     -87.797 -14.660  13.824  1.00  0.00     0.173 HD
HETATM    5  C7  UNL     1     -87.391 -15.396  11.930  1.00  0.00     0.327 C 
HETATM    6  O4  UNL     1     -87.877 -14.303  11.453  1.00  0.00    -0.247 OA
HETATM    7  N2  UNL     1     -86.920 -16.357  11.058  1.00  0.00    -0.308 N 
ATOM      8  H2  UNL     1     -86.555 -17.205  11.491  1.00  0.00     0.170 HD
ENDROOT
BRANCH   1   9
HETATM    9  C5  UNL     1     -86.985 -16.570  15.604  1.00  0.00     0.090 A 
HETATM   10  C4  UNL     1     -87.683 -17.273  16.507  1.00  0.00     0.069 A 
HETATM   11  C17 UNL     1     -87.414 -17.062  17.833  1.00  0.00    -0.023 A 
HETATM   12  C16 UNL     1     -86.456 -16.151  18.136  1.00  0.00    -0.005 A 
HETATM   13  C18 UNL     1     -88.016 -17.683  19.091  1.00  0.00     0.021 C 
HETATM   14  S1  UNL     1     -85.939 -15.602  16.629  1.00  0.00    -0.087 SA
HETATM   15  C21 UNL     1     -86.179 -15.937  19.601  1.00  0.00     0.026 C 
HETATM   16  C20 UNL     1     -85.786 -17.300  20.132  1.00  0.00     0.010 C 
HETATM   17  C22 UNL     1     -87.485 -15.567  20.312  1.00  0.00     0.010 C 
HETATM   18  C19 UNL     1     -86.862 -18.304  19.840  1.00  0.00     0.010 C 
HETATM   19  C23 UNL     1     -88.560 -16.515  19.887  1.00  0.00     0.010 C 
BRANCH  10  20
HETATM   20  C3  UNL     1     -88.737 -18.281  16.143  1.00  0.00     0.295 C 
HETATM   21  O2  UNL     1     -89.950 -18.017  16.345  1.00  0.00    -0.259 OA
BRANCH  20  22
HETATM   22  O1  UNL     1     -88.409 -19.500  15.586  1.00  0.00    -0.318 OA
BRANCH  22  23
HETATM   23  C2  UNL     1     -89.128 -19.965  14.448  1.00  0.00     0.174 C 
HETATM   24  C1  UNL     1     -89.869 -21.234  14.811  1.00  0.00     0.034 C 
ENDBRANCH  22  23
ENDBRANCH  20  22
ENDBRANCH  10  20
ENDBRANCH   1   9
BRANCH   7  25
HETATM   25  C8  UNL     1     -86.875 -16.322   9.625  1.00  0.00     0.051 A 
HETATM   26  C9  UNL     1     -85.833 -15.761   8.926  1.00  0.00     0.037 A 
HETATM   27  C10 UNL     1     -85.767 -15.746   7.524  1.00  0.00    -0.060 A 
HETATM   28  C11 UNL     1     -84.614 -15.126   6.805  1.00  0.00     0.048 C 
HETATM   29  C12 UNL     1     -86.801 -16.323   6.835  1.00  0.00     0.007 A 
HETATM   30  C13 UNL     1     -87.853 -16.891   7.502  1.00  0.00     0.019 A 
HETATM   31  C14 UNL     1     -87.904 -16.897   8.911  1.00  0.00     0.074 A 
BRANCH  31  32
HETATM   32  C15 UNL     1     -89.064 -17.503   9.586  1.00  0.00     0.419 C 
HETATM   33  F1  UNL     1     -89.910 -16.577  10.160  1.00  0.00    -0.166 F 
HETATM   34  F2  UNL     1     -88.728 -18.543  10.444  1.00  0.00    -0.166 F 
HETATM   35  F3  UNL     1     -89.860 -18.101   8.576  1.00  0.00    -0.166 F 
ENDBRANCH  31  32
ENDBRANCH   7  25
TORSDOF 6
ENDMDL
MODEL 4
REMARK VINA RESULT: -7.834030764      3.081      4.811
REMARK  6 active torsions:
REMARK  status: ('A' for Active; 'I' for Inactive)
REMARK    1  A    between atoms: C2_2  and  O1_3 
REMARK    2  A    between atoms: O1_3  and  C3_4 
REMARK    3  A    between atoms: C3_4  and  C4_6 
REMARK    4  A    between atoms: C5_7  and  C6_8 
REMARK       I    between atoms: C6_8  and  N1_10 
REMARK       I    between atoms: N1_10  and  C7_12 
REMARK       I    between atoms: C7_12  and  N2_14 
REMARK    5  A    between atoms: N2_14  and  C8_16 
REMARK    6  A    between atoms: C14_22  and  C15_23 
ROOT
HETATM    1  C6  UNL     1     -86.859 -16.539  13.950  1.00  0.00     0.267 C 
HETATM    2  O3  UNL     1     -87.356 -15.462  13.477  1.00  0.00    -0.267 OA
HETATM    3  N1  UNL     1     -86.359 -17.474  13.082  1.00  0.00    -0.274 N 
ATOM      4  H1  UNL     1     -85.974 -18.321  13.500  1.00  0.00     0.173 HD
HETATM    5  C7  UNL     1     -86.318 -17.397  11.677  1.00  0.00     0.327 C 
HETATM    6  O4  UNL     1     -85.789 -18.426  11.111  1.00  0.00    -0.247 OA
HETATM    7  N2  UNL     1     -86.774 -16.359  10.890  1.00  0.00    -0.308 N 
ATOM      8  H2  UNL     1     -87.175 -15.567  11.393  1.00  0.00     0.170 HD
ENDROOT
BRANCH   1   9
HETATM    9  C5  UNL     1     -86.900 -16.622  15.432  1.00  0.00     0.090 A 
HETATM   10  C4  UNL     1     -87.631 -17.307  16.322  1.00  0.00     0.069 A 
HETATM   11  C17 UNL     1     -87.370 -17.116  17.652  1.00  0.00    -0.023 A 
HETATM   12  C16 UNL     1     -86.384 -16.242  17.974  1.00  0.00    -0.005 A 
HETATM   13  C18 UNL     1     -88.006 -17.726  18.899  1.00  0.00     0.021 C 
HETATM   14  S1  UNL     1     -85.831 -15.699  16.476  1.00  0.00    -0.087 SA
HETATM   15  C21 UNL     1     -86.116 -16.049  19.442  1.00  0.00     0.026 C 
HETATM   16  C20 UNL     1     -85.775 -17.430  19.966  1.00  0.00     0.010 C 
HETATM   17  C22 UNL     1     -87.416 -15.640  20.143  1.00  0.00     0.010 C 
HETATM   18  C19 UNL     1     -86.882 -18.394  19.655  1.00  0.00     0.010 C 
HETATM   19  C23 UNL     1     -88.518 -16.547  19.699  1.00  0.00     0.010 C 
BRANCH  10  20
HETATM   20  C3  UNL     1     -88.716 -18.276  15.938  1.00  0.00     0.295 C 
HETATM   21  O2  UNL     1     -89.917 -17.907  15.960  1.00  0.00    -0.259 OA
BRANCH  20  22
HETATM   22  O1  UNL     1     -88.426 -19.569  15.557  1.00  0.00    -0.318 OA
BRANCH  22  23
HETATM   23  C2  UNL     1     -89.055 -20.115  14.401  1.00  0.00     0.174 C 
HETATM   24  C1  UNL     1     -89.899 -21.304  14.807  1.00  0.00     0.034 C 
ENDBRANCH  22  23
ENDBRANCH  20  22
ENDBRANCH  10  20
ENDBRANCH   1   9
BRANCH   7  25
HETATM   25  C8  UNL     1     -86.758 -16.244   9.461  1.00  0.00     0.051 A 
HETATM   26  C9  UNL     1     -85.643 -15.856   8.756  1.00  0.00     0.037 A 
HETATM   27  C10 UNL     1     -85.611 -15.767   7.356  1.00  0.00    -0.060 A 
HETATM   28  C11 UNL     1     -84.376 -15.340   6.631  1.00  0.00     0.048 C 
HETATM   29  C12 UNL     1     -86.754 -16.088   6.674  1.00  0.00     0.007 A 
HETATM   30  C13 UNL     1     -87.881 -16.479   7.346  1.00  0.00     0.019 A 
HETATM   31  C14 UNL     1     -87.897 -16.562   8.753  1.00  0.00     0.074 A 
BRANCH  31  32
HETATM   32  C15 UNL     1     -89.137 -16.971   9.435  1.00  0.00     0.419 C 
HETATM   33  F1  UNL     1     -89.625 -16.018  10.305  1.00  0.00    -0.166 F 
HETATM   34  F2  UNL     1     -89.072 -18.241   9.996  1.00  0.00    -0.166 F 
HETATM   35  F3  UNL     1     -90.143 -17.059   8.440  1.00  0.00    -0.166 F 
ENDBRANCH  31  32
ENDBRANCH   7  25
TORSDOF 6
ENDMDL
MODEL 5
REMARK VINA RESULT: -7.772974570      3.203      4.819
REMARK  6 active torsions:
REMARK  status: ('A' for Active; 'I' for Inactive)
REMARK    1  A    between atoms: C2_2  and  O1_3 
REMARK    2  A    between atoms: O1_3  and  C3_4 
REMARK    3  A    between atoms: C3_4  and  C4_6 
REMARK    4  A    between atoms: C5_7  and  C6_8 
REMARK       I    between atoms: C6_8  and  N1_10 
REMARK       I    between atoms: N1_10  and  C7_12 
REMARK       I    between atoms: C7_12  and  N2_14 
REMARK    5  A    between atoms: N2_14  and  C8_16 
REMARK    6  A    between atoms: C14_22  and  C15_23 
ROOT
HETATM    1  C6  UNL     1     -86.881 -16.539  14.101  1.00  0.00     0.267 C 
HETATM    2  O3  UNL     1     -86.467 -17.596  13.517  1.00  0.00    -0.267 OA
HETATM    3  N1  UNL     1     -87.259 -15.466  13.336  1.00  0.00    -0.274 N 
ATOM      4  H1  UNL     1     -87.582 -14.641  13.842  1.00  0.00     0.173 HD
HETATM    5  C7  UNL     1     -87.253 -15.376  11.932  1.00  0.00     0.327 C 
HETATM    6  O4  UNL     1     -87.663 -14.243  11.477  1.00  0.00    -0.247 OA
HETATM    7  N2  UNL     1     -86.864 -16.355  11.040  1.00  0.00    -0.308 N 
ATOM      8  H2  UNL     1     -86.556 -17.234  11.456  1.00  0.00     0.170 HD
ENDROOT
BRANCH   1   9
HETATM    9  C5  UNL     1     -86.891 -16.632  15.583  1.00  0.00     0.090 A 
HETATM   10  C4  UNL     1     -87.650 -17.267  16.486  1.00  0.00     0.069 A 
HETATM   11  C17 UNL     1     -87.341 -17.108  17.811  1.00  0.00    -0.023 A 
HETATM   12  C16 UNL     1     -86.283 -16.316  18.113  1.00  0.00    -0.005 A 
HETATM   13  C18 UNL     1     -87.991 -17.678  19.069  1.00  0.00     0.021 C 
HETATM   14  S1  UNL     1     -85.728 -15.804  16.605  1.00  0.00    -0.087 SA
HETATM   15  C21 UNL     1     -85.964 -16.157  19.575  1.00  0.00     0.026 C 
HETATM   16  C20 UNL     1     -85.718 -17.565  20.081  1.00  0.00     0.010 C 
HETATM   17  C22 UNL     1     -87.210 -15.655  20.312  1.00  0.00     0.010 C 
HETATM   18  C19 UNL     1     -86.904 -18.437  19.791  1.00  0.00     0.010 C 
HETATM   19  C23 UNL     1     -88.390 -16.470  19.890  1.00  0.00     0.010 C 
BRANCH  10  20
HETATM   20  C3  UNL     1     -88.816 -18.145  16.124  1.00  0.00     0.295 C 
HETATM   21  O2  UNL     1     -88.613 -19.327  15.746  1.00  0.00    -0.259 OA
BRANCH  20  22
HETATM   22  O1  UNL     1     -90.115 -17.687  16.197  1.00  0.00    -0.318 OA
BRANCH  22  23
HETATM   23  C2  UNL     1     -90.979 -17.853  15.077  1.00  0.00     0.174 C 
HETATM   24  C1  UNL     1     -90.542 -16.920  13.968  1.00  0.00     0.034 C 
ENDBRANCH  22  23
ENDBRANCH  20  22
ENDBRANCH  10  20
ENDBRANCH   1   9
BRANCH   7  25
HETATM   25  C8  UNL     1     -86.834 -16.301   9.608  1.00  0.00     0.051 A 
HETATM   26  C9  UNL     1     -85.798 -15.732   8.905  1.00  0.00     0.037 A 
HETATM   27  C10 UNL     1     -85.747 -15.699   7.503  1.00  0.00    -0.060 A 
HETATM   28  C11 UNL     1     -84.601 -15.070   6.780  1.00  0.00     0.048 C 
HETATM   29  C12 UNL     1     -86.788 -16.267   6.817  1.00  0.00     0.007 A 
HETATM   30  C13 UNL     1     -87.833 -16.842   7.487  1.00  0.00     0.019 A 
HETATM   31  C14 UNL     1     -87.870 -16.866   8.896  1.00  0.00     0.074 A 
BRANCH  31  32
HETATM   32  C15 UNL     1     -89.023 -17.481   9.575  1.00  0.00     0.419 C 
HETATM   33  F1  UNL     1     -89.824 -16.568  10.231  1.00  0.00    -0.166 F 
HETATM   34  F2  UNL     1     -88.689 -18.578  10.360  1.00  0.00    -0.166 F 
HETATM   35  F3  UNL     1     -89.869 -17.998   8.561  1.00  0.00    -0.166 F 
ENDBRANCH  31  32
ENDBRANCH   7  25
TORSDOF 6
ENDMDL
