MODEL 1
REMARK VINA RESULT: -8.725148101      0.000      0.000
REMARK  5 active torsions:
REMARK  status: ('A' for Active; 'I' for Inactive)
REMARK    1  A    between atoms: C3_7  and  C4_8 
REMARK    2  A    between atoms: C6_10  and  N3_11 
REMARK    3  A    between atoms: C9_14  and  N4_15 
REMARK    4  A    between atoms: N4_15  and  C10_17 
REMARK    5  A    between atoms: C23_34  and  C24_35 
ROOT
HETATM    1  C4  UNL     1     -89.111 -16.558  10.919  1.00  0.00     0.065 A 
HETATM    2  C5  UNL     1     -87.913 -16.489  10.179  1.00  0.00     0.080 A 
HETATM    3  C6  UNL     1     -87.970 -16.479   8.798  1.00  0.00     0.106 A 
HETATM    4  N5  UNL     1     -89.134 -16.533   8.113  1.00  0.00    -0.339 N 
ATOM      5  H5  UNL     1     -89.154 -16.525   7.093  1.00  0.00     0.168 HD
HETATM    6  C22 UNL     1     -90.275 -16.599   8.844  1.00  0.00     0.182 A 
HETATM    7  N6  UNL     1     -90.196 -16.607  10.163  1.00  0.00    -0.350 N 
ATOM      8  H6  UNL     1     -91.084 -16.658  10.662  1.00  0.00     0.166 HD
ENDROOT
BRANCH   3   9
HETATM    9  N3  UNL     1     -86.782 -16.412   8.036  1.00  0.00    -0.367 N 
HETATM   10  C7  UNL     1     -86.743 -16.612   6.605  1.00  0.00     0.126 C 
HETATM   11  C8  UNL     1     -85.992 -15.436   6.012  1.00  0.00     0.044 C 
HETATM   12  C9  UNL     1     -84.562 -15.383   6.520  1.00  0.00     0.080 C 
HETATM   13  C20 UNL     1     -84.357 -16.210   7.747  1.00  0.00     0.044 C 
HETATM   14  C21 UNL     1     -85.528 -16.129   8.703  1.00  0.00     0.126 C 
BRANCH  12  15
HETATM   15  N4  UNL     1     -83.703 -15.757   5.451  1.00  0.00    -0.413 N 
ATOM     16  H4  UNL     1     -84.001 -15.723   4.476  1.00  0.00     0.154 HD
BRANCH  15  17
HETATM   17  C10 UNL     1     -82.384 -16.186   5.835  1.00  0.00     0.077 C 
HETATM   18  C11 UNL     1     -81.467 -15.102   6.282  1.00  0.00     0.025 C 
HETATM   19  C12 UNL     1     -80.632 -14.477   5.219  1.00  0.00     0.011 C 
HETATM   20  C13 UNL     1     -79.947 -15.440   4.313  1.00  0.00    -0.041 C 
HETATM   21  C14 UNL     1     -78.425 -15.352   4.450  1.00  0.00     0.015 C 
HETATM   22  C15 UNL     1     -80.253 -14.990   2.878  1.00  0.00     0.015 C 
HETATM   23  C16 UNL     1     -80.361 -16.863   4.485  1.00  0.00    -0.039 C 
HETATM   24  C17 UNL     1     -79.597 -17.597   5.562  1.00  0.00     0.015 C 
HETATM   25  C18 UNL     1     -80.042 -17.592   3.173  1.00  0.00     0.015 C 
HETATM   26  C19 UNL     1     -81.840 -16.997   4.684  1.00  0.00     0.034 C 
ENDBRANCH  15  17
ENDBRANCH  12  15
ENDBRANCH   3   9
BRANCH   1  27
HETATM   27  C3  UNL     1     -89.029 -16.569  12.369  1.00  0.00     0.089 A 
HETATM   28  N2  UNL     1     -89.467 -15.523  13.163  1.00  0.00    -0.298 N 
HETATM   29  N1  UNL     1     -89.269 -15.816  14.425  1.00  0.00    -0.304 N 
ATOM     30  H2  UNL     1     -89.881 -14.656  12.819  1.00  0.00     0.187 HD
HETATM   31  C2  UNL     1     -88.715 -17.010  14.567  1.00  0.00     0.036 A 
ATOM     32  H1  UNL     1     -89.511 -15.200  15.201  1.00  0.00     0.186 HD
HETATM   33  C1  UNL     1     -88.347 -17.665  15.834  1.00  0.00     0.070 C 
HETATM   34  C23 UNL     1     -88.556 -17.503  13.248  1.00  0.00     0.066 A 
BRANCH  34  35
HETATM   35  C24 UNL     1     -87.970 -18.819  13.015  1.00  0.00     0.271 C 
HETATM   36  C25 UNL     1     -86.428 -18.743  13.040  1.00  0.00     0.096 C 
HETATM   37  F1  UNL     1     -88.252 -19.234  11.672  1.00  0.00    -0.201 F 
HETATM   38  F2  UNL     1     -88.296 -19.856  13.794  1.00  0.00    -0.201 F 
ENDBRANCH  34  35
ENDBRANCH   1  27
TORSDOF 5
ENDMDL
MODEL 2
REMARK VINA RESULT: -8.614711530      1.202      2.108
REMARK  5 active torsions:
REMARK  status: ('A' for Active; 'I' for Inactive)
REMARK    1  A    between atoms: C3_7  and  C4_8 
REMARK    2  A    between atoms: C6_10  and  N3_11 
REMARK    3  A    between atoms: C9_14  and  N4_15 
REMARK    4  A    between atoms: N4_15  and  C10_17 
REMARK    5  A    between atoms: C23_34  and  C24_35 
ROOT
HETATM    1  C4  UNL     1     -89.325 -16.461  10.788  1.00  0.00     0.065 A 
HETATM    2  C5  UNL     1     -88.226 -16.402   9.907  1.00  0.00     0.080 A 
HETATM    3  C6  UNL     1     -88.451 -16.413   8.543  1.00  0.00     0.106 A 
HETATM    4  N5  UNL     1     -89.690 -16.479   8.006  1.00  0.00    -0.339 N 
ATOM      5  H5  UNL     1     -89.833 -16.487   6.996  1.00  0.00     0.168 HD
HETATM    6  C22 UNL     1     -90.733 -16.536   8.871  1.00  0.00     0.182 A 
HETATM    7  N6  UNL     1     -90.494 -16.524  10.171  1.00  0.00    -0.350 N 
ATOM      8  H6  UNL     1     -91.315 -16.569  10.774  1.00  0.00     0.166 HD
ENDROOT
BRANCH   3   9
HETATM    9  N3  UNL     1     -87.364 -16.355   7.641  1.00  0.00    -0.367 N 
HETATM   10  C7  UNL     1     -87.502 -15.967   6.255  1.00  0.00     0.126 C 
HETATM   11  C8  UNL     1     -86.468 -14.889   5.991  1.00  0.00     0.044 C 
HETATM   12  C9  UNL     1     -85.059 -15.416   6.196  1.00  0.00     0.080 C 
HETATM   13  C20 UNL     1     -85.029 -16.688   6.980  1.00  0.00     0.044 C 
HETATM   14  C21 UNL     1     -86.038 -16.698   8.109  1.00  0.00     0.126 C 
BRANCH  12  15
HETATM   15  N4  UNL     1     -84.446 -15.538   4.920  1.00  0.00    -0.413 N 
ATOM     16  H4  UNL     1     -84.955 -15.873   4.102  1.00  0.00     0.154 HD
BRANCH  15  17
HETATM   17  C10 UNL     1     -83.060 -15.157   4.857  1.00  0.00     0.077 C 
HETATM   18  C11 UNL     1     -82.104 -16.273   4.614  1.00  0.00     0.025 C 
HETATM   19  C12 UNL     1     -81.560 -16.941   5.828  1.00  0.00     0.011 C 
HETATM   20  C13 UNL     1     -81.068 -16.014   6.886  1.00  0.00    -0.041 C 
HETATM   21  C14 UNL     1     -79.560 -16.161   7.101  1.00  0.00     0.015 C 
HETATM   22  C15 UNL     1     -81.713 -16.466   8.203  1.00  0.00     0.015 C 
HETATM   23  C16 UNL     1     -81.380 -14.574   6.649  1.00  0.00    -0.039 C 
HETATM   24  C17 UNL     1     -80.362 -13.861   5.791  1.00  0.00     0.015 C 
HETATM   25  C18 UNL     1     -81.346 -13.872   8.013  1.00  0.00     0.015 C 
HETATM   26  C19 UNL     1     -82.767 -14.380   6.117  1.00  0.00     0.034 C 
ENDBRANCH  15  17
ENDBRANCH  12  15
ENDBRANCH   3   9
BRANCH   1  27
HETATM   27  C3  UNL     1     -89.068 -16.451  12.217  1.00  0.00     0.089 A 
HETATM   28  N2  UNL     1     -89.457 -15.417  13.052  1.00  0.00    -0.298 N 
HETATM   29  N1  UNL     1     -89.093 -15.684  14.282  1.00  0.00    -0.304 N 
ATOM     30  H2  UNL     1     -89.951 -14.575  12.755  1.00  0.00     0.187 HD
HETATM   31  C2  UNL     1     -88.468 -16.848  14.363  1.00  0.00     0.036 A 
ATOM     32  H1  UNL     1     -89.269 -15.071  15.078  1.00  0.00     0.186 HD
HETATM   33  C1  UNL     1     -87.917 -17.469  15.581  1.00  0.00     0.070 C 
HETATM   34  C23 UNL     1     -88.446 -17.350  13.038  1.00  0.00     0.066 A 
BRANCH  34  35
HETATM   35  C24 UNL     1     -87.830 -18.639  12.744  1.00  0.00     0.271 C 
HETATM   36  C25 UNL     1     -86.327 -18.468  12.432  1.00  0.00     0.096 C 
HETATM   37  F1  UNL     1     -88.359 -19.151  11.515  1.00  0.00    -0.201 F 
HETATM   38  F2  UNL     1     -87.907 -19.645  13.622  1.00  0.00    -0.201 F 
ENDBRANCH  34  35
ENDBRANCH   1  27
TORSDOF 5
ENDMDL
MODEL 3
REMARK VINA RESULT: -8.571476691      2.778      9.795
REMARK  5 active torsions:
REMARK  status: ('A' for Active; 'I' for Inactive)
REMARK    1  A    between atoms: C3_7  and  C4_8 
REMARK    2  A    between atoms: C6_10  and  N3_11 
REMARK    3  A    between atoms: C9_14  and  N4_15 
REMARK    4  A    between atoms: N4_15  and  C10_17 
REMARK    5  A    between atoms: C23_34  and  C24_35 
ROOT
HETATM    1  C4  UNL     1     -84.963 -15.570   5.799  1.00  0.00     0.065 A 
HETATM    2  C5  UNL     1     -85.045 -16.254   7.029  1.00  0.00     0.080 A 
HETATM    3  C6  UNL     1     -86.286 -16.493   7.588  1.00  0.00     0.106 A 
HETATM    4  N5  UNL     1     -87.440 -16.098   7.006  1.00  0.00    -0.339 N 
ATOM      5  H5  UNL     1     -88.346 -16.285   7.436  1.00  0.00     0.168 HD
HETATM    6  C22 UNL     1     -87.339 -15.442   5.823  1.00  0.00     0.182 A 
HETATM    7  N6  UNL     1     -86.142 -15.225   5.307  1.00  0.00    -0.350 N 
ATOM      8  H6  UNL     1     -86.124 -14.727   4.417  1.00  0.00     0.166 HD
ENDROOT
BRANCH   3   9
HETATM    9  N3  UNL     1     -86.392 -17.176   8.821  1.00  0.00    -0.367 N 
HETATM   10  C7  UNL     1     -85.263 -17.773   9.499  1.00  0.00     0.126 C 
HETATM   11  C8  UNL     1     -85.287 -17.271  10.930  1.00  0.00     0.044 C 
HETATM   12  C9  UNL     1     -86.553 -17.708  11.645  1.00  0.00     0.080 C 
HETATM   13  C20 UNL     1     -87.624 -18.151  10.701  1.00  0.00     0.044 C 
HETATM   14  C21 UNL     1     -87.689 -17.295   9.455  1.00  0.00     0.126 C 
BRANCH  12  15
HETATM   15  N4  UNL     1     -86.199 -18.710  12.590  1.00  0.00    -0.413 N 
ATOM     16  H4  UNL     1     -85.599 -19.498  12.348  1.00  0.00     0.154 HD
BRANCH  15  17
HETATM   17  C10 UNL     1     -86.745 -18.539  13.910  1.00  0.00     0.077 C 
HETATM   18  C11 UNL     1     -87.918 -19.397  14.230  1.00  0.00     0.025 C 
HETATM   19  C12 UNL     1     -89.254 -18.814  13.925  1.00  0.00     0.011 C 
HETATM   20  C13 UNL     1     -89.449 -17.414  14.396  1.00  0.00    -0.041 C 
HETATM   21  C14 UNL     1     -90.542 -17.331  15.465  1.00  0.00     0.015 C 
HETATM   22  C15 UNL     1     -89.989 -16.618  13.201  1.00  0.00     0.015 C 
HETATM   23  C16 UNL     1     -88.218 -16.753  14.918  1.00  0.00    -0.039 C 
HETATM   24  C17 UNL     1     -87.949 -17.026  16.378  1.00  0.00     0.015 C 
HETATM   25  C18 UNL     1     -88.434 -15.238  14.806  1.00  0.00     0.015 C 
HETATM   26  C19 UNL     1     -87.016 -17.064  14.080  1.00  0.00     0.034 C 
ENDBRANCH  15  17
ENDBRANCH  12  15
ENDBRANCH   3   9
BRANCH   1  27
HETATM   27  C3  UNL     1     -83.649 -15.326   5.229  1.00  0.00     0.089 A 
HETATM   28  N2  UNL     1     -83.451 -14.649   4.037  1.00  0.00    -0.298 N 
HETATM   29  N1  UNL     1     -82.169 -14.580   3.778  1.00  0.00    -0.304 N 
ATOM     30  H2  UNL     1     -84.191 -14.264   3.450  1.00  0.00     0.187 HD
HETATM   31  C2  UNL     1     -81.449 -15.171   4.720  1.00  0.00     0.036 A 
ATOM     32  H1  UNL     1     -81.774 -14.128   2.953  1.00  0.00     0.186 HD
HETATM   33  C1  UNL     1     -79.981 -15.290   4.761  1.00  0.00     0.070 C 
HETATM   34  C23 UNL     1     -82.394 -15.655   5.659  1.00  0.00     0.066 A 
BRANCH  34  35
HETATM   35  C24 UNL     1     -81.953 -16.367   6.853  1.00  0.00     0.271 C 
HETATM   36  C25 UNL     1     -81.477 -15.375   7.936  1.00  0.00     0.096 C 
HETATM   37  F1  UNL     1     -80.766 -17.112   6.552  1.00  0.00    -0.201 F 
HETATM   38  F2  UNL     1     -82.772 -17.221   7.476  1.00  0.00    -0.201 F 
ENDBRANCH  34  35
ENDBRANCH   1  27
TORSDOF 5
ENDMDL
MODEL 4
REMARK VINA RESULT: -8.490546830      1.768      3.055
REMARK  5 active torsions:
REMARK  status: ('A' for Active; 'I' for Inactive)
REMARK    1  A    between atoms: C3_7  and  C4_8 
REMARK    2  A    between atoms: C6_10  and  N3_11 
REMARK    3  A    between atoms: C9_14  and  N4_15 
REMARK    4  A    between atoms: N4_15  and  C10_17 
REMARK    5  A    between atoms: C23_34  and  C24_35 
ROOT
HETATM    1  C4  UNL     1     -89.422 -16.141  13.309  1.00  0.00     0.065 A 
HETATM    2  C5  UNL     1     -88.872 -16.455  12.049  1.00  0.00     0.080 A 
HETATM    3  C6  UNL     1     -88.128 -15.502  11.380  1.00  0.00     0.106 A 
HETATM    4  N5  UNL     1     -87.900 -14.267  11.880  1.00  0.00    -0.339 N 
ATOM      5  H5  UNL     1     -87.348 -13.578  11.369  1.00  0.00     0.168 HD
HETATM    6  C22 UNL     1     -88.438 -13.986  13.093  1.00  0.00     0.182 A 
HETATM    7  N6  UNL     1     -89.145 -14.913  13.715  1.00  0.00    -0.350 N 
ATOM      8  H6  UNL     1     -89.526 -14.647  14.623  1.00  0.00     0.166 HD
ENDROOT
BRANCH   3   9
HETATM    9  N3  UNL     1     -87.568 -15.794  10.115  1.00  0.00    -0.367 N 
HETATM   10  C7  UNL     1     -86.182 -15.547   9.784  1.00  0.00     0.126 C 
HETATM   11  C8  UNL     1     -85.629 -16.832   9.199  1.00  0.00     0.044 C 
HETATM   12  C9  UNL     1     -86.359 -17.216   7.924  1.00  0.00     0.080 C 
HETATM   13  C20 UNL     1     -87.665 -16.505   7.773  1.00  0.00     0.044 C 
HETATM   14  C21 UNL     1     -88.407 -16.370   9.085  1.00  0.00     0.126 C 
BRANCH  12  15
HETATM   15  N4  UNL     1     -85.478 -16.993   6.831  1.00  0.00    -0.413 N 
ATOM     16  H4  UNL     1     -85.515 -17.553   5.980  1.00  0.00     0.154 HD
BRANCH  15  17
HETATM   17  C10 UNL     1     -84.531 -15.924   7.005  1.00  0.00     0.077 C 
HETATM   18  C11 UNL     1     -84.453 -14.953   5.878  1.00  0.00     0.025 C 
HETATM   19  C12 UNL     1     -83.456 -15.267   4.816  1.00  0.00     0.011 C 
HETATM   20  C13 UNL     1     -82.104 -15.640   5.317  1.00  0.00    -0.041 C 
HETATM   21  C14 UNL     1     -81.048 -14.617   4.894  1.00  0.00     0.015 C 
HETATM   22  C15 UNL     1     -81.715 -16.944   4.607  1.00  0.00     0.015 C 
HETATM   23  C16 UNL     1     -82.017 -15.835   6.794  1.00  0.00    -0.039 C 
HETATM   24  C17 UNL     1     -81.763 -14.562   7.565  1.00  0.00     0.015 C 
HETATM   25  C18 UNL     1     -80.805 -16.738   7.062  1.00  0.00     0.015 C 
HETATM   26  C19 UNL     1     -83.206 -16.567   7.335  1.00  0.00     0.034 C 
ENDBRANCH  15  17
ENDBRANCH  12  15
ENDBRANCH   3   9
BRANCH   1  27
HETATM   27  C3  UNL     1     -90.203 -17.156  13.995  1.00  0.00     0.089 A 
HETATM   28  N2  UNL     1     -91.488 -16.939  14.462  1.00  0.00    -0.298 N 
HETATM   29  N1  UNL     1     -91.939 -18.029  15.032  1.00  0.00    -0.304 N 
ATOM     30  H2  UNL     1     -92.006 -16.063  14.376  1.00  0.00     0.187 HD
HETATM   31  C2  UNL     1     -91.045 -19.004  14.994  1.00  0.00     0.036 A 
ATOM     32  H1  UNL     1     -92.864 -18.115  15.453  1.00  0.00     0.186 HD
HETATM   33  C1  UNL     1     -91.202 -20.364  15.538  1.00  0.00     0.070 C 
HETATM   34  C23 UNL     1     -89.922 -18.452  14.329  1.00  0.00     0.066 A 
BRANCH  34  35
HETATM   35  C24 UNL     1     -88.727 -19.256  14.099  1.00  0.00     0.271 C 
HETATM   36  C25 UNL     1     -87.495 -18.607  14.767  1.00  0.00     0.096 C 
HETATM   37  F1  UNL     1     -88.394 -19.225  12.705  1.00  0.00    -0.201 F 
HETATM   38  F2  UNL     1     -88.697 -20.545  14.454  1.00  0.00    -0.201 F 
ENDBRANCH  34  35
ENDBRANCH   1  27
TORSDOF 5
ENDMDL
MODEL 5
REMARK VINA RESULT: -8.447825496      3.111      9.904
REMARK  5 active torsions:
REMARK  status: ('A' for Active; 'I' for Inactive)
REMARK    1  A    between atoms: C3_7  and  C4_8 
REMARK    2  A    between atoms: C6_10  and  N3_11 
REMARK    3  A    between atoms: C9_14  and  N4_15 
REMARK    4  A    between atoms: N4_15  and  C10_17 
REMARK    5  A    between atoms: C23_34  and  C24_35 
ROOT
HETATM    1  C4  UNL     1     -84.245 -15.296   5.395  1.00  0.00     0.065 A 
HETATM    2  C5  UNL     1     -84.148 -15.514   6.785  1.00  0.00     0.080 A 
HETATM    3  C6  UNL     1     -85.297 -15.757   7.513  1.00  0.00     0.106 A 
HETATM    4  N5  UNL     1     -86.526 -15.796   6.951  1.00  0.00    -0.339 N 
ATOM      5  H5  UNL     1     -87.362 -15.976   7.507  1.00  0.00     0.168 HD
HETATM    6  C22 UNL     1     -86.597 -15.584   5.613  1.00  0.00     0.182 A 
HETATM    7  N6  UNL     1     -85.485 -15.354   4.937  1.00  0.00    -0.350 N 
ATOM      8  H6  UNL     1     -85.596 -15.202   3.935  1.00  0.00     0.166 HD
ENDROOT
BRANCH   3   9
HETATM    9  N3  UNL     1     -85.225 -15.976   8.908  1.00  0.00    -0.367 N 
HETATM   10  C7  UNL     1     -84.618 -15.041   9.829  1.00  0.00     0.126 C 
HETATM   11  C8  UNL     1     -85.620 -14.799  10.940  1.00  0.00     0.044 C 
HETATM   12  C9  UNL     1     -85.922 -16.079  11.698  1.00  0.00     0.080 C 
HETATM   13  C20 UNL     1     -85.508 -17.303  10.947  1.00  0.00     0.044 C 
HETATM   14  C21 UNL     1     -85.780 -17.193   9.462  1.00  0.00     0.126 C 
BRANCH  12  15
HETATM   15  N4  UNL     1     -85.315 -15.984  12.980  1.00  0.00    -0.413 N 
ATOM     16  H4  UNL     1     -84.372 -15.620  13.109  1.00  0.00     0.154 HD
BRANCH  15  17
HETATM   17  C10 UNL     1     -86.121 -16.435  14.083  1.00  0.00     0.077 C 
HETATM   18  C11 UNL     1     -85.861 -17.831  14.533  1.00  0.00     0.025 C 
HETATM   19  C12 UNL     1     -86.685 -18.888  13.884  1.00  0.00     0.011 C 
HETATM   20  C13 UNL     1     -88.144 -18.592  13.818  1.00  0.00    -0.041 C 
HETATM   21  C14 UNL     1     -88.955 -19.588  14.650  1.00  0.00     0.015 C 
HETATM   22  C15 UNL     1     -88.576 -18.830  12.364  1.00  0.00     0.015 C 
HETATM   23  C16 UNL     1     -88.520 -17.208  14.227  1.00  0.00    -0.039 C 
HETATM   24  C17 UNL     1     -88.729 -17.045  15.713  1.00  0.00     0.015 C 
HETATM   25  C18 UNL     1     -89.874 -16.893  13.575  1.00  0.00     0.015 C 
HETATM   26  C19 UNL     1     -87.560 -16.186  13.701  1.00  0.00     0.034 C 
ENDBRANCH  15  17
ENDBRANCH  12  15
ENDBRANCH   3   9
BRANCH   1  27
HETATM   27  C3  UNL     1     -83.026 -15.040   4.649  1.00  0.00     0.089 A 
HETATM   28  N2  UNL     1     -82.966 -14.184   3.561  1.00  0.00    -0.298 N 
HETATM   29  N1  UNL     1     -81.742 -14.151   3.095  1.00  0.00    -0.304 N 
ATOM     30  H2  UNL     1     -83.754 -13.660   3.181  1.00  0.00     0.187 HD
HETATM   31  C2  UNL     1     -80.934 -14.935   3.791  1.00  0.00     0.036 A 
ATOM     32  H1  UNL     1     -81.449 -13.590   2.295  1.00  0.00     0.186 HD
HETATM   33  C1  UNL     1     -79.496 -15.150   3.553  1.00  0.00     0.070 C 
HETATM   34  C23 UNL     1     -81.751 -15.513   4.794  1.00  0.00     0.066 A 
BRANCH  34  35
HETATM   35  C24 UNL     1     -81.187 -16.444   5.764  1.00  0.00     0.271 C 
HETATM   36  C25 UNL     1     -80.362 -15.688   6.830  1.00  0.00     0.096 C 
HETATM   37  F1  UNL     1     -80.206 -17.267   5.121  1.00  0.00    -0.201 F 
HETATM   38  F2  UNL     1     -81.978 -17.282   6.443  1.00  0.00    -0.201 F 
ENDBRANCH  34  35
ENDBRANCH   1  27
TORSDOF 5
ENDMDL
