MODEL 1
REMARK VINA RESULT: -8.755594318      0.000      0.000
REMARK  6 active torsions:
REMARK  status: ('A' for Active; 'I' for Inactive)
REMARK    1  A    between atoms: O1_2  and  N1_3 
REMARK    2  A    between atoms: C3_6  and  O2_7 
REMARK    3  A    between atoms: C16_23  and  C17_24 
REMARK    4  A    between atoms: C16_23  and  C18_27 
REMARK    5  A    between atoms: C17_24  and  O5_25 
REMARK    6  A    between atoms: C18_27  and  O7_29 
ROOT
HETATM    1  N1  UNL     1     -89.507 -14.304  15.282  1.00  0.00    -0.272 N 
ATOM      2  H1  UNL     1     -88.517 -14.094  15.154  1.00  0.00     0.193 HD
HETATM    3  C2  UNL     1     -90.325 -13.986  14.318  1.00  0.00     0.045 C 
HETATM    4  C3  UNL     1     -91.747 -14.313  14.560  1.00  0.00     0.170 C 
HETATM    5  C4  UNL     1     -92.560 -14.336  13.316  1.00  0.00     0.072 C 
HETATM    6  C5  UNL     1     -91.979 -13.649  12.146  1.00  0.00    -0.071 C 
HETATM    7  C6  UNL     1     -92.983 -12.985  11.537  1.00  0.00    -0.021 C 
HETATM    8  C7  UNL     1     -92.924 -12.153  10.332  1.00  0.00     0.061 C 
HETATM    9  C8  UNL     1     -92.213 -12.913   9.277  1.00  0.00     0.154 C 
HETATM   10  O3  UNL     1     -92.568 -14.300   9.377  1.00  0.00    -0.314 OA
HETATM   11  C9  UNL     1     -91.282 -14.562   8.923  1.00  0.00     0.271 C 
HETATM   12  O4  UNL     1     -90.815 -15.586   8.352  1.00  0.00    -0.264 OA
HETATM   13  C10 UNL     1     -90.825 -13.224   9.388  1.00  0.00     0.079 C 
HETATM   14  C11 UNL     1     -90.011 -12.644   8.215  1.00  0.00     0.029 C 
HETATM   15  C12 UNL     1     -90.056 -13.110  10.631  1.00  0.00    -0.013 C 
HETATM   16  C13 UNL     1     -88.730 -13.822  10.255  1.00  0.00     0.018 C 
HETATM   17  C14 UNL     1     -89.679 -11.656  10.783  1.00  0.00     0.013 C 
HETATM   18  C15 UNL     1     -89.912 -11.046  12.106  1.00  0.00     0.024 C 
HETATM   19  C16 UNL     1     -89.586 -11.899  13.288  1.00  0.00     0.079 C 
HETATM   20  C20 UNL     1     -89.797 -13.350  13.094  1.00  0.00     0.069 C 
HETATM   21  C21 UNL     1     -90.538 -13.784  11.843  1.00  0.00    -0.002 C 
HETATM   22  C22 UNL     1     -90.225 -15.296  11.811  1.00  0.00     0.021 C 
ENDROOT
BRANCH  19  23
HETATM   23  C17 UNL     1     -90.403 -11.317  14.451  1.00  0.00     0.184 C 
BRANCH  23  24
HETATM   24  O5  UNL     1     -89.488 -11.062  15.504  1.00  0.00    -0.400 OA
ATOM     25  H5  UNL     1     -89.836 -10.328  15.996  1.00  0.00     0.209 HD
ENDBRANCH  23  24
ENDBRANCH  19  23
BRANCH  19  26
HETATM   26  C18 UNL     1     -88.174 -11.604  13.675  1.00  0.00     0.270 C 
HETATM   27  O6  UNL     1     -87.450 -12.508  14.165  1.00  0.00    -0.264 OA
BRANCH  26  28
HETATM   28  O7  UNL     1     -87.576 -10.363  13.530  1.00  0.00    -0.326 OA
HETATM   29  C19 UNL     1     -86.331 -10.179  12.877  1.00  0.00     0.213 C 
ENDBRANCH  26  28
ENDBRANCH  19  26
BRANCH   1  30
HETATM   30  O1  UNL     1     -89.880 -14.894  16.444  1.00  0.00    -0.285 OA
HETATM   31  C1  UNL     1     -89.023 -15.650  17.271  1.00  0.00     0.237 C 
ENDBRANCH   1  30
BRANCH   4  32
HETATM   32  O2  UNL     1     -92.329 -13.633  15.615  1.00  0.00    -0.389 OA
ATOM     33  H2  UNL     1     -91.902 -13.757  16.454  1.00  0.00     0.210 HD
ENDBRANCH   4  32
TORSDOF 6
ENDMDL
MODEL 2
REMARK VINA RESULT: -8.053361995      0.964      1.054
REMARK  6 active torsions:
REMARK  status: ('A' for Active; 'I' for Inactive)
REMARK    1  A    between atoms: O1_2  and  N1_3 
REMARK    2  A    between atoms: C3_6  and  O2_7 
REMARK    3  A    between atoms: C16_23  and  C17_24 
REMARK    4  A    between atoms: C16_23  and  C18_27 
REMARK    5  A    between atoms: C17_24  and  O5_25 
REMARK    6  A    between atoms: C18_27  and  O7_29 
ROOT
HETATM    1  N1  UNL     1     -88.678 -13.889  15.083  1.00  0.00    -0.272 N 
ATOM      2  H1  UNL     1     -87.762 -13.611  14.731  1.00  0.00     0.193 HD
HETATM    3  C2  UNL     1     -89.706 -13.715  14.301  1.00  0.00     0.045 C 
HETATM    4  C3  UNL     1     -91.009 -14.134  14.865  1.00  0.00     0.170 C 
HETATM    5  C4  UNL     1     -92.059 -14.321  13.829  1.00  0.00     0.072 C 
HETATM    6  C5  UNL     1     -91.805 -13.686  12.521  1.00  0.00    -0.071 C 
HETATM    7  C6  UNL     1     -92.972 -13.155  12.104  1.00  0.00    -0.021 C 
HETATM    8  C7  UNL     1     -93.247 -12.420  10.867  1.00  0.00     0.061 C 
HETATM    9  C8  UNL     1     -92.704 -13.202   9.731  1.00  0.00     0.154 C 
HETATM   10  O3  UNL     1     -92.897 -14.601   9.990  1.00  0.00    -0.314 OA
HETATM   11  C9  UNL     1     -91.716 -14.795   9.286  1.00  0.00     0.271 C 
HETATM   12  O4  UNL     1     -91.284 -15.821   8.691  1.00  0.00    -0.264 OA
HETATM   13  C10 UNL     1     -91.301 -13.392   9.558  1.00  0.00     0.079 C 
HETATM   14  C11 UNL     1     -90.810 -12.845   8.204  1.00  0.00     0.029 C 
HETATM   15  C12 UNL     1     -90.302 -13.118  10.597  1.00  0.00    -0.013 C 
HETATM   16  C13 UNL     1     -89.024 -13.750   9.987  1.00  0.00     0.018 C 
HETATM   17  C14 UNL     1     -90.042 -11.631  10.575  1.00  0.00     0.013 C 
HETATM   18  C15 UNL     1     -90.049 -10.938  11.877  1.00  0.00     0.024 C 
HETATM   19  C16 UNL     1     -89.402 -11.665  13.010  1.00  0.00     0.079 C 
HETATM   20  C20 UNL     1     -89.511 -13.139  12.955  1.00  0.00     0.069 C 
HETATM   21  C21 UNL     1     -90.453 -13.730  11.923  1.00  0.00    -0.002 C 
HETATM   22  C22 UNL     1     -90.011 -15.209  11.916  1.00  0.00     0.021 C 
ENDROOT
BRANCH  19  23
HETATM   23  C17 UNL     1     -90.008 -11.059  14.284  1.00  0.00     0.184 C 
BRANCH  23  24
HETATM   24  O5  UNL     1     -90.541  -9.795  13.920  1.00  0.00    -0.400 OA
ATOM     25  H5  UNL     1     -89.989  -9.456  13.226  1.00  0.00     0.209 HD
ENDBRANCH  23  24
ENDBRANCH  19  23
BRANCH  19  26
HETATM   26  C18 UNL     1     -87.976 -11.229  13.064  1.00  0.00     0.270 C 
HETATM   27  O6  UNL     1     -87.644 -10.229  13.752  1.00  0.00    -0.264 OA
BRANCH  26  28
HETATM   28  O7  UNL     1     -86.947 -11.864  12.388  1.00  0.00    -0.326 OA
HETATM   29  C19 UNL     1     -86.341 -11.325  11.225  1.00  0.00     0.213 C 
ENDBRANCH  26  28
ENDBRANCH  19  26
BRANCH   1  30
HETATM   30  O1  UNL     1     -88.741 -14.412  16.332  1.00  0.00    -0.285 OA
HETATM   31  C1  UNL     1     -88.209 -13.801  17.486  1.00  0.00     0.237 C 
ENDBRANCH   1  30
BRANCH   4  32
HETATM   32  O2  UNL     1     -91.419 -13.420  15.977  1.00  0.00    -0.389 OA
ATOM     33  H2  UNL     1     -92.218 -13.735  16.381  1.00  0.00     0.210 HD
ENDBRANCH   4  32
TORSDOF 6
ENDMDL
MODEL 3
REMARK VINA RESULT: -8.026517666      2.142      3.056
REMARK  6 active torsions:
REMARK  status: ('A' for Active; 'I' for Inactive)
REMARK    1  A    between atoms: O1_2  and  N1_3 
REMARK    2  A    between atoms: C3_6  and  O2_7 
REMARK    3  A    between atoms: C16_23  and  C17_24 
REMARK    4  A    between atoms: C16_23  and  C18_27 
REMARK    5  A    between atoms: C17_24  and  O5_25 
REMARK    6  A    between atoms: C18_27  and  O7_29 
ROOT
HETATM    1  N1  UNL     1     -88.313 -12.310  13.958  1.00  0.00    -0.272 N 
ATOM      2  H1  UNL     1     -87.549 -12.902  13.631  1.00  0.00     0.193 HD
HETATM    3  C2  UNL     1     -89.387 -12.244  13.222  1.00  0.00     0.045 C 
HETATM    4  C3  UNL     1     -90.460 -11.368  13.745  1.00  0.00     0.170 C 
HETATM    5  C4  UNL     1     -91.787 -11.643  13.132  1.00  0.00     0.072 C 
HETATM    6  C5  UNL     1     -91.774 -12.394  11.862  1.00  0.00    -0.071 C 
HETATM    7  C6  UNL     1     -92.694 -11.826  11.056  1.00  0.00    -0.021 C 
HETATM    8  C7  UNL     1     -93.064 -12.204   9.689  1.00  0.00     0.061 C 
HETATM    9  C8  UNL     1     -93.318 -13.664   9.664  1.00  0.00     0.154 C 
HETATM   10  O3  UNL     1     -93.953 -14.052  10.891  1.00  0.00    -0.314 OA
HETATM   11  C9  UNL     1     -93.279 -15.257  10.746  1.00  0.00     0.271 C 
HETATM   12  O4  UNL     1     -93.534 -16.395  11.231  1.00  0.00    -0.264 OA
HETATM   13  C10 UNL     1     -92.268 -14.607   9.868  1.00  0.00     0.079 C 
HETATM   14  C11 UNL     1     -92.108 -15.557   8.665  1.00  0.00     0.029 C 
HETATM   15  C12 UNL     1     -90.949 -14.263  10.409  1.00  0.00    -0.013 C 
HETATM   16  C13 UNL     1     -90.335 -15.662  10.674  1.00  0.00     0.018 C 
HETATM   17  C14 UNL     1     -90.139 -13.700   9.266  1.00  0.00     0.013 C 
HETATM   18  C15 UNL     1     -89.410 -12.445   9.525  1.00  0.00     0.024 C 
HETATM   19  C16 UNL     1     -88.757 -12.330  10.864  1.00  0.00     0.079 C 
HETATM   20  C20 UNL     1     -89.461 -13.019  11.968  1.00  0.00     0.069 C 
HETATM   21  C21 UNL     1     -90.858 -13.541  11.684  1.00  0.00    -0.002 C 
HETATM   22  C22 UNL     1     -91.081 -14.486  12.885  1.00  0.00     0.021 C 
ENDROOT
BRANCH  19  23
HETATM   23  C17 UNL     1     -88.581 -10.824  11.105  1.00  0.00     0.184 C 
BRANCH  23  24
HETATM   24  O5  UNL     1     -87.217 -10.623  11.442  1.00  0.00    -0.400 OA
ATOM     25  H5  UNL     1     -87.096  -9.685  11.540  1.00  0.00     0.209 HD
ENDBRANCH  23  24
ENDBRANCH  19  23
BRANCH  19  26
HETATM   26  C18 UNL     1     -87.357 -12.825  10.722  1.00  0.00     0.270 C 
HETATM   27  O6  UNL     1     -86.755 -12.718   9.623  1.00  0.00    -0.264 OA
BRANCH  26  28
HETATM   28  O7  UNL     1     -86.638 -13.418  11.748  1.00  0.00    -0.326 OA
HETATM   29  C19 UNL     1     -85.221 -13.447  11.780  1.00  0.00     0.213 C 
ENDBRANCH  26  28
ENDBRANCH  19  26
BRANCH   1  30
HETATM   30  O1  UNL     1     -88.139 -11.646  15.127  1.00  0.00    -0.285 OA
HETATM   31  C1  UNL     1     -87.076 -10.759  15.395  1.00  0.00     0.237 C 
ENDBRANCH   1  30
BRANCH   4  32
HETATM   32  O2  UNL     1     -90.129 -10.027  13.825  1.00  0.00    -0.389 OA
ATOM     33  H2  UNL     1     -90.828  -9.429  13.588  1.00  0.00     0.210 HD
ENDBRANCH   4  32
TORSDOF 6
ENDMDL
MODEL 4
REMARK VINA RESULT: -7.675321381      1.680      3.902
REMARK  6 active torsions:
REMARK  status: ('A' for Active; 'I' for Inactive)
REMARK    1  A    between atoms: O1_2  and  N1_3 
REMARK    2  A    between atoms: C3_6  and  O2_7 
REMARK    3  A    between atoms: C16_23  and  C17_24 
REMARK    4  A    between atoms: C16_23  and  C18_27 
REMARK    5  A    between atoms: C17_24  and  O5_25 
REMARK    6  A    between atoms: C18_27  and  O7_29 
ROOT
HETATM    1  N1  UNL     1     -89.032 -12.053  15.883  1.00  0.00    -0.272 N 
ATOM      2  H1  UNL     1     -89.292 -12.903  16.384  1.00  0.00     0.193 HD
HETATM    3  C2  UNL     1     -89.232 -12.024  14.595  1.00  0.00     0.045 C 
HETATM    4  C3  UNL     1     -88.834 -10.768  13.921  1.00  0.00     0.170 C 
HETATM    5  C4  UNL     1     -89.452 -10.607  12.578  1.00  0.00     0.072 C 
HETATM    6  C5  UNL     1     -89.990 -11.833  11.957  1.00  0.00    -0.071 C 
HETATM    7  C6  UNL     1     -89.661 -11.793  10.650  1.00  0.00    -0.021 C 
HETATM    8  C7  UNL     1     -89.964 -12.774   9.604  1.00  0.00     0.061 C 
HETATM    9  C8  UNL     1     -91.411 -13.091   9.671  1.00  0.00     0.154 C 
HETATM   10  O3  UNL     1     -92.138 -11.899  10.003  1.00  0.00    -0.314 OA
HETATM   11  C9  UNL     1     -93.024 -12.740  10.663  1.00  0.00     0.271 C 
HETATM   12  O4  UNL     1     -94.234 -12.561  10.977  1.00  0.00    -0.264 OA
HETATM   13  C10 UNL     1     -91.972 -13.785  10.783  1.00  0.00     0.079 C 
HETATM   14  C11 UNL     1     -92.655 -15.099  10.355  1.00  0.00     0.029 C 
HETATM   15  C12 UNL     1     -91.282 -13.978  12.063  1.00  0.00    -0.013 C 
HETATM   16  C13 UNL     1     -92.421 -14.522  12.963  1.00  0.00     0.018 C 
HETATM   17  C14 UNL     1     -90.343 -15.148  11.884  1.00  0.00     0.013 C 
HETATM   18  C15 UNL     1     -88.961 -14.967  12.366  1.00  0.00     0.024 C 
HETATM   19  C16 UNL     1     -88.807 -14.240  13.661  1.00  0.00     0.079 C 
HETATM   20  C20 UNL     1     -89.824 -13.197  13.921  1.00  0.00     0.069 C 
HETATM   21  C21 UNL     1     -90.738 -12.814  12.773  1.00  0.00    -0.002 C 
HETATM   22  C22 UNL     1     -91.846 -12.033  13.511  1.00  0.00     0.021 C 
ENDROOT
BRANCH  19  23
HETATM   23  C17 UNL     1     -87.370 -13.698  13.658  1.00  0.00     0.184 C 
BRANCH  23  24
HETATM   24  O5  UNL     1     -86.797 -14.058  14.905  1.00  0.00    -0.400 OA
ATOM     25  H5  UNL     1     -86.266 -13.321  15.184  1.00  0.00     0.209 HD
ENDBRANCH  23  24
ENDBRANCH  19  23
BRANCH  19  26
HETATM   26  C18 UNL     1     -88.789 -15.263  14.748  1.00  0.00     0.270 C 
HETATM   27  O6  UNL     1     -88.228 -16.373  14.564  1.00  0.00    -0.264 OA
BRANCH  26  28
HETATM   28  O7  UNL     1     -89.367 -15.078  15.993  1.00  0.00    -0.326 OA
HETATM   29  C19 UNL     1     -88.860 -15.676  17.174  1.00  0.00     0.213 C 
ENDBRANCH  26  28
ENDBRANCH  19  26
BRANCH   1  30
HETATM   30  O1  UNL     1     -88.501 -11.035  16.602  1.00  0.00    -0.285 OA
HETATM   31  C1  UNL     1     -88.100 -11.128  17.952  1.00  0.00     0.237 C 
ENDBRANCH   1  30
BRANCH   4  32
HETATM   32  O2  UNL     1     -87.480 -10.486  13.969  1.00  0.00    -0.389 OA
ATOM     33  H2  UNL     1     -87.079 -10.313  13.126  1.00  0.00     0.210 HD
ENDBRANCH   4  32
TORSDOF 6
ENDMDL
MODEL 5
REMARK VINA RESULT: -7.594917541      2.332      6.344
REMARK  6 active torsions:
REMARK  status: ('A' for Active; 'I' for Inactive)
REMARK    1  A    between atoms: O1_2  and  N1_3 
REMARK    2  A    between atoms: C3_6  and  O2_7 
REMARK    3  A    between atoms: C16_23  and  C17_24 
REMARK    4  A    between atoms: C16_23  and  C18_27 
REMARK    5  A    between atoms: C17_24  and  O5_25 
REMARK    6  A    between atoms: C18_27  and  O7_29 
ROOT
HETATM    1  N1  UNL     1     -89.447 -12.747  10.480  1.00  0.00    -0.272 N 
ATOM      2  H1  UNL     1     -89.873 -13.653  10.284  1.00  0.00     0.193 HD
HETATM    3  C2  UNL     1     -89.211 -12.444  11.726  1.00  0.00     0.045 C 
HETATM    4  C3  UNL     1     -88.594 -11.118  11.950  1.00  0.00     0.170 C 
HETATM    5  C4  UNL     1     -87.964 -10.987  13.290  1.00  0.00     0.072 C 
HETATM    6  C5  UNL     1     -88.388 -11.968  14.308  1.00  0.00    -0.071 C 
HETATM    7  C6  UNL     1     -88.526 -11.299  15.471  1.00  0.00    -0.021 C 
HETATM    8  C7  UNL     1     -88.927 -11.822  16.779  1.00  0.00     0.061 C 
HETATM    9  C8  UNL     1     -88.107 -13.021  17.072  1.00  0.00     0.154 C 
HETATM   10  O3  UNL     1     -86.778 -12.814  16.572  1.00  0.00    -0.314 OA
HETATM   11  C9  UNL     1     -86.755 -14.182  16.341  1.00  0.00     0.271 C 
HETATM   12  O4  UNL     1     -85.776 -14.971  16.222  1.00  0.00    -0.264 OA
HETATM   13  C10 UNL     1     -88.243 -14.221  16.313  1.00  0.00     0.079 C 
HETATM   14  C11 UNL     1     -88.633 -15.420  17.199  1.00  0.00     0.029 C 
HETATM   15  C12 UNL     1     -88.944 -14.304  15.028  1.00  0.00    -0.013 C 
HETATM   16  C13 UNL     1     -88.547 -15.721  14.536  1.00  0.00     0.018 C 
HETATM   17  C14 UNL     1     -90.418 -14.405  15.337  1.00  0.00     0.013 C 
HETATM   18  C15 UNL     1     -91.317 -13.518  14.576  1.00  0.00     0.024 C 
HETATM   19  C16 UNL     1     -90.997 -13.346  13.127  1.00  0.00     0.079 C 
HETATM   20  C20 UNL     1     -89.558 -13.409  12.789  1.00  0.00     0.069 C 
HETATM   21  C21 UNL     1     -88.571 -13.390  13.942  1.00  0.00    -0.002 C 
HETATM   22  C22 UNL     1     -87.273 -13.844  13.240  1.00  0.00     0.021 C 
ENDROOT
BRANCH  19  23
HETATM   23  C17 UNL     1     -91.659 -12.023  12.715  1.00  0.00     0.184 C 
BRANCH  23  24
HETATM   24  O5  UNL     1     -92.393 -12.286  11.531  1.00  0.00    -0.400 OA
ATOM     25  H5  UNL     1     -93.228 -11.842  11.623  1.00  0.00     0.209 HD
ENDBRANCH  23  24
ENDBRANCH  19  23
BRANCH  19  26
HETATM   26  C18 UNL     1     -91.775 -14.372  12.373  1.00  0.00     0.270 C 
HETATM   27  O6  UNL     1     -91.244 -14.995  11.419  1.00  0.00    -0.264 OA
BRANCH  26  28
HETATM   28  O7  UNL     1     -93.091 -14.705  12.653  1.00  0.00    -0.326 OA
HETATM   29  C19 UNL     1     -93.895 -15.473  11.774  1.00  0.00     0.213 C 
ENDBRANCH  26  28
ENDBRANCH  19  26
BRANCH   1  30
HETATM   30  O1  UNL     1     -89.165 -11.942   9.426  1.00  0.00    -0.285 OA
HETATM   31  C1  UNL     1     -89.020 -12.384   8.095  1.00  0.00     0.237 C 
ENDBRANCH   1  30
BRANCH   4  32
HETATM   32  O2  UNL     1     -89.379 -10.041  11.576  1.00  0.00    -0.389 OA
ATOM     33  H2  UNL     1     -88.919  -9.358  11.101  1.00  0.00     0.210 HD
ENDBRANCH   4  32
TORSDOF 6
ENDMDL
