MODEL 1
REMARK VINA RESULT: -8.625429216      0.000      0.000
REMARK  4 active torsions:
REMARK  status: ('A' for Active; 'I' for Inactive)
REMARK    1  A    between atoms: C3_3  and  O1_4 
REMARK    2  A    between atoms: O1_4  and  S1_5 
REMARK    3  A    between atoms: N1_14  and  O5_16 
REMARK    4  A    between atoms: C11_20  and  C12_21 
ROOT
HETATM    1  C1  UNL     1     -90.096 -15.219  11.138  1.00  0.00     0.017 C 
HETATM    2  C2  UNL     1     -90.194 -14.017  11.672  1.00  0.00    -0.054 C 
HETATM    3  C3  UNL     1     -90.321 -12.850  10.786  1.00  0.00     0.173 C 
HETATM    4  C4  UNL     1     -89.816 -11.651  11.560  1.00  0.00     0.039 C 
HETATM    5  C5  UNL     1     -90.611 -11.461  12.819  1.00  0.00     0.018 C 
HETATM    6  C6  UNL     1     -90.735 -12.657  13.692  1.00  0.00     0.004 C 
HETATM    7  C7  UNL     1     -92.241 -12.902  13.899  1.00  0.00     0.022 C 
HETATM    8  C8  UNL     1     -90.201 -12.377  15.047  1.00  0.00     0.019 C 
HETATM    9  N1  UNL     1     -89.561 -11.284  15.256  1.00  0.00    -0.277 N 
ATOM     10  H1  UNL     1     -89.438 -10.638  14.477  1.00  0.00     0.193 HD
HETATM   11  C9  UNL     1     -90.307 -13.223  16.260  1.00  0.00     0.056 C 
HETATM   12  C10 UNL     1     -89.740 -14.583  15.893  1.00  0.00     0.013 C 
HETATM   13  C11 UNL     1     -88.543 -14.371  15.045  1.00  0.00     0.024 C 
HETATM   14  C17 UNL     1     -88.767 -14.229  13.595  1.00  0.00     0.018 C 
HETATM   15  C18 UNL     1     -90.168 -13.930  13.159  1.00  0.00     0.030 C 
ENDROOT
BRANCH  13  16
HETATM   16  C12 UNL     1     -87.539 -15.492  15.294  1.00  0.00     0.205 C 
HETATM   17  O6  UNL     1     -88.067 -16.743  14.914  1.00  0.00    -0.308 OA
HETATM   18  C13 UNL     1     -87.380 -17.881  15.307  1.00  0.00     0.259 C 
HETATM   19  O7  UNL     1     -87.736 -19.028  14.873  1.00  0.00    -0.265 OA
HETATM   20  C14 UNL     1     -86.223 -17.792  16.234  1.00  0.00     0.118 C 
HETATM   21  C15 UNL     1     -86.519 -16.732  17.281  1.00  0.00     0.091 C 
HETATM   22  C16 UNL     1     -87.049 -15.495  16.684  1.00  0.00     0.157 C 
HETATM   23  O8  UNL     1     -87.087 -14.468  17.326  1.00  0.00    -0.295 OA
ENDBRANCH  13  16
BRANCH   9  24
HETATM   24  O5  UNL     1     -89.036 -10.944  16.467  1.00  0.00    -0.290 OA
ATOM     25  H5  UNL     1     -89.248 -10.136  16.919  1.00  0.00     0.244 HD
ENDBRANCH   9  24
BRANCH   3  26
HETATM   26  O1  UNL     1     -91.620 -12.663  10.332  1.00  0.00    -0.247 OA
BRANCH  26  27
HETATM   27  S1  UNL     1     -91.702 -13.022   8.696  1.00  0.00     0.252 S 
HETATM   28  O2  UNL     1     -92.121 -14.470   8.489  1.00  0.00    -0.572 OA
HETATM   29  O3  UNL     1     -92.766 -12.196   8.001  1.00  0.00    -0.572 OA
HETATM   30  O4  UNL     1     -90.225 -12.753   7.959  1.00  0.00    -0.572 OA
ENDBRANCH  26  27
ENDBRANCH   3  26
TORSDOF 4
ENDMDL
MODEL 2
REMARK VINA RESULT: -8.571415825      3.312      7.494
REMARK  4 active torsions:
REMARK  status: ('A' for Active; 'I' for Inactive)
REMARK    1  A    between atoms: C3_3  and  O1_4 
REMARK    2  A    between atoms: O1_4  and  S1_5 
REMARK    3  A    between atoms: N1_14  and  O5_16 
REMARK    4  A    between atoms: C11_20  and  C12_21 
ROOT
HETATM    1  C1  UNL     1     -87.426 -18.174  14.743  1.00  0.00     0.017 C 
HETATM    2  C2  UNL     1     -87.683 -17.312  15.707  1.00  0.00    -0.054 C 
HETATM    3  C3  UNL     1     -88.022 -17.816  17.046  1.00  0.00     0.173 C 
HETATM    4  C4  UNL     1     -88.824 -16.733  17.736  1.00  0.00     0.039 C 
HETATM    5  C5  UNL     1     -88.030 -15.463  17.823  1.00  0.00     0.018 C 
HETATM    6  C6  UNL     1     -87.446 -14.975  16.547  1.00  0.00     0.004 C 
HETATM    7  C7  UNL     1     -85.932 -14.826  16.779  1.00  0.00     0.022 C 
HETATM    8  C8  UNL     1     -87.925 -13.605  16.239  1.00  0.00     0.019 C 
HETATM    9  N1  UNL     1     -88.868 -13.095  16.945  1.00  0.00    -0.277 N 
ATOM     10  H1  UNL     1     -89.262 -13.654  17.702  1.00  0.00     0.193 HD
HETATM   11  C9  UNL     1     -87.444 -12.691  15.176  1.00  0.00     0.056 C 
HETATM   12  C10 UNL     1     -87.563 -13.447  13.865  1.00  0.00     0.013 C 
HETATM   13  C11 UNL     1     -88.831 -14.214  13.886  1.00  0.00     0.024 C 
HETATM   14  C17 UNL     1     -88.790 -15.556  14.495  1.00  0.00     0.018 C 
HETATM   15  C18 UNL     1     -87.608 -15.865  15.361  1.00  0.00     0.030 C 
ENDROOT
BRANCH  13  16
HETATM   16  C12 UNL     1     -89.386 -14.317  12.470  1.00  0.00     0.205 C 
HETATM   17  O6  UNL     1     -88.656 -13.505  11.576  1.00  0.00    -0.308 OA
HETATM   18  C13 UNL     1     -89.187 -13.297  10.313  1.00  0.00     0.259 C 
HETATM   19  O7  UNL     1     -88.503 -12.689   9.421  1.00  0.00    -0.265 OA
HETATM   20  C14 UNL     1     -90.552 -13.774   9.969  1.00  0.00     0.118 C 
HETATM   21  C15 UNL     1     -91.455 -13.568  11.172  1.00  0.00     0.091 C 
HETATM   22  C16 UNL     1     -90.832 -14.036  12.421  1.00  0.00     0.157 C 
HETATM   23  O8  UNL     1     -91.498 -14.196  13.421  1.00  0.00    -0.295 OA
ENDBRANCH  13  16
BRANCH   9  24
HETATM   24  O5  UNL     1     -89.369 -11.846  16.735  1.00  0.00    -0.290 OA
ATOM     25  H5  UNL     1     -88.987 -11.227  16.123  1.00  0.00     0.244 HD
ENDBRANCH   9  24
BRANCH   3  26
HETATM   26  O1  UNL     1     -86.900 -18.177  17.780  1.00  0.00    -0.247 OA
BRANCH  26  27
HETATM   27  S1  UNL     1     -87.111 -19.715  18.415  1.00  0.00     0.252 S 
HETATM   28  O2  UNL     1     -86.652 -20.769  17.420  1.00  0.00    -0.572 OA
HETATM   29  O3  UNL     1     -86.255 -19.928  19.646  1.00  0.00    -0.572 OA
HETATM   30  O4  UNL     1     -88.717 -19.973  18.808  1.00  0.00    -0.572 OA
ENDBRANCH  26  27
ENDBRANCH   3  26
TORSDOF 4
ENDMDL
MODEL 3
REMARK VINA RESULT: -8.445829967      3.978      5.957
REMARK  4 active torsions:
REMARK  status: ('A' for Active; 'I' for Inactive)
REMARK    1  A    between atoms: C3_3  and  O1_4 
REMARK    2  A    between atoms: O1_4  and  S1_5 
REMARK    3  A    between atoms: N1_14  and  O5_16 
REMARK    4  A    between atoms: C11_20  and  C12_21 
ROOT
HETATM    1  C1  UNL     1     -87.797 -12.383   8.883  1.00  0.00     0.017 C 
HETATM    2  C2  UNL     1     -87.550 -12.025  10.128  1.00  0.00    -0.054 C 
HETATM    3  C3  UNL     1     -86.159 -11.782  10.540  1.00  0.00     0.173 C 
HETATM    4  C4  UNL     1     -86.099 -11.991  12.038  1.00  0.00     0.039 C 
HETATM    5  C5  UNL     1     -87.040 -11.057  12.741  1.00  0.00     0.018 C 
HETATM    6  C6  UNL     1     -88.443 -11.061  12.249  1.00  0.00     0.004 C 
HETATM    7  C7  UNL     1     -88.784  -9.608  11.870  1.00  0.00     0.022 C 
HETATM    8  C8  UNL     1     -89.383 -11.404  13.343  1.00  0.00     0.019 C 
HETATM    9  N1  UNL     1     -88.917 -11.820  14.465  1.00  0.00    -0.277 N 
ATOM     10  H1  UNL     1     -87.906 -11.902  14.569  1.00  0.00     0.193 HD
HETATM   11  C9  UNL     1     -90.863 -11.331  13.327  1.00  0.00     0.056 C 
HETATM   12  C10 UNL     1     -91.327 -12.161  12.143  1.00  0.00     0.013 C 
HETATM   13  C11 UNL     1     -90.485 -13.379  12.073  1.00  0.00     0.024 C 
HETATM   14  C17 UNL     1     -89.219 -13.274  11.325  1.00  0.00     0.018 C 
HETATM   15  C18 UNL     1     -88.720 -11.891  11.041  1.00  0.00     0.030 C 
ENDROOT
BRANCH  13  16
HETATM   16  C12 UNL     1     -91.309 -14.534  11.515  1.00  0.00     0.205 C 
HETATM   17  O6  UNL     1     -91.447 -14.432  10.114  1.00  0.00    -0.308 OA
HETATM   18  C13 UNL     1     -92.369 -15.259   9.494  1.00  0.00     0.259 C 
HETATM   19  O7  UNL     1     -92.434 -15.307   8.219  1.00  0.00    -0.265 OA
HETATM   20  C14 UNL     1     -93.295 -16.104  10.292  1.00  0.00     0.118 C 
HETATM   21  C15 UNL     1     -93.740 -15.318  11.512  1.00  0.00     0.091 C 
HETATM   22  C16 UNL     1     -92.611 -14.663  12.192  1.00  0.00     0.157 C 
HETATM   23  O8  UNL     1     -92.737 -14.224  13.315  1.00  0.00    -0.295 OA
ENDBRANCH  13  16
BRANCH   9  24
HETATM   24  O5  UNL     1     -89.706 -12.157  15.524  1.00  0.00    -0.290 OA
ATOM     25  H5  UNL     1     -89.369 -12.548  16.321  1.00  0.00     0.244 HD
ENDBRANCH   9  24
BRANCH   3  26
HETATM   26  O1  UNL     1     -85.707 -10.521  10.175  1.00  0.00    -0.247 OA
BRANCH  26  27
HETATM   27  S1  UNL     1     -84.278 -10.661   9.310  1.00  0.00     0.252 S 
HETATM   28  O2  UNL     1     -84.454 -11.622   8.144  1.00  0.00    -0.572 OA
HETATM   29  O3  UNL     1     -83.879  -9.341   8.682  1.00  0.00    -0.572 OA
HETATM   30  O4  UNL     1     -83.042 -11.198  10.300  1.00  0.00    -0.572 OA
ENDBRANCH  26  27
ENDBRANCH   3  26
TORSDOF 4
ENDMDL
MODEL 4
REMARK VINA RESULT: -8.384783003      3.441      7.355
REMARK  4 active torsions:
REMARK  status: ('A' for Active; 'I' for Inactive)
REMARK    1  A    between atoms: C3_3  and  O1_4 
REMARK    2  A    between atoms: O1_4  and  S1_5 
REMARK    3  A    between atoms: N1_14  and  O5_16 
REMARK    4  A    between atoms: C11_20  and  C12_21 
ROOT
HETATM    1  C1  UNL     1     -85.787 -13.990  13.797  1.00  0.00     0.017 C 
HETATM    2  C2  UNL     1     -87.104 -13.974  13.858  1.00  0.00    -0.054 C 
HETATM    3  C3  UNL     1     -87.796 -14.996  14.658  1.00  0.00     0.173 C 
HETATM    4  C4  UNL     1     -89.194 -15.129  14.092  1.00  0.00     0.039 C 
HETATM    5  C5  UNL     1     -89.916 -13.815  14.155  1.00  0.00     0.018 C 
HETATM    6  C6  UNL     1     -89.201 -12.654  13.565  1.00  0.00     0.004 C 
HETATM    7  C7  UNL     1     -89.110 -11.582  14.666  1.00  0.00     0.022 C 
HETATM    8  C8  UNL     1     -90.007 -12.031  12.487  1.00  0.00     0.019 C 
HETATM    9  N1  UNL     1     -91.068 -12.624  12.073  1.00  0.00    -0.277 N 
ATOM     10  H1  UNL     1     -91.325 -13.513  12.503  1.00  0.00     0.193 HD
HETATM   11  C9  UNL     1     -89.751 -10.753  11.782  1.00  0.00     0.056 C 
HETATM   12  C10 UNL     1     -88.347 -10.844  11.211  1.00  0.00     0.013 C 
HETATM   13  C11 UNL     1     -88.149 -12.216  10.688  1.00  0.00     0.024 C 
HETATM   14  C17 UNL     1     -87.676 -13.235  11.643  1.00  0.00     0.018 C 
HETATM   15  C18 UNL     1     -87.806 -12.902  13.098  1.00  0.00     0.030 C 
ENDROOT
BRANCH  13  16
HETATM   16  C12 UNL     1     -87.207 -12.171   9.489  1.00  0.00     0.205 C 
HETATM   17  O6  UNL     1     -86.315 -11.082   9.582  1.00  0.00    -0.308 OA
HETATM   18  C13 UNL     1     -85.571 -10.760   8.459  1.00  0.00     0.259 C 
HETATM   19  O7  UNL     1     -84.651  -9.876   8.530  1.00  0.00    -0.265 OA
HETATM   20  C14 UNL     1     -85.822 -11.430   7.157  1.00  0.00     0.118 C 
HETATM   21  C15 UNL     1     -87.319 -11.631   6.995  1.00  0.00     0.091 C 
HETATM   22  C16 UNL     1     -87.940 -12.181   8.210  1.00  0.00     0.157 C 
HETATM   23  O8  UNL     1     -89.057 -12.650   8.174  1.00  0.00    -0.295 OA
ENDBRANCH  13  16
BRANCH   9  24
HETATM   24  O5  UNL     1     -91.869 -12.126  11.090  1.00  0.00    -0.290 OA
ATOM     25  H5  UNL     1     -92.619 -11.569  11.260  1.00  0.00     0.244 HD
ENDBRANCH   9  24
BRANCH   3  26
HETATM   26  O1  UNL     1     -87.813 -14.692  16.013  1.00  0.00    -0.247 OA
BRANCH  26  27
HETATM   27  S1  UNL     1     -87.966 -16.103  16.906  1.00  0.00     0.252 S 
HETATM   28  O2  UNL     1     -87.049 -16.068  18.118  1.00  0.00    -0.572 OA
HETATM   29  O3  UNL     1     -89.366 -16.252  17.469  1.00  0.00    -0.572 OA
HETATM   30  O4  UNL     1     -87.606 -17.437  15.964  1.00  0.00    -0.572 OA
ENDBRANCH  26  27
ENDBRANCH   3  26
TORSDOF 4
ENDMDL
MODEL 5
REMARK VINA RESULT: -8.361103121      2.911      7.238
REMARK  4 active torsions:
REMARK  status: ('A' for Active; 'I' for Inactive)
REMARK    1  A    between atoms: C3_3  and  O1_4 
REMARK    2  A    between atoms: O1_4  and  S1_5 
REMARK    3  A    between atoms: N1_14  and  O5_16 
REMARK    4  A    between atoms: C11_20  and  C12_21 
ROOT
HETATM    1  C1  UNL     1     -88.564 -15.545  14.245  1.00  0.00     0.017 C 
HETATM    2  C2  UNL     1     -88.302 -14.301  14.596  1.00  0.00    -0.054 C 
HETATM    3  C3  UNL     1     -87.891 -14.021  15.980  1.00  0.00     0.173 C 
HETATM    4  C4  UNL     1     -88.241 -12.575  16.261  1.00  0.00     0.039 C 
HETATM    5  C5  UNL     1     -87.541 -11.664  15.295  1.00  0.00     0.018 C 
HETATM    6  C6  UNL     1     -87.711 -11.994  13.856  1.00  0.00     0.004 C 
HETATM    7  C7  UNL     1     -86.297 -12.154  13.267  1.00  0.00     0.022 C 
HETATM    8  C8  UNL     1     -88.306 -10.851  13.121  1.00  0.00     0.019 C 
HETATM    9  N1  UNL     1     -88.757  -9.846  13.781  1.00  0.00    -0.277 N 
ATOM     10  H1  UNL     1     -88.692  -9.867  14.798  1.00  0.00     0.193 HD
HETATM   11  C9  UNL     1     -88.461 -10.693  11.656  1.00  0.00     0.056 C 
HETATM   12  C10 UNL     1     -89.226 -11.910  11.165  1.00  0.00     0.013 C 
HETATM   13  C11 UNL     1     -90.285 -12.220  12.155  1.00  0.00     0.024 C 
HETATM   14  C17 UNL     1     -89.910 -13.086  13.287  1.00  0.00     0.018 C 
HETATM   15  C18 UNL     1     -88.445 -13.255  13.546  1.00  0.00     0.030 C 
ENDROOT
BRANCH  13  16
HETATM   16  C12 UNL     1     -91.491 -12.818  11.437  1.00  0.00     0.205 C 
HETATM   17  O6  UNL     1     -91.514 -12.441  10.078  1.00  0.00    -0.308 OA
HETATM   18  C13 UNL     1     -92.670 -12.694   9.357  1.00  0.00     0.259 C 
HETATM   19  O7  UNL     1     -92.694 -12.502   8.094  1.00  0.00    -0.265 OA
HETATM   20  C14 UNL     1     -93.896 -13.193  10.031  1.00  0.00     0.118 C 
HETATM   21  C15 UNL     1     -94.025 -12.503  11.378  1.00  0.00     0.091 C 
HETATM   22  C16 UNL     1     -92.756 -12.500  12.123  1.00  0.00     0.157 C 
HETATM   23  O8  UNL     1     -92.736 -12.238  13.306  1.00  0.00    -0.295 OA
ENDBRANCH  13  16
BRANCH   9  24
HETATM   24  O5  UNL     1     -89.319  -8.755  13.190  1.00  0.00    -0.290 OA
ATOM     25  H5  UNL     1     -88.864  -7.928  13.083  1.00  0.00     0.244 HD
ENDBRANCH   9  24
BRANCH   3  26
HETATM   26  O1  UNL     1     -86.544 -14.279  16.199  1.00  0.00    -0.247 OA
BRANCH  26  27
HETATM   27  S1  UNL     1     -86.380 -15.457  17.381  1.00  0.00     0.252 S 
HETATM   28  O2  UNL     1     -85.337 -15.042  18.406  1.00  0.00    -0.572 OA
HETATM   29  O3  UNL     1     -87.664 -15.636  18.167  1.00  0.00    -0.572 OA
HETATM   30  O4  UNL     1     -85.945 -16.920  16.696  1.00  0.00    -0.572 OA
ENDBRANCH  26  27
ENDBRANCH   3  26
TORSDOF 4
ENDMDL
