MODEL 1
REMARK VINA RESULT: -8.794580061      0.000      0.000
REMARK  4 active torsions:
REMARK  status: ('A' for Active; 'I' for Inactive)
REMARK    1  A    between atoms: C2_2  and  C3_3 
REMARK    2  A    between atoms: C11_15  and  C12_16 
REMARK    3  A    between atoms: C14_18  and  O5_19 
REMARK    4  A    between atoms: C17_28  and  C18_29 
ROOT
HETATM    1  C3  UNL     1     -86.294 -13.011  16.697  1.00  0.00     0.163 C 
HETATM    2  O1  UNL     1     -87.002 -11.999  16.021  1.00  0.00    -0.307 OA
HETATM    3  C4  UNL     1     -88.109 -12.239  15.221  1.00  0.00     0.331 C 
HETATM    4  O2  UNL     1     -88.315 -11.450  14.269  1.00  0.00    -0.259 OA
HETATM    5  C5  UNL     1     -88.961 -13.397  15.543  1.00  0.00     0.347 C 
HETATM    6  O3  UNL     1     -88.774 -14.361  14.572  1.00  0.00    -0.181 OA
HETATM    7  O4  UNL     1     -89.864 -14.806  14.034  1.00  0.00    -0.194 OA
HETATM    8  C6  UNL     1     -90.649 -13.820  13.445  1.00  0.00     0.232 C 
HETATM    9  C7  UNL     1     -90.172 -13.652  12.027  1.00  0.00     0.075 C 
HETATM   10  C8  UNL     1     -90.786 -14.771  11.207  1.00  0.00     0.010 C 
HETATM   11  C9  UNL     1     -91.993 -14.321  10.444  1.00  0.00    -0.012 C 
HETATM   12  C10 UNL     1     -92.288 -15.366   9.387  1.00  0.00     0.010 C 
HETATM   13  C11 UNL     1     -93.210 -14.096  11.248  1.00  0.00     0.018 C 
HETATM   14  C14 UNL     1     -92.991 -13.481  12.599  1.00  0.00     0.128 C 
HETATM   15  C15 UNL     1     -92.102 -14.271  13.496  1.00  0.00     0.106 C 
HETATM   16  O6  UNL     1     -90.530 -12.679  14.209  1.00  0.00    -0.194 OA
HETATM   17  O7  UNL     1     -90.288 -12.992  15.486  1.00  0.00    -0.181 OA
HETATM   18  C16 UNL     1     -88.659 -13.920  16.938  1.00  0.00     0.297 C 
HETATM   19  N1  UNL     1     -89.236 -15.226  17.120  1.00  0.00    -0.047 N 
ATOM     20  H11 UNL     1     -89.457 -15.702  16.246  1.00  0.00     0.279 HD
ATOM     21  H12 UNL     1     -90.186 -15.206  17.490  1.00  0.00     0.279 HD
HETATM   22  C17 UNL     1     -88.299 -15.955  17.960  1.00  0.00     0.276 C 
HETATM   23  C19 UNL     1     -87.001 -15.254  17.730  1.00  0.00    -0.040 C 
HETATM   24  C20 UNL     1     -85.664 -15.786  18.105  1.00  0.00     0.046 C 
HETATM   25  C21 UNL     1     -87.192 -14.082  17.142  1.00  0.00    -0.010 C 
ENDROOT
BRANCH   1  26
HETATM   26  C2  UNL     1     -85.566 -12.338  17.860  1.00  0.00     0.033 C 
HETATM   27  C1  UNL     1     -86.412 -11.277  18.486  1.00  0.00     0.008 C 
ENDBRANCH   1  26
BRANCH  22  28
HETATM   28  C18 UNL     1     -88.267 -17.370  17.553  1.00  0.00     0.268 C 
HETATM   29  O8  UNL     1     -89.054 -18.182  18.055  1.00  0.00    -0.304 OA
ENDBRANCH  22  28
BRANCH  14  30
HETATM   30  O5  UNL     1     -92.593 -12.140  12.523  1.00  0.00    -0.395 OA
ATOM     31  H5  UNL     1     -91.653 -12.032  12.611  1.00  0.00     0.210 HD
ENDBRANCH  14  30
BRANCH  13  32
HETATM   32  C12 UNL     1     -94.092 -13.115  10.461  1.00  0.00     0.003 C 
HETATM   33  C13 UNL     1     -93.294 -12.263   9.534  1.00  0.00     0.005 C 
ENDBRANCH  13  32
TORSDOF 4
ENDMDL
MODEL 2
REMARK VINA RESULT: -8.746860037      2.358      7.663
REMARK  4 active torsions:
REMARK  status: ('A' for Active; 'I' for Inactive)
REMARK    1  A    between atoms: C2_2  and  C3_3 
REMARK    2  A    between atoms: C11_15  and  C12_16 
REMARK    3  A    between atoms: C14_18  and  O5_19 
REMARK    4  A    between atoms: C17_28  and  C18_29 
ROOT
HETATM    1  C3  UNL     1     -89.856 -12.477   9.248  1.00  0.00     0.163 C 
HETATM    2  O1  UNL     1     -88.632 -12.922   9.781  1.00  0.00    -0.307 OA
HETATM    3  C4  UNL     1     -88.454 -13.267  11.112  1.00  0.00     0.331 C 
HETATM    4  O2  UNL     1     -87.311 -13.105  11.603  1.00  0.00    -0.259 OA
HETATM    5  C5  UNL     1     -89.612 -13.796  11.855  1.00  0.00     0.347 C 
HETATM    6  O3  UNL     1     -90.026 -12.838  12.759  1.00  0.00    -0.181 OA
HETATM    7  O4  UNL     1     -90.151 -13.261  13.976  1.00  0.00    -0.194 OA
HETATM    8  C6  UNL     1     -88.988 -13.809  14.507  1.00  0.00     0.232 C 
HETATM    9  C7  UNL     1     -88.198 -12.683  15.118  1.00  0.00     0.075 C 
HETATM   10  C8  UNL     1     -88.802 -12.391  16.479  1.00  0.00     0.010 C 
HETATM   11  C9  UNL     1     -88.026 -13.024  17.593  1.00  0.00    -0.012 C 
HETATM   12  C10 UNL     1     -88.462 -12.370  18.889  1.00  0.00     0.010 C 
HETATM   13  C11 UNL     1     -88.169 -14.486  17.722  1.00  0.00     0.018 C 
HETATM   14  C14 UNL     1     -88.248 -15.247  16.431  1.00  0.00     0.128 C 
HETATM   15  C15 UNL     1     -89.381 -14.846  15.550  1.00  0.00     0.106 C 
HETATM   16  O6  UNL     1     -88.328 -14.460  13.487  1.00  0.00    -0.194 OA
HETATM   17  O7  UNL     1     -89.197 -14.907  12.576  1.00  0.00    -0.181 OA
HETATM   18  C16 UNL     1     -90.723 -14.205  10.901  1.00  0.00     0.297 C 
HETATM   19  N1  UNL     1     -91.955 -14.401  11.622  1.00  0.00    -0.047 N 
ATOM     20  H11 UNL     1     -91.971 -13.948  12.535  1.00  0.00     0.279 HD
ATOM     21  H12 UNL     1     -92.086 -15.355  11.957  1.00  0.00     0.279 HD
HETATM   22  C17 UNL     1     -93.007 -13.946  10.727  1.00  0.00     0.276 C 
HETATM   23  C19 UNL     1     -92.307 -12.997   9.812  1.00  0.00    -0.040 C 
HETATM   24  C20 UNL     1     -92.980 -12.022   8.913  1.00  0.00     0.046 C 
HETATM   25  C21 UNL     1     -90.993 -13.135   9.902  1.00  0.00    -0.010 C 
ENDROOT
BRANCH   1  26
HETATM   26  C2  UNL     1     -89.808 -12.750   7.745  1.00  0.00     0.033 C 
HETATM   27  C1  UNL     1     -88.586 -12.154   7.126  1.00  0.00     0.008 C 
ENDBRANCH   1  26
BRANCH  22  28
HETATM   28  C18 UNL     1     -94.078 -13.304  11.509  1.00  0.00     0.268 C 
HETATM   29  O8  UNL     1     -93.813 -12.382  12.290  1.00  0.00    -0.304 OA
ENDBRANCH  22  28
BRANCH  14  30
HETATM   30  O5  UNL     1     -87.031 -15.261  15.738  1.00  0.00    -0.395 OA
ATOM     31  H5  UNL     1     -86.692 -16.140  15.613  1.00  0.00     0.210 HD
ENDBRANCH  14  30
BRANCH  13  32
HETATM   32  C12 UNL     1     -86.918 -14.997  18.452  1.00  0.00     0.003 C 
HETATM   33  C13 UNL     1     -87.064 -16.414  18.891  1.00  0.00     0.005 C 
ENDBRANCH  13  32
TORSDOF 4
ENDMDL
MODEL 3
REMARK VINA RESULT: -8.665156524      2.588      7.913
REMARK  4 active torsions:
REMARK  status: ('A' for Active; 'I' for Inactive)
REMARK    1  A    between atoms: C2_2  and  C3_3 
REMARK    2  A    between atoms: C11_15  and  C12_16 
REMARK    3  A    between atoms: C14_18  and  O5_19 
REMARK    4  A    between atoms: C17_28  and  C18_29 
ROOT
HETATM    1  C3  UNL     1     -92.372 -14.280  12.331  1.00  0.00     0.163 C 
HETATM    2  O1  UNL     1     -92.361 -13.784  13.649  1.00  0.00    -0.307 OA
HETATM    3  C4  UNL     1     -91.255 -13.187  14.235  1.00  0.00     0.331 C 
HETATM    4  O2  UNL     1     -91.134 -13.291  15.479  1.00  0.00    -0.259 OA
HETATM    5  C5  UNL     1     -90.304 -12.476  13.362  1.00  0.00     0.347 C 
HETATM    6  O3  UNL     1     -89.140 -13.216  13.288  1.00  0.00    -0.181 OA
HETATM    7  O4  UNL     1     -88.060 -12.553  13.549  1.00  0.00    -0.194 OA
HETATM    8  C6  UNL     1     -88.051 -11.955  14.805  1.00  0.00     0.232 C 
HETATM    9  C7  UNL     1     -87.511 -12.966  15.781  1.00  0.00     0.075 C 
HETATM   10  C8  UNL     1     -85.999 -12.956  15.654  1.00  0.00     0.010 C 
HETATM   11  C9  UNL     1     -85.344 -12.144  16.729  1.00  0.00    -0.012 C 
HETATM   12  C10 UNL     1     -83.873 -12.507  16.751  1.00  0.00     0.010 C 
HETATM   13  C11 UNL     1     -85.475 -10.680  16.594  1.00  0.00     0.018 C 
HETATM   14  C14 UNL     1     -86.798 -10.191  16.083  1.00  0.00     0.128 C 
HETATM   15  C15 UNL     1     -87.170 -10.716  14.739  1.00  0.00     0.106 C 
HETATM   16  O6  UNL     1     -89.338 -11.548  15.083  1.00  0.00    -0.194 OA
HETATM   17  O7  UNL     1     -89.994 -11.260  13.955  1.00  0.00    -0.181 OA
HETATM   18  C16 UNL     1     -90.913 -12.223  11.993  1.00  0.00     0.297 C 
HETATM   19  N1  UNL     1     -89.892 -11.839  11.053  1.00  0.00    -0.047 N 
ATOM     20  H11 UNL     1     -88.950 -12.098  11.344  1.00  0.00     0.279 HD
ATOM     21  H12 UNL     1     -89.733 -10.833  11.009  1.00  0.00     0.279 HD
HETATM   22  C17 UNL     1     -90.291 -12.422   9.782  1.00  0.00     0.276 C 
HETATM   23  C19 UNL     1     -91.171 -13.562  10.178  1.00  0.00    -0.040 C 
HETATM   24  C20 UNL     1     -91.590 -14.670   9.279  1.00  0.00     0.046 C 
HETATM   25  C21 UNL     1     -91.536 -13.460  11.447  1.00  0.00    -0.010 C 
ENDROOT
BRANCH   1  26
HETATM   26  C2  UNL     1     -93.834 -14.315  11.886  1.00  0.00     0.033 C 
HETATM   27  C1  UNL     1     -94.364 -15.712  11.882  1.00  0.00     0.008 C 
ENDBRANCH   1  26
BRANCH  22  28
HETATM   28  C18 UNL     1     -89.095 -12.852   9.038  1.00  0.00     0.268 C 
HETATM   29  O8  UNL     1     -88.946 -12.529   7.853  1.00  0.00    -0.304 OA
ENDBRANCH  22  28
BRANCH  14  30
HETATM   30  O5  UNL     1     -87.833 -10.363  17.012  1.00  0.00    -0.395 OA
ATOM     31  H5  UNL     1     -88.188  -9.538  17.320  1.00  0.00     0.210 HD
ENDBRANCH  14  30
BRANCH  13  32
HETATM   32  C12 UNL     1     -85.303 -10.083  17.998  1.00  0.00     0.003 C 
HETATM   33  C13 UNL     1     -84.034  -9.314  18.129  1.00  0.00     0.005 C 
ENDBRANCH  13  32
TORSDOF 4
ENDMDL
MODEL 4
REMARK VINA RESULT: -8.641778394      2.617      4.253
REMARK  4 active torsions:
REMARK  status: ('A' for Active; 'I' for Inactive)
REMARK    1  A    between atoms: C2_2  and  C3_3 
REMARK    2  A    between atoms: C11_15  and  C12_16 
REMARK    3  A    between atoms: C14_18  and  O5_19 
REMARK    4  A    between atoms: C17_28  and  C18_29 
ROOT
HETATM    1  C3  UNL     1     -87.407 -10.677  16.855  1.00  0.00     0.163 C 
HETATM    2  O1  UNL     1     -88.444 -11.628  16.896  1.00  0.00    -0.307 OA
HETATM    3  C4  UNL     1     -89.028 -12.177  15.764  1.00  0.00     0.331 C 
HETATM    4  O2  UNL     1     -90.226 -12.537  15.849  1.00  0.00    -0.259 OA
HETATM    5  C5  UNL     1     -88.206 -12.298  14.547  1.00  0.00     0.347 C 
HETATM    6  O3  UNL     1     -88.654 -11.375  13.623  1.00  0.00    -0.181 OA
HETATM    7  O4  UNL     1     -88.912 -11.863  12.451  1.00  0.00    -0.194 OA
HETATM    8  C6  UNL     1     -89.857 -12.883  12.460  1.00  0.00     0.232 C 
HETATM    9  C7  UNL     1     -91.214 -12.241  12.348  1.00  0.00     0.075 C 
HETATM   10  C8  UNL     1     -91.438 -11.907  10.884  1.00  0.00     0.010 C 
HETATM   11  C9  UNL     1     -92.292 -12.925  10.193  1.00  0.00    -0.012 C 
HETATM   12  C10 UNL     1     -92.769 -12.320   8.889  1.00  0.00     0.010 C 
HETATM   13  C11 UNL     1     -91.641 -14.219   9.912  1.00  0.00     0.018 C 
HETATM   14  C14 UNL     1     -90.709 -14.722  10.973  1.00  0.00     0.128 C 
HETATM   15  C15 UNL     1     -89.576 -13.805  11.281  1.00  0.00     0.106 C 
HETATM   16  O6  UNL     1     -89.681 -13.608  13.618  1.00  0.00    -0.194 OA
HETATM   17  O7  UNL     1     -88.404 -13.563  14.011  1.00  0.00    -0.181 OA
HETATM   18  C16 UNL     1     -86.731 -12.119  14.871  1.00  0.00     0.297 C 
HETATM   19  N1  UNL     1     -85.975 -11.905  13.664  1.00  0.00    -0.047 N 
ATOM     20  H11 UNL     1     -86.543 -11.599  12.874  1.00  0.00     0.279 HD
ATOM     21  H12 UNL     1     -85.630 -12.765  13.240  1.00  0.00     0.279 HD
HETATM   22  C17 UNL     1     -84.922 -10.968  14.024  1.00  0.00     0.276 C 
HETATM   23  C19 UNL     1     -85.471 -10.263  15.220  1.00  0.00    -0.040 C 
HETATM   24  C20 UNL     1     -84.932  -8.999  15.789  1.00  0.00     0.046 C 
HETATM   25  C21 UNL     1     -86.512 -10.914  15.718  1.00  0.00    -0.010 C 
ENDROOT
BRANCH   1  26
HETATM   26  C2  UNL     1     -86.681 -10.759  18.198  1.00  0.00     0.033 C 
HETATM   27  C1  UNL     1     -86.318 -12.170  18.530  1.00  0.00     0.008 C 
ENDBRANCH   1  26
BRANCH  22  28
HETATM   28  C18 UNL     1     -84.661 -10.061  12.893  1.00  0.00     0.268 C 
HETATM   29  O8  UNL     1     -85.591  -9.677  12.172  1.00  0.00    -0.304 OA
ENDBRANCH  22  28
BRANCH  14  30
HETATM   30  O5  UNL     1     -91.380 -15.125  12.135  1.00  0.00    -0.395 OA
ATOM     31  H5  UNL     1     -90.786 -15.373  12.834  1.00  0.00     0.210 HD
ENDBRANCH  14  30
BRANCH  13  32
HETATM   32  C12 UNL     1     -92.760 -15.265   9.784  1.00  0.00     0.003 C 
HETATM   33  C13 UNL     1     -92.540 -16.183   8.631  1.00  0.00     0.005 C 
ENDBRANCH  13  32
TORSDOF 4
ENDMDL
MODEL 5
REMARK VINA RESULT: -8.605661427      4.870      8.201
REMARK  4 active torsions:
REMARK  status: ('A' for Active; 'I' for Inactive)
REMARK    1  A    between atoms: C2_2  and  C3_3 
REMARK    2  A    between atoms: C11_15  and  C12_16 
REMARK    3  A    between atoms: C14_18  and  O5_19 
REMARK    4  A    between atoms: C17_28  and  C18_29 
ROOT
HETATM    1  C3  UNL     1     -86.959 -11.867   7.571  1.00  0.00     0.163 C 
HETATM    2  O1  UNL     1     -88.174 -11.904   8.282  1.00  0.00    -0.307 OA
HETATM    3  C4  UNL     1     -88.252 -12.006   9.663  1.00  0.00     0.331 C 
HETATM    4  O2  UNL     1     -89.261 -12.574  10.144  1.00  0.00    -0.259 OA
HETATM    5  C5  UNL     1     -87.151 -11.443  10.465  1.00  0.00     0.347 C 
HETATM    6  O3  UNL     1     -86.428 -12.487  11.009  1.00  0.00    -0.181 OA
HETATM    7  O4  UNL     1     -86.244 -12.409  12.288  1.00  0.00    -0.194 OA
HETATM    8  C6  UNL     1     -87.422 -12.336  13.026  1.00  0.00     0.232 C 
HETATM    9  C7  UNL     1     -87.865 -13.747  13.306  1.00  0.00     0.075 C 
HETATM   10  C8  UNL     1     -87.044 -14.255  14.477  1.00  0.00     0.010 C 
HETATM   11  C9  UNL     1     -87.791 -14.175  15.773  1.00  0.00    -0.012 C 
HETATM   12  C10 UNL     1     -87.064 -15.042  16.780  1.00  0.00     0.010 C 
HETATM   13  C11 UNL     1     -87.953 -12.820  16.334  1.00  0.00     0.018 C 
HETATM   14  C14 UNL     1     -88.205 -11.729  15.335  1.00  0.00     0.128 C 
HETATM   15  C15 UNL     1     -87.133 -11.574  14.312  1.00  0.00     0.106 C 
HETATM   16  O6  UNL     1     -88.330 -11.604  12.292  1.00  0.00    -0.194 OA
HETATM   17  O7  UNL     1     -87.701 -10.719  11.514  1.00  0.00    -0.181 OA
HETATM   18  C16 UNL     1     -86.285 -10.521   9.622  1.00  0.00     0.297 C 
HETATM   19  N1  UNL     1     -85.043 -10.243  10.297  1.00  0.00    -0.047 N 
ATOM     20  H11 UNL     1     -84.814 -10.918  11.026  1.00  0.00     0.279 HD
ATOM     21  H12 UNL     1     -85.080  -9.421  10.900  1.00  0.00     0.279 HD
HETATM   22  C17 UNL     1     -84.040 -10.153   9.249  1.00  0.00     0.276 C 
HETATM   23  C19 UNL     1     -84.628 -10.945   8.128  1.00  0.00    -0.040 C 
HETATM   24  C20 UNL     1     -83.879 -11.429   6.938  1.00  0.00     0.046 C 
HETATM   25  C21 UNL     1     -85.919 -11.164   8.329  1.00  0.00    -0.010 C 
ENDROOT
BRANCH   1  26
HETATM   26  C2  UNL     1     -87.256 -11.198   6.228  1.00  0.00     0.033 C 
HETATM   27  C1  UNL     1     -88.702 -11.317   5.874  1.00  0.00     0.008 C 
ENDBRANCH   1  26
BRANCH  22  28
HETATM   28  C18 UNL     1     -82.765 -10.708   9.736  1.00  0.00     0.268 C 
HETATM   29  O8  UNL     1     -82.528 -10.756  10.949  1.00  0.00    -0.304 OA
ENDBRANCH  22  28
BRANCH  14  30
HETATM   30  O5  UNL     1     -89.474 -11.817  14.749  1.00  0.00    -0.395 OA
ATOM     31  H5  UNL     1     -89.513 -11.396  13.898  1.00  0.00     0.210 HD
ENDBRANCH  14  30
BRANCH  13  32
HETATM   32  C12 UNL     1     -89.182 -12.860  17.254  1.00  0.00     0.003 C 
HETATM   33  C13 UNL     1     -88.883 -12.327  18.613  1.00  0.00     0.005 C 
ENDBRANCH  13  32
TORSDOF 4
ENDMDL
