MODEL 1
REMARK VINA RESULT: -7.168520692      0.000      0.000
REMARK  5 active torsions:
REMARK  status: ('A' for Active; 'I' for Inactive)
REMARK    1  A    between atoms: C2_2  and  O1_3 
REMARK    2  A    between atoms: O1_3  and  C3_4 
REMARK       I    between atoms: C3_4  and  N1_6 
REMARK    3  A    between atoms: N1_6  and  C4_8 
REMARK    4  A    between atoms: C7_12  and  C8_13 
REMARK    5  A    between atoms: N3_24  and  C15_25 
ROOT
HETATM    1  C8  UNL     1    -113.416 -16.254  88.597  1.00  0.00     0.029 A 
HETATM    2  C9  UNL     1    -112.173 -16.796  88.744  1.00  0.00     0.088 A 
HETATM    3 CL1  UNL     1    -111.287 -17.808  87.566  1.00  0.00    -0.075 Cl
HETATM    4  S2  UNL     1    -111.679 -16.283  90.289  1.00  0.00    -0.063 SA
HETATM    5  C10 UNL     1    -113.064 -15.387  90.723  1.00  0.00     0.097 A 
HETATM    6 CL2  UNL     1    -113.384 -14.492  92.228  1.00  0.00    -0.075 Cl
HETATM    7  C11 UNL     1    -113.892 -15.511  89.636  1.00  0.00     0.086 A 
HETATM    8  C12 UNL     1    -115.224 -14.848  89.647  1.00  0.00     0.102 C 
HETATM    9  N2  UNL     1    -116.265 -14.340  89.636  1.00  0.00    -0.191 NA
ENDROOT
BRANCH   1  10
HETATM   10  C7  UNL     1    -114.205 -16.487  87.327  1.00  0.00     0.020 A 
HETATM   11  C4  UNL     1    -113.928 -15.787  86.197  1.00  0.00     0.090 A 
HETATM   12  S1  UNL     1    -115.048 -16.377  85.061  1.00  0.00    -0.073 SA
HETATM   13  C5  UNL     1    -115.851 -17.506  86.043  1.00  0.00     0.015 A 
HETATM   14  C6  UNL     1    -115.217 -17.396  87.257  1.00  0.00    -0.024 A 
HETATM   15  C17 UNL     1    -116.988 -18.476  85.839  1.00  0.00     0.120 C 
HETATM   16  C13 UNL     1    -115.791 -18.336  88.320  1.00  0.00     0.085 C 
HETATM   17  C14 UNL     1    -117.287 -18.320  88.245  1.00  0.00     0.063 C 
HETATM   18  N3  UNL     1    -117.852 -18.324  86.960  1.00  0.00    -0.385 N 
HETATM   19  C18 UNL     1    -116.507 -19.858  85.586  1.00  0.00     0.038 C 
BRANCH  11  20
HETATM   20  N1  UNL     1    -112.917 -14.766  85.986  1.00  0.00    -0.296 N 
HETATM   21  C3  UNL     1    -111.784 -15.109  85.235  1.00  0.00     0.365 C 
HETATM   22  O2  UNL     1    -111.683 -16.274  84.774  1.00  0.00    -0.238 OA
ATOM     23  H1  UNL     1    -113.027 -13.828  86.372  1.00  0.00     0.171 HD
BRANCH  21  24
HETATM   24  O1  UNL     1    -110.786 -14.197  84.994  1.00  0.00    -0.304 OA
BRANCH  24  25
HETATM   25  C2  UNL     1    -110.106 -13.607  86.074  1.00  0.00     0.176 C 
HETATM   26  C1  UNL     1    -109.505 -14.591  87.022  1.00  0.00     0.034 C 
ENDBRANCH  24  25
ENDBRANCH  21  24
ENDBRANCH  11  20
BRANCH  18  27
HETATM   27  C15 UNL     1    -119.124 -18.981  86.845  1.00  0.00     0.118 C 
HETATM   28  C16 UNL     1    -119.738 -19.132  88.212  1.00  0.00     0.026 C 
ENDBRANCH  18  27
ENDBRANCH   1  10
TORSDOF 5
ENDMDL
MODEL 2
REMARK VINA RESULT: -6.867875359      3.557      6.717
REMARK  5 active torsions:
REMARK  status: ('A' for Active; 'I' for Inactive)
REMARK    1  A    between atoms: C2_2  and  O1_3 
REMARK    2  A    between atoms: O1_3  and  C3_4 
REMARK       I    between atoms: C3_4  and  N1_6 
REMARK    3  A    between atoms: N1_6  and  C4_8 
REMARK    4  A    between atoms: C7_12  and  C8_13 
REMARK    5  A    between atoms: N3_24  and  C15_25 
ROOT
HETATM    1  C8  UNL     1    -114.368 -16.586  87.664  1.00  0.00     0.029 A 
HETATM    2  C9  UNL     1    -115.103 -17.548  87.033  1.00  0.00     0.088 A 
HETATM    3 CL1  UNL     1    -116.107 -18.816  87.795  1.00  0.00    -0.075 Cl
HETATM    4  S2  UNL     1    -114.838 -17.252  85.379  1.00  0.00    -0.063 SA
HETATM    5  C10 UNL     1    -113.796 -15.909  85.517  1.00  0.00     0.097 A 
HETATM    6 CL2  UNL     1    -113.030 -14.957  84.223  1.00  0.00    -0.075 Cl
HETATM    7  C11 UNL     1    -113.677 -15.720  86.871  1.00  0.00     0.086 A 
HETATM    8  C12 UNL     1    -112.827 -14.613  87.387  1.00  0.00     0.102 C 
HETATM    9  N2  UNL     1    -112.170 -13.757  87.809  1.00  0.00    -0.191 NA
ENDROOT
BRANCH   1  10
HETATM   10  C7  UNL     1    -114.342 -16.514  89.174  1.00  0.00     0.020 A 
HETATM   11  C4  UNL     1    -115.336 -15.891  89.859  1.00  0.00     0.090 A 
HETATM   12  S1  UNL     1    -114.883 -16.060  91.490  1.00  0.00    -0.073 SA
HETATM   13  C5  UNL     1    -113.435 -16.920  91.274  1.00  0.00     0.015 A 
HETATM   14  C6  UNL     1    -113.335 -17.059  89.911  1.00  0.00    -0.024 A 
HETATM   15  C17 UNL     1    -112.382 -17.481  92.197  1.00  0.00     0.120 C 
HETATM   16  C13 UNL     1    -112.077 -17.815  89.477  1.00  0.00     0.085 C 
HETATM   17  C14 UNL     1    -110.904 -17.332  90.275  1.00  0.00     0.063 C 
HETATM   18  N3  UNL     1    -111.124 -17.111  91.643  1.00  0.00    -0.385 N 
HETATM   19  C18 UNL     1    -112.569 -18.933  92.445  1.00  0.00     0.038 C 
BRANCH  11  20
HETATM   20  N1  UNL     1    -116.519 -15.228  89.340  1.00  0.00    -0.296 N 
HETATM   21  C3  UNL     1    -117.725 -15.944  89.334  1.00  0.00     0.365 C 
HETATM   22  O2  UNL     1    -117.741 -17.121  89.773  1.00  0.00    -0.238 OA
ATOM     23  H1  UNL     1    -116.475 -14.271  88.990  1.00  0.00     0.171 HD
BRANCH  21  24
HETATM   24  O1  UNL     1    -118.884 -15.383  88.858  1.00  0.00    -0.304 OA
BRANCH  24  25
HETATM   25  C2  UNL     1    -119.414 -15.815  87.629  1.00  0.00     0.176 C 
HETATM   26  C1  UNL     1    -118.446 -15.747  86.494  1.00  0.00     0.034 C 
ENDBRANCH  24  25
ENDBRANCH  21  24
ENDBRANCH  11  20
BRANCH  18  27
HETATM   27  C15 UNL     1    -109.991 -17.335  92.497  1.00  0.00     0.118 C 
HETATM   28  C16 UNL     1    -108.722 -17.058  91.733  1.00  0.00     0.026 C 
ENDBRANCH  18  27
ENDBRANCH   1  10
TORSDOF 5
ENDMDL
MODEL 3
REMARK VINA RESULT: -6.704629179      3.828      6.624
REMARK  5 active torsions:
REMARK  status: ('A' for Active; 'I' for Inactive)
REMARK    1  A    between atoms: C2_2  and  O1_3 
REMARK    2  A    between atoms: O1_3  and  C3_4 
REMARK       I    between atoms: C3_4  and  N1_6 
REMARK    3  A    between atoms: N1_6  and  C4_8 
REMARK    4  A    between atoms: C7_12  and  C8_13 
REMARK    5  A    between atoms: N3_24  and  C15_25 
ROOT
HETATM    1  C8  UNL     1    -114.035 -16.316  88.543  1.00  0.00     0.029 A 
HETATM    2  C9  UNL     1    -113.170 -15.271  88.401  1.00  0.00     0.088 A 
HETATM    3 CL1  UNL     1    -112.444 -14.282  89.701  1.00  0.00    -0.075 Cl
HETATM    4  S2  UNL     1    -112.953 -15.140  86.718  1.00  0.00    -0.063 SA
HETATM    5  C10 UNL     1    -113.967 -16.419  86.223  1.00  0.00     0.097 A 
HETATM    6 CL2  UNL     1    -114.322 -16.984  84.573  1.00  0.00    -0.075 Cl
HETATM    7  C11 UNL     1    -114.459 -16.926  87.400  1.00  0.00     0.086 A 
HETATM    8  C12 UNL     1    -115.400 -18.077  87.368  1.00  0.00     0.102 C 
HETATM    9  N2  UNL     1    -116.134 -18.974  87.365  1.00  0.00    -0.191 NA
ENDROOT
BRANCH   1  10
HETATM   10  C7  UNL     1    -114.483 -16.753  89.920  1.00  0.00     0.020 A 
HETATM   11  C4  UNL     1    -115.679 -16.354  90.423  1.00  0.00     0.090 A 
HETATM   12  S1  UNL     1    -115.743 -17.077  91.961  1.00  0.00    -0.073 SA
HETATM   13  C5  UNL     1    -114.245 -17.876  91.940  1.00  0.00     0.015 A 
HETATM   14  C6  UNL     1    -113.718 -17.556  90.712  1.00  0.00    -0.024 A 
HETATM   15  C17 UNL     1    -113.493 -18.756  92.907  1.00  0.00     0.120 C 
HETATM   16  C13 UNL     1    -112.340 -18.175  90.471  1.00  0.00     0.085 C 
HETATM   17  C14 UNL     1    -111.507 -18.036  91.709  1.00  0.00     0.063 C 
HETATM   18  N3  UNL     1    -112.154 -18.276  92.932  1.00  0.00    -0.385 N 
HETATM   19  C18 UNL     1    -113.650 -20.199  92.590  1.00  0.00     0.038 C 
BRANCH  11  20
HETATM   20  N1  UNL     1    -116.686 -15.507  89.808  1.00  0.00    -0.296 N 
HETATM   21  C3  UNL     1    -117.865 -16.112  89.351  1.00  0.00     0.365 C 
HETATM   22  O2  UNL     1    -118.010 -17.353  89.488  1.00  0.00    -0.238 OA
ATOM     23  H1  UNL     1    -116.539 -14.502  89.711  1.00  0.00     0.171 HD
BRANCH  21  24
HETATM   24  O1  UNL     1    -118.861 -15.375  88.759  1.00  0.00    -0.304 OA
BRANCH  24  25
HETATM   25  C2  UNL     1    -119.204 -15.618  87.417  1.00  0.00     0.176 C 
HETATM   26  C1  UNL     1    -118.070 -15.446  86.461  1.00  0.00     0.034 C 
ENDBRANCH  24  25
ENDBRANCH  21  24
ENDBRANCH  11  20
BRANCH  18  27
HETATM   27  C15 UNL     1    -111.328 -18.819  93.973  1.00  0.00     0.118 C 
HETATM   28  C16 UNL     1    -109.901 -18.384  93.764  1.00  0.00     0.026 C 
ENDBRANCH  18  27
ENDBRANCH   1  10
TORSDOF 5
ENDMDL
MODEL 4
REMARK VINA RESULT: -6.696754773      3.485      4.762
REMARK  5 active torsions:
REMARK  status: ('A' for Active; 'I' for Inactive)
REMARK    1  A    between atoms: C2_2  and  O1_3 
REMARK    2  A    between atoms: O1_3  and  C3_4 
REMARK       I    between atoms: C3_4  and  N1_6 
REMARK    3  A    between atoms: N1_6  and  C4_8 
REMARK    4  A    between atoms: C7_12  and  C8_13 
REMARK    5  A    between atoms: N3_24  and  C15_25 
ROOT
HETATM    1  C8  UNL     1    -113.241 -15.947  89.695  1.00  0.00     0.029 A 
HETATM    2  C9  UNL     1    -112.351 -16.941  89.980  1.00  0.00     0.088 A 
HETATM    3 CL1  UNL     1    -112.721 -18.595  90.549  1.00  0.00    -0.075 Cl
HETATM    4  S2  UNL     1    -110.833 -16.238  89.668  1.00  0.00    -0.063 SA
HETATM    5  C10 UNL     1    -111.357 -14.690  89.180  1.00  0.00     0.097 A 
HETATM    6 CL2  UNL     1    -110.378 -13.296  88.665  1.00  0.00    -0.075 Cl
HETATM    7  C11 UNL     1    -112.724 -14.758  89.273  1.00  0.00     0.086 A 
HETATM    8  C12 UNL     1    -113.545 -13.570  88.920  1.00  0.00     0.102 C 
HETATM    9  N2  UNL     1    -114.203 -12.654  88.649  1.00  0.00    -0.191 NA
ENDROOT
BRANCH   1  10
HETATM   10  C7  UNL     1    -114.727 -16.185  89.852  1.00  0.00     0.020 A 
HETATM   11  C4  UNL     1    -115.360 -15.894  91.017  1.00  0.00     0.090 A 
HETATM   12  S1  UNL     1    -116.980 -16.321  90.724  1.00  0.00    -0.073 SA
HETATM   13  C5  UNL     1    -116.825 -16.865  89.123  1.00  0.00     0.015 A 
HETATM   14  C6  UNL     1    -115.490 -16.698  88.847  1.00  0.00    -0.024 A 
HETATM   15  C17 UNL     1    -117.773 -17.424  88.091  1.00  0.00     0.120 C 
HETATM   16  C13 UNL     1    -115.112 -17.137  87.430  1.00  0.00     0.085 C 
HETATM   17  C14 UNL     1    -115.793 -18.432  87.110  1.00  0.00     0.063 C 
HETATM   18  N3  UNL     1    -117.128 -18.560  87.526  1.00  0.00    -0.385 N 
HETATM   19  C18 UNL     1    -118.218 -16.393  87.121  1.00  0.00     0.038 C 
BRANCH  11  20
HETATM   20  N1  UNL     1    -114.804 -15.345  92.241  1.00  0.00    -0.296 N 
HETATM   21  C3  UNL     1    -114.427 -16.241  93.251  1.00  0.00     0.365 C 
HETATM   22  O2  UNL     1    -114.581 -17.474  93.066  1.00  0.00    -0.238 OA
ATOM     23  H1  UNL     1    -114.690 -14.338  92.362  1.00  0.00     0.171 HD
BRANCH  21  24
HETATM   24  O1  UNL     1    -113.894 -15.795  94.436  1.00  0.00    -0.304 OA
BRANCH  24  25
HETATM   25  C2  UNL     1    -112.713 -15.032  94.425  1.00  0.00     0.176 C 
HETATM   26  C1  UNL     1    -111.592 -15.660  93.665  1.00  0.00     0.034 C 
ENDBRANCH  24  25
ENDBRANCH  21  24
ENDBRANCH  11  20
BRANCH  18  27
HETATM   27  C15 UNL     1    -117.959 -19.385  86.696  1.00  0.00     0.118 C 
HETATM   28  C16 UNL     1    -117.209 -19.757  85.443  1.00  0.00     0.026 C 
ENDBRANCH  18  27
ENDBRANCH   1  10
TORSDOF 5
ENDMDL
MODEL 5
REMARK VINA RESULT: -6.576157770      2.421      3.120
REMARK  5 active torsions:
REMARK  status: ('A' for Active; 'I' for Inactive)
REMARK    1  A    between atoms: C2_2  and  O1_3 
REMARK    2  A    between atoms: O1_3  and  C3_4 
REMARK       I    between atoms: C3_4  and  N1_6 
REMARK    3  A    between atoms: N1_6  and  C4_8 
REMARK    4  A    between atoms: C7_12  and  C8_13 
REMARK    5  A    between atoms: N3_24  and  C15_25 
ROOT
HETATM    1  C8  UNL     1    -112.402 -15.016  89.252  1.00  0.00     0.029 A 
HETATM    2  C9  UNL     1    -112.591 -13.705  89.582  1.00  0.00     0.088 A 
HETATM    3 CL1  UNL     1    -113.257 -12.413  88.542  1.00  0.00    -0.075 Cl
HETATM    4  S2  UNL     1    -112.049 -13.602  91.191  1.00  0.00    -0.063 SA
HETATM    5  C10 UNL     1    -111.591 -15.229  91.418  1.00  0.00     0.097 A 
HETATM    6 CL2  UNL     1    -110.903 -16.000  92.867  1.00  0.00    -0.075 Cl
HETATM    7  C11 UNL     1    -111.875 -15.824  90.214  1.00  0.00     0.086 A 
HETATM    8  C12 UNL     1    -111.604 -17.275  90.029  1.00  0.00     0.102 C 
HETATM    9  N2  UNL     1    -111.399 -18.403  89.864  1.00  0.00    -0.191 NA
ENDROOT
BRANCH   1  10
HETATM   10  C7  UNL     1    -112.770 -15.516  87.872  1.00  0.00     0.020 A 
HETATM   11  C4  UNL     1    -111.836 -15.603  86.891  1.00  0.00     0.090 A 
HETATM   12  S1  UNL     1    -112.697 -16.200  85.552  1.00  0.00    -0.073 SA
HETATM   13  C5  UNL     1    -114.235 -16.328  86.263  1.00  0.00     0.015 A 
HETATM   14  C6  UNL     1    -114.038 -15.895  87.552  1.00  0.00    -0.024 A 
HETATM   15  C17 UNL     1    -115.594 -16.775  85.787  1.00  0.00     0.120 C 
HETATM   16  C13 UNL     1    -115.316 -15.921  88.394  1.00  0.00     0.085 C 
HETATM   17  C14 UNL     1    -116.458 -15.387  87.584  1.00  0.00     0.063 C 
HETATM   18  N3  UNL     1    -116.522 -15.796  86.243  1.00  0.00    -0.385 N 
HETATM   19  C18 UNL     1    -115.896 -18.174  86.183  1.00  0.00     0.038 C 
BRANCH  11  20
HETATM   20  N1  UNL     1    -110.424 -15.269  86.948  1.00  0.00    -0.296 N 
HETATM   21  C3  UNL     1    -110.029 -14.001  86.497  1.00  0.00     0.365 C 
HETATM   22  O2  UNL     1    -110.900 -13.206  86.064  1.00  0.00    -0.238 OA
ATOM     23  H1  UNL     1    -109.740 -15.936  87.306  1.00  0.00     0.171 HD
BRANCH  21  24
HETATM   24  O1  UNL     1    -108.711 -13.615  86.521  1.00  0.00    -0.304 OA
BRANCH  24  25
HETATM   25  C2  UNL     1    -108.063 -13.275  85.321  1.00  0.00     0.176 C 
HETATM   26  C1  UNL     1    -107.129 -12.116  85.443  1.00  0.00     0.034 C 
ENDBRANCH  24  25
ENDBRANCH  21  24
ENDBRANCH  11  20
BRANCH  18  27
HETATM   27  C15 UNL     1    -117.842 -15.900  85.689  1.00  0.00     0.118 C 
HETATM   28  C16 UNL     1    -118.860 -15.830  86.797  1.00  0.00     0.026 C 
ENDBRANCH  18  27
ENDBRANCH   1  10
TORSDOF 5
ENDMDL
