MODEL 1
REMARK VINA RESULT: -8.651866978      0.000      0.000
REMARK  5 active torsions:
REMARK  status: ('A' for Active; 'I' for Inactive)
REMARK    1  A    between atoms: C5_5  and  C6_6 
REMARK    2  A    between atoms: C8_9  and  C9_10 
REMARK    3  A    between atoms: C9_10  and  C10_11 
REMARK    4  A    between atoms: C10_11  and  C11_12 
REMARK    5  A    between atoms: C16_27  and  C17_28 
ROOT
HETATM    1  C1  UNL     1    -105.315 -13.561  83.108  1.00  0.00     0.033 C 
HETATM    2  C2  UNL     1    -106.658 -12.870  83.038  1.00  0.00     0.089 C 
HETATM    3  C3  UNL     1    -107.539 -13.267  84.210  1.00  0.00     0.026 C 
HETATM    4  C4  UNL     1    -108.003 -14.676  84.119  1.00  0.00     0.020 C 
HETATM    5  C5  UNL     1    -108.606 -15.053  82.825  1.00  0.00     0.107 C 
HETATM    6  C15 UNL     1    -108.235 -14.151  81.716  1.00  0.00     0.110 A 
HETATM    7  N4  UNL     1    -108.695 -14.145  80.426  1.00  0.00    -0.286 N 
ATOM      8  H4  UNL     1    -109.393 -14.787  80.048  1.00  0.00     0.188 HD
HETATM    9  N5  UNL     1    -108.107 -13.193  79.754  1.00  0.00    -0.282 N 
ATOM     10  H5  UNL     1    -108.271 -12.973  78.772  1.00  0.00     0.188 HD
HETATM   11  C16 UNL     1    -107.232 -12.538  80.583  1.00  0.00     0.158 A 
HETATM   12  N6  UNL     1    -107.340 -13.153  81.777  1.00  0.00    -0.313 N 
ENDROOT
BRANCH   5  13
HETATM   13  C6  UNL     1    -110.113 -15.071  82.879  1.00  0.00     0.054 A 
HETATM   14  C7  UNL     1    -110.921 -15.445  83.906  1.00  0.00     0.141 A 
HETATM   15  N1  UNL     1    -112.217 -15.295  83.495  1.00  0.00    -0.159 N 
HETATM   16  C8  UNL     1    -113.478 -15.444  83.942  1.00  0.00     0.050 A 
HETATM   17  C14 UNL     1    -112.205 -14.834  82.233  1.00  0.00     0.689 A 
HETATM   18  C13 UNL     1    -114.300 -15.049  82.885  1.00  0.00     0.132 A 
HETATM   19  N2  UNL     1    -113.488 -14.694  81.889  1.00  0.00    -0.199 N 
ATOM     20  H2  UNL     1    -113.806 -14.359  80.980  1.00  0.00     0.183 HD
HETATM   21  N3  UNL     1    -110.916 -14.702  81.869  1.00  0.00    -0.193 N 
ATOM     22  H3  UNL     1    -110.596 -14.372  80.958  1.00  0.00     0.184 HD
BRANCH  16  23
HETATM   23  C9  UNL     1    -113.957 -15.933  85.240  1.00  0.00     0.062 C 
BRANCH  23  24
HETATM   24  C10 UNL     1    -115.032 -16.931  85.265  1.00  0.00     0.048 C 
BRANCH  24  25
HETATM   25  C11 UNL     1    -116.071 -16.898  86.314  1.00  0.00     0.110 C 
HETATM   26  C12 UNL     1    -115.687 -15.845  87.398  1.00  0.00     0.050 C 
HETATM   27 CL1  UNL     1    -116.347 -18.386  87.186  1.00  0.00    -0.102 Cl
HETATM   28 CL2  UNL     1    -117.583 -16.203  85.621  1.00  0.00    -0.102 Cl
ENDBRANCH  24  25
ENDBRANCH  23  24
ENDBRANCH  16  23
ENDBRANCH   5  13
BRANCH  11  29
HETATM   29  C17 UNL     1    -106.406 -11.419  80.149  1.00  0.00     0.120 A 
HETATM   30  C18 UNL     1    -105.242 -10.889  80.590  1.00  0.00     0.043 A 
HETATM   31  C19 UNL     1    -104.922  -9.805  79.773  1.00  0.00     0.027 A 
HETATM   32  C20 UNL     1    -105.935  -9.731  78.853  1.00  0.00     0.142 A 
HETATM   33  O1  UNL     1    -106.770 -10.673  79.099  1.00  0.00    -0.319 OA
ENDBRANCH  11  29
TORSDOF 5
ENDMDL
MODEL 2
REMARK VINA RESULT: -8.513839394      4.262      6.558
REMARK  5 active torsions:
REMARK  status: ('A' for Active; 'I' for Inactive)
REMARK    1  A    between atoms: C5_5  and  C6_6 
REMARK    2  A    between atoms: C8_9  and  C9_10 
REMARK    3  A    between atoms: C9_10  and  C10_11 
REMARK    4  A    between atoms: C10_11  and  C11_12 
REMARK    5  A    between atoms: C16_27  and  C17_28 
ROOT
HETATM    1  C1  UNL     1    -109.419 -13.651  87.454  1.00  0.00     0.033 C 
HETATM    2  C2  UNL     1    -110.828 -13.671  86.904  1.00  0.00     0.089 C 
HETATM    3  C3  UNL     1    -111.804 -13.029  87.876  1.00  0.00     0.026 C 
HETATM    4  C4  UNL     1    -112.023 -13.858  89.090  1.00  0.00     0.020 C 
HETATM    5  C5  UNL     1    -112.355 -15.273  88.829  1.00  0.00     0.107 C 
HETATM    6  C15 UNL     1    -111.965 -15.733  87.481  1.00  0.00     0.110 A 
HETATM    7  N4  UNL     1    -112.220 -16.936  86.879  1.00  0.00    -0.286 N 
ATOM      8  H4  UNL     1    -112.742 -17.705  87.301  1.00  0.00     0.188 HD
HETATM    9  N5  UNL     1    -111.692 -16.951  85.686  1.00  0.00    -0.282 N 
ATOM     10  H5  UNL     1    -111.737 -17.728  85.028  1.00  0.00     0.188 HD
HETATM   11  C16 UNL     1    -111.067 -15.750  85.460  1.00  0.00     0.158 A 
HETATM   12  N6  UNL     1    -111.258 -15.030  86.583  1.00  0.00    -0.313 N 
ENDROOT
BRANCH   5  13
HETATM   13  C6  UNL     1    -113.831 -15.549  88.968  1.00  0.00     0.054 A 
HETATM   14  C7  UNL     1    -114.758 -15.720  87.989  1.00  0.00     0.141 A 
HETATM   15  N1  UNL     1    -115.966 -15.945  88.592  1.00  0.00    -0.159 N 
HETATM   16  C8  UNL     1    -117.253 -16.197  88.288  1.00  0.00     0.050 A 
HETATM   17  C14 UNL     1    -115.782 -15.913  89.923  1.00  0.00     0.689 A 
HETATM   18  C13 UNL     1    -117.909 -16.329  89.514  1.00  0.00     0.132 A 
HETATM   19  N2  UNL     1    -116.983 -16.150  90.457  1.00  0.00    -0.199 N 
ATOM     20  H2  UNL     1    -117.168 -16.189  91.459  1.00  0.00     0.183 HD
HETATM   21  N3  UNL     1    -114.476 -15.670  90.139  1.00  0.00    -0.193 N 
ATOM     22  H3  UNL     1    -114.041 -15.589  91.058  1.00  0.00     0.184 HD
BRANCH  16  23
HETATM   23  C9  UNL     1    -117.900 -16.301  86.975  1.00  0.00     0.062 C 
BRANCH  23  24
HETATM   24  C10 UNL     1    -117.524 -17.408  86.090  1.00  0.00     0.048 C 
BRANCH  24  25
HETATM   25  C11 UNL     1    -117.558 -18.805  86.568  1.00  0.00     0.110 C 
HETATM   26  C12 UNL     1    -117.439 -19.777  85.354  1.00  0.00     0.050 C 
HETATM   27 CL1  UNL     1    -118.997 -19.303  87.424  1.00  0.00    -0.102 Cl
HETATM   28 CL2  UNL     1    -116.045 -19.149  87.485  1.00  0.00    -0.102 Cl
ENDBRANCH  24  25
ENDBRANCH  23  24
ENDBRANCH  16  23
ENDBRANCH   5  13
BRANCH  11  29
HETATM   29  C17 UNL     1    -110.370 -15.433  84.221  1.00  0.00     0.120 A 
HETATM   30  C18 UNL     1    -109.065 -15.337  83.880  1.00  0.00     0.043 A 
HETATM   31  C19 UNL     1    -108.993 -14.993  82.529  1.00  0.00     0.027 A 
HETATM   32  C20 UNL     1    -110.294 -14.895  82.110  1.00  0.00     0.142 A 
HETATM   33  O1  UNL     1    -111.058 -15.154  83.107  1.00  0.00    -0.319 OA
ENDBRANCH  11  29
TORSDOF 5
ENDMDL
MODEL 3
REMARK VINA RESULT: -8.393776569      1.647      2.580
REMARK  5 active torsions:
REMARK  status: ('A' for Active; 'I' for Inactive)
REMARK    1  A    between atoms: C5_5  and  C6_6 
REMARK    2  A    between atoms: C8_9  and  C9_10 
REMARK    3  A    between atoms: C9_10  and  C10_11 
REMARK    4  A    between atoms: C10_11  and  C11_12 
REMARK    5  A    between atoms: C16_27  and  C17_28 
ROOT
HETATM    1  C1  UNL     1    -107.271 -14.361  85.092  1.00  0.00     0.033 C 
HETATM    2  C2  UNL     1    -108.501 -13.695  84.515  1.00  0.00     0.089 C 
HETATM    3  C3  UNL     1    -109.630 -13.657  85.531  1.00  0.00     0.026 C 
HETATM    4  C4  UNL     1    -110.203 -15.004  85.793  1.00  0.00     0.020 C 
HETATM    5  C5  UNL     1    -110.573 -15.771  84.587  1.00  0.00     0.107 C 
HETATM    6  C15 UNL     1    -109.904 -15.299  83.358  1.00  0.00     0.110 A 
HETATM    7  N4  UNL     1    -110.098 -15.707  82.065  1.00  0.00    -0.286 N 
ATOM      8  H4  UNL     1    -110.767 -16.418  81.768  1.00  0.00     0.188 HD
HETATM    9  N5  UNL     1    -109.299 -15.048  81.271  1.00  0.00    -0.282 N 
ATOM     10  H5  UNL     1    -109.244 -15.161  80.259  1.00  0.00     0.188 HD
HETATM   11  C16 UNL     1    -108.545 -14.179  82.019  1.00  0.00     0.158 A 
HETATM   12  N6  UNL     1    -108.945 -14.361  83.293  1.00  0.00    -0.313 N 
ENDROOT
BRANCH   5  13
HETATM   13  C6  UNL     1    -112.055 -15.728  84.314  1.00  0.00     0.054 A 
HETATM   14  C7  UNL     1    -113.081 -16.025  85.154  1.00  0.00     0.141 A 
HETATM   15  N1  UNL     1    -114.251 -15.843  84.467  1.00  0.00    -0.159 N 
HETATM   16  C8  UNL     1    -115.583 -15.924  84.635  1.00  0.00     0.050 A 
HETATM   17  C14 UNL     1    -113.945 -15.440  83.221  1.00  0.00     0.689 A 
HETATM   18  C13 UNL     1    -116.140 -15.545  83.411  1.00  0.00     0.132 A 
HETATM   19  N2  UNL     1    -115.116 -15.267  82.603  1.00  0.00    -0.199 N 
ATOM     20  H2  UNL     1    -115.215 -14.961  81.635  1.00  0.00     0.183 HD
HETATM   21  N3  UNL     1    -112.603 -15.375  83.141  1.00  0.00    -0.193 N 
ATOM     22  H3  UNL     1    -112.080 -15.098  82.310  1.00  0.00     0.184 HD
BRANCH  16  23
HETATM   23  C9  UNL     1    -116.353 -16.335  85.815  1.00  0.00     0.062 C 
BRANCH  23  24
HETATM   24  C10 UNL     1    -117.319 -17.431  85.680  1.00  0.00     0.048 C 
BRANCH  24  25
HETATM   25  C11 UNL     1    -117.145 -18.691  86.431  1.00  0.00     0.110 C 
HETATM   26  C12 UNL     1    -118.460 -19.027  87.199  1.00  0.00     0.050 C 
HETATM   27 CL1  UNL     1    -115.882 -18.713  87.638  1.00  0.00    -0.102 Cl
HETATM   28 CL2  UNL     1    -117.021 -20.057  85.264  1.00  0.00    -0.102 Cl
ENDBRANCH  24  25
ENDBRANCH  23  24
ENDBRANCH  16  23
ENDBRANCH   5  13
BRANCH  11  29
HETATM   29  C17 UNL     1    -107.544 -13.290  81.444  1.00  0.00     0.120 A 
HETATM   30  C18 UNL     1    -106.261 -12.999  81.757  1.00  0.00     0.043 A 
HETATM   31  C19 UNL     1    -105.794 -12.057  80.840  1.00  0.00     0.027 A 
HETATM   32  C20 UNL     1    -106.846 -11.818  79.995  1.00  0.00     0.142 A 
HETATM   33  O1  UNL     1    -107.835 -12.544  80.372  1.00  0.00    -0.319 OA
ENDBRANCH  11  29
TORSDOF 5
ENDMDL
MODEL 4
REMARK VINA RESULT: -8.390848033      6.451      7.640
REMARK  5 active torsions:
REMARK  status: ('A' for Active; 'I' for Inactive)
REMARK    1  A    between atoms: C5_5  and  C6_6 
REMARK    2  A    between atoms: C8_9  and  C9_10 
REMARK    3  A    between atoms: C9_10  and  C10_11 
REMARK    4  A    between atoms: C10_11  and  C11_12 
REMARK    5  A    between atoms: C16_27  and  C17_28 
ROOT
HETATM    1  C1  UNL     1    -109.226 -16.612  89.733  1.00  0.00     0.033 C 
HETATM    2  C2  UNL     1    -110.712 -16.325  89.735  1.00  0.00     0.089 C 
HETATM    3  C3  UNL     1    -111.489 -17.464  89.096  1.00  0.00     0.026 C 
HETATM    4  C4  UNL     1    -111.275 -17.543  87.628  1.00  0.00     0.020 C 
HETATM    5  C5  UNL     1    -111.461 -16.272  86.900  1.00  0.00     0.107 C 
HETATM    6  C15 UNL     1    -111.365 -15.077  87.762  1.00  0.00     0.110 A 
HETATM    7  N4  UNL     1    -111.593 -13.766  87.439  1.00  0.00    -0.286 N 
ATOM      8  H4  UNL     1    -111.879 -13.429  86.519  1.00  0.00     0.188 HD
HETATM    9  N5  UNL     1    -111.389 -13.014  88.485  1.00  0.00    -0.282 N 
ATOM     10  H5  UNL     1    -111.490 -11.999  88.514  1.00  0.00     0.188 HD
HETATM   11  C16 UNL     1    -111.015 -13.808  89.540  1.00  0.00     0.158 A 
HETATM   12  N6  UNL     1    -111.014 -15.067  89.058  1.00  0.00    -0.313 N 
ENDROOT
BRANCH   5  13
HETATM   13  C6  UNL     1    -112.800 -16.199  86.210  1.00  0.00     0.054 A 
HETATM   14  C7  UNL     1    -114.042 -16.291  86.755  1.00  0.00     0.141 A 
HETATM   15  N1  UNL     1    -114.954 -16.169  85.742  1.00  0.00    -0.159 N 
HETATM   16  C8  UNL     1    -116.283 -16.148  85.532  1.00  0.00     0.050 A 
HETATM   17  C14 UNL     1    -114.280 -16.005  84.591  1.00  0.00     0.689 A 
HETATM   18  C13 UNL     1    -116.442 -15.959  84.158  1.00  0.00     0.132 A 
HETATM   19  N2  UNL     1    -115.214 -15.880  83.644  1.00  0.00    -0.199 N 
ATOM     20  H2  UNL     1    -115.013 -15.741  82.654  1.00  0.00     0.183 HD
HETATM   21  N3  UNL     1    -112.968 -16.026  84.890  1.00  0.00    -0.193 N 
ATOM     22  H3  UNL     1    -112.213 -15.925  84.212  1.00  0.00     0.184 HD
BRANCH  16  23
HETATM   23  C9  UNL     1    -117.383 -16.308  86.490  1.00  0.00     0.062 C 
BRANCH  23  24
HETATM   24  C10 UNL     1    -118.245 -17.489  86.382  1.00  0.00     0.048 C 
BRANCH  24  25
HETATM   25  C11 UNL     1    -117.742 -18.831  86.743  1.00  0.00     0.110 C 
HETATM   26  C12 UNL     1    -118.892 -19.665  87.385  1.00  0.00     0.050 C 
HETATM   27 CL1  UNL     1    -116.427 -18.888  87.892  1.00  0.00    -0.102 Cl
HETATM   28 CL2  UNL     1    -117.393 -19.752  85.235  1.00  0.00    -0.102 Cl
ENDBRANCH  24  25
ENDBRANCH  23  24
ENDBRANCH  16  23
ENDBRANCH   5  13
BRANCH  11  29
HETATM   29  C17 UNL     1    -110.707 -13.286  90.864  1.00  0.00     0.120 A 
HETATM   30  C18 UNL     1    -109.613 -12.705  91.409  1.00  0.00     0.043 A 
HETATM   31  C19 UNL     1    -109.899 -12.408  92.742  1.00  0.00     0.027 A 
HETATM   32  C20 UNL     1    -111.186 -12.836  92.943  1.00  0.00     0.142 A 
HETATM   33  O1  UNL     1    -111.619 -13.334  91.843  1.00  0.00    -0.319 OA
ENDBRANCH  11  29
TORSDOF 5
ENDMDL
MODEL 5
REMARK VINA RESULT: -8.368234998      6.267      7.841
REMARK  5 active torsions:
REMARK  status: ('A' for Active; 'I' for Inactive)
REMARK    1  A    between atoms: C5_5  and  C6_6 
REMARK    2  A    between atoms: C8_9  and  C9_10 
REMARK    3  A    between atoms: C9_10  and  C10_11 
REMARK    4  A    between atoms: C10_11  and  C11_12 
REMARK    5  A    between atoms: C16_27  and  C17_28 
ROOT
HETATM    1  C1  UNL     1    -109.607 -16.693  89.784  1.00  0.00     0.033 C 
HETATM    2  C2  UNL     1    -111.098 -16.519  89.599  1.00  0.00     0.089 C 
HETATM    3  C3  UNL     1    -111.665 -17.589  88.681  1.00  0.00     0.026 C 
HETATM    4  C4  UNL     1    -111.238 -17.408  87.269  1.00  0.00     0.020 C 
HETATM    5  C5  UNL     1    -111.441 -16.051  86.723  1.00  0.00     0.107 C 
HETATM    6  C15 UNL     1    -111.583 -15.012  87.763  1.00  0.00     0.110 A 
HETATM    7  N4  UNL     1    -111.887 -13.685  87.613  1.00  0.00    -0.286 N 
ATOM      8  H4  UNL     1    -112.071 -13.222  86.722  1.00  0.00     0.188 HD
HETATM    9  N5  UNL     1    -111.906 -13.104  88.780  1.00  0.00    -0.282 N 
ATOM     10  H5  UNL     1    -112.108 -12.118  88.948  1.00  0.00     0.188 HD
HETATM   11  C16 UNL     1    -111.612 -14.033  89.746  1.00  0.00     0.158 A 
HETATM   12  N6  UNL     1    -111.421 -15.191  89.084  1.00  0.00    -0.313 N 
ENDROOT
BRANCH   5  13
HETATM   13  C6  UNL     1    -112.669 -15.961  85.854  1.00  0.00     0.054 A 
HETATM   14  C7  UNL     1    -113.956 -16.265  86.169  1.00  0.00     0.141 A 
HETATM   15  N1  UNL     1    -114.725 -16.028  85.062  1.00  0.00    -0.159 N 
HETATM   16  C8  UNL     1    -116.005 -16.082  84.650  1.00  0.00     0.050 A 
HETATM   17  C14 UNL     1    -113.920 -15.585  84.081  1.00  0.00     0.689 A 
HETATM   18  C13 UNL     1    -115.991 -15.643  83.325  1.00  0.00     0.132 A 
HETATM   19  N2  UNL     1    -114.721 -15.359  83.036  1.00  0.00    -0.199 N 
ATOM     20  H2  UNL     1    -114.400 -15.014  82.131  1.00  0.00     0.183 HD
HETATM   21  N3  UNL     1    -112.670 -15.550  84.577  1.00  0.00    -0.193 N 
ATOM     22  H3  UNL     1    -111.843 -15.254  84.057  1.00  0.00     0.184 HD
BRANCH  16  23
HETATM   23  C9  UNL     1    -117.203 -16.520  85.376  1.00  0.00     0.062 C 
BRANCH  23  24
HETATM   24  C10 UNL     1    -117.313 -17.929  85.769  1.00  0.00     0.048 C 
BRANCH  24  25
HETATM   25  C11 UNL     1    -117.550 -18.306  87.178  1.00  0.00     0.110 C 
HETATM   26  C12 UNL     1    -116.240 -18.889  87.790  1.00  0.00     0.050 C 
HETATM   27 CL1  UNL     1    -118.779 -19.514  87.466  1.00  0.00    -0.102 Cl
HETATM   28 CL2  UNL     1    -117.798 -16.810  88.152  1.00  0.00    -0.102 Cl
ENDBRANCH  24  25
ENDBRANCH  23  24
ENDBRANCH  16  23
ENDBRANCH   5  13
BRANCH  11  29
HETATM   29  C17 UNL     1    -111.545 -13.716  91.166  1.00  0.00     0.120 A 
HETATM   30  C18 UNL     1    -110.797 -12.860  91.900  1.00  0.00     0.043 A 
HETATM   31  C19 UNL     1    -111.174 -12.992  93.237  1.00  0.00     0.027 A 
HETATM   32  C20 UNL     1    -112.157 -13.946  93.246  1.00  0.00     0.142 A 
HETATM   33  O1  UNL     1    -112.345 -14.340  92.040  1.00  0.00    -0.319 OA
ENDBRANCH  11  29
TORSDOF 5
ENDMDL
