MODEL 1
REMARK VINA RESULT: -8.966248101      0.000      0.000
REMARK  16 active torsions:
REMARK  status: ('A' for Active; 'I' for Inactive)
REMARK    1  A    between atoms: C2_2  and  C3_3 
REMARK    2  A    between atoms: C3_3  and  C4_4 
REMARK    3  A    between atoms: C4_4  and  N1_5 
REMARK    4  A    between atoms: C4_4  and  C19_26 
REMARK    5  A    between atoms: N1_5  and  C5_7 
REMARK    6  A    between atoms: C5_7  and  O1_8 
REMARK    7  A    between atoms: C5_7  and  C6_10 
REMARK    8  A    between atoms: C15_20  and  O3_22 
REMARK    9  A    between atoms: C19_26  and  O4_27 
REMARK   10  A    between atoms: C19_26  and  N3_29 
REMARK   11  A    between atoms: N3_29  and  C20_31 
REMARK   12  A    between atoms: C20_31  and  C21_32 
REMARK   13  A    between atoms: C20_31  and  C23_36 
REMARK   14  A    between atoms: C21_32  and  C22_33 
REMARK   15  A    between atoms: C23_36  and  C24_37 
REMARK       I    between atoms: N4_41  and  C28_42 
REMARK   16  A    between atoms: C28_42  and  C29_44 
ROOT
HETATM    1  O3  UNL     1      20.439  -3.307 102.351  1.00  0.00    -0.272 OA
HETATM    2  C17 UNL     1      19.876  -3.316 103.616  1.00  0.00     0.229 C 
HETATM    3  N2  UNL     1      19.416  -3.315 104.692  1.00  0.00    -0.164 NA
ENDROOT
BRANCH   1   4
HETATM    4  C15 UNL     1      20.818  -2.080 101.746  1.00  0.00     0.086 C 
HETATM    5  C14 UNL     1      19.610  -1.192 101.612  1.00  0.00     0.118 C 
HETATM    6  C13 UNL     1      18.478  -1.875 100.943  1.00  0.00     0.138 C 
HETATM    7  C12 UNL     1      18.244  -2.578  99.699  1.00  0.00     0.093 C 
HETATM    8  O2  UNL     1      17.463  -1.834 101.631  1.00  0.00    -0.297 OA
HETATM    9  C6  UNL     1      18.855  -3.971  99.793  1.00  0.00     0.010 C 
HETATM   10  C11 UNL     1      18.757  -1.917  98.484  1.00  0.00     0.021 C 
HETATM   11  C7  UNL     1      20.151  -4.025  99.622  1.00  0.00    -0.048 C 
HETATM   12  C8  UNL     1      20.884  -5.339  99.707  1.00  0.00     0.049 C 
HETATM   13  C9  UNL     1      20.934  -2.794  99.329  1.00  0.00    -0.070 C 
HETATM   14  C10 UNL     1      20.250  -1.818  98.426  1.00  0.00     0.036 C 
HETATM   15  C18 UNL     1      21.617  -2.202 100.514  1.00  0.00     0.074 C 
HETATM   16  C16 UNL     1      21.723  -1.415 102.802  1.00  0.00     0.048 C 
BRANCH   9  17
HETATM   17  C5  UNL     1      17.928  -5.034 100.070  1.00  0.00     0.144 C 
BRANCH  17  18
HETATM   18  N1  UNL     1      17.505  -5.681 101.209  1.00  0.00    -0.358 N 
ATOM     19  H1  UNL     1      18.178  -6.264 101.706  1.00  0.00     0.162 HD
BRANCH  18  20
HETATM   20  C4  UNL     1      16.121  -5.581 101.760  1.00  0.00     0.158 C 
BRANCH  20  21
HETATM   21  C3  UNL     1      15.401  -4.361 101.433  1.00  0.00     0.033 C 
BRANCH  21  22
HETATM   22  C2  UNL     1      14.218  -4.615 100.524  1.00  0.00    -0.002 C 
HETATM   23  C1  UNL     1      13.244  -5.584 101.211  1.00  0.00     0.005 C 
ENDBRANCH  21  22
ENDBRANCH  20  21
BRANCH  20  24
HETATM   24  C19 UNL     1      16.363  -5.749 103.216  1.00  0.00     0.139 C 
BRANCH  24  25
HETATM   25  O4  UNL     1      15.302  -5.895 103.962  1.00  0.00    -0.348 OA
ATOM     26  H4  UNL     1      15.160  -6.763 104.323  1.00  0.00     0.219 HD
ENDBRANCH  24  25
BRANCH  24  27
HETATM   27  N3  UNL     1      17.586  -5.782 103.893  1.00  0.00    -0.346 N 
ATOM     28  H3  UNL     1      18.172  -4.947 103.873  1.00  0.00     0.167 HD
BRANCH  27  29
HETATM   29  C20 UNL     1      18.071  -6.954 104.629  1.00  0.00    -0.006 C 
BRANCH  29  30
HETATM   30  C21 UNL     1      17.260  -8.147 104.491  1.00  0.00     0.123 C 
BRANCH  30  31
HETATM   31  C22 UNL     1      17.489  -9.109 103.385  1.00  0.00     0.358 C 
HETATM   32  F1  UNL     1      17.572 -10.381 104.008  1.00  0.00    -0.214 F 
HETATM   33  F2  UNL     1      18.750  -8.934 102.799  1.00  0.00    -0.214 F 
ENDBRANCH  30  31
ENDBRANCH  29  30
BRANCH  29  34
HETATM   34  C23 UNL     1      18.835  -6.607 105.844  1.00  0.00     0.059 C 
BRANCH  34  35
HETATM   35  C24 UNL     1      19.793  -7.605 106.350  1.00  0.00     0.009 C 
HETATM   36  C25 UNL     1      20.311  -8.652 105.435  1.00  0.00     0.008 C 
HETATM   37  C26 UNL     1      20.099 -10.056 106.052  1.00  0.00     0.020 C 
HETATM   38  C27 UNL     1      20.966 -10.123 107.311  1.00  0.00     0.126 C 
HETATM   39  N4  UNL     1      20.700  -8.947 108.110  1.00  0.00    -0.350 N 
HETATM   40  C28 UNL     1      21.511  -8.486 109.165  1.00  0.00     0.238 C 
HETATM   41  C32 UNL     1      19.466  -8.217 107.702  1.00  0.00     0.130 C 
HETATM   42  O5  UNL     1      21.107  -7.429 109.767  1.00  0.00    -0.272 OA
BRANCH  40  43
HETATM   43  C29 UNL     1      22.767  -9.096 109.636  1.00  0.00     0.092 C 
HETATM   44  C30 UNL     1      22.513 -10.598 109.811  1.00  0.00     0.038 C 
HETATM   45  C31 UNL     1      23.923  -8.921 108.674  1.00  0.00     0.038 C 
HETATM   46  S1  UNL     1      23.235  -8.373 111.251  1.00  0.00    -0.077 SA
ENDBRANCH  40  43
ENDBRANCH  34  35
ENDBRANCH  29  34
ENDBRANCH  27  29
ENDBRANCH  24  27
ENDBRANCH  20  24
ENDBRANCH  18  20
ENDBRANCH  17  18
BRANCH  17  47
HETATM   47  O1  UNL     1      17.336  -5.509  98.976  1.00  0.00    -0.346 OA
ATOM     48  H1  UNL     1      16.396  -5.367  98.988  1.00  0.00     0.219 HD
ENDBRANCH  17  47
ENDBRANCH   9  17
ENDBRANCH   1   4
TORSDOF 16
ENDMDL
MODEL 2
REMARK VINA RESULT: -8.946091288      4.126      8.674
REMARK  16 active torsions:
REMARK  status: ('A' for Active; 'I' for Inactive)
REMARK    1  A    between atoms: C2_2  and  C3_3 
REMARK    2  A    between atoms: C3_3  and  C4_4 
REMARK    3  A    between atoms: C4_4  and  N1_5 
REMARK    4  A    between atoms: C4_4  and  C19_26 
REMARK    5  A    between atoms: N1_5  and  C5_7 
REMARK    6  A    between atoms: C5_7  and  O1_8 
REMARK    7  A    between atoms: C5_7  and  C6_10 
REMARK    8  A    between atoms: C15_20  and  O3_22 
REMARK    9  A    between atoms: C19_26  and  O4_27 
REMARK   10  A    between atoms: C19_26  and  N3_29 
REMARK   11  A    between atoms: N3_29  and  C20_31 
REMARK   12  A    between atoms: C20_31  and  C21_32 
REMARK   13  A    between atoms: C20_31  and  C23_36 
REMARK   14  A    between atoms: C21_32  and  C22_33 
REMARK   15  A    between atoms: C23_36  and  C24_37 
REMARK       I    between atoms: N4_41  and  C28_42 
REMARK   16  A    between atoms: C28_42  and  C29_44 
ROOT
HETATM    1  O3  UNL     1      20.162  -0.422 100.354  1.00  0.00    -0.272 OA
HETATM    2  C17 UNL     1      20.305   0.908 100.710  1.00  0.00     0.229 C 
HETATM    3  N2  UNL     1      20.446   2.030 101.013  1.00  0.00    -0.164 NA
ENDROOT
BRANCH   1   4
HETATM    4  C15 UNL     1      20.861  -0.941  99.233  1.00  0.00     0.086 C 
HETATM    5  C14 UNL     1      20.058  -2.052  98.611  1.00  0.00     0.118 C 
HETATM    6  C13 UNL     1      19.651  -3.077  99.601  1.00  0.00     0.138 C 
HETATM    7  C12 UNL     1      20.295  -3.931 100.575  1.00  0.00     0.093 C 
HETATM    8  O2  UNL     1      18.435  -3.247  99.590  1.00  0.00    -0.297 OA
HETATM    9  C6  UNL     1      20.673  -3.098 101.794  1.00  0.00     0.010 C 
HETATM   10  C11 UNL     1      21.493  -4.650 100.104  1.00  0.00     0.021 C 
HETATM   11  C7  UNL     1      21.754  -2.373 101.661  1.00  0.00    -0.048 C 
HETATM   12  C8  UNL     1      22.229  -1.488 102.785  1.00  0.00     0.049 C 
HETATM   13  C9  UNL     1      22.547  -2.409 100.403  1.00  0.00    -0.070 C 
HETATM   14  C10 UNL     1      22.649  -3.758  99.766  1.00  0.00     0.036 C 
HETATM   15  C18 UNL     1      22.276  -1.278  99.470  1.00  0.00     0.074 C 
HETATM   16  C16 UNL     1      20.843   0.220  98.219  1.00  0.00     0.048 C 
BRANCH   9  17
HETATM   17  C5  UNL     1      19.784  -3.211 102.918  1.00  0.00     0.144 C 
BRANCH  17  18
HETATM   18  N1  UNL     1      19.631  -4.113 103.947  1.00  0.00    -0.358 N 
ATOM     19  H1  UNL     1      20.427  -4.279 104.561  1.00  0.00     0.162 HD
BRANCH  18  20
HETATM   20  C4  UNL     1      18.368  -4.863 104.216  1.00  0.00     0.158 C 
BRANCH  20  21
HETATM   21  C3  UNL     1      18.477  -5.955 105.169  1.00  0.00     0.033 C 
BRANCH  21  22
HETATM   22  C2  UNL     1      19.570  -5.723 106.192  1.00  0.00    -0.002 C 
HETATM   23  C1  UNL     1      19.802  -7.011 106.994  1.00  0.00     0.005 C 
ENDBRANCH  21  22
ENDBRANCH  20  21
BRANCH  20  24
HETATM   24  C19 UNL     1      17.984  -5.309 102.852  1.00  0.00     0.139 C 
BRANCH  24  25
HETATM   25  O4  UNL     1      18.509  -6.432 102.446  1.00  0.00    -0.348 OA
ATOM     26  H4  UNL     1      18.188  -6.769 101.617  1.00  0.00     0.219 HD
ENDBRANCH  24  25
BRANCH  24  27
HETATM   27  N3  UNL     1      17.119  -4.684 101.949  1.00  0.00    -0.346 N 
ATOM     28  H3  UNL     1      17.420  -3.809 101.519  1.00  0.00     0.167 HD
BRANCH  27  29
HETATM   29  C20 UNL     1      15.804  -5.220 101.586  1.00  0.00    -0.006 C 
BRANCH  29  30
HETATM   30  C21 UNL     1      15.205  -6.102 102.569  1.00  0.00     0.123 C 
BRANCH  30  31
HETATM   31  C22 UNL     1      13.943  -5.739 103.259  1.00  0.00     0.358 C 
HETATM   32  F1  UNL     1      12.922  -6.431 102.558  1.00  0.00    -0.214 F 
HETATM   33  F2  UNL     1      13.623  -4.386 103.078  1.00  0.00    -0.214 F 
ENDBRANCH  30  31
ENDBRANCH  29  30
BRANCH  29  34
HETATM   34  C23 UNL     1      15.605  -5.348 100.129  1.00  0.00     0.059 C 
BRANCH  34  35
HETATM   35  C24 UNL     1      14.779  -4.326  99.464  1.00  0.00     0.009 C 
HETATM   36  C25 UNL     1      13.325  -4.258  99.753  1.00  0.00     0.008 C 
HETATM   37  C26 UNL     1      12.514  -4.294  98.435  1.00  0.00     0.020 C 
HETATM   38  C27 UNL     1      12.856  -3.015  97.668  1.00  0.00     0.126 C 
HETATM   39  N4  UNL     1      14.296  -2.887  97.615  1.00  0.00    -0.350 N 
HETATM   40  C28 UNL     1      14.992  -1.710  97.283  1.00  0.00     0.238 C 
HETATM   41  C32 UNL     1      15.018  -4.142  97.975  1.00  0.00     0.130 C 
HETATM   42  O5  UNL     1      16.271  -1.791  97.277  1.00  0.00    -0.272 OA
BRANCH  40  43
HETATM   43  C29 UNL     1      14.395  -0.405  96.947  1.00  0.00     0.092 C 
HETATM   44  C30 UNL     1      13.630  -0.573  95.628  1.00  0.00     0.038 C 
HETATM   45  C31 UNL     1      13.427   0.107  97.992  1.00  0.00     0.038 C 
HETATM   46  S1  UNL     1      15.719   0.839  96.719  1.00  0.00    -0.077 SA
ENDBRANCH  40  43
ENDBRANCH  34  35
ENDBRANCH  29  34
ENDBRANCH  27  29
ENDBRANCH  24  27
ENDBRANCH  20  24
ENDBRANCH  18  20
ENDBRANCH  17  18
BRANCH  17  47
HETATM   47  O1  UNL     1      18.901  -2.217 102.988  1.00  0.00    -0.346 OA
ATOM     48  H1  UNL     1      19.237  -1.475 103.479  1.00  0.00     0.219 HD
ENDBRANCH  17  47
ENDBRANCH   9  17
ENDBRANCH   1   4
TORSDOF 16
ENDMDL
MODEL 3
REMARK VINA RESULT: -8.926037512      2.312      3.274
REMARK  16 active torsions:
REMARK  status: ('A' for Active; 'I' for Inactive)
REMARK    1  A    between atoms: C2_2  and  C3_3 
REMARK    2  A    between atoms: C3_3  and  C4_4 
REMARK    3  A    between atoms: C4_4  and  N1_5 
REMARK    4  A    between atoms: C4_4  and  C19_26 
REMARK    5  A    between atoms: N1_5  and  C5_7 
REMARK    6  A    between atoms: C5_7  and  O1_8 
REMARK    7  A    between atoms: C5_7  and  C6_10 
REMARK    8  A    between atoms: C15_20  and  O3_22 
REMARK    9  A    between atoms: C19_26  and  O4_27 
REMARK   10  A    between atoms: C19_26  and  N3_29 
REMARK   11  A    between atoms: N3_29  and  C20_31 
REMARK   12  A    between atoms: C20_31  and  C21_32 
REMARK   13  A    between atoms: C20_31  and  C23_36 
REMARK   14  A    between atoms: C21_32  and  C22_33 
REMARK   15  A    between atoms: C23_36  and  C24_37 
REMARK       I    between atoms: N4_41  and  C28_42 
REMARK   16  A    between atoms: C28_42  and  C29_44 
ROOT
HETATM    1  O3  UNL     1      20.310  -1.872 101.926  1.00  0.00    -0.272 OA
HETATM    2  C17 UNL     1      19.847  -2.232 103.180  1.00  0.00     0.229 C 
HETATM    3  N2  UNL     1      19.468  -2.551 104.241  1.00  0.00    -0.164 NA
ENDROOT
BRANCH   1   4
HETATM    4  C15 UNL     1      21.685  -1.579 101.728  1.00  0.00     0.086 C 
HETATM    5  C14 UNL     1      21.825  -0.519 100.669  1.00  0.00     0.118 C 
HETATM    6  C13 UNL     1      21.092  -0.861  99.427  1.00  0.00     0.138 C 
HETATM    7  C12 UNL     1      21.046  -1.960  98.486  1.00  0.00     0.093 C 
HETATM    8  O2  UNL     1      20.311   0.032  99.112  1.00  0.00    -0.297 OA
HETATM    9  C6  UNL     1      20.263  -3.112  99.106  1.00  0.00     0.010 C 
HETATM   10  C11 UNL     1      22.353  -2.467  98.030  1.00  0.00     0.021 C 
HETATM   11  C7  UNL     1      20.926  -3.834  99.973  1.00  0.00    -0.048 C 
HETATM   12  C8  UNL     1      20.265  -4.993 100.673  1.00  0.00     0.049 C 
HETATM   13  C9  UNL     1      22.350  -3.537 100.283  1.00  0.00    -0.070 C 
HETATM   14  C10 UNL     1      23.171  -3.109  99.108  1.00  0.00     0.036 C 
HETATM   15  C18 UNL     1      22.558  -2.749 101.532  1.00  0.00     0.074 C 
HETATM   16  C16 UNL     1      22.114  -0.919 103.053  1.00  0.00     0.048 C 
BRANCH   9  17
HETATM   17  C5  UNL     1      18.902  -3.240  98.665  1.00  0.00     0.144 C 
BRANCH  17  18
HETATM   18  N1  UNL     1      17.686  -2.779  99.118  1.00  0.00    -0.358 N 
ATOM     19  H1  UNL     1      17.672  -1.905  99.643  1.00  0.00     0.162 HD
BRANCH  18  20
HETATM   20  C4  UNL     1      16.389  -3.481  98.888  1.00  0.00     0.158 C 
BRANCH  20  21
HETATM   21  C3  UNL     1      15.201  -2.646  98.961  1.00  0.00     0.033 C 
BRANCH  21  22
HETATM   22  C2  UNL     1      13.939  -3.408  98.616  1.00  0.00    -0.002 C 
HETATM   23  C1  UNL     1      14.008  -3.879  97.156  1.00  0.00     0.005 C 
ENDBRANCH  21  22
ENDBRANCH  20  21
BRANCH  20  24
HETATM   24  C19 UNL     1      16.429  -4.539  99.931  1.00  0.00     0.139 C 
BRANCH  24  25
HETATM   25  O4  UNL     1      16.807  -5.723  99.535  1.00  0.00    -0.348 OA
ATOM     26  H4  UNL     1      16.197  -6.433  99.695  1.00  0.00     0.219 HD
ENDBRANCH  24  25
BRANCH  24  27
HETATM   27  N3  UNL     1      16.123  -4.425 101.291  1.00  0.00    -0.346 N 
ATOM     28  H3  UNL     1      15.730  -3.546 101.626  1.00  0.00     0.167 HD
BRANCH  27  29
HETATM   29  C20 UNL     1      16.339  -5.503 102.261  1.00  0.00    -0.006 C 
BRANCH  29  30
HETATM   30  C21 UNL     1      15.162  -6.285 102.584  1.00  0.00     0.123 C 
BRANCH  30  31
HETATM   31  C22 UNL     1      13.964  -5.655 103.194  1.00  0.00     0.358 C 
HETATM   32  F1  UNL     1      13.785  -6.319 104.435  1.00  0.00    -0.214 F 
HETATM   33  F2  UNL     1      12.799  -5.956 102.475  1.00  0.00    -0.214 F 
ENDBRANCH  30  31
ENDBRANCH  29  30
BRANCH  29  34
HETATM   34  C23 UNL     1      17.436  -5.227 103.210  1.00  0.00     0.059 C 
BRANCH  34  35
HETATM   35  C24 UNL     1      18.141  -6.384 103.787  1.00  0.00     0.009 C 
HETATM   36  C25 UNL     1      18.504  -7.529 102.915  1.00  0.00     0.008 C 
HETATM   37  C26 UNL     1      17.977  -8.853 103.520  1.00  0.00     0.020 C 
HETATM   38  C27 UNL     1      18.725  -9.067 104.838  1.00  0.00     0.126 C 
HETATM   39  N4  UNL     1      18.641  -7.847 105.612  1.00  0.00    -0.350 N 
HETATM   40  C28 UNL     1      19.451  -7.536 106.720  1.00  0.00     0.238 C 
HETATM   41  C32 UNL     1      17.606  -6.896 105.114  1.00  0.00     0.130 C 
HETATM   42  O5  UNL     1      19.224  -6.410 107.288  1.00  0.00    -0.272 OA
BRANCH  40  43
HETATM   43  C29 UNL     1      20.527  -8.373 107.282  1.00  0.00     0.092 C 
HETATM   44  C30 UNL     1      20.008  -9.814 107.339  1.00  0.00     0.038 C 
HETATM   45  C31 UNL     1      21.797  -8.360 106.459  1.00  0.00     0.038 C 
HETATM   46  S1  UNL     1      20.924  -7.809 108.978  1.00  0.00    -0.077 SA
ENDBRANCH  40  43
ENDBRANCH  34  35
ENDBRANCH  29  34
ENDBRANCH  27  29
ENDBRANCH  24  27
ENDBRANCH  20  24
ENDBRANCH  18  20
ENDBRANCH  17  18
BRANCH  17  47
HETATM   47  O1  UNL     1      18.777  -3.976  97.562  1.00  0.00    -0.346 OA
ATOM     48  H1  UNL     1      19.189  -3.565  96.810  1.00  0.00     0.219 HD
ENDBRANCH  17  47
ENDBRANCH   9  17
ENDBRANCH   1   4
TORSDOF 16
ENDMDL
MODEL 4
REMARK VINA RESULT: -8.899339309      2.179      3.490
REMARK  16 active torsions:
REMARK  status: ('A' for Active; 'I' for Inactive)
REMARK    1  A    between atoms: C2_2  and  C3_3 
REMARK    2  A    between atoms: C3_3  and  C4_4 
REMARK    3  A    between atoms: C4_4  and  N1_5 
REMARK    4  A    between atoms: C4_4  and  C19_26 
REMARK    5  A    between atoms: N1_5  and  C5_7 
REMARK    6  A    between atoms: C5_7  and  O1_8 
REMARK    7  A    between atoms: C5_7  and  C6_10 
REMARK    8  A    between atoms: C15_20  and  O3_22 
REMARK    9  A    between atoms: C19_26  and  O4_27 
REMARK   10  A    between atoms: C19_26  and  N3_29 
REMARK   11  A    between atoms: N3_29  and  C20_31 
REMARK   12  A    between atoms: C20_31  and  C21_32 
REMARK   13  A    between atoms: C20_31  and  C23_36 
REMARK   14  A    between atoms: C21_32  and  C22_33 
REMARK   15  A    between atoms: C23_36  and  C24_37 
REMARK       I    between atoms: N4_41  and  C28_42 
REMARK   16  A    between atoms: C28_42  and  C29_44 
ROOT
HETATM    1  O3  UNL     1      17.834  -2.844  98.030  1.00  0.00    -0.272 OA
HETATM    2  C17 UNL     1      16.716  -2.141  97.615  1.00  0.00     0.229 C 
HETATM    3  N2  UNL     1      15.774  -1.533  97.279  1.00  0.00    -0.164 NA
ENDROOT
BRANCH   1   4
HETATM    4  C15 UNL     1      19.083  -2.184  98.171  1.00  0.00     0.086 C 
HETATM    5  C14 UNL     1      20.199  -3.178  97.991  1.00  0.00     0.118 C 
HETATM    6  C13 UNL     1      20.040  -4.369  98.857  1.00  0.00     0.138 C 
HETATM    7  C12 UNL     1      19.867  -4.645 100.268  1.00  0.00     0.093 C 
HETATM    8  O2  UNL     1      20.061  -5.405  98.198  1.00  0.00    -0.297 OA
HETATM    9  C6  UNL     1      18.428  -4.333 100.661  1.00  0.00     0.010 C 
HETATM   10  C11 UNL     1      20.774  -3.921 101.177  1.00  0.00     0.021 C 
HETATM   11  C7  UNL     1      18.160  -3.064 100.839  1.00  0.00    -0.048 C 
HETATM   12  C8  UNL     1      16.770  -2.616 101.213  1.00  0.00     0.049 C 
HETATM   13  C9  UNL     1      19.221  -2.032 100.686  1.00  0.00    -0.070 C 
HETATM   14  C10 UNL     1      20.567  -2.437 101.196  1.00  0.00     0.036 C 
HETATM   15  C18 UNL     1      19.217  -1.335  99.368  1.00  0.00     0.074 C 
HETATM   16  C16 UNL     1      19.143  -1.247  96.949  1.00  0.00     0.048 C 
BRANCH   9  17
HETATM   17  C5  UNL     1      17.557  -5.471 100.771  1.00  0.00     0.144 C 
BRANCH  17  18
HETATM   18  N1  UNL     1      17.373  -6.465 101.706  1.00  0.00    -0.358 N 
ATOM     19  H1  UNL     1      18.099  -7.175 101.800  1.00  0.00     0.162 HD
BRANCH  18  20
HETATM   20  C4  UNL     1      16.174  -6.566 102.590  1.00  0.00     0.158 C 
BRANCH  20  21
HETATM   21  C3  UNL     1      15.350  -5.371 102.671  1.00  0.00     0.033 C 
BRANCH  21  22
HETATM   22  C2  UNL     1      13.898  -5.649 102.347  1.00  0.00    -0.002 C 
HETATM   23  C1  UNL     1      13.536  -4.983 101.011  1.00  0.00     0.005 C 
ENDBRANCH  21  22
ENDBRANCH  20  21
BRANCH  20  24
HETATM   24  C19 UNL     1      16.788  -6.946 103.889  1.00  0.00     0.139 C 
BRANCH  24  25
HETATM   25  O4  UNL     1      16.006  -7.553 104.739  1.00  0.00    -0.348 OA
ATOM     26  H4  UNL     1      15.267  -7.051 105.062  1.00  0.00     0.219 HD
ENDBRANCH  24  25
BRANCH  24  27
HETATM   27  N3  UNL     1      18.104  -6.747 104.316  1.00  0.00    -0.346 N 
ATOM     28  H3  UNL     1      18.799  -7.457 104.087  1.00  0.00     0.167 HD
BRANCH  27  29
HETATM   29  C20 UNL     1      18.539  -5.570 105.075  1.00  0.00    -0.006 C 
BRANCH  29  30
HETATM   30  C21 UNL     1      19.171  -4.529 104.289  1.00  0.00     0.123 C 
BRANCH  30  31
HETATM   31  C22 UNL     1      19.322  -3.150 104.818  1.00  0.00     0.358 C 
HETATM   32  F1  UNL     1      18.620  -2.322 103.906  1.00  0.00    -0.214 F 
HETATM   33  F2  UNL     1      20.648  -2.705 104.731  1.00  0.00    -0.214 F 
ENDBRANCH  30  31
ENDBRANCH  29  30
BRANCH  29  34
HETATM   34  C23 UNL     1      18.884  -5.873 106.478  1.00  0.00     0.059 C 
BRANCH  34  35
HETATM   35  C24 UNL     1      19.794  -7.005 106.724  1.00  0.00     0.009 C 
HETATM   36  C25 UNL     1      20.185  -7.887 105.597  1.00  0.00     0.008 C 
HETATM   37  C26 UNL     1      19.905  -9.368 105.952  1.00  0.00     0.020 C 
HETATM   38  C27 UNL     1      20.833  -9.727 107.116  1.00  0.00     0.126 C 
HETATM   39  N4  UNL     1      20.696  -8.711 108.137  1.00  0.00    -0.350 N 
HETATM   40  C28 UNL     1      21.594  -8.510 109.202  1.00  0.00     0.238 C 
HETATM   41  C32 UNL     1      19.497  -7.843 107.956  1.00  0.00     0.130 C 
HETATM   42  O5  UNL     1      21.301  -7.565 110.018  1.00  0.00    -0.272 OA
BRANCH  40  43
HETATM   43  C29 UNL     1      22.826  -9.274 109.466  1.00  0.00     0.092 C 
HETATM   44  C30 UNL     1      22.441 -10.755 109.558  1.00  0.00     0.038 C 
HETATM   45  C31 UNL     1      23.874  -9.125 108.383  1.00  0.00     0.038 C 
HETATM   46  S1  UNL     1      23.553  -8.741 111.060  1.00  0.00    -0.077 SA
ENDBRANCH  40  43
ENDBRANCH  34  35
ENDBRANCH  29  34
ENDBRANCH  27  29
ENDBRANCH  24  27
ENDBRANCH  20  24
ENDBRANCH  18  20
ENDBRANCH  17  18
BRANCH  17  47
HETATM   47  O1  UNL     1      16.735  -5.603  99.732  1.00  0.00    -0.346 OA
ATOM     48  H1  UNL     1      16.624  -6.512  99.478  1.00  0.00     0.219 HD
ENDBRANCH  17  47
ENDBRANCH   9  17
ENDBRANCH   1   4
TORSDOF 16
ENDMDL
MODEL 5
REMARK VINA RESULT: -8.840683628      1.677      2.643
REMARK  16 active torsions:
REMARK  status: ('A' for Active; 'I' for Inactive)
REMARK    1  A    between atoms: C2_2  and  C3_3 
REMARK    2  A    between atoms: C3_3  and  C4_4 
REMARK    3  A    between atoms: C4_4  and  N1_5 
REMARK    4  A    between atoms: C4_4  and  C19_26 
REMARK    5  A    between atoms: N1_5  and  C5_7 
REMARK    6  A    between atoms: C5_7  and  O1_8 
REMARK    7  A    between atoms: C5_7  and  C6_10 
REMARK    8  A    between atoms: C15_20  and  O3_22 
REMARK    9  A    between atoms: C19_26  and  O4_27 
REMARK   10  A    between atoms: C19_26  and  N3_29 
REMARK   11  A    between atoms: N3_29  and  C20_31 
REMARK   12  A    between atoms: C20_31  and  C21_32 
REMARK   13  A    between atoms: C20_31  and  C23_36 
REMARK   14  A    between atoms: C21_32  and  C22_33 
REMARK   15  A    between atoms: C23_36  and  C24_37 
REMARK       I    between atoms: N4_41  and  C28_42 
REMARK   16  A    between atoms: C28_42  and  C29_44 
ROOT
HETATM    1  O3  UNL     1      20.515  -0.511 100.018  1.00  0.00    -0.272 OA
HETATM    2  C17 UNL     1      20.445   0.724 100.641  1.00  0.00     0.229 C 
HETATM    3  N2  UNL     1      20.405   1.766 101.173  1.00  0.00    -0.164 NA
ENDROOT
BRANCH   1   4
HETATM    4  C15 UNL     1      21.485  -0.749  99.010  1.00  0.00     0.086 C 
HETATM    5  C14 UNL     1      20.926  -1.706  97.992  1.00  0.00     0.118 C 
HETATM    6  C13 UNL     1      20.381  -2.936  98.612  1.00  0.00     0.138 C 
HETATM    7  C12 UNL     1      20.847  -3.976  99.504  1.00  0.00     0.093 C 
HETATM    8  O2  UNL     1      19.215  -3.123  98.278  1.00  0.00    -0.297 OA
HETATM    9  C6  UNL     1      20.878  -3.432 100.928  1.00  0.00     0.010 C 
HETATM   10  C11 UNL     1      22.170  -4.546  99.187  1.00  0.00     0.021 C 
HETATM   11  C7  UNL     1      21.905  -2.675 101.214  1.00  0.00    -0.048 C 
HETATM   12  C8  UNL     1      22.049  -2.058 102.582  1.00  0.00     0.049 C 
HETATM   13  C9  UNL     1      22.964  -2.410 100.202  1.00  0.00    -0.070 C 
HETATM   14  C10 UNL     1      23.304  -3.578  99.333  1.00  0.00     0.036 C 
HETATM   15  C18 UNL     1      22.830  -1.103  99.498  1.00  0.00     0.074 C 
HETATM   16  C16 UNL     1      21.613   0.610  98.295  1.00  0.00     0.048 C 
BRANCH   9  17
HETATM   17  C5  UNL     1      19.768  -3.814 101.758  1.00  0.00     0.144 C 
BRANCH  17  18
HETATM   18  N1  UNL     1      19.185  -5.011 102.108  1.00  0.00    -0.358 N 
ATOM     19  H1  UNL     1      19.713  -5.644 102.708  1.00  0.00     0.162 HD
BRANCH  18  20
HETATM   20  C4  UNL     1      17.826  -5.438 101.662  1.00  0.00     0.158 C 
BRANCH  20  21
HETATM   21  C3  UNL     1      17.230  -4.636 100.606  1.00  0.00     0.033 C 
BRANCH  21  22
HETATM   22  C2  UNL     1      16.906  -5.454  99.373  1.00  0.00    -0.002 C 
HETATM   23  C1  UNL     1      16.052  -4.614  98.413  1.00  0.00     0.005 C 
ENDBRANCH  21  22
ENDBRANCH  20  21
BRANCH  20  24
HETATM   24  C19 UNL     1      17.062  -5.394 102.935  1.00  0.00     0.139 C 
BRANCH  24  25
HETATM   25  O4  UNL     1      15.764  -5.331 102.825  1.00  0.00    -0.348 OA
ATOM     26  H4  UNL     1      15.385  -4.459 102.829  1.00  0.00     0.219 HD
ENDBRANCH  24  25
BRANCH  24  27
HETATM   27  N3  UNL     1      17.556  -5.424 104.243  1.00  0.00    -0.346 N 
ATOM     28  H3  UNL     1      17.547  -4.559 104.783  1.00  0.00     0.167 HD
BRANCH  27  29
HETATM   29  C20 UNL     1      18.087  -6.634 104.879  1.00  0.00    -0.006 C 
BRANCH  29  30
HETATM   30  C21 UNL     1      17.271  -7.822 104.720  1.00  0.00     0.123 C 
BRANCH  30  31
HETATM   31  C22 UNL     1      17.417  -8.701 103.533  1.00  0.00     0.358 C 
HETATM   32  F1  UNL     1      17.465 -10.021 104.050  1.00  0.00    -0.214 F 
HETATM   33  F2  UNL     1      18.663  -8.532 102.914  1.00  0.00    -0.214 F 
ENDBRANCH  30  31
ENDBRANCH  29  30
BRANCH  29  34
HETATM   34  C23 UNL     1      18.919  -6.354 106.066  1.00  0.00     0.059 C 
BRANCH  34  35
HETATM   35  C24 UNL     1      19.860  -7.403 106.497  1.00  0.00     0.009 C 
HETATM   36  C25 UNL     1      20.334  -8.409 105.515  1.00  0.00     0.008 C 
HETATM   37  C26 UNL     1      20.095  -9.841 106.055  1.00  0.00     0.020 C 
HETATM   38  C27 UNL     1      20.982 -10.001 107.292  1.00  0.00     0.126 C 
HETATM   39  N4  UNL     1      20.761  -8.866 108.161  1.00  0.00    -0.350 N 
HETATM   40  C28 UNL     1      21.602  -8.487 109.224  1.00  0.00     0.238 C 
HETATM   41  C32 UNL     1      19.539  -8.083 107.818  1.00  0.00     0.130 C 
HETATM   42  O5  UNL     1      21.237  -7.456 109.893  1.00  0.00    -0.272 OA
BRANCH  40  43
HETATM   43  C29 UNL     1      22.849  -9.155 109.636  1.00  0.00     0.092 C 
HETATM   44  C30 UNL     1      22.538 -10.645 109.812  1.00  0.00     0.038 C 
HETATM   45  C31 UNL     1      23.970  -9.022 108.627  1.00  0.00     0.038 C 
HETATM   46  S1  UNL     1      23.418  -8.467 111.235  1.00  0.00    -0.077 SA
ENDBRANCH  40  43
ENDBRANCH  34  35
ENDBRANCH  29  34
ENDBRANCH  27  29
ENDBRANCH  24  27
ENDBRANCH  20  24
ENDBRANCH  18  20
ENDBRANCH  17  18
BRANCH  17  47
HETATM   47  O1  UNL     1      19.156  -2.775 102.323  1.00  0.00    -0.346 OA
ATOM     48  H1  UNL     1      19.276  -1.975 101.823  1.00  0.00     0.219 HD
ENDBRANCH  17  47
ENDBRANCH   9  17
ENDBRANCH   1   4
TORSDOF 16
ENDMDL
