MODEL 1
REMARK VINA RESULT: -7.917063306      0.000      0.000
REMARK  12 active torsions:
REMARK  status: ('A' for Active; 'I' for Inactive)
REMARK    1  A    between atoms: C2_2  and  C3_3 
REMARK    2  A    between atoms: C3_3  and  N1_4 
REMARK    3  A    between atoms: N1_4  and  C4_5 
REMARK    4  A    between atoms: N1_4  and  C6_8 
REMARK    5  A    between atoms: C4_5  and  C5_6 
REMARK    6  A    between atoms: C8_10  and  C9_11 
REMARK       I    between atoms: C9_11  and  N2_13 
REMARK    7  A    between atoms: C12_16  and  C13_17 
REMARK    8  A    between atoms: C13_17  and  N3_18 
REMARK    9  A    between atoms: N3_18  and  C15_20 
REMARK   10  A    between atoms: C19_27  and  N5_28 
REMARK   11  A    between atoms: C24_36  and  O3_37 
REMARK   12  A    between atoms: C24_36  and  C25_39 
ROOT
HETATM    1  C6  UNL     1      17.553  -6.045 102.091  1.00  0.00     0.042 A 
HETATM    2  C7  UNL     1      18.826  -5.752 101.564  1.00  0.00     0.065 A 
HETATM    3  C8  UNL     1      18.969  -5.123 100.341  1.00  0.00     0.104 A 
HETATM    4  N4  UNL     1      17.839  -4.813  99.696  1.00  0.00    -0.337 N 
ATOM      5  H4  UNL     1      17.924  -4.349  98.791  1.00  0.00     0.167 HD
HETATM    6  C19 UNL     1      16.617  -5.065 100.146  1.00  0.00     0.114 A 
HETATM    7  C27 UNL     1      16.452  -5.702 101.384  1.00  0.00     0.009 A 
HETATM    8  C28 UNL     1      15.087  -5.967 101.886  1.00  0.00     0.054 C 
ENDROOT
BRANCH   3   9
HETATM    9  C9  UNL     1      20.315  -4.848  99.859  1.00  0.00     0.270 C 
HETATM   10  O1  UNL     1      20.670  -5.510  98.804  1.00  0.00    -0.266 OA
HETATM   11  N2  UNL     1      21.270  -3.978 100.370  1.00  0.00    -0.346 N 
HETATM   12  C10 UNL     1      21.176  -3.123 101.508  1.00  0.00     0.126 C 
HETATM   13  C18 UNL     1      22.567  -3.946  99.626  1.00  0.00     0.142 C 
HETATM   14  C11 UNL     1      21.471  -1.667 101.166  1.00  0.00     0.027 C 
HETATM   15  C12 UNL     1      22.155  -1.548  99.831  1.00  0.00     0.032 C 
HETATM   16  C17 UNL     1      23.238  -2.626  99.810  1.00  0.00     0.082 C 
HETATM   17  S1  UNL     1      24.357  -2.252  98.426  1.00  0.00    -0.090 SA
BRANCH  15  18
HETATM   18  C13 UNL     1      22.757  -0.175  99.676  1.00  0.00     0.277 C 
BRANCH  18  19
HETATM   19  N3  UNL     1      21.795   0.679  99.037  1.00  0.00     0.084 N 
HETATM   20  C14 UNL     1      22.059   0.795  97.625  1.00  0.00     0.309 C 
BRANCH  19  21
HETATM   21  C15 UNL     1      21.698   1.959  99.690  1.00  0.00     0.267 C 
HETATM   22  C16 UNL     1      20.379   2.141 100.411  1.00  0.00     0.037 C 
ENDBRANCH  19  21
ENDBRANCH  18  19
ENDBRANCH  15  18
ENDBRANCH   3   9
BRANCH   1  23
HETATM   23  N1  UNL     1      17.588  -6.706 103.354  1.00  0.00    -0.379 N 
BRANCH  23  24
HETATM   24  C3  UNL     1      17.611  -5.947 104.548  1.00  0.00     0.122 C 
BRANCH  24  25
HETATM   25  C2  UNL     1      18.877  -5.412 105.068  1.00  0.00     0.015 C 
HETATM   26  C1  UNL     1      19.213  -3.996 104.854  1.00  0.00     0.006 C 
ENDBRANCH  24  25
ENDBRANCH  23  24
BRANCH  23  27
HETATM   27  C4  UNL     1      17.546  -8.146 103.407  1.00  0.00     0.138 C 
BRANCH  27  28
HETATM   28  C5  UNL     1      18.944  -8.746 103.418  1.00  0.00     0.134 C 
HETATM   29 CL1  UNL     1      19.362  -9.102 105.104  1.00  0.00    -0.129 Cl
ENDBRANCH  27  28
ENDBRANCH  23  27
ENDBRANCH   1  23
BRANCH   6  30
HETATM   30  N5  UNL     1      15.474  -4.721  99.430  1.00  0.00    -0.339 N 
HETATM   31  C20 UNL     1      15.130  -3.555  99.047  1.00  0.00     0.101 A 
HETATM   32  C21 UNL     1      15.808  -2.285  99.238  1.00  0.00     0.214 A 
HETATM   33  C24 UNL     1      13.900  -3.257  98.293  1.00  0.00     0.123 A 
HETATM   34  O2  UNL     1      16.906  -2.181  99.852  1.00  0.00    -0.285 OA
HETATM   35  C22 UNL     1      15.005  -1.250  98.613  1.00  0.00     0.062 A 
HETATM   36 BR1  UNL     1      15.447   0.616  98.575  1.00  0.00    -0.047 Br
HETATM   37  C23 UNL     1      13.937  -1.801  98.087  1.00  0.00     0.040 A 
ATOM     38  H5  UNL     1      14.844  -5.484  99.185  1.00  0.00     0.167 HD
BRANCH  33  39
HETATM   39  O3  UNL     1      12.752  -3.668  98.974  1.00  0.00    -0.379 OA
ATOM     40  H3  UNL     1      11.957  -3.427  98.514  1.00  0.00     0.211 HD
ENDBRANCH  33  39
BRANCH  33  41
HETATM   41  C25 UNL     1      13.993  -3.907  96.928  1.00  0.00     0.044 C 
HETATM   42  C26 UNL     1      12.590  -4.253  96.504  1.00  0.00     0.009 C 
ENDBRANCH  33  41
ENDBRANCH   6  30
TORSDOF 12
ENDMDL
MODEL 2
REMARK VINA RESULT: -7.886823882      0.895      1.555
REMARK  12 active torsions:
REMARK  status: ('A' for Active; 'I' for Inactive)
REMARK    1  A    between atoms: C2_2  and  C3_3 
REMARK    2  A    between atoms: C3_3  and  N1_4 
REMARK    3  A    between atoms: N1_4  and  C4_5 
REMARK    4  A    between atoms: N1_4  and  C6_8 
REMARK    5  A    between atoms: C4_5  and  C5_6 
REMARK    6  A    between atoms: C8_10  and  C9_11 
REMARK       I    between atoms: C9_11  and  N2_13 
REMARK    7  A    between atoms: C12_16  and  C13_17 
REMARK    8  A    between atoms: C13_17  and  N3_18 
REMARK    9  A    between atoms: N3_18  and  C15_20 
REMARK   10  A    between atoms: C19_27  and  N5_28 
REMARK   11  A    between atoms: C24_36  and  O3_37 
REMARK   12  A    between atoms: C24_36  and  C25_39 
ROOT
HETATM    1  C6  UNL     1      17.498  -6.040 102.095  1.00  0.00     0.042 A 
HETATM    2  C7  UNL     1      18.779  -5.749 101.585  1.00  0.00     0.065 A 
HETATM    3  C8  UNL     1      18.938  -5.117 100.365  1.00  0.00     0.104 A 
HETATM    4  N4  UNL     1      17.817  -4.803  99.706  1.00  0.00    -0.337 N 
ATOM      5  H4  UNL     1      17.915  -4.337  98.804  1.00  0.00     0.167 HD
HETATM    6  C19 UNL     1      16.589  -5.053 100.141  1.00  0.00     0.114 A 
HETATM    7  C27 UNL     1      16.407  -5.693 101.375  1.00  0.00     0.009 A 
HETATM    8  C28 UNL     1      15.035  -5.955 101.859  1.00  0.00     0.054 C 
ENDROOT
BRANCH   3   9
HETATM    9  C9  UNL     1      20.291  -4.844  99.900  1.00  0.00     0.270 C 
HETATM   10  O1  UNL     1      20.662  -5.514  98.856  1.00  0.00    -0.266 OA
HETATM   11  N2  UNL     1      21.237  -3.970 100.419  1.00  0.00    -0.346 N 
HETATM   12  C10 UNL     1      21.126  -3.106 101.549  1.00  0.00     0.126 C 
HETATM   13  C18 UNL     1      22.545  -3.942  99.693  1.00  0.00     0.142 C 
HETATM   14  C11 UNL     1      21.425  -1.652 101.199  1.00  0.00     0.027 C 
HETATM   15  C12 UNL     1      22.128  -1.542  99.873  1.00  0.00     0.032 C 
HETATM   16  C17 UNL     1      23.212  -2.619  99.877  1.00  0.00     0.082 C 
HETATM   17  S1  UNL     1      24.351  -2.255  98.506  1.00  0.00    -0.090 SA
BRANCH  15  18
HETATM   18  C13 UNL     1      22.731  -0.170  99.717  1.00  0.00     0.277 C 
BRANCH  18  19
HETATM   19  N3  UNL     1      21.777   0.678  99.056  1.00  0.00     0.084 N 
HETATM   20  C14 UNL     1      22.054   0.768  97.644  1.00  0.00     0.309 C 
BRANCH  19  21
HETATM   21  C15 UNL     1      21.682   1.968  99.686  1.00  0.00     0.267 C 
HETATM   22  C16 UNL     1      20.386   2.142 100.450  1.00  0.00     0.037 C 
ENDBRANCH  19  21
ENDBRANCH  18  19
ENDBRANCH  15  18
ENDBRANCH   3   9
BRANCH   1  23
HETATM   23  N1  UNL     1      17.516  -6.704 103.357  1.00  0.00    -0.379 N 
BRANCH  23  24
HETATM   24  C3  UNL     1      17.629  -8.113 103.412  1.00  0.00     0.122 C 
BRANCH  24  25
HETATM   25  C2  UNL     1      18.935  -8.748 103.633  1.00  0.00     0.015 C 
HETATM   26  C1  UNL     1      19.287  -9.245 104.972  1.00  0.00     0.006 C 
ENDBRANCH  24  25
ENDBRANCH  23  24
BRANCH  23  27
HETATM   27  C4  UNL     1      17.471  -5.928 104.571  1.00  0.00     0.138 C 
BRANCH  27  28
HETATM   28  C5  UNL     1      18.866  -5.532 105.033  1.00  0.00     0.134 C 
HETATM   29 CL1  UNL     1      19.084  -3.811 104.666  1.00  0.00    -0.129 Cl
ENDBRANCH  27  28
ENDBRANCH  23  27
ENDBRANCH   1  23
BRANCH   6  30
HETATM   30  N5  UNL     1      15.456  -4.704  99.411  1.00  0.00    -0.339 N 
HETATM   31  C20 UNL     1      15.119  -3.536  99.029  1.00  0.00     0.101 A 
HETATM   32  C21 UNL     1      15.797  -2.269  99.232  1.00  0.00     0.214 A 
HETATM   33  C24 UNL     1      13.899  -3.234  98.260  1.00  0.00     0.123 A 
HETATM   34  O2  UNL     1      16.886  -2.168  99.861  1.00  0.00    -0.285 OA
HETATM   35  C22 UNL     1      15.003  -1.230  98.601  1.00  0.00     0.062 A 
HETATM   36 BR1  UNL     1      15.449   0.635  98.575  1.00  0.00    -0.047 Br
HETATM   37  C23 UNL     1      13.941  -1.777  98.059  1.00  0.00     0.040 A 
ATOM     38  H5  UNL     1      14.828  -5.466  99.155  1.00  0.00     0.167 HD
BRANCH  33  39
HETATM   39  O3  UNL     1      12.742  -3.645  98.924  1.00  0.00    -0.379 OA
ATOM     40  H3  UNL     1      11.955  -3.291  98.527  1.00  0.00     0.211 HD
ENDBRANCH  33  39
BRANCH  33  41
HETATM   41  C25 UNL     1      14.009  -3.879  96.894  1.00  0.00     0.044 C 
HETATM   42  C26 UNL     1      12.612  -4.229  96.454  1.00  0.00     0.009 C 
ENDBRANCH  33  41
ENDBRANCH   6  30
TORSDOF 12
ENDMDL
MODEL 3
REMARK VINA RESULT: -7.621213609      4.171      8.281
REMARK  12 active torsions:
REMARK  status: ('A' for Active; 'I' for Inactive)
REMARK    1  A    between atoms: C2_2  and  C3_3 
REMARK    2  A    between atoms: C3_3  and  N1_4 
REMARK    3  A    between atoms: N1_4  and  C4_5 
REMARK    4  A    between atoms: N1_4  and  C6_8 
REMARK    5  A    between atoms: C4_5  and  C5_6 
REMARK    6  A    between atoms: C8_10  and  C9_11 
REMARK       I    between atoms: C9_11  and  N2_13 
REMARK    7  A    between atoms: C12_16  and  C13_17 
REMARK    8  A    between atoms: C13_17  and  N3_18 
REMARK    9  A    between atoms: N3_18  and  C15_20 
REMARK   10  A    between atoms: C19_27  and  N5_28 
REMARK   11  A    between atoms: C24_36  and  O3_37 
REMARK   12  A    between atoms: C24_36  and  C25_39 
ROOT
HETATM    1  C6  UNL     1      16.583  -4.698 101.901  1.00  0.00     0.042 A 
HETATM    2  C7  UNL     1      16.959  -5.904 102.524  1.00  0.00     0.065 A 
HETATM    3  C8  UNL     1      18.154  -6.014 103.212  1.00  0.00     0.104 A 
HETATM    4  N4  UNL     1      18.922  -4.920 103.248  1.00  0.00    -0.337 N 
ATOM      5  H4  UNL     1      19.808  -4.982 103.750  1.00  0.00     0.167 HD
HETATM    6  C19 UNL     1      18.616  -3.761 102.680  1.00  0.00     0.114 A 
HETATM    7  C27 UNL     1      17.409  -3.630 101.979  1.00  0.00     0.009 A 
HETATM    8  C28 UNL     1      17.069  -2.332 101.360  1.00  0.00     0.054 C 
ENDROOT
BRANCH   3   9
HETATM    9  C9  UNL     1      18.477  -7.290 103.835  1.00  0.00     0.270 C 
HETATM   10  O1  UNL     1      18.519  -8.303 103.030  1.00  0.00    -0.266 OA
HETATM   11  N2  UNL     1      18.745  -7.572 105.168  1.00  0.00    -0.346 N 
HETATM   12  C10 UNL     1      18.775  -6.678 106.280  1.00  0.00     0.126 C 
HETATM   13  C18 UNL     1      19.034  -9.009 105.470  1.00  0.00     0.142 C 
HETATM   14  C11 UNL     1      20.100  -6.730 107.032  1.00  0.00     0.027 C 
HETATM   15  C12 UNL     1      20.886  -7.960 106.668  1.00  0.00     0.032 C 
HETATM   16  C17 UNL     1      19.892  -9.120 106.686  1.00  0.00     0.082 C 
HETATM   17  S1  UNL     1      20.853 -10.665 106.680  1.00  0.00    -0.090 SA
BRANCH  15  18
HETATM   18  C13 UNL     1      21.994  -8.182 107.665  1.00  0.00     0.277 C 
BRANCH  18  19
HETATM   19  N3  UNL     1      21.413  -8.592 108.914  1.00  0.00     0.084 N 
HETATM   20  C14 UNL     1      20.978  -7.453 109.683  1.00  0.00     0.309 C 
BRANCH  19  21
HETATM   21  C15 UNL     1      22.291  -9.458 109.654  1.00  0.00     0.267 C 
HETATM   22  C16 UNL     1      22.834  -8.798 110.905  1.00  0.00     0.037 C 
ENDBRANCH  19  21
ENDBRANCH  18  19
ENDBRANCH  15  18
ENDBRANCH   3   9
BRANCH   1  23
HETATM   23  N1  UNL     1      15.329  -4.763 101.226  1.00  0.00    -0.379 N 
BRANCH  23  24
HETATM   24  C3  UNL     1      15.273  -5.187  99.877  1.00  0.00     0.122 C 
BRANCH  24  25
HETATM   25  C2  UNL     1      16.243  -4.681  98.896  1.00  0.00     0.015 C 
HETATM   26  C1  UNL     1      17.411  -5.500  98.536  1.00  0.00     0.006 C 
ENDBRANCH  24  25
ENDBRANCH  23  24
BRANCH  23  27
HETATM   27  C4  UNL     1      14.117  -4.445 101.940  1.00  0.00     0.138 C 
BRANCH  27  28
HETATM   28  C5  UNL     1      13.227  -5.668 102.103  1.00  0.00     0.134 C 
HETATM   29 CL1  UNL     1      13.609  -6.407 103.669  1.00  0.00    -0.129 Cl
ENDBRANCH  27  28
ENDBRANCH  23  27
ENDBRANCH   1  23
BRANCH   6  30
HETATM   30  N5  UNL     1      19.456  -2.653 102.749  1.00  0.00    -0.339 N 
HETATM   31  C20 UNL     1      20.550  -2.479 102.120  1.00  0.00     0.101 A 
HETATM   32  C21 UNL     1      21.219  -3.354 101.173  1.00  0.00     0.214 A 
HETATM   33  C24 UNL     1      21.397  -1.279 102.243  1.00  0.00     0.123 A 
HETATM   34  O2  UNL     1      20.756  -4.479 100.837  1.00  0.00    -0.285 OA
HETATM   35  C22 UNL     1      22.437  -2.696 100.739  1.00  0.00     0.062 A 
HETATM   36 BR1  UNL     1      23.695  -3.423  99.486  1.00  0.00    -0.047 Br
HETATM   37  C23 UNL     1      22.533  -1.535 101.342  1.00  0.00     0.040 A 
ATOM     38  H5  UNL     1      19.165  -1.900 103.372  1.00  0.00     0.167 HD
BRANCH  33  39
HETATM   39  O3  UNL     1      21.804  -1.055 103.559  1.00  0.00    -0.379 OA
ATOM     40  H3  UNL     1      22.686  -1.370 103.721  1.00  0.00     0.211 HD
ENDBRANCH  33  39
BRANCH  33  41
HETATM   41  C25 UNL     1      20.643  -0.089 101.688  1.00  0.00     0.044 C 
HETATM   42  C26 UNL     1      21.669   0.886 101.174  1.00  0.00     0.009 C 
ENDBRANCH  33  41
ENDBRANCH   6  30
TORSDOF 12
ENDMDL
MODEL 4
REMARK VINA RESULT: -7.582086898      3.220      6.474
REMARK  12 active torsions:
REMARK  status: ('A' for Active; 'I' for Inactive)
REMARK    1  A    between atoms: C2_2  and  C3_3 
REMARK    2  A    between atoms: C3_3  and  N1_4 
REMARK    3  A    between atoms: N1_4  and  C4_5 
REMARK    4  A    between atoms: N1_4  and  C6_8 
REMARK    5  A    between atoms: C4_5  and  C5_6 
REMARK    6  A    between atoms: C8_10  and  C9_11 
REMARK       I    between atoms: C9_11  and  N2_13 
REMARK    7  A    between atoms: C12_16  and  C13_17 
REMARK    8  A    between atoms: C13_17  and  N3_18 
REMARK    9  A    between atoms: N3_18  and  C15_20 
REMARK   10  A    between atoms: C19_27  and  N5_28 
REMARK   11  A    between atoms: C24_36  and  O3_37 
REMARK   12  A    between atoms: C24_36  and  C25_39 
ROOT
HETATM    1  C6  UNL     1      17.105  -5.877 102.875  1.00  0.00     0.042 A 
HETATM    2  C7  UNL     1      16.190  -5.714 101.815  1.00  0.00     0.065 A 
HETATM    3  C8  UNL     1      16.211  -4.584 101.018  1.00  0.00     0.104 A 
HETATM    4  N4  UNL     1      17.138  -3.666 101.310  1.00  0.00    -0.337 N 
ATOM      5  H4  UNL     1      17.169  -2.825 100.733  1.00  0.00     0.167 HD
HETATM    6  C19 UNL     1      18.022  -3.769 102.294  1.00  0.00     0.114 A 
HETATM    7  C27 UNL     1      18.018  -4.908 103.113  1.00  0.00     0.009 A 
HETATM    8  C28 UNL     1      19.015  -5.022 104.198  1.00  0.00     0.054 C 
ENDROOT
BRANCH   3   9
HETATM    9  C9  UNL     1      15.238  -4.484  99.939  1.00  0.00     0.270 C 
HETATM   10  O1  UNL     1      14.008  -4.702 100.280  1.00  0.00    -0.266 OA
HETATM   11  N2  UNL     1      15.444  -4.188  98.597  1.00  0.00    -0.346 N 
HETATM   12  C10 UNL     1      16.670  -3.904  97.925  1.00  0.00     0.126 C 
HETATM   13  C18 UNL     1      14.210  -4.175  97.751  1.00  0.00     0.142 C 
HETATM   14  C11 UNL     1      16.634  -2.569  97.190  1.00  0.00     0.027 C 
HETATM   15  C12 UNL     1      15.222  -2.073  97.028  1.00  0.00     0.032 C 
HETATM   16  C17 UNL     1      14.399  -3.277  96.574  1.00  0.00     0.082 C 
HETATM   17  S1  UNL     1      12.806  -2.650  95.956  1.00  0.00    -0.090 SA
BRANCH  15  18
HETATM   18  C13 UNL     1      15.174  -0.968  96.005  1.00  0.00     0.277 C 
BRANCH  18  19
HETATM   19  N3  UNL     1      15.028   0.286  96.690  1.00  0.00     0.084 N 
HETATM   20  C14 UNL     1      16.242   1.060  96.622  1.00  0.00     0.309 C 
BRANCH  19  21
HETATM   21  C15 UNL     1      14.559   0.107  98.039  1.00  0.00     0.267 C 
HETATM   22  C16 UNL     1      13.821   1.323  98.560  1.00  0.00     0.037 C 
ENDBRANCH  19  21
ENDBRANCH  18  19
ENDBRANCH  15  18
ENDBRANCH   3   9
BRANCH   1  23
HETATM   23  N1  UNL     1      16.937  -7.091 103.602  1.00  0.00    -0.379 N 
BRANCH  23  24
HETATM   24  C3  UNL     1      16.002  -7.156 104.663  1.00  0.00     0.122 C 
BRANCH  24  25
HETATM   25  C2  UNL     1      14.813  -6.293 104.662  1.00  0.00     0.015 C 
HETATM   26  C1  UNL     1      13.600  -6.723 103.951  1.00  0.00     0.006 C 
ENDBRANCH  24  25
ENDBRANCH  23  24
BRANCH  23  27
HETATM   27  C4  UNL     1      17.683  -8.263 103.216  1.00  0.00     0.138 C 
BRANCH  27  28
HETATM   28  C5  UNL     1      17.984  -9.153 104.413  1.00  0.00     0.134 C 
HETATM   29 CL1  UNL     1      19.522  -8.612 105.112  1.00  0.00    -0.129 Cl
ENDBRANCH  27  28
ENDBRANCH  23  27
ENDBRANCH   1  23
BRANCH   6  30
HETATM   30  N5  UNL     1      18.967  -2.780 102.552  1.00  0.00    -0.339 N 
HETATM   31  C20 UNL     1      20.118  -2.660 102.019  1.00  0.00     0.101 A 
HETATM   32  C21 UNL     1      20.760  -3.490 101.016  1.00  0.00     0.214 A 
HETATM   33  C24 UNL     1      21.075  -1.587 102.343  1.00  0.00     0.123 A 
HETATM   34  O2  UNL     1      20.209  -4.508 100.514  1.00  0.00    -0.285 OA
HETATM   35  C22 UNL     1      22.071  -2.929 100.744  1.00  0.00     0.062 A 
HETATM   36 BR1  UNL     1      23.338  -3.644  99.493  1.00  0.00    -0.047 Br
HETATM   37  C23 UNL     1      22.242  -1.864 101.491  1.00  0.00     0.040 A 
ATOM     38  H5  UNL     1      18.710  -2.076 103.244  1.00  0.00     0.167 HD
BRANCH  33  39
HETATM   39  O3  UNL     1      21.402  -1.565 103.700  1.00  0.00    -0.379 OA
ATOM     40  H3  UNL     1      21.716  -2.407 104.007  1.00  0.00     0.211 HD
ENDBRANCH  33  39
BRANCH  33  41
HETATM   41  C25 UNL     1      20.496  -0.262 101.894  1.00  0.00     0.044 C 
HETATM   42  C26 UNL     1      21.654   0.626 101.523  1.00  0.00     0.009 C 
ENDBRANCH  33  41
ENDBRANCH   6  30
TORSDOF 12
ENDMDL
MODEL 5
REMARK VINA RESULT: -7.473066737      3.438      6.639
REMARK  12 active torsions:
REMARK  status: ('A' for Active; 'I' for Inactive)
REMARK    1  A    between atoms: C2_2  and  C3_3 
REMARK    2  A    between atoms: C3_3  and  N1_4 
REMARK    3  A    between atoms: N1_4  and  C4_5 
REMARK    4  A    between atoms: N1_4  and  C6_8 
REMARK    5  A    between atoms: C4_5  and  C5_6 
REMARK    6  A    between atoms: C8_10  and  C9_11 
REMARK       I    between atoms: C9_11  and  N2_13 
REMARK    7  A    between atoms: C12_16  and  C13_17 
REMARK    8  A    between atoms: C13_17  and  N3_18 
REMARK    9  A    between atoms: N3_18  and  C15_20 
REMARK   10  A    between atoms: C19_27  and  N5_28 
REMARK   11  A    between atoms: C24_36  and  O3_37 
REMARK   12  A    between atoms: C24_36  and  C25_39 
ROOT
HETATM    1  C6  UNL     1      17.219  -5.664 102.848  1.00  0.00     0.042 A 
HETATM    2  C7  UNL     1      16.361  -5.506 101.741  1.00  0.00     0.065 A 
HETATM    3  C8  UNL     1      16.454  -4.402 100.914  1.00  0.00     0.104 A 
HETATM    4  N4  UNL     1      17.395  -3.503 101.224  1.00  0.00    -0.337 N 
ATOM      5  H4  UNL     1      17.478  -2.681 100.626  1.00  0.00     0.167 HD
HETATM    6  C19 UNL     1      18.227  -3.603 102.252  1.00  0.00     0.114 A 
HETATM    7  C27 UNL     1      18.149  -4.715 103.102  1.00  0.00     0.009 A 
HETATM    8  C28 UNL     1      19.089  -4.826 104.237  1.00  0.00     0.054 C 
ENDROOT
BRANCH   3   9
HETATM    9  C9  UNL     1      15.538  -4.305  99.786  1.00  0.00     0.270 C 
HETATM   10  O1  UNL     1      14.328  -4.701 100.022  1.00  0.00    -0.266 OA
HETATM   11  N2  UNL     1      15.779  -3.850  98.496  1.00  0.00    -0.346 N 
HETATM   12  C10 UNL     1      16.995  -3.355  97.939  1.00  0.00     0.126 C 
HETATM   13  C18 UNL     1      14.601  -3.895  97.574  1.00  0.00     0.142 C 
HETATM   14  C11 UNL     1      16.834  -1.964  97.336  1.00  0.00     0.027 C 
HETATM   15  C12 UNL     1      15.383  -1.624  97.128  1.00  0.00     0.032 C 
HETATM   16  C17 UNL     1      14.742  -2.863  96.505  1.00  0.00     0.082 C 
HETATM   17  S1  UNL     1      13.120  -2.368  95.845  1.00  0.00    -0.090 SA
BRANCH  15  18
HETATM   18  C13 UNL     1      15.254  -0.432  96.214  1.00  0.00     0.277 C 
BRANCH  18  19
HETATM   19  N3  UNL     1      15.130   0.751  97.019  1.00  0.00     0.084 N 
HETATM   20  C14 UNL     1      14.319   0.503  98.185  1.00  0.00     0.309 C 
BRANCH  19  21
HETATM   21  C15 UNL     1      14.665   1.875  96.250  1.00  0.00     0.267 C 
HETATM   22  C16 UNL     1      13.385   2.465  96.805  1.00  0.00     0.037 C 
ENDBRANCH  19  21
ENDBRANCH  18  19
ENDBRANCH  15  18
ENDBRANCH   3   9
BRANCH   1  23
HETATM   23  N1  UNL     1      16.979  -6.851 103.601  1.00  0.00    -0.379 N 
BRANCH  23  24
HETATM   24  C3  UNL     1      17.566  -8.074 103.198  1.00  0.00     0.122 C 
BRANCH  24  25
HETATM   25  C2  UNL     1      18.078  -9.020 104.198  1.00  0.00     0.015 C 
HETATM   26  C1  UNL     1      19.363  -8.754 104.863  1.00  0.00     0.006 C 
ENDBRANCH  24  25
ENDBRANCH  23  24
BRANCH  23  27
HETATM   27  C4  UNL     1      16.181  -6.786 104.800  1.00  0.00     0.138 C 
BRANCH  27  28
HETATM   28  C5  UNL     1      14.722  -7.114 104.520  1.00  0.00     0.134 C 
HETATM   29 CL1  UNL     1      13.938  -5.629 103.951  1.00  0.00    -0.129 Cl
ENDBRANCH  27  28
ENDBRANCH  23  27
ENDBRANCH   1  23
BRANCH   6  30
HETATM   30  N5  UNL     1      19.188  -2.635 102.529  1.00  0.00    -0.339 N 
HETATM   31  C20 UNL     1      20.344  -2.529 102.003  1.00  0.00     0.101 A 
HETATM   32  C21 UNL     1      20.977  -3.358 100.994  1.00  0.00     0.214 A 
HETATM   33  C24 UNL     1      21.319  -1.478 102.346  1.00  0.00     0.123 A 
HETATM   34  O2  UNL     1      20.410  -4.360 100.477  1.00  0.00    -0.285 OA
HETATM   35  C22 UNL     1      22.300  -2.819 100.736  1.00  0.00     0.062 A 
HETATM   36 BR1  UNL     1      23.560  -3.542  99.483  1.00  0.00    -0.047 Br
HETATM   37  C23 UNL     1      22.486  -1.766 101.497  1.00  0.00     0.040 A 
ATOM     38  H5  UNL     1      18.940  -1.934 103.227  1.00  0.00     0.167 HD
BRANCH  33  39
HETATM   39  O3  UNL     1      21.638  -1.478 103.705  1.00  0.00    -0.379 OA
ATOM     40  H3  UNL     1      21.849  -0.609 104.024  1.00  0.00     0.211 HD
ENDBRANCH  33  39
BRANCH  33  41
HETATM   41  C25 UNL     1      20.767  -0.137 101.909  1.00  0.00     0.044 C 
HETATM   42  C26 UNL     1      21.939   0.714 101.500  1.00  0.00     0.009 C 
ENDBRANCH  33  41
ENDBRANCH   6  30
TORSDOF 12
ENDMDL
