MODEL 1
REMARK VINA RESULT: -9.530608132      0.000      0.000
REMARK  13 active torsions:
REMARK  status: ('A' for Active; 'I' for Inactive)
REMARK    1  A    between atoms: C2_2  and  C4_4 
REMARK       I    between atoms: C4_4  and  N1_6 
REMARK    2  A    between atoms: N1_6  and  C5_8 
REMARK    3  A    between atoms: C8_12  and  C9_13 
REMARK    4  A    between atoms: C9_13  and  O3_15 
REMARK    5  A    between atoms: O3_15  and  C10_16 
REMARK    6  A    between atoms: C10_16  and  C11_17 
REMARK    7  A    between atoms: C11_17  and  C12_18 
REMARK    8  A    between atoms: C12_18  and  N2_21 
REMARK       I    between atoms: N2_21  and  C13_23 
REMARK    9  A    between atoms: C13_23  and  C14_25 
REMARK   10  A    between atoms: C14_25  and  C15_26 
REMARK   11  A    between atoms: C14_25  and  N3_33 
REMARK   12  A    between atoms: C15_26  and  C16_27 
REMARK       I    between atoms: N3_33  and  C22_35 
REMARK   13  A    between atoms: C22_35  and  C23_37 
REMARK       I    between atoms: N4_41  and  C27_42 
ROOT
HETATM    1  N2  UNL     1      19.612  -7.582 105.313  1.00  0.00    -0.324 N 
ATOM      2  H2  UNL     1      20.295  -6.944 104.905  1.00  0.00     0.165 HD
HETATM    3  C13 UNL     1      18.288  -7.575 104.814  1.00  0.00     0.242 C 
HETATM    4  O4  UNL     1      17.415  -8.320 105.299  1.00  0.00    -0.271 OA
ENDROOT
BRANCH   1   5
HETATM    5  C12 UNL     1      20.028  -8.459 106.378  1.00  0.00     0.190 C 
HETATM    6 CL1  UNL     1      21.819  -8.326 106.469  1.00  0.00    -0.078 Cl
HETATM    7 CL2  UNL     1      19.648 -10.135 105.952  1.00  0.00    -0.078 Cl
BRANCH   5   8
HETATM    8  C11 UNL     1      19.412  -8.049 107.709  1.00  0.00     0.092 C 
BRANCH   8   9
HETATM    9  C10 UNL     1      20.295  -7.007 108.348  1.00  0.00     0.184 C 
BRANCH   9  10
HETATM   10  O3  UNL     1      20.008  -6.858 109.735  1.00  0.00    -0.317 OA
BRANCH  10  11
HETATM   11  C9  UNL     1      20.897  -7.232 110.732  1.00  0.00     0.296 C 
HETATM   12  O2  UNL     1      21.746  -8.079 110.413  1.00  0.00    -0.259 OA
BRANCH  11  13
HETATM   13  C8  UNL     1      20.832  -6.646 112.112  1.00  0.00     0.073 A 
HETATM   14  C5  UNL     1      21.959  -6.265 112.776  1.00  0.00     0.093 A 
HETATM   15  S1  UNL     1      21.332  -5.700 114.292  1.00  0.00    -0.083 SA
HETATM   16  C6  UNL     1      19.676  -5.973 114.012  1.00  0.00     0.053 A 
HETATM   17  C7  UNL     1      19.660  -6.494 112.753  1.00  0.00     0.028 A 
BRANCH  14  18
HETATM   18  N1  UNL     1      23.356  -6.296 112.403  1.00  0.00    -0.317 N 
HETATM   19  C4  UNL     1      24.095  -7.471 112.730  1.00  0.00     0.251 C 
HETATM   20  O1  UNL     1      23.535  -8.411 113.310  1.00  0.00    -0.268 OA
ATOM     21  H1  UNL     1      23.795  -5.509 111.925  1.00  0.00     0.169 HD
BRANCH  19  22
HETATM   22  C2  UNL     1      25.504  -7.573 112.387  1.00  0.00    -0.003 C 
HETATM   23  C1  UNL     1      26.381  -7.905 113.312  1.00  0.00     0.024 C 
HETATM   24  C3  UNL     1      25.947  -7.294 110.973  1.00  0.00     0.053 C 
ENDBRANCH  19  22
ENDBRANCH  14  18
ENDBRANCH  11  13
ENDBRANCH  10  11
ENDBRANCH   9  10
ENDBRANCH   8   9
ENDBRANCH   5   8
ENDBRANCH   1   5
BRANCH   3  25
HETATM   25  C14 UNL     1      17.875  -6.683 103.693  1.00  0.00     0.177 C 
BRANCH  25  26
HETATM   26  C15 UNL     1      16.433  -6.281 104.062  1.00  0.00     0.039 C 
BRANCH  26  27
HETATM   27  C16 UNL     1      15.553  -6.362 102.869  1.00  0.00    -0.012 C 
HETATM   28  C17 UNL     1      15.605  -5.012 102.133  1.00  0.00     0.005 C 
HETATM   29  C18 UNL     1      14.927  -5.185 100.809  1.00  0.00     0.000 C 
HETATM   30  C19 UNL     1      13.534  -5.709 101.070  1.00  0.00     0.000 C 
HETATM   31  C20 UNL     1      13.177  -5.650 102.529  1.00  0.00     0.000 C 
HETATM   32  C21 UNL     1      14.102  -6.387 103.433  1.00  0.00     0.005 C 
ENDBRANCH  26  27
ENDBRANCH  25  26
BRANCH  25  33
HETATM   33  N3  UNL     1      18.737  -5.538 103.559  1.00  0.00    -0.346 N 
HETATM   34  C22 UNL     1      19.214  -4.921 102.403  1.00  0.00     0.241 C 
HETATM   35  O5  UNL     1      18.930  -5.291 101.246  1.00  0.00    -0.271 OA
ATOM     36  H3  UNL     1      19.044  -5.117 104.437  1.00  0.00     0.163 HD
BRANCH  34  37
HETATM   37  C23 UNL     1      20.135  -3.726 102.452  1.00  0.00     0.179 C 
HETATM   38  C24 UNL     1      19.678  -2.800 103.558  1.00  0.00     0.037 C 
HETATM   39  C25 UNL     1      18.595  -2.003 102.869  1.00  0.00     0.022 C 
HETATM   40  C26 UNL     1      19.004  -1.979 101.428  1.00  0.00     0.127 C 
HETATM   41  N4  UNL     1      20.050  -2.976 101.250  1.00  0.00    -0.339 N 
HETATM   42  C27 UNL     1      20.809  -3.125 100.079  1.00  0.00     0.216 C 
HETATM   43  C28 UNL     1      21.867  -4.164  99.933  1.00  0.00     0.117 C 
HETATM   44  O6  UNL     1      20.628  -2.371  99.066  1.00  0.00    -0.274 OA
ENDBRANCH  34  37
ENDBRANCH  25  33
ENDBRANCH   3  25
TORSDOF 13
ENDMDL
MODEL 2
REMARK VINA RESULT: -9.482455653      1.357      2.584
REMARK  13 active torsions:
REMARK  status: ('A' for Active; 'I' for Inactive)
REMARK    1  A    between atoms: C2_2  and  C4_4 
REMARK       I    between atoms: C4_4  and  N1_6 
REMARK    2  A    between atoms: N1_6  and  C5_8 
REMARK    3  A    between atoms: C8_12  and  C9_13 
REMARK    4  A    between atoms: C9_13  and  O3_15 
REMARK    5  A    between atoms: O3_15  and  C10_16 
REMARK    6  A    between atoms: C10_16  and  C11_17 
REMARK    7  A    between atoms: C11_17  and  C12_18 
REMARK    8  A    between atoms: C12_18  and  N2_21 
REMARK       I    between atoms: N2_21  and  C13_23 
REMARK    9  A    between atoms: C13_23  and  C14_25 
REMARK   10  A    between atoms: C14_25  and  C15_26 
REMARK   11  A    between atoms: C14_25  and  N3_33 
REMARK   12  A    between atoms: C15_26  and  C16_27 
REMARK       I    between atoms: N3_33  and  C22_35 
REMARK   13  A    between atoms: C22_35  and  C23_37 
REMARK       I    between atoms: N4_41  and  C27_42 
ROOT
HETATM    1  N2  UNL     1      19.521  -7.664 105.268  1.00  0.00    -0.324 N 
ATOM      2  H2  UNL     1      20.167  -6.967 104.896  1.00  0.00     0.165 HD
HETATM    3  C13 UNL     1      18.202  -7.713 104.760  1.00  0.00     0.242 C 
HETATM    4  O4  UNL     1      17.374  -8.532 105.202  1.00  0.00    -0.271 OA
ENDROOT
BRANCH   1   5
HETATM    5  C12 UNL     1      19.985  -8.564 106.294  1.00  0.00     0.190 C 
HETATM    6 CL1  UNL     1      21.765  -8.330 106.402  1.00  0.00    -0.078 Cl
HETATM    7 CL2  UNL     1      19.705 -10.238 105.788  1.00  0.00    -0.078 Cl
BRANCH   5   8
HETATM    8  C11 UNL     1      19.342  -8.253 107.639  1.00  0.00     0.092 C 
BRANCH   8   9
HETATM    9  C10 UNL     1      20.194  -7.238 108.358  1.00  0.00     0.184 C 
BRANCH   9  10
HETATM   10  O3  UNL     1      21.021  -7.853 109.340  1.00  0.00    -0.317 OA
BRANCH  10  11
HETATM   11  C9  UNL     1      21.178  -7.339 110.620  1.00  0.00     0.296 C 
HETATM   12  O2  UNL     1      20.281  -6.577 111.014  1.00  0.00    -0.259 OA
BRANCH  11  13
HETATM   13  C8  UNL     1      22.362  -7.687 111.474  1.00  0.00     0.073 A 
HETATM   14  C5  UNL     1      22.445  -7.283 112.772  1.00  0.00     0.093 A 
HETATM   15  S1  UNL     1      23.984  -7.914 113.266  1.00  0.00    -0.083 SA
HETATM   16  C6  UNL     1      24.446  -8.658 111.808  1.00  0.00     0.053 A 
HETATM   17  C7  UNL     1      23.395  -8.395 110.983  1.00  0.00     0.028 A 
BRANCH  14  18
HETATM   18  N1  UNL     1      21.545  -6.516 113.603  1.00  0.00    -0.317 N 
HETATM   19  C4  UNL     1      21.992  -5.236 114.044  1.00  0.00     0.251 C 
HETATM   20  O1  UNL     1      23.111  -4.824 113.712  1.00  0.00    -0.268 OA
ATOM     21  H1  UNL     1      20.627  -6.875 113.864  1.00  0.00     0.169 HD
BRANCH  19  22
HETATM   22  C2  UNL     1      21.141  -4.408 114.884  1.00  0.00    -0.003 C 
HETATM   23  C1  UNL     1      21.664  -3.408 115.563  1.00  0.00     0.024 C 
HETATM   24  C3  UNL     1      19.666  -4.707 114.970  1.00  0.00     0.053 C 
ENDBRANCH  19  22
ENDBRANCH  14  18
ENDBRANCH  11  13
ENDBRANCH  10  11
ENDBRANCH   9  10
ENDBRANCH   8   9
ENDBRANCH   5   8
ENDBRANCH   1   5
BRANCH   3  25
HETATM   25  C14 UNL     1      17.741  -6.795 103.679  1.00  0.00     0.177 C 
BRANCH  25  26
HETATM   26  C15 UNL     1      16.335  -6.366 104.143  1.00  0.00     0.039 C 
BRANCH  26  27
HETATM   27  C16 UNL     1      15.618  -5.670 103.046  1.00  0.00    -0.012 C 
HETATM   28  C17 UNL     1      14.165  -5.425 103.491  1.00  0.00     0.005 C 
HETATM   29  C18 UNL     1      13.529  -4.506 102.495  1.00  0.00     0.000 C 
HETATM   30  C19 UNL     1      13.673  -5.137 101.129  1.00  0.00     0.000 C 
HETATM   31  C20 UNL     1      14.157  -6.558 101.216  1.00  0.00     0.000 C 
HETATM   32  C21 UNL     1      15.455  -6.737 101.924  1.00  0.00     0.005 C 
ENDBRANCH  26  27
ENDBRANCH  25  26
BRANCH  25  33
HETATM   33  N3  UNL     1      18.620  -5.668 103.506  1.00  0.00    -0.346 N 
HETATM   34  C22 UNL     1      19.036  -5.044 102.331  1.00  0.00     0.241 C 
HETATM   35  O5  UNL     1      18.668  -5.388 101.189  1.00  0.00    -0.271 OA
ATOM     36  H3  UNL     1      18.994  -5.270 104.368  1.00  0.00     0.163 HD
BRANCH  34  37
HETATM   37  C23 UNL     1      19.987  -3.872 102.337  1.00  0.00     0.179 C 
HETATM   38  C24 UNL     1      19.577  -2.914 103.434  1.00  0.00     0.037 C 
HETATM   39  C25 UNL     1      18.500  -2.103 102.752  1.00  0.00     0.022 C 
HETATM   40  C26 UNL     1      18.878  -2.116 101.303  1.00  0.00     0.127 C 
HETATM   41  N4  UNL     1      19.895  -3.143 101.122  1.00  0.00    -0.339 N 
HETATM   42  C27 UNL     1      20.625  -3.334  99.940  1.00  0.00     0.216 C 
HETATM   43  C28 UNL     1      21.653  -4.401  99.792  1.00  0.00     0.117 C 
HETATM   44  O6  UNL     1      20.442  -2.595  98.916  1.00  0.00    -0.274 OA
ENDBRANCH  34  37
ENDBRANCH  25  33
ENDBRANCH   3  25
TORSDOF 13
ENDMDL
MODEL 3
REMARK VINA RESULT: -9.458465191      2.758      5.212
REMARK  13 active torsions:
REMARK  status: ('A' for Active; 'I' for Inactive)
REMARK    1  A    between atoms: C2_2  and  C4_4 
REMARK       I    between atoms: C4_4  and  N1_6 
REMARK    2  A    between atoms: N1_6  and  C5_8 
REMARK    3  A    between atoms: C8_12  and  C9_13 
REMARK    4  A    between atoms: C9_13  and  O3_15 
REMARK    5  A    between atoms: O3_15  and  C10_16 
REMARK    6  A    between atoms: C10_16  and  C11_17 
REMARK    7  A    between atoms: C11_17  and  C12_18 
REMARK    8  A    between atoms: C12_18  and  N2_21 
REMARK       I    between atoms: N2_21  and  C13_23 
REMARK    9  A    between atoms: C13_23  and  C14_25 
REMARK   10  A    between atoms: C14_25  and  C15_26 
REMARK   11  A    between atoms: C14_25  and  N3_33 
REMARK   12  A    between atoms: C15_26  and  C16_27 
REMARK       I    between atoms: N3_33  and  C22_35 
REMARK   13  A    between atoms: C22_35  and  C23_37 
REMARK       I    between atoms: N4_41  and  C27_42 
ROOT
HETATM    1  N2  UNL     1      18.699  -5.880 103.517  1.00  0.00    -0.324 N 
ATOM      2  H2  UNL     1      18.899  -6.427 102.679  1.00  0.00     0.165 HD
HETATM    3  C13 UNL     1      18.675  -4.469 103.422  1.00  0.00     0.242 C 
HETATM    4  O4  UNL     1      18.459  -3.762 104.425  1.00  0.00    -0.271 OA
ENDROOT
BRANCH   1   5
HETATM    5  C12 UNL     1      18.452  -6.573 104.757  1.00  0.00     0.190 C 
HETATM    6 CL1  UNL     1      19.173  -8.209 104.573  1.00  0.00    -0.078 Cl
HETATM    7 CL2  UNL     1      16.709  -6.789 104.980  1.00  0.00    -0.078 Cl
BRANCH   5   8
HETATM    8  C11 UNL     1      19.098  -5.854 105.934  1.00  0.00     0.092 C 
BRANCH   8   9
HETATM    9  C10 UNL     1      19.235  -6.826 107.077  1.00  0.00     0.184 C 
BRANCH   9  10
HETATM   10  O3  UNL     1      20.320  -6.481 107.931  1.00  0.00    -0.317 OA
BRANCH  10  11
HETATM   11  C9  UNL     1      20.703  -7.260 109.014  1.00  0.00     0.296 C 
HETATM   12  O2  UNL     1      20.426  -6.805 110.135  1.00  0.00    -0.259 OA
BRANCH  11  13
HETATM   13  C8  UNL     1      21.409  -8.572 108.837  1.00  0.00     0.073 A 
HETATM   14  C5  UNL     1      22.184  -9.101 109.824  1.00  0.00     0.093 A 
HETATM   15  S1  UNL     1      22.767 -10.567 109.103  1.00  0.00    -0.083 SA
HETATM   16  C6  UNL     1      22.001 -10.441 107.589  1.00  0.00     0.053 A 
HETATM   17  C7  UNL     1      21.318  -9.266 107.688  1.00  0.00     0.028 A 
BRANCH  14  18
HETATM   18  N1  UNL     1      22.508  -8.631 111.153  1.00  0.00    -0.317 N 
HETATM   19  C4  UNL     1      23.852  -8.219 111.392  1.00  0.00     0.251 C 
HETATM   20  O1  UNL     1      24.686  -8.272 110.479  1.00  0.00    -0.268 OA
ATOM     21  H1  UNL     1      21.804  -8.596 111.889  1.00  0.00     0.169 HD
BRANCH  19  22
HETATM   22  C2  UNL     1      24.251  -7.736 112.704  1.00  0.00    -0.003 C 
HETATM   23  C1  UNL     1      25.492  -7.899 113.113  1.00  0.00     0.024 C 
HETATM   24  C3  UNL     1      23.235  -7.055 113.585  1.00  0.00     0.053 C 
ENDBRANCH  19  22
ENDBRANCH  14  18
ENDBRANCH  11  13
ENDBRANCH  10  11
ENDBRANCH   9  10
ENDBRANCH   8   9
ENDBRANCH   5   8
ENDBRANCH   1   5
BRANCH   3  25
HETATM   25  C14 UNL     1      18.905  -3.764 102.128  1.00  0.00     0.177 C 
BRANCH  25  26
HETATM   26  C15 UNL     1      20.428  -3.885 101.916  1.00  0.00     0.039 C 
BRANCH  26  27
HETATM   27  C16 UNL     1      20.759  -3.775 100.474  1.00  0.00    -0.012 C 
HETATM   28  C17 UNL     1      20.955  -5.194  99.909  1.00  0.00     0.005 C 
HETATM   29  C18 UNL     1      21.033  -5.087  98.417  1.00  0.00     0.000 C 
HETATM   30  C19 UNL     1      22.141  -4.115  98.082  1.00  0.00     0.000 C 
HETATM   31  C20 UNL     1      22.966  -3.767  99.290  1.00  0.00     0.000 C 
HETATM   32  C21 UNL     1      22.200  -3.188 100.429  1.00  0.00     0.005 C 
ENDBRANCH  26  27
ENDBRANCH  25  26
BRANCH  25  33
HETATM   33  N3  UNL     1      18.160  -4.351 101.046  1.00  0.00    -0.346 N 
HETATM   34  C22 UNL     1      16.797  -4.270 100.766  1.00  0.00     0.241 C 
HETATM   35  O5  UNL     1      15.979  -3.624 101.451  1.00  0.00    -0.271 OA
ATOM     36  H3  UNL     1      18.709  -4.907 100.389  1.00  0.00     0.163 HD
BRANCH  34  37
HETATM   37  C23 UNL     1      16.177  -4.974  99.583  1.00  0.00     0.179 C 
HETATM   38  C24 UNL     1      17.274  -5.374  98.620  1.00  0.00     0.037 C 
HETATM   39  C25 UNL     1      17.471  -4.103  97.828  1.00  0.00     0.022 C 
HETATM   40  C26 UNL     1      16.132  -3.434  97.848  1.00  0.00     0.127 C 
HETATM   41  N4  UNL     1      15.325  -4.094  98.864  1.00  0.00    -0.339 N 
HETATM   42  C27 UNL     1      13.953  -3.868  99.056  1.00  0.00     0.216 C 
HETATM   43  C28 UNL     1      13.163  -4.560 100.112  1.00  0.00     0.117 C 
HETATM   44  O6  UNL     1      13.305  -3.045  98.328  1.00  0.00    -0.274 OA
ENDBRANCH  34  37
ENDBRANCH  25  33
ENDBRANCH   3  25
TORSDOF 13
ENDMDL
MODEL 4
REMARK VINA RESULT: -9.431344697      2.606      4.920
REMARK  13 active torsions:
REMARK  status: ('A' for Active; 'I' for Inactive)
REMARK    1  A    between atoms: C2_2  and  C4_4 
REMARK       I    between atoms: C4_4  and  N1_6 
REMARK    2  A    between atoms: N1_6  and  C5_8 
REMARK    3  A    between atoms: C8_12  and  C9_13 
REMARK    4  A    between atoms: C9_13  and  O3_15 
REMARK    5  A    between atoms: O3_15  and  C10_16 
REMARK    6  A    between atoms: C10_16  and  C11_17 
REMARK    7  A    between atoms: C11_17  and  C12_18 
REMARK    8  A    between atoms: C12_18  and  N2_21 
REMARK       I    between atoms: N2_21  and  C13_23 
REMARK    9  A    between atoms: C13_23  and  C14_25 
REMARK   10  A    between atoms: C14_25  and  C15_26 
REMARK   11  A    between atoms: C14_25  and  N3_33 
REMARK   12  A    between atoms: C15_26  and  C16_27 
REMARK       I    between atoms: N3_33  and  C22_35 
REMARK   13  A    between atoms: C22_35  and  C23_37 
REMARK       I    between atoms: N4_41  and  C27_42 
ROOT
HETATM    1  N2  UNL     1      18.420  -5.692 103.993  1.00  0.00    -0.324 N 
ATOM      2  H2  UNL     1      19.015  -5.146 104.616  1.00  0.00     0.165 HD
HETATM    3  C13 UNL     1      18.040  -5.137 102.749  1.00  0.00     0.242 C 
HETATM    4  O4  UNL     1      17.295  -5.759 101.968  1.00  0.00    -0.271 OA
ENDROOT
BRANCH   1   5
HETATM    5  C12 UNL     1      17.995  -7.005 104.412  1.00  0.00     0.190 C 
HETATM    6 CL1  UNL     1      18.461  -8.131 103.090  1.00  0.00    -0.078 Cl
HETATM    7 CL2  UNL     1      16.229  -7.046 104.539  1.00  0.00    -0.078 Cl
BRANCH   5   8
HETATM    8  C11 UNL     1      18.676  -7.422 105.709  1.00  0.00     0.092 C 
BRANCH   8   9
HETATM    9  C10 UNL     1      19.187  -6.185 106.404  1.00  0.00     0.184 C 
BRANCH   9  10
HETATM   10  O3  UNL     1      20.425  -6.430 107.063  1.00  0.00    -0.317 OA
BRANCH  10  11
HETATM   11  C9  UNL     1      20.517  -7.135 108.255  1.00  0.00     0.296 C 
HETATM   12  O2  UNL     1      19.981  -6.607 109.242  1.00  0.00    -0.259 OA
BRANCH  11  13
HETATM   13  C8  UNL     1      21.224  -8.456 108.341  1.00  0.00     0.073 A 
HETATM   14  C5  UNL     1      21.877  -8.839 109.473  1.00  0.00     0.093 A 
HETATM   15  S1  UNL     1      22.521 -10.389 109.031  1.00  0.00    -0.083 SA
HETATM   16  C6  UNL     1      21.932 -10.476 107.438  1.00  0.00     0.053 A 
HETATM   17  C7  UNL     1      21.255  -9.302 107.297  1.00  0.00     0.028 A 
BRANCH  14  18
HETATM   18  N1  UNL     1      22.055  -8.189 110.752  1.00  0.00    -0.317 N 
HETATM   19  C4  UNL     1      23.390  -8.035 111.229  1.00  0.00     0.251 C 
HETATM   20  O1  UNL     1      24.339  -8.452 110.552  1.00  0.00    -0.268 OA
ATOM     21  H1  UNL     1      21.258  -7.853 111.292  1.00  0.00     0.169 HD
BRANCH  19  22
HETATM   22  C2  UNL     1      23.645  -7.391 112.507  1.00  0.00    -0.003 C 
HETATM   23  C1  UNL     1      24.765  -7.642 113.155  1.00  0.00     0.024 C 
HETATM   24  C3  UNL     1      22.622  -6.444 113.080  1.00  0.00     0.053 C 
ENDBRANCH  19  22
ENDBRANCH  14  18
ENDBRANCH  11  13
ENDBRANCH  10  11
ENDBRANCH   9  10
ENDBRANCH   8   9
ENDBRANCH   5   8
ENDBRANCH   1   5
BRANCH   3  25
HETATM   25  C14 UNL     1      18.508  -3.789 102.315  1.00  0.00     0.177 C 
BRANCH  25  26
HETATM   26  C15 UNL     1      20.044  -3.929 102.295  1.00  0.00     0.039 C 
BRANCH  26  27
HETATM   27  C16 UNL     1      20.569  -3.676 100.930  1.00  0.00    -0.012 C 
HETATM   28  C17 UNL     1      21.015  -5.019 100.324  1.00  0.00     0.005 C 
HETATM   29  C18 UNL     1      21.298  -4.794  98.871  1.00  0.00     0.000 C 
HETATM   30  C19 UNL     1      22.319  -3.685  98.767  1.00  0.00     0.000 C 
HETATM   31  C20 UNL     1      22.909  -3.338 100.106  1.00  0.00     0.000 C 
HETATM   32  C21 UNL     1      21.920  -2.933 101.143  1.00  0.00     0.005 C 
ENDBRANCH  26  27
ENDBRANCH  25  26
BRANCH  25  33
HETATM   33  N3  UNL     1      17.984  -3.416 101.028  1.00  0.00    -0.346 N 
HETATM   34  C22 UNL     1      16.957  -2.525 100.717  1.00  0.00     0.241 C 
HETATM   35  O5  UNL     1      16.317  -1.872 101.566  1.00  0.00    -0.271 OA
ATOM     36  H3  UNL     1      18.426  -3.869 100.228  1.00  0.00     0.163 HD
BRANCH  34  37
HETATM   37  C23 UNL     1      16.521  -2.266  99.295  1.00  0.00     0.179 C 
HETATM   38  C24 UNL     1      15.074  -2.683  99.143  1.00  0.00     0.037 C 
HETATM   39  C25 UNL     1      15.203  -4.166  98.889  1.00  0.00     0.022 C 
HETATM   40  C26 UNL     1      16.533  -4.320  98.217  1.00  0.00     0.127 C 
HETATM   41  N4  UNL     1      17.260  -3.070  98.388  1.00  0.00    -0.339 N 
HETATM   42  C27 UNL     1      18.470  -2.765  97.747  1.00  0.00     0.216 C 
HETATM   43  C28 UNL     1      19.187  -1.476  97.953  1.00  0.00     0.117 C 
HETATM   44  O6  UNL     1      19.026  -3.587  96.945  1.00  0.00    -0.274 OA
ENDBRANCH  34  37
ENDBRANCH  25  33
ENDBRANCH   3  25
TORSDOF 13
ENDMDL
MODEL 5
REMARK VINA RESULT: -9.344289701      2.713      5.253
REMARK  13 active torsions:
REMARK  status: ('A' for Active; 'I' for Inactive)
REMARK    1  A    between atoms: C2_2  and  C4_4 
REMARK       I    between atoms: C4_4  and  N1_6 
REMARK    2  A    between atoms: N1_6  and  C5_8 
REMARK    3  A    between atoms: C8_12  and  C9_13 
REMARK    4  A    between atoms: C9_13  and  O3_15 
REMARK    5  A    between atoms: O3_15  and  C10_16 
REMARK    6  A    between atoms: C10_16  and  C11_17 
REMARK    7  A    between atoms: C11_17  and  C12_18 
REMARK    8  A    between atoms: C12_18  and  N2_21 
REMARK       I    between atoms: N2_21  and  C13_23 
REMARK    9  A    between atoms: C13_23  and  C14_25 
REMARK   10  A    between atoms: C14_25  and  C15_26 
REMARK   11  A    between atoms: C14_25  and  N3_33 
REMARK   12  A    between atoms: C15_26  and  C16_27 
REMARK       I    between atoms: N3_33  and  C22_35 
REMARK   13  A    between atoms: C22_35  and  C23_37 
REMARK       I    between atoms: N4_41  and  C27_42 
ROOT
HETATM    1  N2  UNL     1      18.345  -6.386 103.147  1.00  0.00    -0.324 N 
ATOM      2  H2  UNL     1      18.394  -6.737 102.190  1.00  0.00     0.165 HD
HETATM    3  C13 UNL     1      18.471  -4.995 103.372  1.00  0.00     0.242 C 
HETATM    4  O4  UNL     1      18.441  -4.527 104.526  1.00  0.00    -0.271 OA
ENDROOT
BRANCH   1   5
HETATM    5  C12 UNL     1      18.150  -7.326 104.222  1.00  0.00     0.190 C 
HETATM    6 CL1  UNL     1      18.314  -8.963 103.497  1.00  0.00    -0.078 Cl
HETATM    7 CL2  UNL     1      16.495  -7.188 104.839  1.00  0.00    -0.078 Cl
BRANCH   5   8
HETATM    8  C11 UNL     1      19.190  -7.140 105.318  1.00  0.00     0.092 C 
BRANCH   8   9
HETATM    9  C10 UNL     1      19.248  -8.399 106.147  1.00  0.00     0.184 C 
BRANCH   9  10
HETATM   10  O3  UNL     1      19.248  -8.108 107.540  1.00  0.00    -0.317 OA
BRANCH  10  11
HETATM   11  C9  UNL     1      20.325  -7.516 108.186  1.00  0.00     0.296 C 
HETATM   12  O2  UNL     1      20.319  -6.276 108.227  1.00  0.00    -0.259 OA
BRANCH  11  13
HETATM   13  C8  UNL     1      21.428  -8.331 108.795  1.00  0.00     0.073 A 
HETATM   14  C5  UNL     1      21.745  -8.222 110.115  1.00  0.00     0.093 A 
HETATM   15  S1  UNL     1      23.071  -9.330 110.278  1.00  0.00    -0.083 SA
HETATM   16  C6  UNL     1      23.158  -9.877 108.669  1.00  0.00     0.053 A 
HETATM   17  C7  UNL     1      22.159  -9.183 108.055  1.00  0.00     0.028 A 
BRANCH  14  18
HETATM   18  N1  UNL     1      21.190  -7.414 111.178  1.00  0.00    -0.317 N 
HETATM   19  C4  UNL     1      22.107  -6.785 112.070  1.00  0.00     0.251 C 
HETATM   20  O1  UNL     1      23.325  -6.942 111.915  1.00  0.00    -0.268 OA
ATOM     21  H1  UNL     1      20.182  -7.299 111.285  1.00  0.00     0.169 HD
BRANCH  19  22
HETATM   22  C2  UNL     1      21.621  -5.958 113.163  1.00  0.00    -0.003 C 
HETATM   23  C1  UNL     1      22.477  -5.408 113.999  1.00  0.00     0.024 C 
HETATM   24  C3  UNL     1      20.138  -5.742 113.328  1.00  0.00     0.053 C 
ENDBRANCH  19  22
ENDBRANCH  14  18
ENDBRANCH  11  13
ENDBRANCH  10  11
ENDBRANCH   9  10
ENDBRANCH   8   9
ENDBRANCH   5   8
ENDBRANCH   1   5
BRANCH   3  25
HETATM   25  C14 UNL     1      18.646  -4.030 102.249  1.00  0.00     0.177 C 
BRANCH  25  26
HETATM   26  C15 UNL     1      20.176  -3.955 102.071  1.00  0.00     0.039 C 
BRANCH  26  27
HETATM   27  C16 UNL     1      20.524  -3.839 100.633  1.00  0.00    -0.012 C 
HETATM   28  C17 UNL     1      20.850  -5.245 100.096  1.00  0.00     0.005 C 
HETATM   29  C18 UNL     1      20.946  -5.155  98.604  1.00  0.00     0.000 C 
HETATM   30  C19 UNL     1      21.974  -4.098  98.272  1.00  0.00     0.000 C 
HETATM   31  C20 UNL     1      22.744  -3.663  99.488  1.00  0.00     0.000 C 
HETATM   32  C21 UNL     1      21.911  -3.134 100.603  1.00  0.00     0.005 C 
ENDBRANCH  26  27
ENDBRANCH  25  26
BRANCH  25  33
HETATM   33  N3  UNL     1      17.983  -4.463 101.047  1.00  0.00    -0.346 N 
HETATM   34  C22 UNL     1      16.641  -4.344 100.686  1.00  0.00     0.241 C 
HETATM   35  O5  UNL     1      15.773  -3.796 101.395  1.00  0.00    -0.271 OA
ATOM     36  H3  UNL     1      18.580  -4.924 100.361  1.00  0.00     0.163 HD
BRANCH  34  37
HETATM   37  C23 UNL     1      16.111  -4.878  99.378  1.00  0.00     0.179 C 
HETATM   38  C24 UNL     1      17.279  -5.205  98.473  1.00  0.00     0.037 C 
HETATM   39  C25 UNL     1      17.582  -3.858  97.860  1.00  0.00     0.022 C 
HETATM   40  C26 UNL     1      16.265  -3.145  97.845  1.00  0.00     0.127 C 
HETATM   41  N4  UNL     1      15.352  -3.888  98.701  1.00  0.00    -0.339 N 
HETATM   42  C27 UNL     1      13.976  -3.633  98.800  1.00  0.00     0.216 C 
HETATM   43  C28 UNL     1      13.075  -4.414  99.693  1.00  0.00     0.117 C 
HETATM   44  O6  UNL     1      13.418  -2.706  98.123  1.00  0.00    -0.274 OA
ENDBRANCH  34  37
ENDBRANCH  25  33
ENDBRANCH   3  25
TORSDOF 13
ENDMDL
