MODEL 1
REMARK VINA RESULT: -10.447671068      0.000      0.000
REMARK  12 active torsions:
REMARK  status: ('A' for Active; 'I' for Inactive)
REMARK    1  A    between atoms: C2_2  and  C4_4 
REMARK    2  A    between atoms: C4_4  and  N1_5 
REMARK    3  A    between atoms: C4_4  and  C13_27 
REMARK       I    between atoms: N1_5  and  C5_7 
REMARK    4  A    between atoms: C5_7  and  C6_9 
REMARK    5  A    between atoms: C6_9  and  C7_10 
REMARK    6  A    between atoms: C6_9  and  N6_20 
REMARK    7  A    between atoms: C7_10  and  C8_11 
REMARK       I    between atoms: C13_27  and  N7_29 
REMARK    8  A    between atoms: N7_29  and  C14_31 
REMARK    9  A    between atoms: C14_31  and  C15_32 
REMARK   10  A    between atoms: C15_32  and  C16_33 
REMARK   11  A    between atoms: C15_32  and  C23_40 
REMARK   12  A    between atoms: C16_33  and  C17_34 
REMARK       I    between atoms: C23_40  and  N8_42 
ROOT
HETATM    1  C4  UNL     1      19.830  -4.221  99.520  1.00  0.00     0.180 C 
ENDROOT
BRANCH   1   2
HETATM    2  C2  UNL     1      21.051  -4.914  98.974  1.00  0.00     0.009 C 
HETATM    3  C1  UNL     1      22.272  -4.293  99.567  1.00  0.00     0.012 C 
HETATM    4  C3  UNL     1      21.051  -4.692  97.481  1.00  0.00     0.012 C 
ENDBRANCH   1   2
BRANCH   1   5
HETATM    5  N1  UNL     1      20.259  -3.152 100.375  1.00  0.00    -0.346 N 
HETATM    6  C5  UNL     1      19.750  -1.819 100.380  1.00  0.00     0.241 C 
HETATM    7  O1  UNL     1      18.841  -1.588  99.560  1.00  0.00    -0.271 OA
ATOM      8  H1  UNL     1      20.999  -3.367 101.044  1.00  0.00     0.163 HD
BRANCH   6   9
HETATM    9  C6  UNL     1      20.322  -0.815 101.339  1.00  0.00     0.182 C 
BRANCH   9  10
HETATM   10  C7  UNL     1      21.101  -1.562 102.387  1.00  0.00     0.114 C 
BRANCH  10  11
HETATM   11  C8  UNL     1      20.413  -1.675 103.691  1.00  0.00     0.115 A 
HETATM   12  N2  UNL     1      19.110  -1.573 103.956  1.00  0.00    -0.272 N 
HETATM   13  N3  UNL     1      18.942  -1.726 105.247  1.00  0.00    -0.227 N 
ATOM     14  H2  UNL     1      18.371  -1.404 103.273  1.00  0.00     0.190 HD
HETATM   15  N4  UNL     1      20.107  -1.926 105.827  1.00  0.00    -0.227 N 
ATOM     16  H3  UNL     1      18.044  -1.695 105.729  1.00  0.00     0.210 HD
HETATM   17  N5  UNL     1      21.020  -1.897 104.877  1.00  0.00    -0.272 N 
ATOM     18  H4  UNL     1      20.271  -2.075 106.823  1.00  0.00     0.210 HD
ATOM     19  H5  UNL     1      22.024  -2.021 105.016  1.00  0.00     0.190 HD
ENDBRANCH  10  11
ENDBRANCH   9  10
BRANCH   9  20
HETATM   20  N6  UNL     1      20.936   0.238 100.693  1.00  0.00    -0.374 N 
HETATM   21  C9  UNL     1      20.228   1.489 100.687  1.00  0.00     0.129 C 
HETATM   22  C10 UNL     1      21.238   2.444 100.024  1.00  0.00     0.105 C 
HETATM   23  C11 UNL     1      21.876   1.567  98.999  1.00  0.00     0.276 C 
HETATM   24  F1  UNL     1      21.358   1.886  97.760  1.00  0.00    -0.200 F 
HETATM   25  F2  UNL     1      23.250   1.726  98.905  1.00  0.00    -0.200 F 
HETATM   26  C12 UNL     1      21.520   0.142  99.421  1.00  0.00     0.137 C 
ENDBRANCH   9  20
ENDBRANCH   6   9
ENDBRANCH   1   5
BRANCH   1  27
HETATM   27  C13 UNL     1      18.938  -5.169 100.293  1.00  0.00     0.241 C 
HETATM   28  O2  UNL     1      17.959  -5.653  99.701  1.00  0.00    -0.271 OA
HETATM   29  N7  UNL     1      19.204  -5.493 101.634  1.00  0.00    -0.355 N 
ATOM     30  H7  UNL     1      20.031  -5.046 102.031  1.00  0.00     0.162 HD
BRANCH  29  31
HETATM   31  C14 UNL     1      18.498  -6.346 102.520  1.00  0.00     0.162 C 
BRANCH  31  32
HETATM   32  C15 UNL     1      17.854  -5.801 103.724  1.00  0.00     0.006 C 
BRANCH  32  33
HETATM   33  C16 UNL     1      16.470  -6.298 104.013  1.00  0.00     0.046 C 
BRANCH  33  34
HETATM   34  C17 UNL     1      15.384  -6.043 103.063  1.00  0.00    -0.010 C 
HETATM   35  C18 UNL     1      13.980  -6.104 103.634  1.00  0.00     0.005 C 
HETATM   36  C19 UNL     1      13.078  -6.406 102.429  1.00  0.00     0.000 C 
HETATM   37  C20 UNL     1      13.206  -5.333 101.383  1.00  0.00     0.000 C 
HETATM   38  C21 UNL     1      14.646  -5.269 100.889  1.00  0.00     0.000 C 
HETATM   39  C22 UNL     1      15.472  -4.867 102.144  1.00  0.00     0.005 C 
ENDBRANCH  33  34
ENDBRANCH  32  33
BRANCH  32  40
HETATM   40  C23 UNL     1      18.629  -5.661 104.966  1.00  0.00     0.247 C 
HETATM   41  O3  UNL     1      18.704  -4.494 105.489  1.00  0.00    -0.268 OA
HETATM   42  N8  UNL     1      19.281  -6.710 105.600  1.00  0.00    -0.348 N 
HETATM   43  C24 UNL     1      20.004  -6.466 106.862  1.00  0.00     0.127 C 
HETATM   44  C32 UNL     1      19.330  -8.042 105.089  1.00  0.00     0.127 C 
HETATM   45  C25 UNL     1      19.979  -7.751 107.646  1.00  0.00     0.029 C 
HETATM   46  C26 UNL     1      20.796  -8.792 106.963  1.00  0.00    -0.037 C 
HETATM   47  C27 UNL     1      20.378 -10.143 107.493  1.00  0.00     0.010 C 
HETATM   48  C30 UNL     1      22.266  -8.750 107.269  1.00  0.00     0.010 C 
HETATM   49  C31 UNL     1      20.649  -8.725 105.452  1.00  0.00     0.029 C 
HETATM   50  C28 UNL     1      21.129 -10.233 108.802  1.00  0.00     0.001 C 
HETATM   51  C29 UNL     1      22.432  -9.524 108.536  1.00  0.00     0.001 C 
ENDBRANCH  32  40
ENDBRANCH  31  32
ENDBRANCH  29  31
ENDBRANCH   1  27
TORSDOF 12
ENDMDL
MODEL 2
REMARK VINA RESULT: -10.039566990      2.483      4.370
REMARK  12 active torsions:
REMARK  status: ('A' for Active; 'I' for Inactive)
REMARK    1  A    between atoms: C2_2  and  C4_4 
REMARK    2  A    between atoms: C4_4  and  N1_5 
REMARK    3  A    between atoms: C4_4  and  C13_27 
REMARK       I    between atoms: N1_5  and  C5_7 
REMARK    4  A    between atoms: C5_7  and  C6_9 
REMARK    5  A    between atoms: C6_9  and  C7_10 
REMARK    6  A    between atoms: C6_9  and  N6_20 
REMARK    7  A    between atoms: C7_10  and  C8_11 
REMARK       I    between atoms: C13_27  and  N7_29 
REMARK    8  A    between atoms: N7_29  and  C14_31 
REMARK    9  A    between atoms: C14_31  and  C15_32 
REMARK   10  A    between atoms: C15_32  and  C16_33 
REMARK   11  A    between atoms: C15_32  and  C23_40 
REMARK   12  A    between atoms: C16_33  and  C17_34 
REMARK       I    between atoms: C23_40  and  N8_42 
ROOT
HETATM    1  C4  UNL     1      18.080  -0.783  99.241  1.00  0.00     0.180 C 
ENDROOT
BRANCH   1   2
HETATM    2  C2  UNL     1      18.131  -0.833  97.736  1.00  0.00     0.009 C 
HETATM    3  C1  UNL     1      18.259  -2.255  97.298  1.00  0.00     0.012 C 
HETATM    4  C3  UNL     1      19.359  -0.066  97.312  1.00  0.00     0.012 C 
ENDBRANCH   1   2
BRANCH   1   5
HETATM    5  N1  UNL     1      19.107  -1.640  99.758  1.00  0.00    -0.346 N 
HETATM    6  C5  UNL     1      20.000  -1.336 100.830  1.00  0.00     0.241 C 
HETATM    7  O1  UNL     1      19.847  -0.216 101.355  1.00  0.00    -0.271 OA
ATOM      8  H1  UNL     1      19.209  -2.555  99.318  1.00  0.00     0.163 HD
BRANCH   6   9
HETATM    9  C6  UNL     1      21.030  -2.348 101.241  1.00  0.00     0.182 C 
BRANCH   9  10
HETATM   10  C7  UNL     1      20.349  -3.389 102.087  1.00  0.00     0.114 C 
BRANCH  10  11
HETATM   11  C8  UNL     1      20.043  -2.948 103.465  1.00  0.00     0.115 A 
HETATM   12  N2  UNL     1      20.576  -1.937 104.153  1.00  0.00    -0.272 N 
HETATM   13  N3  UNL     1      20.022  -1.914 105.340  1.00  0.00    -0.227 N 
ATOM     14  H2  UNL     1      21.291  -1.293 103.814  1.00  0.00     0.190 HD
HETATM   15  N4  UNL     1      19.141  -2.887 105.440  1.00  0.00    -0.227 N 
ATOM     16  H3  UNL     1      20.241  -1.244 106.076  1.00  0.00     0.210 HD
HETATM   17  N5  UNL     1      19.146  -3.531 104.290  1.00  0.00    -0.272 N 
ATOM     18  H4  UNL     1      18.564  -3.103 106.254  1.00  0.00     0.210 HD
ATOM     19  H5  UNL     1      18.566  -4.338 104.060  1.00  0.00     0.190 HD
ENDBRANCH  10  11
ENDBRANCH   9  10
BRANCH   9  20
HETATM   20  N6  UNL     1      21.804  -2.770 100.180  1.00  0.00    -0.374 N 
HETATM   21  C9  UNL     1      21.761  -4.173  99.870  1.00  0.00     0.129 C 
HETATM   22  C10 UNL     1      22.606  -4.260  98.585  1.00  0.00     0.105 C 
HETATM   23  C11 UNL     1      23.675  -3.251  98.841  1.00  0.00     0.276 C 
HETATM   24  F1  UNL     1      24.836  -3.913  99.182  1.00  0.00    -0.200 F 
HETATM   25  F2  UNL     1      23.977  -2.465  97.740  1.00  0.00    -0.200 F 
HETATM   26  C12 UNL     1      23.143  -2.396  99.991  1.00  0.00     0.137 C 
ENDBRANCH   9  20
ENDBRANCH   6   9
ENDBRANCH   1   5
BRANCH   1  27
HETATM   27  C13 UNL     1      16.732  -1.216  99.777  1.00  0.00     0.241 C 
HETATM   28  O2  UNL     1      15.737  -0.553  99.442  1.00  0.00    -0.271 OA
HETATM   29  N7  UNL     1      16.607  -2.328 100.628  1.00  0.00    -0.355 N 
ATOM     30  H7  UNL     1      17.482  -2.807 100.844  1.00  0.00     0.162 HD
BRANCH  29  31
HETATM   31  C14 UNL     1      15.451  -2.886 101.231  1.00  0.00     0.162 C 
BRANCH  31  32
HETATM   32  C15 UNL     1      15.246  -4.341 101.244  1.00  0.00     0.006 C 
BRANCH  32  33
HETATM   33  C16 UNL     1      14.131  -4.856 100.383  1.00  0.00     0.046 C 
BRANCH  33  34
HETATM   34  C17 UNL     1      13.631  -4.050  99.267  1.00  0.00    -0.010 C 
HETATM   35  C18 UNL     1      14.474  -4.073  98.007  1.00  0.00     0.005 C 
HETATM   36  C19 UNL     1      14.118  -2.773  97.271  1.00  0.00     0.000 C 
HETATM   37  C20 UNL     1      12.649  -2.723  96.956  1.00  0.00     0.000 C 
HETATM   38  C21 UNL     1      11.845  -2.767  98.249  1.00  0.00     0.000 C 
HETATM   39  C22 UNL     1      12.191  -4.147  98.878  1.00  0.00     0.005 C 
ENDBRANCH  33  34
ENDBRANCH  32  33
BRANCH  32  40
HETATM   40  C23 UNL     1      16.407  -5.242 101.190  1.00  0.00     0.247 C 
HETATM   41  O3  UNL     1      16.985  -5.397 100.057  1.00  0.00    -0.268 OA
HETATM   42  N8  UNL     1      16.908  -5.932 102.286  1.00  0.00    -0.348 N 
HETATM   43  C24 UNL     1      18.099  -6.787 102.128  1.00  0.00     0.127 C 
HETATM   44  C32 UNL     1      16.319  -5.899 103.585  1.00  0.00     0.127 C 
HETATM   45  C25 UNL     1      18.806  -6.815 103.457  1.00  0.00     0.029 C 
HETATM   46  C26 UNL     1      17.984  -7.534 104.469  1.00  0.00    -0.037 C 
HETATM   47  C27 UNL     1      18.476  -7.142 105.843  1.00  0.00     0.010 C 
HETATM   48  C30 UNL     1      18.136  -9.028 104.469  1.00  0.00     0.010 C 
HETATM   49  C31 UNL     1      16.502  -7.233 104.310  1.00  0.00     0.029 C 
HETATM   50  C28 UNL     1      19.692  -8.022 106.022  1.00  0.00     0.001 C 
HETATM   51  C29 UNL     1      19.332  -9.306 105.320  1.00  0.00     0.001 C 
ENDBRANCH  32  40
ENDBRANCH  31  32
ENDBRANCH  29  31
ENDBRANCH   1  27
TORSDOF 12
ENDMDL
MODEL 3
REMARK VINA RESULT: -10.006653315      1.821      2.788
REMARK  12 active torsions:
REMARK  status: ('A' for Active; 'I' for Inactive)
REMARK    1  A    between atoms: C2_2  and  C4_4 
REMARK    2  A    between atoms: C4_4  and  N1_5 
REMARK    3  A    between atoms: C4_4  and  C13_27 
REMARK       I    between atoms: N1_5  and  C5_7 
REMARK    4  A    between atoms: C5_7  and  C6_9 
REMARK    5  A    between atoms: C6_9  and  C7_10 
REMARK    6  A    between atoms: C6_9  and  N6_20 
REMARK    7  A    between atoms: C7_10  and  C8_11 
REMARK       I    between atoms: C13_27  and  N7_29 
REMARK    8  A    between atoms: N7_29  and  C14_31 
REMARK    9  A    between atoms: C14_31  and  C15_32 
REMARK   10  A    between atoms: C15_32  and  C16_33 
REMARK   11  A    between atoms: C15_32  and  C23_40 
REMARK   12  A    between atoms: C16_33  and  C17_34 
REMARK       I    between atoms: C23_40  and  N8_42 
ROOT
HETATM    1  C4  UNL     1      19.387  -4.146  98.580  1.00  0.00     0.180 C 
ENDROOT
BRANCH   1   2
HETATM    2  C2  UNL     1      20.558  -5.020  98.210  1.00  0.00     0.009 C 
HETATM    3  C1  UNL     1      21.427  -5.205  99.409  1.00  0.00     0.012 C 
HETATM    4  C3  UNL     1      21.330  -4.288  97.140  1.00  0.00     0.012 C 
ENDBRANCH   1   2
BRANCH   1   5
HETATM    5  N1  UNL     1      19.736  -3.392  99.750  1.00  0.00    -0.346 N 
HETATM    6  C5  UNL     1      19.541  -1.991  99.942  1.00  0.00     0.241 C 
HETATM    7  O1  UNL     1      19.008  -1.388  98.990  1.00  0.00    -0.271 OA
ATOM      8  H1  UNL     1      20.163  -3.908 100.520  1.00  0.00     0.163 HD
BRANCH   6   9
HETATM    9  C6  UNL     1      19.974  -1.356 101.231  1.00  0.00     0.182 C 
BRANCH   9  10
HETATM   10  C7  UNL     1      20.591  -2.424 102.093  1.00  0.00     0.114 C 
BRANCH  10  11
HETATM   11  C8  UNL     1      20.194  -2.361 103.516  1.00  0.00     0.115 A 
HETATM   12  N2  UNL     1      19.081  -2.818 104.091  1.00  0.00    -0.272 N 
HETATM   13  N3  UNL     1      19.137  -2.537 105.369  1.00  0.00    -0.227 N 
ATOM     14  H2  UNL     1      18.319  -3.303 103.617  1.00  0.00     0.190 HD
HETATM   15  N4  UNL     1      20.260  -1.906 105.639  1.00  0.00    -0.227 N 
ATOM     16  H3  UNL     1      18.417  -2.771 106.053  1.00  0.00     0.210 HD
HETATM   17  N5  UNL     1      20.920  -1.792 104.504  1.00  0.00    -0.272 N 
ATOM     18  H4  UNL     1      20.563  -1.570 106.554  1.00  0.00     0.210 HD
ATOM     19  H5  UNL     1      21.831  -1.348 104.390  1.00  0.00     0.190 HD
ENDBRANCH  10  11
ENDBRANCH   9  10
BRANCH   9  20
HETATM   20  N6  UNL     1      20.680  -0.188 101.030  1.00  0.00    -0.374 N 
HETATM   21  C9  UNL     1      19.957   0.907 100.442  1.00  0.00     0.129 C 
HETATM   22  C10 UNL     1      20.984   2.054 100.493  1.00  0.00     0.105 C 
HETATM   23  C11 UNL     1      22.266   1.344 100.215  1.00  0.00     0.276 C 
HETATM   24  F1  UNL     1      22.636   1.595  98.910  1.00  0.00    -0.200 F 
HETATM   25  F2  UNL     1      23.320   1.761 101.012  1.00  0.00    -0.200 F 
HETATM   26  C12 UNL     1      21.957  -0.135 100.450  1.00  0.00     0.137 C 
ENDBRANCH   9  20
ENDBRANCH   6   9
ENDBRANCH   1   5
BRANCH   1  27
HETATM   27  C13 UNL     1      18.136  -4.955  98.845  1.00  0.00     0.241 C 
HETATM   28  O2  UNL     1      17.717  -5.686  97.933  1.00  0.00    -0.271 OA
HETATM   29  N7  UNL     1      17.467  -4.885 100.079  1.00  0.00    -0.355 N 
ATOM     30  H7  UNL     1      17.890  -4.257 100.764  1.00  0.00     0.162 HD
BRANCH  29  31
HETATM   31  C14 UNL     1      16.295  -5.552 100.517  1.00  0.00     0.162 C 
BRANCH  31  32
HETATM   32  C15 UNL     1      15.488  -4.997 101.612  1.00  0.00     0.006 C 
BRANCH  32  33
HETATM   33  C16 UNL     1      14.179  -4.380 101.218  1.00  0.00     0.046 C 
BRANCH  33  34
HETATM   34  C17 UNL     1      13.833  -4.232  99.802  1.00  0.00    -0.010 C 
HETATM   35  C18 UNL     1      12.351  -4.208  99.484  1.00  0.00     0.005 C 
HETATM   36  C19 UNL     1      12.255  -4.646  98.016  1.00  0.00     0.000 C 
HETATM   37  C20 UNL     1      13.029  -3.711  97.128  1.00  0.00     0.000 C 
HETATM   38  C21 UNL     1      14.499  -3.724  97.528  1.00  0.00     0.000 C 
HETATM   39  C22 UNL     1      14.511  -3.179  98.986  1.00  0.00     0.005 C 
ENDBRANCH  33  34
ENDBRANCH  32  33
BRANCH  32  40
HETATM   40  C23 UNL     1      15.355  -5.742 102.873  1.00  0.00     0.247 C 
HETATM   41  O3  UNL     1      14.191  -5.807 103.403  1.00  0.00    -0.268 OA
HETATM   42  N8  UNL     1      16.410  -6.374 103.519  1.00  0.00    -0.348 N 
HETATM   43  C24 UNL     1      16.160  -7.123 104.764  1.00  0.00     0.127 C 
HETATM   44  C32 UNL     1      17.764  -6.323 103.070  1.00  0.00     0.127 C 
HETATM   45  C25 UNL     1      17.194  -8.215 104.842  1.00  0.00     0.029 C 
HETATM   46  C26 UNL     1      18.550  -7.634 105.042  1.00  0.00    -0.037 C 
HETATM   47  C27 UNL     1      19.572  -8.674 104.649  1.00  0.00     0.010 C 
HETATM   48  C30 UNL     1      18.909  -7.330 106.468  1.00  0.00     0.010 C 
HETATM   49  C31 UNL     1      18.738  -6.352 104.248  1.00  0.00     0.029 C 
HETATM   50  C28 UNL     1      19.634  -9.558 105.874  1.00  0.00     0.001 C 
HETATM   51  C29 UNL     1      19.432  -8.612 107.029  1.00  0.00     0.001 C 
ENDBRANCH  32  40
ENDBRANCH  31  32
ENDBRANCH  29  31
ENDBRANCH   1  27
TORSDOF 12
ENDMDL
MODEL 4
REMARK VINA RESULT: -9.931059890      3.366      8.891
REMARK  12 active torsions:
REMARK  status: ('A' for Active; 'I' for Inactive)
REMARK    1  A    between atoms: C2_2  and  C4_4 
REMARK    2  A    between atoms: C4_4  and  N1_5 
REMARK    3  A    between atoms: C4_4  and  C13_27 
REMARK       I    between atoms: N1_5  and  C5_7 
REMARK    4  A    between atoms: C5_7  and  C6_9 
REMARK    5  A    between atoms: C6_9  and  C7_10 
REMARK    6  A    between atoms: C6_9  and  N6_20 
REMARK    7  A    between atoms: C7_10  and  C8_11 
REMARK       I    between atoms: C13_27  and  N7_29 
REMARK    8  A    between atoms: N7_29  and  C14_31 
REMARK    9  A    between atoms: C14_31  and  C15_32 
REMARK   10  A    between atoms: C15_32  and  C16_33 
REMARK   11  A    between atoms: C15_32  and  C23_40 
REMARK   12  A    between atoms: C16_33  and  C17_34 
REMARK       I    between atoms: C23_40  and  N8_42 
ROOT
HETATM    1  C4  UNL     1      15.683  -5.917 102.670  1.00  0.00     0.180 C 
ENDROOT
BRANCH   1   2
HETATM    2  C2  UNL     1      14.389  -5.726 103.418  1.00  0.00     0.009 C 
HETATM    3  C1  UNL     1      14.373  -6.633 104.605  1.00  0.00     0.012 C 
HETATM    4  C3  UNL     1      13.276  -6.114 102.477  1.00  0.00     0.012 C 
ENDBRANCH   1   2
BRANCH   1   5
HETATM    5  N1  UNL     1      16.767  -5.563 103.539  1.00  0.00    -0.346 N 
HETATM    6  C5  UNL     1      18.063  -6.163 103.561  1.00  0.00     0.241 C 
HETATM    7  O1  UNL     1      18.247  -7.073 102.730  1.00  0.00    -0.271 OA
ATOM      8  H1  UNL     1      16.596  -4.809 104.206  1.00  0.00     0.163 HD
BRANCH   6   9
HETATM    9  C6  UNL     1      19.084  -5.675 104.548  1.00  0.00     0.182 C 
BRANCH   9  10
HETATM   10  C7  UNL     1      18.651  -4.319 105.036  1.00  0.00     0.114 C 
BRANCH  10  11
HETATM   11  C8  UNL     1      19.576  -3.222 104.681  1.00  0.00     0.115 A 
HETATM   12  N2  UNL     1      20.313  -2.459 105.490  1.00  0.00    -0.272 N 
HETATM   13  N3  UNL     1      20.975  -1.603 104.752  1.00  0.00    -0.227 N 
ATOM     14  H2  UNL     1      20.354  -2.531 106.507  1.00  0.00     0.190 HD
HETATM   15  N4  UNL     1      20.686  -1.790 103.482  1.00  0.00    -0.227 N 
ATOM     16  H3  UNL     1      21.618  -0.896 105.109  1.00  0.00     0.210 HD
HETATM   17  N5  UNL     1      19.824  -2.786 103.426  1.00  0.00    -0.272 N 
ATOM     18  H4  UNL     1      21.057  -1.264 102.690  1.00  0.00     0.210 HD
ATOM     19  H5  UNL     1      19.411  -3.167 102.574  1.00  0.00     0.190 HD
ENDBRANCH  10  11
ENDBRANCH   9  10
BRANCH   9  20
HETATM   20  N6  UNL     1      19.409  -6.635 105.484  1.00  0.00    -0.374 N 
HETATM   21  C9  UNL     1      18.443  -7.677 105.700  1.00  0.00     0.129 C 
HETATM   22  C10 UNL     1      19.175  -8.619 106.674  1.00  0.00     0.105 C 
HETATM   23  C11 UNL     1      19.930  -7.662 107.533  1.00  0.00     0.276 C 
HETATM   24  F1  UNL     1      19.282  -7.551 108.746  1.00  0.00    -0.200 F 
HETATM   25  F2  UNL     1      21.227  -8.064 107.813  1.00  0.00    -0.200 F 
HETATM   26  C12 UNL     1      19.924  -6.345 106.756  1.00  0.00     0.137 C 
ENDBRANCH   9  20
ENDBRANCH   6   9
ENDBRANCH   1   5
BRANCH   1  27
HETATM   27  C13 UNL     1      15.739  -5.077 101.411  1.00  0.00     0.241 C 
HETATM   28  O2  UNL     1      15.757  -5.671 100.321  1.00  0.00    -0.271 OA
HETATM   29  N7  UNL     1      15.772  -3.673 101.471  1.00  0.00    -0.355 N 
ATOM     30  H7  UNL     1      15.752  -3.280 102.412  1.00  0.00     0.162 HD
BRANCH  29  31
HETATM   31  C14 UNL     1      15.827  -2.720 100.422  1.00  0.00     0.162 C 
BRANCH  31  32
HETATM   32  C15 UNL     1      17.109  -2.391  99.783  1.00  0.00     0.006 C 
BRANCH  32  33
HETATM   33  C16 UNL     1      17.639  -3.402  98.812  1.00  0.00     0.046 C 
BRANCH  33  34
HETATM   34  C17 UNL     1      18.980  -3.965  98.994  1.00  0.00    -0.010 C 
HETATM   35  C18 UNL     1      19.252  -4.595 100.346  1.00  0.00     0.005 C 
HETATM   36  C19 UNL     1      20.779  -4.545 100.503  1.00  0.00     0.000 C 
HETATM   37  C20 UNL     1      21.455  -5.300  99.392  1.00  0.00     0.000 C 
HETATM   38  C21 UNL     1      21.099  -4.667  98.052  1.00  0.00     0.000 C 
HETATM   39  C22 UNL     1      19.558  -4.845  97.934  1.00  0.00     0.005 C 
ENDBRANCH  33  34
ENDBRANCH  32  33
BRANCH  32  40
HETATM   40  C23 UNL     1      17.353  -1.024  99.299  1.00  0.00     0.247 C 
HETATM   41  O3  UNL     1      16.389  -0.424  98.706  1.00  0.00    -0.268 OA
HETATM   42  N8  UNL     1      18.559  -0.351  99.443  1.00  0.00    -0.348 N 
HETATM   43  C24 UNL     1      18.687   1.032  98.949  1.00  0.00     0.127 C 
HETATM   44  C32 UNL     1      19.728  -0.927 100.025  1.00  0.00     0.127 C 
HETATM   45  C25 UNL     1      19.719   1.718  99.804  1.00  0.00     0.029 C 
HETATM   46  C26 UNL     1      21.066   1.128  99.566  1.00  0.00    -0.037 C 
HETATM   47  C27 UNL     1      21.953   1.489 100.735  1.00  0.00     0.010 C 
HETATM   48  C30 UNL     1      21.810   1.694  98.390  1.00  0.00     0.010 C 
HETATM   49  C31 UNL     1      20.998  -0.378  99.373  1.00  0.00     0.029 C 
HETATM   50  C28 UNL     1      22.376   2.903 100.405  1.00  0.00     0.001 C 
HETATM   51  C29 UNL     1      22.494   2.919  98.904  1.00  0.00     0.001 C 
ENDBRANCH  32  40
ENDBRANCH  31  32
ENDBRANCH  29  31
ENDBRANCH   1  27
TORSDOF 12
ENDMDL
MODEL 5
REMARK VINA RESULT: -9.902331852      3.408      8.991
REMARK  12 active torsions:
REMARK  status: ('A' for Active; 'I' for Inactive)
REMARK    1  A    between atoms: C2_2  and  C4_4 
REMARK    2  A    between atoms: C4_4  and  N1_5 
REMARK    3  A    between atoms: C4_4  and  C13_27 
REMARK       I    between atoms: N1_5  and  C5_7 
REMARK    4  A    between atoms: C5_7  and  C6_9 
REMARK    5  A    between atoms: C6_9  and  C7_10 
REMARK    6  A    between atoms: C6_9  and  N6_20 
REMARK    7  A    between atoms: C7_10  and  C8_11 
REMARK       I    between atoms: C13_27  and  N7_29 
REMARK    8  A    between atoms: N7_29  and  C14_31 
REMARK    9  A    between atoms: C14_31  and  C15_32 
REMARK   10  A    between atoms: C15_32  and  C16_33 
REMARK   11  A    between atoms: C15_32  and  C23_40 
REMARK   12  A    between atoms: C16_33  and  C17_34 
REMARK       I    between atoms: C23_40  and  N8_42 
ROOT
HETATM    1  C4  UNL     1      15.757  -5.993 102.706  1.00  0.00     0.180 C 
ENDROOT
BRANCH   1   2
HETATM    2  C2  UNL     1      14.422  -5.707 103.344  1.00  0.00     0.009 C 
HETATM    3  C1  UNL     1      14.292  -6.518 104.591  1.00  0.00     0.012 C 
HETATM    4  C3  UNL     1      13.364  -6.134 102.357  1.00  0.00     0.012 C 
ENDBRANCH   1   2
BRANCH   1   5
HETATM    5  N1  UNL     1      16.785  -5.752 103.678  1.00  0.00    -0.346 N 
HETATM    6  C5  UNL     1      18.112  -6.276 103.651  1.00  0.00     0.241 C 
HETATM    7  O1  UNL     1      18.382  -7.003 102.675  1.00  0.00    -0.271 OA
ATOM      8  H1  UNL     1      16.543  -5.147 104.463  1.00  0.00     0.163 HD
BRANCH   6   9
HETATM    9  C6  UNL     1      19.064  -5.930 104.758  1.00  0.00     0.182 C 
BRANCH   9  10
HETATM   10  C7  UNL     1      18.657  -4.597 105.325  1.00  0.00     0.114 C 
BRANCH  10  11
HETATM   11  C8  UNL     1      19.469  -3.459 104.845  1.00  0.00     0.115 A 
HETATM   12  N2  UNL     1      19.707  -3.077 103.589  1.00  0.00    -0.272 N 
HETATM   13  N3  UNL     1      20.488  -2.026 103.624  1.00  0.00    -0.227 N 
ATOM     14  H2  UNL     1      19.343  -3.526 102.748  1.00  0.00     0.190 HD
HETATM   15  N4  UNL     1      20.765  -1.716 104.872  1.00  0.00    -0.227 N 
ATOM     16  H3  UNL     1      20.831  -1.524 102.805  1.00  0.00     0.210 HD
HETATM   17  N5  UNL     1      20.141  -2.593 105.634  1.00  0.00    -0.272 N 
ATOM     18  H4  UNL     1      21.350  -0.943 105.191  1.00  0.00     0.210 HD
ATOM     19  H5  UNL     1      20.163  -2.613 106.654  1.00  0.00     0.190 HD
ENDBRANCH  10  11
ENDBRANCH   9  10
BRANCH   9  20
HETATM   20  N6  UNL     1      19.259  -6.981 105.631  1.00  0.00    -0.374 N 
HETATM   21  C9  UNL     1      19.715  -6.645 106.952  1.00  0.00     0.129 C 
HETATM   22  C10 UNL     1      19.688  -8.005 107.674  1.00  0.00     0.105 C 
HETATM   23  C11 UNL     1      20.120  -8.943 106.597  1.00  0.00     0.276 C 
HETATM   24  F1  UNL     1      21.436  -9.295 106.817  1.00  0.00    -0.200 F 
HETATM   25  F2  UNL     1      19.396 -10.125 106.562  1.00  0.00    -0.200 F 
HETATM   26  C12 UNL     1      19.945  -8.159 105.297  1.00  0.00     0.137 C 
ENDBRANCH   9  20
ENDBRANCH   6   9
ENDBRANCH   1   5
BRANCH   1  27
HETATM   27  C13 UNL     1      15.996  -5.135 101.483  1.00  0.00     0.241 C 
HETATM   28  O2  UNL     1      15.712  -3.928 101.558  1.00  0.00    -0.271 OA
HETATM   29  N7  UNL     1      16.522  -5.681 100.299  1.00  0.00    -0.355 N 
ATOM     30  H7  UNL     1      16.724  -6.680 100.336  1.00  0.00     0.162 HD
BRANCH  29  31
HETATM   31  C14 UNL     1      16.813  -5.055  99.060  1.00  0.00     0.162 C 
BRANCH  31  32
HETATM   32  C15 UNL     1      18.083  -4.342  98.866  1.00  0.00     0.006 C 
BRANCH  32  33
HETATM   33  C16 UNL     1      19.222  -5.160  98.335  1.00  0.00     0.046 C 
BRANCH  33  34
HETATM   34  C17 UNL     1      20.590  -4.637  98.387  1.00  0.00    -0.010 C 
HETATM   35  C18 UNL     1      21.453  -5.160  99.518  1.00  0.00     0.005 C 
HETATM   36  C19 UNL     1      22.532  -4.086  99.719  1.00  0.00     0.000 C 
HETATM   37  C20 UNL     1      23.329  -3.887  98.459  1.00  0.00     0.000 C 
HETATM   38  C21 UNL     1      22.406  -3.424  97.338  1.00  0.00     0.000 C 
HETATM   39  C22 UNL     1      21.412  -4.603  97.138  1.00  0.00     0.005 C 
ENDBRANCH  33  34
ENDBRANCH  32  33
BRANCH  32  40
HETATM   40  C23 UNL     1      18.083  -2.997  98.271  1.00  0.00     0.247 C 
HETATM   41  O3  UNL     1      17.392  -2.821  97.207  1.00  0.00    -0.268 OA
HETATM   42  N8  UNL     1      18.784  -1.916  98.790  1.00  0.00    -0.348 N 
HETATM   43  C24 UNL     1      18.689  -0.601  98.131  1.00  0.00     0.127 C 
HETATM   44  C32 UNL     1      19.640  -1.994  99.929  1.00  0.00     0.127 C 
HETATM   45  C25 UNL     1      18.900   0.446  99.193  1.00  0.00     0.029 C 
HETATM   46  C26 UNL     1      20.302   0.400  99.695  1.00  0.00    -0.037 C 
HETATM   47  C27 UNL     1      20.346   1.100 101.034  1.00  0.00     0.010 C 
HETATM   48  C30 UNL     1      21.297   1.171  98.877  1.00  0.00     0.010 C 
HETATM   49  C31 UNL     1      20.816  -1.026  99.804  1.00  0.00     0.029 C 
HETATM   50  C28 UNL     1      20.402   2.559 100.642  1.00  0.00     0.001 C 
HETATM   51  C29 UNL     1      21.219   2.577  99.377  1.00  0.00     0.001 C 
ENDBRANCH  32  40
ENDBRANCH  31  32
ENDBRANCH  29  31
ENDBRANCH   1  27
TORSDOF 12
ENDMDL
