MODEL 1
REMARK VINA RESULT: -7.851376318      0.000      0.000
REMARK  6 active torsions:
REMARK  status: ('A' for Active; 'I' for Inactive)
REMARK    1  A    between atoms: C7_7  and  N1_8 
REMARK    2  A    between atoms: N1_8  and  C8_10 
REMARK    3  A    between atoms: C8_10  and  C9_11 
REMARK    4  A    between atoms: C9_11  and  C10_12 
REMARK    5  A    between atoms: C10_12  and  C11_13 
REMARK    6  A    between atoms: C11_13  and  C12_14 
ROOT
HETATM    1  C9  UNL     1      71.484  50.923  14.132  1.00  0.00     0.019 C 
ENDROOT
BRANCH   1   2
HETATM    2  C8  UNL     1      72.497  49.866  13.846  1.00  0.00     0.114 C 
BRANCH   2   3
HETATM    3  N1  UNL     1      71.981  48.591  13.488  1.00  0.00    -0.417 N 
ATOM      4  H1  UNL     1      71.211  48.164  14.001  1.00  0.00     0.153 HD
BRANCH   3   5
HETATM    5  C7  UNL     1      72.592  47.938  12.377  1.00  0.00     0.077 C 
HETATM    6  C6  UNL     1      71.670  47.026  11.605  1.00  0.00     0.029 C 
HETATM    7  C5  UNL     1      71.127  47.829  10.452  1.00  0.00    -0.009 C 
HETATM    8  C4  UNL     1      69.678  48.065  10.673  1.00  0.00     0.005 C 
HETATM    9  C23 UNL     1      71.851  49.154  10.429  1.00  0.00    -0.009 C 
HETATM   10  C3  UNL     1      68.833  48.016   9.441  1.00  0.00     0.000 C 
HETATM   11  C2  UNL     1      69.384  48.730   8.265  1.00  0.00     0.000 C 
HETATM   12  C1  UNL     1      69.883  50.121   8.584  1.00  0.00     0.000 C 
HETATM   13  C25 UNL     1      71.330  50.297   8.249  1.00  0.00     0.000 C 
HETATM   14  C24 UNL     1      72.275  49.438   9.020  1.00  0.00     0.005 C 
HETATM   15  C22 UNL     1      73.009  49.022  11.390  1.00  0.00     0.029 C 
ENDBRANCH   3   5
ENDBRANCH   2   3
ENDBRANCH   1   2
BRANCH   1  16
HETATM   16  C10 UNL     1      70.168  50.694  13.461  1.00  0.00     0.002 C 
BRANCH  16  17
HETATM   17  C11 UNL     1      70.077  51.459  12.163  1.00  0.00     0.005 C 
BRANCH  17  18
HETATM   18  C12 UNL     1      68.671  51.497  11.611  1.00  0.00    -0.012 C 
HETATM   19  C13 UNL     1      68.244  52.930  11.477  1.00  0.00     0.005 C 
HETATM   20  C14 UNL     1      66.741  53.107  11.519  1.00  0.00     0.008 C 
HETATM   21  C15 UNL     1      66.025  51.812  11.189  1.00  0.00     0.024 C 
HETATM   22  C16 UNL     1      64.565  51.987  10.993  1.00  0.00     0.038 C 
HETATM   23  C19 UNL     1      66.341  50.720  12.151  1.00  0.00     0.093 C 
HETATM   24  C17 UNL     1      63.671  51.393  12.019  1.00  0.00     0.276 C 
HETATM   25  N2  UNL     1      64.202  50.303  12.773  1.00  0.00     0.114 N 
HETATM   26  C18 UNL     1      64.681  49.236  11.953  1.00  0.00     0.441 C 
HETATM   27  C21 UNL     1      65.452  50.788  13.382  1.00  0.00     0.313 C 
HETATM   28  O1  UNL     1      65.993  49.518  11.596  1.00  0.00    -0.349 OA
HETATM   29  C20 UNL     1      67.802  50.680  12.531  1.00  0.00     0.044 C 
ENDBRANCH  17  18
ENDBRANCH  16  17
ENDBRANCH   1  16
TORSDOF 6
ENDMDL
MODEL 2
REMARK VINA RESULT: -7.781372950      2.366      6.998
REMARK  6 active torsions:
REMARK  status: ('A' for Active; 'I' for Inactive)
REMARK    1  A    between atoms: C7_7  and  N1_8 
REMARK    2  A    between atoms: N1_8  and  C8_10 
REMARK    3  A    between atoms: C8_10  and  C9_11 
REMARK    4  A    between atoms: C9_11  and  C10_12 
REMARK    5  A    between atoms: C10_12  and  C11_13 
REMARK    6  A    between atoms: C11_13  and  C12_14 
ROOT
HETATM    1  C9  UNL     1      65.692  49.272   9.373  1.00  0.00     0.019 C 
ENDROOT
BRANCH   1   2
HETATM    2  C8  UNL     1      65.351  49.421  10.818  1.00  0.00     0.114 C 
BRANCH   2   3
HETATM    3  N1  UNL     1      64.737  50.647  11.189  1.00  0.00    -0.417 N 
ATOM      4  H1  UNL     1      63.914  51.001  10.702  1.00  0.00     0.153 HD
BRANCH   3   5
HETATM    5  C7  UNL     1      65.327  51.360  12.274  1.00  0.00     0.077 C 
HETATM    6  C6  UNL     1      66.826  51.211  12.377  1.00  0.00     0.029 C 
HETATM    7  C5  UNL     1      67.432  52.391  11.663  1.00  0.00    -0.009 C 
HETATM    8  C4  UNL     1      68.104  51.912  10.430  1.00  0.00     0.005 C 
HETATM    9  C23 UNL     1      66.311  53.331  11.288  1.00  0.00    -0.009 C 
HETATM   10  C3  UNL     1      69.381  52.610  10.092  1.00  0.00     0.000 C 
HETATM   11  C2  UNL     1      69.351  54.086  10.221  1.00  0.00     0.000 C 
HETATM   12  C1  UNL     1      68.141  54.722   9.578  1.00  0.00     0.000 C 
HETATM   13  C25 UNL     1      67.327  55.512  10.552  1.00  0.00     0.000 C 
HETATM   14  C24 UNL     1      66.715  54.725  11.662  1.00  0.00     0.005 C 
HETATM   15  C22 UNL     1      65.084  52.844  12.023  1.00  0.00     0.029 C 
ENDBRANCH   3   5
ENDBRANCH   2   3
ENDBRANCH   1   2
BRANCH   1  16
HETATM   16  C10 UNL     1      67.011  48.614   9.129  1.00  0.00     0.002 C 
BRANCH  16  17
HETATM   17  C11 UNL     1      67.701  48.277  10.429  1.00  0.00     0.005 C 
BRANCH  17  18
HETATM   18  C12 UNL     1      69.205  48.238  10.293  1.00  0.00    -0.012 C 
HETATM   19  C13 UNL     1      69.813  48.962  11.459  1.00  0.00     0.005 C 
HETATM   20  C14 UNL     1      71.194  49.507  11.163  1.00  0.00     0.008 C 
HETATM   21  C15 UNL     1      71.827  48.792   9.985  1.00  0.00     0.024 C 
HETATM   22  C16 UNL     1      73.260  49.129   9.801  1.00  0.00     0.038 C 
HETATM   23  C19 UNL     1      71.042  48.948   8.730  1.00  0.00     0.093 C 
HETATM   24  C17 UNL     1      73.616  49.927   8.600  1.00  0.00     0.276 C 
HETATM   25  N2  UNL     1      72.715  49.851   7.495  1.00  0.00     0.114 N 
HETATM   26  C18 UNL     1      72.467  48.513   7.064  1.00  0.00     0.441 C 
HETATM   27  C21 UNL     1      71.391  50.242   8.011  1.00  0.00     0.313 C 
HETATM   28  O1  UNL     1      71.435  47.991   7.833  1.00  0.00    -0.349 OA
HETATM   29  C20 UNL     1      69.553  48.830   8.952  1.00  0.00     0.044 C 
ENDBRANCH  17  18
ENDBRANCH  16  17
ENDBRANCH   1  16
TORSDOF 6
ENDMDL
MODEL 3
REMARK VINA RESULT: -7.772324307      2.615      5.431
REMARK  6 active torsions:
REMARK  status: ('A' for Active; 'I' for Inactive)
REMARK    1  A    between atoms: C7_7  and  N1_8 
REMARK    2  A    between atoms: N1_8  and  C8_10 
REMARK    3  A    between atoms: C8_10  and  C9_11 
REMARK    4  A    between atoms: C9_11  and  C10_12 
REMARK    5  A    between atoms: C10_12  and  C11_13 
REMARK    6  A    between atoms: C11_13  and  C12_14 
ROOT
HETATM    1  C9  UNL     1      73.689  49.352   8.396  1.00  0.00     0.019 C 
ENDROOT
BRANCH   1   2
HETATM    2  C8  UNL     1      74.074  48.312   9.394  1.00  0.00     0.114 C 
BRANCH   2   3
HETATM    3  N1  UNL     1      73.761  48.605  10.748  1.00  0.00    -0.417 N 
ATOM      4  H1  UNL     1      74.228  49.357  11.253  1.00  0.00     0.153 HD
BRANCH   3   5
HETATM    5  C7  UNL     1      72.763  47.796  11.368  1.00  0.00     0.077 C 
HETATM    6  C6  UNL     1      72.554  48.078  12.836  1.00  0.00     0.029 C 
HETATM    7  C5  UNL     1      71.405  49.047  12.935  1.00  0.00    -0.009 C 
HETATM    8  C4  UNL     1      71.922  50.356  13.404  1.00  0.00     0.005 C 
HETATM    9  C23 UNL     1      70.816  49.208  11.554  1.00  0.00    -0.009 C 
HETATM   10  C3  UNL     1      71.022  51.093  14.344  1.00  0.00     0.000 C 
HETATM   11  C2  UNL     1      69.590  51.116  13.964  1.00  0.00     0.000 C 
HETATM   12  C1  UNL     1      69.357  51.479  12.516  1.00  0.00     0.000 C 
HETATM   13  C25 UNL     1      68.617  50.412  11.773  1.00  0.00     0.000 C 
HETATM   14  C24 UNL     1      69.324  49.104  11.659  1.00  0.00     0.005 C 
HETATM   15  C22 UNL     1      71.435  48.128  10.698  1.00  0.00     0.029 C 
ENDBRANCH   3   5
ENDBRANCH   2   3
ENDBRANCH   1   2
BRANCH   1  16
HETATM   16  C10 UNL     1      73.568  48.833   7.000  1.00  0.00     0.002 C 
BRANCH  16  17
HETATM   17  C11 UNL     1      72.198  49.109   6.432  1.00  0.00     0.005 C 
BRANCH  17  18
HETATM   18  C12 UNL     1      71.091  48.539   7.287  1.00  0.00    -0.012 C 
HETATM   19  C13 UNL     1      71.168  47.040   7.239  1.00  0.00     0.005 C 
HETATM   20  C14 UNL     1      69.842  46.369   7.527  1.00  0.00     0.008 C 
HETATM   21  C15 UNL     1      68.901  47.302   8.265  1.00  0.00     0.024 C 
HETATM   22  C16 UNL     1      67.683  46.622   8.769  1.00  0.00     0.038 C 
HETATM   23  C19 UNL     1      68.584  48.531   7.487  1.00  0.00     0.093 C 
HETATM   24  C17 UNL     1      66.395  46.982   8.124  1.00  0.00     0.276 C 
HETATM   25  N2  UNL     1      66.334  48.261   7.492  1.00  0.00     0.114 N 
HETATM   26  C18 UNL     1      66.692  49.334   8.364  1.00  0.00     0.441 C 
HETATM   27  C21 UNL     1      67.437  48.295   6.517  1.00  0.00     0.313 C 
HETATM   28  O1  UNL     1      68.073  49.478   8.332  1.00  0.00    -0.349 OA
HETATM   29  C20 UNL     1      69.790  49.104   6.781  1.00  0.00     0.044 C 
ENDBRANCH  17  18
ENDBRANCH  16  17
ENDBRANCH   1  16
TORSDOF 6
ENDMDL
MODEL 4
REMARK VINA RESULT: -7.753114310      2.393      3.705
REMARK  6 active torsions:
REMARK  status: ('A' for Active; 'I' for Inactive)
REMARK    1  A    between atoms: C7_7  and  N1_8 
REMARK    2  A    between atoms: N1_8  and  C8_10 
REMARK    3  A    between atoms: C8_10  and  C9_11 
REMARK    4  A    between atoms: C9_11  and  C10_12 
REMARK    5  A    between atoms: C10_12  and  C11_13 
REMARK    6  A    between atoms: C11_13  and  C12_14 
ROOT
HETATM    1  C9  UNL     1      73.474  48.614  10.829  1.00  0.00     0.019 C 
ENDROOT
BRANCH   1   2
HETATM    2  C8  UNL     1      74.353  47.801   9.938  1.00  0.00     0.114 C 
BRANCH   2   3
HETATM    3  N1  UNL     1      74.651  48.371   8.671  1.00  0.00    -0.417 N 
ATOM      4  H1  UNL     1      75.072  49.295   8.588  1.00  0.00     0.153 HD
BRANCH   3   5
HETATM    5  C7  UNL     1      74.334  47.588   7.522  1.00  0.00     0.077 C 
HETATM    6  C6  UNL     1      73.136  46.685   7.693  1.00  0.00     0.029 C 
HETATM    7  C5  UNL     1      71.947  47.429   7.146  1.00  0.00    -0.009 C 
HETATM    8  C4  UNL     1      71.045  47.784   8.270  1.00  0.00     0.005 C 
HETATM    9  C23 UNL     1      72.452  48.693   6.492  1.00  0.00    -0.009 C 
HETATM   10  C3  UNL     1      69.585  47.697   7.963  1.00  0.00     0.000 C 
HETATM   11  C2  UNL     1      69.174  48.273   6.662  1.00  0.00     0.000 C 
HETATM   12  C1  UNL     1      69.751  49.646   6.402  1.00  0.00     0.000 C 
HETATM   13  C25 UNL     1      70.571  49.692   5.152  1.00  0.00     0.000 C 
HETATM   14  C24 UNL     1      71.791  48.833   5.154  1.00  0.00     0.005 C 
HETATM   15  C22 UNL     1      73.954  48.557   6.408  1.00  0.00     0.029 C 
ENDBRANCH   3   5
ENDBRANCH   2   3
ENDBRANCH   1   2
BRANCH   1  16
HETATM   16  C10 UNL     1      72.475  47.806  11.591  1.00  0.00     0.002 C 
BRANCH  16  17
HETATM   17  C11 UNL     1      71.906  48.591  12.747  1.00  0.00     0.005 C 
BRANCH  17  18
HETATM   18  C12 UNL     1      71.067  49.763  12.293  1.00  0.00    -0.012 C 
HETATM   19  C13 UNL     1      70.737  50.611  13.487  1.00  0.00     0.005 C 
HETATM   20  C14 UNL     1      69.473  51.425  13.305  1.00  0.00     0.008 C 
HETATM   21  C15 UNL     1      69.128  51.582  11.836  1.00  0.00     0.024 C 
HETATM   22  C16 UNL     1      68.036  52.557  11.597  1.00  0.00     0.038 C 
HETATM   23  C19 UNL     1      68.881  50.277  11.163  1.00  0.00     0.093 C 
HETATM   24  C17 UNL     1      66.740  52.014  11.115  1.00  0.00     0.276 C 
HETATM   25  N2  UNL     1      66.789  50.759  10.435  1.00  0.00     0.114 N 
HETATM   26  C18 UNL     1      67.694  50.754   9.330  1.00  0.00     0.441 C 
HETATM   27  C21 UNL     1      67.445  49.814  11.355  1.00  0.00     0.313 C 
HETATM   28  O1  UNL     1      68.962  50.450   9.807  1.00  0.00    -0.349 OA
HETATM   29  C20 UNL     1      69.863  49.208  11.581  1.00  0.00     0.044 C 
ENDBRANCH  17  18
ENDBRANCH  16  17
ENDBRANCH   1  16
TORSDOF 6
ENDMDL
MODEL 5
REMARK VINA RESULT: -7.748963752      2.407      6.150
REMARK  6 active torsions:
REMARK  status: ('A' for Active; 'I' for Inactive)
REMARK    1  A    between atoms: C7_7  and  N1_8 
REMARK    2  A    between atoms: N1_8  and  C8_10 
REMARK    3  A    between atoms: C8_10  and  C9_11 
REMARK    4  A    between atoms: C9_11  and  C10_12 
REMARK    5  A    between atoms: C10_12  and  C11_13 
REMARK    6  A    between atoms: C11_13  and  C12_14 
ROOT
HETATM    1  C9  UNL     1      71.660  49.435  13.262  1.00  0.00     0.019 C 
ENDROOT
BRANCH   1   2
HETATM    2  C8  UNL     1      70.814  50.632  12.980  1.00  0.00     0.114 C 
BRANCH   2   3
HETATM    3  N1  UNL     1      69.442  50.374  12.717  1.00  0.00    -0.417 N 
ATOM      4  H1  UNL     1      68.794  50.119  13.462  1.00  0.00     0.153 HD
BRANCH   3   5
HETATM    5  C7  UNL     1      69.013  50.490  11.361  1.00  0.00     0.077 C 
HETATM    6  C6  UNL     1      67.515  50.445  11.174  1.00  0.00     0.029 C 
HETATM    7  C5  UNL     1      67.038  51.874  11.134  1.00  0.00    -0.009 C 
HETATM    8  C4  UNL     1      66.242  52.147  12.357  1.00  0.00     0.005 C 
HETATM    9  C23 UNL     1      68.254  52.768  11.120  1.00  0.00    -0.009 C 
HETATM   10  C3  UNL     1      65.056  53.033  12.156  1.00  0.00     0.000 C 
HETATM   11  C2  UNL     1      65.292  54.230  11.316  1.00  0.00     0.000 C 
HETATM   12  C1  UNL     1      66.541  54.993  11.693  1.00  0.00     0.000 C 
HETATM   13  C25 UNL     1      67.506  55.103  10.555  1.00  0.00     0.000 C 
HETATM   14  C24 UNL     1      68.064  53.811  10.060  1.00  0.00     0.005 C 
HETATM   15  C22 UNL     1      69.442  51.868  10.869  1.00  0.00     0.029 C 
ENDBRANCH   3   5
ENDBRANCH   2   3
ENDBRANCH   1   2
BRANCH   1  16
HETATM   16  C10 UNL     1      71.832  48.528  12.087  1.00  0.00     0.002 C 
BRANCH  16  17
HETATM   17  C11 UNL     1      72.991  48.966  11.225  1.00  0.00     0.005 C 
BRANCH  17  18
HETATM   18  C12 UNL     1      72.717  48.781   9.751  1.00  0.00    -0.012 C 
HETATM   19  C13 UNL     1      73.500  49.806   8.983  1.00  0.00     0.005 C 
HETATM   20  C14 UNL     1      72.893  50.126   7.634  1.00  0.00     0.008 C 
HETATM   21  C15 UNL     1      71.965  49.020   7.171  1.00  0.00     0.024 C 
HETATM   22  C16 UNL     1      71.528  49.178   5.762  1.00  0.00     0.038 C 
HETATM   23  C19 UNL     1      70.821  48.805   8.099  1.00  0.00     0.093 C 
HETATM   24  C17 UNL     1      70.098  49.506   5.533  1.00  0.00     0.276 C 
HETATM   25  N2  UNL     1      69.185  49.132   6.565  1.00  0.00     0.114 N 
HETATM   26  C18 UNL     1      69.258  47.746   6.903  1.00  0.00     0.441 C 
HETATM   27  C21 UNL     1      69.677  49.761   7.803  1.00  0.00     0.313 C 
HETATM   28  O1  UNL     1      70.263  47.581   7.848  1.00  0.00    -0.349 OA
HETATM   29  C20 UNL     1      71.227  48.870   9.553  1.00  0.00     0.044 C 
ENDBRANCH  17  18
ENDBRANCH  16  17
ENDBRANCH   1  16
TORSDOF 6
ENDMDL
