MODEL 1
REMARK VINA RESULT: -7.732182221      0.000      0.000
REMARK  8 active torsions:
REMARK  status: ('A' for Active; 'I' for Inactive)
REMARK    1  A    between atoms: C2_2  and  C3_3 
REMARK    2  A    between atoms: C4_4  and  C5_5 
REMARK    3  A    between atoms: C7_7  and  O1_8 
REMARK    4  A    between atoms: C17_19  and  C18_20 
REMARK    5  A    between atoms: C18_20  and  O2_21 
REMARK    6  A    between atoms: C18_20  and  C19_23 
REMARK    7  A    between atoms: C19_23  and  C21_25 
REMARK    8  A    between atoms: C21_25  and  C22_26 
ROOT
HETATM    1  C5  UNL     1      71.783  48.097  10.117  1.00  0.00     0.017 C 
HETATM    2  C6  UNL     1      72.880  47.357   9.448  1.00  0.00     0.048 C 
HETATM    3  C7  UNL     1      73.037  47.274   8.007  1.00  0.00     0.073 C 
HETATM    4  C8  UNL     1      74.376  46.489   7.841  1.00  0.00     0.039 C 
HETATM    5  C9  UNL     1      74.395  45.799   6.509  1.00  0.00     0.003 C 
HETATM    6  C10 UNL     1      73.908  46.764   5.446  1.00  0.00     0.001 C 
HETATM    7  C11 UNL     1      74.101  48.146   5.963  1.00  0.00     0.020 C 
HETATM    8  C12 UNL     1      73.202  48.461   7.170  1.00  0.00     0.052 C 
HETATM    9  C13 UNL     1      73.689  49.712   7.817  1.00  0.00     0.032 C 
HETATM   10  C14 UNL     1      72.342  50.306   7.457  1.00  0.00     0.057 C 
HETATM   11  C15 UNL     1      71.468  50.620   8.608  1.00  0.00     0.013 C 
HETATM   12  C16 UNL     1      70.330  49.747   8.905  1.00  0.00     0.009 C 
HETATM   13  C17 UNL     1      70.553  48.342   9.364  1.00  0.00     0.022 C 
HETATM   14  C25 UNL     1      71.993  49.123   6.663  1.00  0.00     0.142 C 
HETATM   15  O3  UNL     1      71.090  48.813   5.904  1.00  0.00    -0.297 OA
ENDROOT
BRANCH  13  16
HETATM   16  C18 UNL     1      69.313  47.968  10.143  1.00  0.00     0.126 C 
BRANCH  16  17
HETATM   17  O2  UNL     1      68.483  47.066   9.501  1.00  0.00    -0.395 OA
ATOM     18  H2  UNL     1      68.103  46.408  10.070  1.00  0.00     0.210 HD
ENDBRANCH  16  17
BRANCH  16  19
HETATM   19  C19 UNL     1      68.443  49.190  10.412  1.00  0.00     0.011 C 
HETATM   20  C20 UNL     1      66.971  48.910  10.220  1.00  0.00     0.012 C 
BRANCH  19  21
HETATM   21  C21 UNL     1      68.648  49.566  11.856  1.00  0.00     0.010 C 
BRANCH  21  22
HETATM   22  C22 UNL     1      69.501  50.770  12.072  1.00  0.00    -0.022 C 
HETATM   23  C23 UNL     1      68.815  51.958  11.421  1.00  0.00     0.009 C 
HETATM   24  C24 UNL     1      69.471  51.060  13.580  1.00  0.00     0.009 C 
ENDBRANCH  21  22
ENDBRANCH  19  21
ENDBRANCH  16  19
ENDBRANCH  13  16
BRANCH   1  25
HETATM   25  C4  UNL     1      71.663  47.538  11.489  1.00  0.00    -0.026 C 
HETATM   26  C3  UNL     1      72.074  48.060  12.613  1.00  0.00    -0.031 C 
BRANCH  26  27
HETATM   27  C2  UNL     1      72.771  49.353  12.809  1.00  0.00     0.022 C 
HETATM   28  C1  UNL     1      72.849  49.707  14.299  1.00  0.00     0.009 C 
ENDBRANCH  26  27
ENDBRANCH   1  25
BRANCH   3  29
HETATM   29  O1  UNL     1      72.145  46.368   7.376  1.00  0.00    -0.389 OA
ATOM     30  H1  UNL     1      72.302  45.456   7.590  1.00  0.00     0.210 HD
ENDBRANCH   3  29
TORSDOF 8
ENDMDL
MODEL 2
REMARK VINA RESULT: -7.082519451      1.996      6.354
REMARK  8 active torsions:
REMARK  status: ('A' for Active; 'I' for Inactive)
REMARK    1  A    between atoms: C2_2  and  C3_3 
REMARK    2  A    between atoms: C4_4  and  C5_5 
REMARK    3  A    between atoms: C7_7  and  O1_8 
REMARK    4  A    between atoms: C17_19  and  C18_20 
REMARK    5  A    between atoms: C18_20  and  O2_21 
REMARK    6  A    between atoms: C18_20  and  C19_23 
REMARK    7  A    between atoms: C19_23  and  C21_25 
REMARK    8  A    between atoms: C21_25  and  C22_26 
ROOT
HETATM    1  C5  UNL     1      70.699  49.942   8.699  1.00  0.00     0.017 C 
HETATM    2  C6  UNL     1      70.319  51.325   9.076  1.00  0.00     0.048 C 
HETATM    3  C7  UNL     1      69.153  51.651   9.878  1.00  0.00     0.073 C 
HETATM    4  C8  UNL     1      69.275  53.197  10.065  1.00  0.00     0.039 C 
HETATM    5  C9  UNL     1      67.917  53.781  10.323  1.00  0.00     0.003 C 
HETATM    6  C10 UNL     1      67.190  52.918  11.334  1.00  0.00     0.001 C 
HETATM    7  C11 UNL     1      68.214  52.154  12.099  1.00  0.00     0.020 C 
HETATM    8  C12 UNL     1      68.966  51.131  11.231  1.00  0.00     0.052 C 
HETATM    9  C13 UNL     1      70.169  50.664  11.975  1.00  0.00     0.032 C 
HETATM   10  C14 UNL     1      69.536  49.288  11.937  1.00  0.00     0.057 C 
HETATM   11  C15 UNL     1      70.251  48.291  11.110  1.00  0.00     0.013 C 
HETATM   12  C16 UNL     1      69.706  47.917   9.803  1.00  0.00     0.009 C 
HETATM   13  C17 UNL     1      69.658  48.915   8.690  1.00  0.00     0.022 C 
HETATM   14  C25 UNL     1      68.292  49.835  11.386  1.00  0.00     0.142 C 
HETATM   15  O3  UNL     1      67.174  49.408  11.154  1.00  0.00    -0.297 OA
ENDROOT
BRANCH  13  16
HETATM   16  C18 UNL     1      69.657  48.101   7.417  1.00  0.00     0.126 C 
BRANCH  16  17
HETATM   17  O2  UNL     1      68.747  48.526   6.465  1.00  0.00    -0.395 OA
ATOM     18  H2  UNL     1      68.589  47.903   5.767  1.00  0.00     0.210 HD
ENDBRANCH  16  17
BRANCH  16  19
HETATM   19  C19 UNL     1      69.297  46.647   7.693  1.00  0.00     0.011 C 
HETATM   20  C20 UNL     1      67.991  46.240   7.053  1.00  0.00     0.012 C 
BRANCH  19  21
HETATM   21  C21 UNL     1      70.383  45.801   7.084  1.00  0.00     0.010 C 
BRANCH  21  22
HETATM   22  C22 UNL     1      71.767  46.316   7.292  1.00  0.00    -0.022 C 
HETATM   23  C23 UNL     1      72.377  45.569   8.465  1.00  0.00     0.009 C 
HETATM   24  C24 UNL     1      72.582  45.881   6.065  1.00  0.00     0.009 C 
ENDBRANCH  21  22
ENDBRANCH  19  21
ENDBRANCH  16  19
ENDBRANCH  13  16
BRANCH   1  25
HETATM   25  C4  UNL     1      71.585  50.050   7.510  1.00  0.00    -0.026 C 
HETATM   26  C3  UNL     1      72.859  49.783   7.424  1.00  0.00    -0.031 C 
BRANCH  26  27
HETATM   27  C2  UNL     1      73.758  49.301   8.501  1.00  0.00     0.022 C 
HETATM   28  C1  UNL     1      74.814  48.343   7.938  1.00  0.00     0.009 C 
ENDBRANCH  26  27
ENDBRANCH   1  25
BRANCH   3  29
HETATM   29  O1  UNL     1      67.925  51.589   9.169  1.00  0.00    -0.389 OA
ATOM     30  H1  UNL     1      67.196  52.002   9.617  1.00  0.00     0.210 HD
ENDBRANCH   3  29
TORSDOF 8
ENDMDL
MODEL 3
REMARK VINA RESULT: -6.950794358      2.377      6.468
REMARK  8 active torsions:
REMARK  status: ('A' for Active; 'I' for Inactive)
REMARK    1  A    between atoms: C2_2  and  C3_3 
REMARK    2  A    between atoms: C4_4  and  C5_5 
REMARK    3  A    between atoms: C7_7  and  O1_8 
REMARK    4  A    between atoms: C17_19  and  C18_20 
REMARK    5  A    between atoms: C18_20  and  O2_21 
REMARK    6  A    between atoms: C18_20  and  C19_23 
REMARK    7  A    between atoms: C19_23  and  C21_25 
REMARK    8  A    between atoms: C21_25  and  C22_26 
ROOT
HETATM    1  C5  UNL     1      70.237  50.452   9.381  1.00  0.00     0.017 C 
HETATM    2  C6  UNL     1      70.063  51.901   9.639  1.00  0.00     0.048 C 
HETATM    3  C7  UNL     1      68.793  52.511   9.991  1.00  0.00     0.073 C 
HETATM    4  C8  UNL     1      69.177  54.002  10.251  1.00  0.00     0.039 C 
HETATM    5  C9  UNL     1      67.978  54.877  10.034  1.00  0.00     0.003 C 
HETATM    6  C10 UNL     1      66.775  54.243  10.704  1.00  0.00     0.001 C 
HETATM    7  C11 UNL     1      67.277  53.318  11.757  1.00  0.00     0.020 C 
HETATM    8  C12 UNL     1      68.040  52.115  11.179  1.00  0.00     0.052 C 
HETATM    9  C13 UNL     1      68.777  51.439  12.284  1.00  0.00     0.032 C 
HETATM   10  C14 UNL     1      67.911  50.231  11.990  1.00  0.00     0.057 C 
HETATM   11  C15 UNL     1      68.632  49.063  11.438  1.00  0.00     0.013 C 
HETATM   12  C16 UNL     1      68.506  48.747  10.014  1.00  0.00     0.009 C 
HETATM   13  C17 UNL     1      69.066  49.673   8.981  1.00  0.00     0.022 C 
HETATM   14  C25 UNL     1      67.087  51.003  11.054  1.00  0.00     0.142 C 
HETATM   15  O3  UNL     1      66.055  50.814  10.435  1.00  0.00    -0.297 OA
ENDROOT
BRANCH  13  16
HETATM   16  C18 UNL     1      69.328  48.813   7.766  1.00  0.00     0.126 C 
BRANCH  16  17
HETATM   17  O2  UNL     1      68.954  49.389   6.565  1.00  0.00    -0.395 OA
ATOM     18  H2  UNL     1      68.052  49.683   6.534  1.00  0.00     0.210 HD
ENDBRANCH  16  17
BRANCH  16  19
HETATM   19  C19 UNL     1      68.552  47.504   7.841  1.00  0.00     0.011 C 
HETATM   20  C20 UNL     1      67.487  47.397   6.775  1.00  0.00     0.012 C 
BRANCH  19  21
HETATM   21  C21 UNL     1      69.542  46.393   7.606  1.00  0.00     0.010 C 
BRANCH  21  22
HETATM   22  C22 UNL     1      70.914  46.658   8.124  1.00  0.00    -0.022 C 
HETATM   23  C23 UNL     1      71.121  45.809   9.366  1.00  0.00     0.009 C 
HETATM   24  C24 UNL     1      71.890  46.096   7.080  1.00  0.00     0.009 C 
ENDBRANCH  21  22
ENDBRANCH  19  21
ENDBRANCH  16  19
ENDBRANCH  13  16
BRANCH   1  25
HETATM   25  C4  UNL     1      71.480  50.305   8.580  1.00  0.00    -0.026 C 
HETATM   26  C3  UNL     1      72.606  49.744   8.929  1.00  0.00    -0.031 C 
BRANCH  26  27
HETATM   27  C2  UNL     1      72.935  49.105  10.225  1.00  0.00     0.022 C 
HETATM   28  C1  UNL     1      74.043  48.060  10.049  1.00  0.00     0.009 C 
ENDBRANCH  26  27
ENDBRANCH   1  25
BRANCH   3  29
HETATM   29  O1  UNL     1      67.904  52.678   8.897  1.00  0.00    -0.389 OA
ATOM     30  H1  UNL     1      67.098  52.182   8.972  1.00  0.00     0.210 HD
ENDBRANCH   3  29
TORSDOF 8
ENDMDL
MODEL 4
REMARK VINA RESULT: -6.929270107      2.237      7.045
REMARK  8 active torsions:
REMARK  status: ('A' for Active; 'I' for Inactive)
REMARK    1  A    between atoms: C2_2  and  C3_3 
REMARK    2  A    between atoms: C4_4  and  C5_5 
REMARK    3  A    between atoms: C7_7  and  O1_8 
REMARK    4  A    between atoms: C17_19  and  C18_20 
REMARK    5  A    between atoms: C18_20  and  O2_21 
REMARK    6  A    between atoms: C18_20  and  C19_23 
REMARK    7  A    between atoms: C19_23  and  C21_25 
REMARK    8  A    between atoms: C21_25  and  C22_26 
ROOT
HETATM    1  C5  UNL     1      68.628  49.723   8.911  1.00  0.00     0.017 C 
HETATM    2  C6  UNL     1      67.197  49.924   9.240  1.00  0.00     0.048 C 
HETATM    3  C7  UNL     1      66.726  50.438  10.514  1.00  0.00     0.073 C 
HETATM    4  C8  UNL     1      65.183  50.550  10.302  1.00  0.00     0.039 C 
HETATM    5  C9  UNL     1      64.485  50.477  11.629  1.00  0.00     0.003 C 
HETATM    6  C10 UNL     1      65.213  51.364  12.620  1.00  0.00     0.001 C 
HETATM    7  C11 UNL     1      65.984  52.374  11.844  1.00  0.00     0.020 C 
HETATM    8  C12 UNL     1      67.122  51.750  11.020  1.00  0.00     0.052 C 
HETATM    9  C13 UNL     1      67.613  52.760  10.041  1.00  0.00     0.032 C 
HETATM   10  C14 UNL     1      68.940  52.676  10.767  1.00  0.00     0.057 C 
HETATM   11  C15 UNL     1      70.046  52.083   9.985  1.00  0.00     0.013 C 
HETATM   12  C16 UNL     1      70.483  50.717  10.279  1.00  0.00     0.009 C 
HETATM   13  C17 UNL     1      69.576  49.558  10.012  1.00  0.00     0.022 C 
HETATM   14  C25 UNL     1      68.351  51.841  11.820  1.00  0.00     0.142 C 
HETATM   15  O3  UNL     1      68.716  51.405  12.898  1.00  0.00    -0.297 OA
ENDROOT
BRANCH  13  16
HETATM   16  C18 UNL     1      70.486  48.367   9.820  1.00  0.00     0.126 C 
BRANCH  16  17
HETATM   17  O2  UNL     1      70.411  47.420  10.825  1.00  0.00    -0.395 OA
ATOM     18  H2  UNL     1      71.205  46.914  10.949  1.00  0.00     0.210 HD
ENDBRANCH  16  17
BRANCH  16  19
HETATM   19  C19 UNL     1      71.949  48.793   9.780  1.00  0.00     0.011 C 
HETATM   20  C20 UNL     1      72.771  48.150  10.872  1.00  0.00     0.012 C 
BRANCH  19  21
HETATM   21  C21 UNL     1      72.506  48.329   8.460  1.00  0.00     0.010 C 
BRANCH  21  22
HETATM   22  C22 UNL     1      73.667  49.120   7.960  1.00  0.00    -0.022 C 
HETATM   23  C23 UNL     1      73.962  48.678   6.537  1.00  0.00     0.009 C 
HETATM   24  C24 UNL     1      73.185  50.573   7.842  1.00  0.00     0.009 C 
ENDBRANCH  21  22
ENDBRANCH  19  21
ENDBRANCH  16  19
ENDBRANCH  13  16
BRANCH   1  25
HETATM   25  C4  UNL     1      68.678  48.744   7.793  1.00  0.00    -0.026 C 
HETATM   26  C3  UNL     1      69.289  48.857   6.646  1.00  0.00    -0.031 C 
BRANCH  26  27
HETATM   27  C2  UNL     1      70.097  50.001   6.159  1.00  0.00     0.022 C 
HETATM   28  C1  UNL     1      70.745  49.672   4.810  1.00  0.00     0.009 C 
ENDBRANCH  26  27
ENDBRANCH   1  25
BRANCH   3  29
HETATM   29  O1  UNL     1      66.757  49.491  11.571  1.00  0.00    -0.389 OA
ATOM     30  H1  UNL     1      66.632  48.592  11.292  1.00  0.00     0.210 HD
ENDBRANCH   3  29
TORSDOF 8
ENDMDL
MODEL 5
REMARK VINA RESULT: -6.928898079      2.443      4.609
REMARK  8 active torsions:
REMARK  status: ('A' for Active; 'I' for Inactive)
REMARK    1  A    between atoms: C2_2  and  C3_3 
REMARK    2  A    between atoms: C4_4  and  C5_5 
REMARK    3  A    between atoms: C7_7  and  O1_8 
REMARK    4  A    between atoms: C17_19  and  C18_20 
REMARK    5  A    between atoms: C18_20  and  O2_21 
REMARK    6  A    between atoms: C18_20  and  C19_23 
REMARK    7  A    between atoms: C19_23  and  C21_25 
REMARK    8  A    between atoms: C21_25  and  C22_26 
ROOT
HETATM    1  C5  UNL     1      68.208  49.472  10.903  1.00  0.00     0.017 C 
HETATM    2  C6  UNL     1      68.531  48.125  10.375  1.00  0.00     0.048 C 
HETATM    3  C7  UNL     1      69.777  47.797   9.706  1.00  0.00     0.073 C 
HETATM    4  C8  UNL     1      69.650  46.262   9.454  1.00  0.00     0.039 C 
HETATM    5  C9  UNL     1      70.511  45.870   8.289  1.00  0.00     0.003 C 
HETATM    6  C10 UNL     1      71.865  46.537   8.427  1.00  0.00     0.001 C 
HETATM    7  C11 UNL     1      72.058  46.879   9.863  1.00  0.00     0.020 C 
HETATM    8  C12 UNL     1      71.076  47.955  10.357  1.00  0.00     0.052 C 
HETATM    9  C13 UNL     1      71.115  47.991  11.846  1.00  0.00     0.032 C 
HETATM   10  C14 UNL     1      71.617  49.413  11.701  1.00  0.00     0.057 C 
HETATM   11  C15 UNL     1      70.687  50.459  12.177  1.00  0.00     0.013 C 
HETATM   12  C16 UNL     1      69.946  51.260  11.201  1.00  0.00     0.009 C 
HETATM   13  C17 UNL     1      68.905  50.625  10.334  1.00  0.00     0.022 C 
HETATM   14  C25 UNL     1      71.751  49.255  10.249  1.00  0.00     0.142 C 
HETATM   15  O3  UNL     1      72.219  49.914   9.336  1.00  0.00    -0.297 OA
ENDROOT
BRANCH  13  16
HETATM   16  C18 UNL     1      67.962  51.741   9.950  1.00  0.00     0.126 C 
BRANCH  16  17
HETATM   17  O2  UNL     1      67.917  52.014   8.595  1.00  0.00    -0.395 OA
ATOM     18  H2  UNL     1      68.655  52.516   8.269  1.00  0.00     0.210 HD
ENDBRANCH  16  17
BRANCH  16  19
HETATM   19  C19 UNL     1      68.366  53.054  10.608  1.00  0.00     0.011 C 
HETATM   20  C20 UNL     1      68.315  54.224   9.653  1.00  0.00     0.012 C 
BRANCH  19  21
HETATM   21  C21 UNL     1      67.370  53.322  11.706  1.00  0.00     0.010 C 
BRANCH  21  22
HETATM   22  C22 UNL     1      66.226  54.193  11.311  1.00  0.00    -0.022 C 
HETATM   23  C23 UNL     1      64.941  53.416  11.540  1.00  0.00     0.009 C 
HETATM   24  C24 UNL     1      66.189  55.347  12.324  1.00  0.00     0.009 C 
ENDBRANCH  21  22
ENDBRANCH  19  21
ENDBRANCH  16  19
ENDBRANCH  13  16
BRANCH   1  25
HETATM   25  C4  UNL     1      66.729  49.542  11.027  1.00  0.00    -0.026 C 
HETATM   26  C3  UNL     1      66.021  49.955  12.043  1.00  0.00    -0.031 C 
BRANCH  26  27
HETATM   27  C2  UNL     1      66.516  50.465  13.343  1.00  0.00     0.022 C 
HETATM   28  C1  UNL     1      65.346  50.822  14.268  1.00  0.00     0.009 C 
ENDBRANCH  26  27
ENDBRANCH   1  25
BRANCH   3  29
HETATM   29  O1  UNL     1      69.857  48.258   8.366  1.00  0.00    -0.389 OA
ATOM     30  H1  UNL     1      70.649  48.744   8.168  1.00  0.00     0.210 HD
ENDBRANCH   3  29
TORSDOF 8
ENDMDL
