MODEL 1
REMARK VINA RESULT: -8.520437852      0.000      0.000
REMARK  7 active torsions:
REMARK  status: ('A' for Active; 'I' for Inactive)
REMARK    1  A    between atoms: C3_5  and  C4_6 
REMARK    2  A    between atoms: C4_6  and  C6_8 
REMARK    3  A    between atoms: C6_8  and  C7_9 
REMARK    4  A    between atoms: C7_9  and  C8_10 
REMARK    5  A    between atoms: C9_11  and  C10_12 
REMARK    6  A    between atoms: C10_12  and  O1_13 
REMARK    7  A    between atoms: C21_25  and  O2_26 
ROOT
HETATM    1  C1  UNL     1      73.785  45.811   6.037  1.00  0.00     0.145 C 
HETATM    2  N1  UNL     1      73.911  46.805   6.995  1.00  0.00    -0.400 N 
ATOM      3  H1  UNL     1      74.752  46.683   7.559  1.00  0.00     0.158 HD
HETATM    4  C2  UNL     1      73.264  47.803   7.342  1.00  0.00    -0.005 C 
HETATM    5  C3  UNL     1      73.816  48.605   8.476  1.00  0.00     0.035 C 
HETATM    6  C17 UNL     1      73.237  49.965   8.631  1.00  0.00     0.011 C 
HETATM    7  C18 UNL     1      72.501  50.391   7.393  1.00  0.00     0.006 C 
HETATM    8  C19 UNL     1      71.370  49.393   7.227  1.00  0.00     0.002 C 
HETATM    9  C20 UNL     1      70.228  49.877   6.420  1.00  0.00     0.037 C 
HETATM   10  C21 UNL     1      69.232  48.756   6.259  1.00  0.00     0.118 C 
HETATM   11  C22 UNL     1      69.603  47.542   7.066  1.00  0.00     0.033 C 
HETATM   12  C23 UNL     1      70.999  47.053   6.739  1.00  0.00     0.018 C 
HETATM   13  C24 UNL     1      72.000  48.160   6.615  1.00  0.00    -0.002 C 
HETATM   14  C25 UNL     1      72.376  48.353   5.174  1.00  0.00     0.022 C 
ENDROOT
BRANCH   5  15
HETATM   15  C4  UNL     1      73.905  47.870   9.774  1.00  0.00    -0.009 C 
HETATM   16  C5  UNL     1      75.257  47.240  10.042  1.00  0.00     0.011 C 
BRANCH  15  17
HETATM   17  C6  UNL     1      73.326  48.526  10.989  1.00  0.00     0.005 C 
BRANCH  17  18
HETATM   18  C7  UNL     1      72.171  47.817  11.587  1.00  0.00     0.010 C 
BRANCH  18  19
HETATM   19  C8  UNL     1      71.089  48.650  12.197  1.00  0.00     0.024 C 
HETATM   20  C9  UNL     1      71.575  49.591  13.219  1.00  0.00    -0.056 C 
HETATM   21  C11 UNL     1      71.217  50.846  13.237  1.00  0.00    -0.021 C 
HETATM   22  C12 UNL     1      70.300  51.483  12.265  1.00  0.00     0.028 C 
HETATM   23  C13 UNL     1      70.398  50.730  10.958  1.00  0.00     0.013 C 
HETATM   24  C14 UNL     1      70.101  49.270  11.295  1.00  0.00    -0.040 C 
HETATM   25  C15 UNL     1      69.786  48.539  10.031  1.00  0.00     0.015 C 
HETATM   26  C16 UNL     1      68.746  49.371  12.041  1.00  0.00     0.015 C 
BRANCH  20  27
HETATM   27  C10 UNL     1      72.511  49.125  14.297  1.00  0.00     0.198 C 
BRANCH  27  28
HETATM   28  O1  UNL     1      73.456  50.076  14.608  1.00  0.00    -0.397 OA
ATOM     29  H1  UNL     1      73.459  50.792  13.984  1.00  0.00     0.209 HD
ENDBRANCH  27  28
ENDBRANCH  20  27
ENDBRANCH  18  19
ENDBRANCH  17  18
ENDBRANCH  15  17
ENDBRANCH   5  15
BRANCH  10  30
HETATM   30  O2  UNL     1      67.993  49.198   6.724  1.00  0.00    -0.396 OA
ATOM     31  H2  UNL     1      67.363  48.497   6.609  1.00  0.00     0.210 HD
ENDBRANCH  10  30
TORSDOF 7
ENDMDL
MODEL 2
REMARK VINA RESULT: -8.185196176      2.115      4.233
REMARK  7 active torsions:
REMARK  status: ('A' for Active; 'I' for Inactive)
REMARK    1  A    between atoms: C3_5  and  C4_6 
REMARK    2  A    between atoms: C4_6  and  C6_8 
REMARK    3  A    between atoms: C6_8  and  C7_9 
REMARK    4  A    between atoms: C7_9  and  C8_10 
REMARK    5  A    between atoms: C9_11  and  C10_12 
REMARK    6  A    between atoms: C10_12  and  O1_13 
REMARK    7  A    between atoms: C21_25  and  O2_26 
ROOT
HETATM    1  C1  UNL     1      70.177  50.139   5.045  1.00  0.00     0.145 C 
HETATM    2  N1  UNL     1      69.866  49.068   5.867  1.00  0.00    -0.400 N 
ATOM      3  H1  UNL     1      68.859  48.925   5.939  1.00  0.00     0.158 HD
HETATM    4  C2  UNL     1      70.497  48.240   6.538  1.00  0.00    -0.005 C 
HETATM    5  C3  UNL     1      69.694  47.231   7.295  1.00  0.00     0.035 C 
HETATM    6  C17 UNL     1      70.459  46.052   7.783  1.00  0.00     0.011 C 
HETATM    7  C18 UNL     1      71.785  45.933   7.089  1.00  0.00     0.006 C 
HETATM    8  C19 UNL     1      72.548  47.194   7.449  1.00  0.00     0.002 C 
HETATM    9  C20 UNL     1      74.019  47.084   7.332  1.00  0.00     0.037 C 
HETATM   10  C21 UNL     1      74.635  48.430   7.623  1.00  0.00     0.118 C 
HETATM   11  C22 UNL     1      73.616  49.438   8.081  1.00  0.00     0.033 C 
HETATM   12  C23 UNL     1      72.483  49.585   7.086  1.00  0.00     0.018 C 
HETATM   13  C24 UNL     1      71.998  48.276   6.544  1.00  0.00    -0.002 C 
HETATM   14  C25 UNL     1      72.435  48.118   5.116  1.00  0.00     0.022 C 
ENDROOT
BRANCH   5  15
HETATM   15  C4  UNL     1      68.798  47.806   8.342  1.00  0.00    -0.009 C 
HETATM   16  C5  UNL     1      68.048  46.773   9.157  1.00  0.00     0.011 C 
BRANCH  15  17
HETATM   17  C6  UNL     1      69.334  48.923   9.183  1.00  0.00     0.005 C 
BRANCH  17  18
HETATM   18  C7  UNL     1      69.700  48.539  10.566  1.00  0.00     0.010 C 
BRANCH  18  19
HETATM   19  C8  UNL     1      70.970  49.100  11.126  1.00  0.00     0.024 C 
HETATM   20  C9  UNL     1      70.757  50.211  12.067  1.00  0.00    -0.056 C 
HETATM   21  C11 UNL     1      71.361  50.268  13.224  1.00  0.00    -0.021 C 
HETATM   22  C12 UNL     1      72.313  49.258  13.737  1.00  0.00     0.028 C 
HETATM   23  C13 UNL     1      71.971  47.924  13.114  1.00  0.00     0.013 C 
HETATM   24  C14 UNL     1      71.993  48.153  11.603  1.00  0.00    -0.040 C 
HETATM   25  C15 UNL     1      72.063  46.827  10.918  1.00  0.00     0.015 C 
HETATM   26  C16 UNL     1      73.391  48.784  11.384  1.00  0.00     0.015 C 
BRANCH  20  27
HETATM   27  C10 UNL     1      69.827  51.337  11.717  1.00  0.00     0.198 C 
BRANCH  27  28
HETATM   28  O1  UNL     1      68.741  51.391  12.559  1.00  0.00    -0.397 OA
ATOM     29  H1  UNL     1      68.991  51.290  13.470  1.00  0.00     0.209 HD
ENDBRANCH  27  28
ENDBRANCH  20  27
ENDBRANCH  18  19
ENDBRANCH  17  18
ENDBRANCH  15  17
ENDBRANCH   5  15
BRANCH  10  30
HETATM   30  O2  UNL     1      75.558  48.277   8.659  1.00  0.00    -0.396 OA
ATOM     31  H2  UNL     1      76.094  49.060   8.700  1.00  0.00     0.210 HD
ENDBRANCH  10  30
TORSDOF 7
ENDMDL
MODEL 3
REMARK VINA RESULT: -8.148904321      2.527      6.233
REMARK  7 active torsions:
REMARK  status: ('A' for Active; 'I' for Inactive)
REMARK    1  A    between atoms: C3_5  and  C4_6 
REMARK    2  A    between atoms: C4_6  and  C6_8 
REMARK    3  A    between atoms: C6_8  and  C7_9 
REMARK    4  A    between atoms: C7_9  and  C8_10 
REMARK    5  A    between atoms: C9_11  and  C10_12 
REMARK    6  A    between atoms: C10_12  and  O1_13 
REMARK    7  A    between atoms: C21_25  and  O2_26 
ROOT
HETATM    1  C1  UNL     1      71.442  49.259  12.807  1.00  0.00     0.145 C 
HETATM    2  N1  UNL     1      70.511  48.659  11.974  1.00  0.00    -0.400 N 
ATOM      3  H1  UNL     1      70.701  47.665  11.847  1.00  0.00     0.158 HD
HETATM    4  C2  UNL     1      69.507  49.019  11.344  1.00  0.00    -0.005 C 
HETATM    5  C3  UNL     1      68.796  47.971  10.550  1.00  0.00     0.035 C 
HETATM    6  C17 UNL     1      67.422  48.334  10.111  1.00  0.00     0.011 C 
HETATM    7  C18 UNL     1      66.895  49.512  10.879  1.00  0.00     0.006 C 
HETATM    8  C19 UNL     1      67.831  50.661  10.556  1.00  0.00     0.002 C 
HETATM    9  C20 UNL     1      67.252  52.009  10.755  1.00  0.00     0.037 C 
HETATM   10  C21 UNL     1      68.317  53.043  10.491  1.00  0.00     0.118 C 
HETATM   11  C22 UNL     1      69.590  52.432   9.971  1.00  0.00     0.033 C 
HETATM   12  C23 UNL     1      70.121  51.360  10.900  1.00  0.00     0.018 C 
HETATM   13  C24 UNL     1      69.054  50.448  11.422  1.00  0.00    -0.002 C 
HETATM   14  C25 UNL     1      68.795  50.737  12.873  1.00  0.00     0.022 C 
ENDROOT
BRANCH   5  15
HETATM   15  C4  UNL     1      69.607  47.365   9.451  1.00  0.00    -0.009 C 
HETATM   16  C5  UNL     1      69.526  45.854   9.377  1.00  0.00     0.011 C 
BRANCH  15  17
HETATM   17  C6  UNL     1      69.545  48.011   8.101  1.00  0.00     0.005 C 
BRANCH  17  18
HETATM   18  C7  UNL     1      70.534  47.500   7.123  1.00  0.00     0.010 C 
BRANCH  18  19
HETATM   19  C8  UNL     1      71.779  48.304   6.916  1.00  0.00     0.024 C 
HETATM   20  C9  UNL     1      71.522  49.724   6.630  1.00  0.00    -0.056 C 
HETATM   21  C11 UNL     1      72.165  50.684   7.238  1.00  0.00    -0.021 C 
HETATM   22  C12 UNL     1      73.210  50.488   8.268  1.00  0.00     0.028 C 
HETATM   23  C13 UNL     1      72.944  49.176   8.969  1.00  0.00     0.013 C 
HETATM   24  C14 UNL     1      72.889  48.119   7.868  1.00  0.00    -0.040 C 
HETATM   25  C15 UNL     1      73.029  46.768   8.490  1.00  0.00     0.015 C 
HETATM   26  C16 UNL     1      74.225  48.349   7.119  1.00  0.00     0.015 C 
BRANCH  20  27
HETATM   27  C10 UNL     1      70.498  50.120   5.605  1.00  0.00     0.198 C 
BRANCH  27  28
HETATM   28  O1  UNL     1      70.856  49.726   4.337  1.00  0.00    -0.397 OA
ATOM     29  H1  UNL     1      70.188  49.936   3.696  1.00  0.00     0.209 HD
ENDBRANCH  27  28
ENDBRANCH  20  27
ENDBRANCH  18  19
ENDBRANCH  17  18
ENDBRANCH  15  17
ENDBRANCH   5  15
BRANCH  10  30
HETATM   30  O2  UNL     1      67.848  53.917   9.509  1.00  0.00    -0.396 OA
ATOM     31  H2  UNL     1      68.496  53.964   8.816  1.00  0.00     0.210 HD
ENDBRANCH  10  30
TORSDOF 7
ENDMDL
MODEL 4
REMARK VINA RESULT: -8.065529329      2.414      6.003
REMARK  7 active torsions:
REMARK  status: ('A' for Active; 'I' for Inactive)
REMARK    1  A    between atoms: C3_5  and  C4_6 
REMARK    2  A    between atoms: C4_6  and  C6_8 
REMARK    3  A    between atoms: C6_8  and  C7_9 
REMARK    4  A    between atoms: C7_9  and  C8_10 
REMARK    5  A    between atoms: C9_11  and  C10_12 
REMARK    6  A    between atoms: C10_12  and  O1_13 
REMARK    7  A    between atoms: C21_25  and  O2_26 
ROOT
HETATM    1  C1  UNL     1      71.383  49.806  13.335  1.00  0.00     0.145 C 
HETATM    2  N1  UNL     1      70.636  49.106  12.401  1.00  0.00    -0.400 N 
ATOM      3  H1  UNL     1      70.979  48.153  12.278  1.00  0.00     0.158 HD
HETATM    4  C2  UNL     1      69.658  49.340  11.678  1.00  0.00    -0.005 C 
HETATM    5  C3  UNL     1      69.187  48.228  10.797  1.00  0.00     0.035 C 
HETATM    6  C17 UNL     1      67.826  48.406  10.226  1.00  0.00     0.011 C 
HETATM    7  C18 UNL     1      67.061  49.472  10.955  1.00  0.00     0.006 C 
HETATM    8  C19 UNL     1      67.849  50.753  10.749  1.00  0.00     0.002 C 
HETATM    9  C20 UNL     1      67.065  51.998  10.911  1.00  0.00     0.037 C 
HETATM   10  C21 UNL     1      67.991  53.180  10.776  1.00  0.00     0.118 C 
HETATM   11  C22 UNL     1      69.384  52.773  10.379  1.00  0.00     0.033 C 
HETATM   12  C23 UNL     1      69.969  51.757  11.340  1.00  0.00     0.018 C 
HETATM   13  C24 UNL     1      68.998  50.687  11.733  1.00  0.00    -0.002 C 
HETATM   14  C25 UNL     1      68.558  50.891  13.155  1.00  0.00     0.022 C 
ENDROOT
BRANCH   5  15
HETATM   15  C4  UNL     1      70.182  47.778   9.777  1.00  0.00    -0.009 C 
HETATM   16  C5  UNL     1      70.221  46.279   9.563  1.00  0.00     0.011 C 
BRANCH  15  17
HETATM   17  C6  UNL     1      70.259  48.544   8.492  1.00  0.00     0.005 C 
BRANCH  17  18
HETATM   18  C7  UNL     1      71.395  49.491   8.401  1.00  0.00     0.010 C 
BRANCH  18  19
HETATM   19  C8  UNL     1      72.719  48.943   7.970  1.00  0.00     0.024 C 
HETATM   20  C9  UNL     1      73.437  48.232   9.040  1.00  0.00    -0.056 C 
HETATM   21  C11 UNL     1      73.983  47.061   8.852  1.00  0.00    -0.021 C 
HETATM   22  C12 UNL     1      73.959  46.305   7.580  1.00  0.00     0.028 C 
HETATM   23  C13 UNL     1      72.720  46.707   6.814  1.00  0.00     0.013 C 
HETATM   24  C14 UNL     1      72.786  48.228   6.683  1.00  0.00    -0.040 C 
HETATM   25  C15 UNL     1      71.834  48.660   5.617  1.00  0.00     0.015 C 
HETATM   26  C16 UNL     1      74.192  48.447   6.069  1.00  0.00     0.015 C 
BRANCH  20  27
HETATM   27  C10 UNL     1      73.573  48.847  10.403  1.00  0.00     0.198 C 
BRANCH  27  28
HETATM   28  O1  UNL     1      73.524  47.903  11.403  1.00  0.00    -0.397 OA
ATOM     29  H1  UNL     1      72.673  47.874  11.824  1.00  0.00     0.209 HD
ENDBRANCH  27  28
ENDBRANCH  20  27
ENDBRANCH  18  19
ENDBRANCH  17  18
ENDBRANCH  15  17
ENDBRANCH   5  15
BRANCH  10  30
HETATM   30  O2  UNL     1      67.500  54.009   9.766  1.00  0.00    -0.396 OA
ATOM     31  H2  UNL     1      67.954  53.798   8.958  1.00  0.00     0.210 HD
ENDBRANCH  10  30
TORSDOF 7
ENDMDL
MODEL 5
REMARK VINA RESULT: -8.040505412      2.346      4.717
REMARK  7 active torsions:
REMARK  status: ('A' for Active; 'I' for Inactive)
REMARK    1  A    between atoms: C3_5  and  C4_6 
REMARK    2  A    between atoms: C4_6  and  C6_8 
REMARK    3  A    between atoms: C6_8  and  C7_9 
REMARK    4  A    between atoms: C7_9  and  C8_10 
REMARK    5  A    between atoms: C9_11  and  C10_12 
REMARK    6  A    between atoms: C10_12  and  O1_13 
REMARK    7  A    between atoms: C21_25  and  O2_26 
ROOT
HETATM    1  C1  UNL     1      70.647  50.517   4.434  1.00  0.00     0.145 C 
HETATM    2  N1  UNL     1      69.922  49.686   5.274  1.00  0.00    -0.400 N 
ATOM      3  H1  UNL     1      68.928  49.690   5.046  1.00  0.00     0.158 HD
HETATM    4  C2  UNL     1      70.172  48.940   6.231  1.00  0.00    -0.005 C 
HETATM    5  C3  UNL     1      69.015  48.218   6.844  1.00  0.00     0.035 C 
HETATM    6  C17 UNL     1      69.377  47.078   7.728  1.00  0.00     0.011 C 
HETATM    7  C18 UNL     1      70.801  46.651   7.515  1.00  0.00     0.006 C 
HETATM    8  C19 UNL     1      71.647  47.852   7.894  1.00  0.00     0.002 C 
HETATM    9  C20 UNL     1      73.044  47.534   8.266  1.00  0.00     0.037 C 
HETATM   10  C21 UNL     1      73.787  48.822   8.522  1.00  0.00     0.118 C 
HETATM   11  C22 UNL     1      72.883  50.023   8.470  1.00  0.00     0.033 C 
HETATM   12  C23 UNL     1      72.129  50.106   7.159  1.00  0.00     0.018 C 
HETATM   13  C24 UNL     1      71.588  48.786   6.704  1.00  0.00    -0.002 C 
HETATM   14  C25 UNL     1      72.379  48.283   5.531  1.00  0.00     0.022 C 
ENDROOT
BRANCH   5  15
HETATM   15  C4  UNL     1      67.978  49.106   7.451  1.00  0.00    -0.009 C 
HETATM   16  C5  UNL     1      66.551  48.671   7.184  1.00  0.00     0.011 C 
BRANCH  15  17
HETATM   17  C6  UNL     1      68.186  49.558   8.863  1.00  0.00     0.005 C 
BRANCH  17  18
HETATM   18  C7  UNL     1      69.262  50.560   9.043  1.00  0.00     0.010 C 
BRANCH  18  19
HETATM   19  C8  UNL     1      69.529  51.046  10.433  1.00  0.00     0.024 C 
HETATM   20  C9  UNL     1      68.596  52.094  10.879  1.00  0.00    -0.056 C 
HETATM   21  C11 UNL     1      68.011  52.053  12.045  1.00  0.00    -0.021 C 
HETATM   22  C12 UNL     1      68.195  50.985  13.053  1.00  0.00     0.028 C 
HETATM   23  C13 UNL     1      68.555  49.708  12.329  1.00  0.00     0.013 C 
HETATM   24  C14 UNL     1      69.782  50.042  11.481  1.00  0.00    -0.040 C 
HETATM   25  C15 UNL     1      70.432  48.767  11.055  1.00  0.00     0.015 C 
HETATM   26  C16 UNL     1      70.751  50.650  12.525  1.00  0.00     0.015 C 
BRANCH  20  27
HETATM   27  C10 UNL     1      68.289  53.266   9.992  1.00  0.00     0.198 C 
BRANCH  27  28
HETATM   28  O1  UNL     1      69.217  54.272  10.126  1.00  0.00    -0.397 OA
ATOM     29  H1  UNL     1      69.817  54.304   9.390  1.00  0.00     0.209 HD
ENDBRANCH  27  28
ENDBRANCH  20  27
ENDBRANCH  18  19
ENDBRANCH  17  18
ENDBRANCH  15  17
ENDBRANCH   5  15
BRANCH  10  30
HETATM   30  O2  UNL     1      74.331  48.768   9.806  1.00  0.00    -0.396 OA
ATOM     31  H2  UNL     1      73.909  49.434  10.337  1.00  0.00     0.210 HD
ENDBRANCH  10  30
TORSDOF 7
ENDMDL
