MODEL 1
REMARK VINA RESULT: -2.853718755      0.000      0.000
REMARK  0 active torsions:
REMARK  status: ('A' for Active; 'I' for Inactive)
ROOT
HETATM    1  S1  UNL     1     -19.773   5.060  92.895  1.00  0.00    -0.041 SA
HETATM    2  C1  UNL     1     -20.222   3.532  93.278  1.00  0.00     0.170 C 
HETATM    3  N1  UNL     1     -20.447   2.861  94.513  1.00  0.00    -0.351 N 
ATOM      4  H1  UNL     1     -20.165   2.996  95.484  1.00  0.00     0.163 HD
HETATM    5  C2  UNL     1     -21.259   1.898  93.778  1.00  0.00     0.248 C 
HETATM    6  N2  UNL     1     -20.554   2.326  92.610  1.00  0.00    -0.351 N 
ATOM      7  H2  UNL     1     -20.368   1.932  91.688  1.00  0.00     0.163 HD
ENDROOT
TORSDOF 0
ENDMDL
MODEL 2
REMARK VINA RESULT: -2.831264548      6.753      7.160
REMARK  0 active torsions:
REMARK  status: ('A' for Active; 'I' for Inactive)
ROOT
HETATM    1  S1  UNL     1     -17.951  -4.413  92.407  1.00  0.00    -0.041 SA
HETATM    2  C1  UNL     1     -18.151  -3.073  91.488  1.00  0.00     0.170 C 
HETATM    3  N1  UNL     1     -17.411  -2.508  90.411  1.00  0.00    -0.351 N 
ATOM      4  H1  UNL     1     -16.455  -2.576  90.061  1.00  0.00     0.163 HD
HETATM    5  C2  UNL     1     -18.623  -1.791  90.027  1.00  0.00     0.248 C 
HETATM    6  N2  UNL     1     -19.063  -1.993  91.373  1.00  0.00    -0.351 N 
ATOM      7  H2  UNL     1     -19.743  -1.548  91.989  1.00  0.00     0.163 HD
ENDROOT
TORSDOF 0
ENDMDL
MODEL 3
REMARK VINA RESULT: -2.806533842      9.283      9.496
REMARK  0 active torsions:
REMARK  status: ('A' for Active; 'I' for Inactive)
ROOT
HETATM    1  S1  UNL     1     -12.211  -3.906  91.023  1.00  0.00    -0.041 SA
HETATM    2  C1  UNL     1     -13.773  -3.513  91.313  1.00  0.00     0.170 C 
HETATM    3  N1  UNL     1     -15.012  -4.000  90.807  1.00  0.00    -0.351 N 
ATOM      4  H1  UNL     1     -15.318  -4.505  89.976  1.00  0.00     0.163 HD
HETATM    5  C2  UNL     1     -15.649  -3.457  92.002  1.00  0.00     0.248 C 
HETATM    6  N2  UNL     1     -14.506  -2.605  92.119  1.00  0.00    -0.351 N 
ATOM      7  H2  UNL     1     -14.305  -1.720  92.584  1.00  0.00     0.163 HD
ENDROOT
TORSDOF 0
ENDMDL
MODEL 4
REMARK VINA RESULT: -2.802233545      9.623      9.713
REMARK  0 active torsions:
REMARK  status: ('A' for Active; 'I' for Inactive)
ROOT
HETATM    1  S1  UNL     1     -21.679  -5.648  94.366  1.00  0.00    -0.041 SA
HETATM    2  C1  UNL     1     -23.156  -5.823  95.049  1.00  0.00     0.170 C 
HETATM    3  N1  UNL     1     -23.594  -6.043  96.386  1.00  0.00    -0.351 N 
ATOM      4  H1  UNL     1     -23.181  -6.410  97.243  1.00  0.00     0.163 HD
HETATM    5  C2  UNL     1     -24.893  -5.510  95.989  1.00  0.00     0.248 C 
HETATM    6  N2  UNL     1     -24.516  -5.829  94.646  1.00  0.00    -0.351 N 
ATOM      7  H2  UNL     1     -25.014  -5.992  93.772  1.00  0.00     0.163 HD
ENDROOT
TORSDOF 0
ENDMDL
MODEL 5
REMARK VINA RESULT: -2.799104575      9.723     10.001
REMARK  0 active torsions:
REMARK  status: ('A' for Active; 'I' for Inactive)
ROOT
HETATM    1  S1  UNL     1     -22.072  -5.979  94.269  1.00  0.00    -0.041 SA
HETATM    2  C1  UNL     1     -23.443  -5.831  95.152  1.00  0.00     0.170 C 
HETATM    3  N1  UNL     1     -24.801  -5.580  94.810  1.00  0.00    -0.351 N 
ATOM      4  H1  UNL     1     -25.296  -5.169  94.018  1.00  0.00     0.163 HD
HETATM    5  C2  UNL     1     -25.175  -6.170  96.090  1.00  0.00     0.248 C 
HETATM    6  N2  UNL     1     -23.838  -5.885  96.512  1.00  0.00    -0.351 N 
ATOM      7  H2  UNL     1     -23.369  -5.770  97.410  1.00  0.00     0.163 HD
ENDROOT
TORSDOF 0
ENDMDL
