MODEL 1
REMARK VINA RESULT: -6.875128719      0.000      0.000
REMARK  6 active torsions:
REMARK  status: ('A' for Active; 'I' for Inactive)
REMARK    1  A    between atoms: C2_2  and  C3_7 
REMARK    2  A    between atoms: N1_3  and  O1_5 
REMARK    3  A    between atoms: C4_8  and  N2_9 
REMARK    4  A    between atoms: C12_18  and  N3_19 
REMARK    5  A    between atoms: C18_28  and  N5_29 
REMARK    6  A    between atoms: N5_29  and  C19_31 
ROOT
HETATM    1  C3  UNL     1       1.948  23.707  26.444  1.00  0.00     0.058 A 
HETATM    2  C4  UNL     1       2.309  23.946  27.771  1.00  0.00     0.050 A 
HETATM    3  C11 UNL     1       2.953  25.161  28.064  1.00  0.00     0.078 A 
HETATM    4  C12 UNL     1       3.219  26.085  27.092  1.00  0.00     0.106 A 
HETATM    5  N4  UNL     1       2.851  25.798  25.850  1.00  0.00    -0.328 N 
ATOM      6  H4  UNL     1       3.049  26.490  25.128  1.00  0.00     0.169 HD
HETATM    7  C18 UNL     1       2.221  24.636  25.464  1.00  0.00     0.117 A 
ENDROOT
BRANCH   2   8
HETATM    8  N2  UNL     1       2.037  23.143  28.907  1.00  0.00    -0.375 N 
HETATM    9  C5  UNL     1       2.803  21.946  29.109  1.00  0.00     0.154 C 
HETATM   10  C6  UNL     1       2.457  21.156  30.328  1.00  0.00     0.136 C 
HETATM   11  C7  UNL     1       3.391  21.288  31.479  1.00  0.00     0.041 C 
HETATM   12  O2  UNL     1       1.148  21.380  30.752  1.00  0.00    -0.378 OA
HETATM   13  C8  UNL     1       0.928  22.718  31.019  1.00  0.00     0.136 C 
HETATM   14  C9  UNL     1      -0.397  22.798  31.755  1.00  0.00     0.041 C 
HETATM   15  C10 UNL     1       0.941  23.498  29.760  1.00  0.00     0.154 C 
ENDBRANCH   2   8
BRANCH   1  16
HETATM   16  C2  UNL     1       1.305  22.455  26.107  1.00  0.00     0.044 C 
HETATM   17  C1  UNL     1      -0.088  22.009  26.260  1.00  0.00     0.071 C 
HETATM   18  N1  UNL     1       2.080  21.480  25.675  1.00  0.00    -0.273 N 
ATOM     19  H1  UNL     1       3.069  21.685  25.534  1.00  0.00     0.194 HD
BRANCH  18  20
HETATM   20  O1  UNL     1       1.654  20.232  25.408  1.00  0.00    -0.290 OA
ATOM     21  H1  UNL     1       1.842  19.474  25.948  1.00  0.00     0.244 HD
ENDBRANCH  18  20
ENDBRANCH   1  16
BRANCH   7  22
HETATM   22  N5  UNL     1       2.086  24.456  24.063  1.00  0.00    -0.371 N 
ATOM     23  H5  UNL     1       1.142  24.512  23.679  1.00  0.00     0.161 HD
BRANCH  22  24
HETATM   24  C19 UNL     1       3.153  24.202  23.135  1.00  0.00     0.083 A 
HETATM   25  C20 UNL     1       2.831  23.577  21.766  1.00  0.00     0.027 A 
HETATM   26  C21 UNL     1       3.685  22.883  22.748  1.00  0.00     0.027 A 
ENDBRANCH  22  24
ENDBRANCH   7  22
BRANCH   4  27
HETATM   27  N3  UNL     1       3.864  27.318  27.459  1.00  0.00    -0.365 N 
HETATM   28  C13 UNL     1       4.158  28.212  26.364  1.00  0.00     0.126 C 
HETATM   29  C14 UNL     1       5.240  29.222  26.766  1.00  0.00     0.046 C 
HETATM   30  C15 UNL     1       4.576  30.377  27.441  1.00  0.00     0.169 C 
HETATM   31  O3  UNL     1       3.726  29.831  28.423  1.00  0.00    -0.389 OA
HETATM   32  C16 UNL     1       4.390  28.941  29.238  1.00  0.00     0.187 C 
HETATM   33  C17 UNL     1       4.123  27.487  28.876  1.00  0.00     0.150 C 
ENDBRANCH   4  27
TORSDOF 6
ENDMDL
MODEL 2
REMARK VINA RESULT: -6.866670094      2.636      4.031
REMARK  6 active torsions:
REMARK  status: ('A' for Active; 'I' for Inactive)
REMARK    1  A    between atoms: C2_2  and  C3_7 
REMARK    2  A    between atoms: N1_3  and  O1_5 
REMARK    3  A    between atoms: C4_8  and  N2_9 
REMARK    4  A    between atoms: C12_18  and  N3_19 
REMARK    5  A    between atoms: C18_28  and  N5_29 
REMARK    6  A    between atoms: N5_29  and  C19_31 
ROOT
HETATM    1  C3  UNL     1       1.492  22.722  30.037  1.00  0.00     0.058 A 
HETATM    2  C4  UNL     1       2.547  23.214  30.806  1.00  0.00     0.050 A 
HETATM    3  C11 UNL     1       3.215  24.361  30.340  1.00  0.00     0.078 A 
HETATM    4  C12 UNL     1       2.851  24.981  29.178  1.00  0.00     0.106 A 
HETATM    5  N4  UNL     1       1.841  24.464  28.492  1.00  0.00    -0.328 N 
ATOM      6  H4  UNL     1       1.571  24.930  27.626  1.00  0.00     0.169 HD
HETATM    7  C18 UNL     1       1.129  23.344  28.862  1.00  0.00     0.117 A 
ENDROOT
BRANCH   2   8
HETATM    8  N2  UNL     1       2.998  22.750  32.067  1.00  0.00    -0.375 N 
HETATM    9  C5  UNL     1       2.480  23.365  33.257  1.00  0.00     0.154 C 
HETATM   10  C6  UNL     1       3.002  22.819  34.545  1.00  0.00     0.136 C 
HETATM   11  C7  UNL     1       2.090  21.905  35.285  1.00  0.00     0.041 C 
HETATM   12  O2  UNL     1       4.255  22.223  34.400  1.00  0.00    -0.378 OA
HETATM   13  C8  UNL     1       4.221  21.201  33.472  1.00  0.00     0.136 C 
HETATM   14  C9  UNL     1       5.525  20.437  33.624  1.00  0.00     0.041 C 
HETATM   15  C10 UNL     1       4.026  21.753  32.111  1.00  0.00     0.154 C 
ENDBRANCH   2   8
BRANCH   1  16
HETATM   16  C2  UNL     1       0.799  21.530  30.477  1.00  0.00     0.044 C 
HETATM   17  C1  UNL     1       1.046  20.107  30.198  1.00  0.00     0.071 C 
HETATM   18  N1  UNL     1      -0.309  21.702  31.169  1.00  0.00    -0.273 N 
ATOM     19  H1  UNL     1      -0.573  22.655  31.416  1.00  0.00     0.194 HD
BRANCH  18  20
HETATM   20  O1  UNL     1      -1.116  20.704  31.571  1.00  0.00    -0.290 OA
ATOM     21  H1  UNL     1      -0.811  19.859  31.883  1.00  0.00     0.244 HD
ENDBRANCH  18  20
ENDBRANCH   1  16
BRANCH   7  22
HETATM   22  N5  UNL     1       0.214  22.858  27.892  1.00  0.00    -0.371 N 
ATOM     23  H5  UNL     1      -0.779  22.956  28.104  1.00  0.00     0.161 HD
BRANCH  22  24
HETATM   24  C19 UNL     1       0.555  22.242  26.640  1.00  0.00     0.083 A 
HETATM   25  C20 UNL     1       0.543  20.708  26.526  1.00  0.00     0.027 A 
HETATM   26  C21 UNL     1       1.783  21.484  26.340  1.00  0.00     0.027 A 
ENDBRANCH  22  24
ENDBRANCH   7  22
BRANCH   4  27
HETATM   27  N3  UNL     1       3.563  26.162  28.764  1.00  0.00    -0.365 N 
HETATM   28  C13 UNL     1       3.838  26.255  27.350  1.00  0.00     0.126 C 
HETATM   29  C14 UNL     1       4.978  27.246  27.085  1.00  0.00     0.046 C 
HETATM   30  C15 UNL     1       4.395  28.618  26.992  1.00  0.00     0.169 C 
HETATM   31  O3  UNL     1       3.573  28.780  28.125  1.00  0.00    -0.389 OA
HETATM   32  C16 UNL     1       4.241  28.473  29.290  1.00  0.00     0.187 C 
HETATM   33  C17 UNL     1       3.898  27.090  29.827  1.00  0.00     0.150 C 
ENDBRANCH   4  27
TORSDOF 6
ENDMDL
MODEL 3
REMARK VINA RESULT: -6.864809745      2.285      6.088
REMARK  6 active torsions:
REMARK  status: ('A' for Active; 'I' for Inactive)
REMARK    1  A    between atoms: C2_2  and  C3_7 
REMARK    2  A    between atoms: N1_3  and  O1_5 
REMARK    3  A    between atoms: C4_8  and  N2_9 
REMARK    4  A    between atoms: C12_18  and  N3_19 
REMARK    5  A    between atoms: C18_28  and  N5_29 
REMARK    6  A    between atoms: N5_29  and  C19_31 
ROOT
HETATM    1  C3  UNL     1       2.170  24.305  24.986  1.00  0.00     0.058 A 
HETATM    2  C4  UNL     1       2.684  25.422  24.325  1.00  0.00     0.050 A 
HETATM    3  C11 UNL     1       3.220  26.457  25.113  1.00  0.00     0.078 A 
HETATM    4  C12 UNL     1       3.243  26.382  26.477  1.00  0.00     0.106 A 
HETATM    5  N4  UNL     1       2.739  25.294  27.045  1.00  0.00    -0.328 N 
ATOM      6  H4  UNL     1       2.760  25.241  28.063  1.00  0.00     0.169 HD
HETATM    7  C18 UNL     1       2.190  24.232  26.362  1.00  0.00     0.117 A 
ENDROOT
BRANCH   2   8
HETATM    8  N2  UNL     1       2.815  25.626  22.929  1.00  0.00    -0.375 N 
HETATM    9  C5  UNL     1       1.890  26.501  22.266  1.00  0.00     0.154 C 
HETATM   10  C6  UNL     1       2.095  26.664  20.796  1.00  0.00     0.136 C 
HETATM   11  C7  UNL     1       2.749  27.930  20.364  1.00  0.00     0.041 C 
HETATM   12  O2  UNL     1       2.753  25.573  20.228  1.00  0.00    -0.378 OA
HETATM   13  C8  UNL     1       3.982  25.362  20.822  1.00  0.00     0.136 C 
HETATM   14  C9  UNL     1       4.724  24.377  19.936  1.00  0.00     0.041 C 
HETATM   15  C10 UNL     1       3.802  24.875  22.209  1.00  0.00     0.154 C 
ENDBRANCH   2   8
BRANCH   1  16
HETATM   16  C2  UNL     1       1.592  23.233  24.204  1.00  0.00     0.044 C 
HETATM   17  C1  UNL     1       0.246  23.065  23.636  1.00  0.00     0.071 C 
HETATM   18  N1  UNL     1       2.328  22.154  24.029  1.00  0.00    -0.273 N 
ATOM     19  H1  UNL     1       3.283  22.166  24.387  1.00  0.00     0.194 HD
BRANCH  18  20
HETATM   20  O1  UNL     1       1.905  21.038  23.409  1.00  0.00    -0.290 OA
ATOM     21  H1  UNL     1       2.428  20.531  22.799  1.00  0.00     0.244 HD
ENDBRANCH  18  20
ENDBRANCH   1  16
BRANCH   7  22
HETATM   22  N5  UNL     1       1.544  23.260  27.169  1.00  0.00    -0.371 N 
ATOM     23  H5  UNL     1       0.559  23.419  27.385  1.00  0.00     0.161 HD
BRANCH  22  24
HETATM   24  C19 UNL     1       2.146  22.073  27.711  1.00  0.00     0.083 A 
HETATM   25  C20 UNL     1       1.622  21.499  29.038  1.00  0.00     0.027 A 
HETATM   26  C21 UNL     1       3.006  21.991  28.904  1.00  0.00     0.027 A 
ENDBRANCH  22  24
ENDBRANCH   7  22
BRANCH   4  27
HETATM   27  N3  UNL     1       3.821  27.467  27.226  1.00  0.00    -0.365 N 
HETATM   28  C13 UNL     1       4.223  28.612  26.446  1.00  0.00     0.126 C 
HETATM   29  C14 UNL     1       5.234  29.467  27.220  1.00  0.00     0.046 C 
HETATM   30  C15 UNL     1       4.477  30.413  28.092  1.00  0.00     0.169 C 
HETATM   31  O3  UNL     1       3.530  29.641  28.792  1.00  0.00    -0.389 OA
HETATM   32  C16 UNL     1       4.112  28.560  29.416  1.00  0.00     0.187 C 
HETATM   33  C17 UNL     1       3.913  27.255  28.658  1.00  0.00     0.150 C 
ENDBRANCH   4  27
TORSDOF 6
ENDMDL
MODEL 4
REMARK VINA RESULT: -6.768732745      0.536      1.487
REMARK  6 active torsions:
REMARK  status: ('A' for Active; 'I' for Inactive)
REMARK    1  A    between atoms: C2_2  and  C3_7 
REMARK    2  A    between atoms: N1_3  and  O1_5 
REMARK    3  A    between atoms: C4_8  and  N2_9 
REMARK    4  A    between atoms: C12_18  and  N3_19 
REMARK    5  A    between atoms: C18_28  and  N5_29 
REMARK    6  A    between atoms: N5_29  and  C19_31 
ROOT
HETATM    1  C3  UNL     1       1.939  23.773  26.472  1.00  0.00     0.058 A 
HETATM    2  C4  UNL     1       2.224  24.066  27.807  1.00  0.00     0.050 A 
HETATM    3  C11 UNL     1       2.892  25.272  28.083  1.00  0.00     0.078 A 
HETATM    4  C12 UNL     1       3.252  26.137  27.088  1.00  0.00     0.106 A 
HETATM    5  N4  UNL     1       2.953  25.801  25.840  1.00  0.00    -0.328 N 
ATOM      6  H4  UNL     1       3.222  26.450  25.100  1.00  0.00     0.169 HD
HETATM    7  C18 UNL     1       2.307  24.643  25.469  1.00  0.00     0.117 A 
ENDROOT
BRANCH   2   8
HETATM    8  N2  UNL     1       1.851  23.330  28.959  1.00  0.00    -0.375 N 
HETATM    9  C5  UNL     1       0.589  23.611  29.583  1.00  0.00     0.154 C 
HETATM   10  C6  UNL     1       0.268  22.793  30.790  1.00  0.00     0.136 C 
HETATM   11  C7  UNL     1      -0.705  21.684  30.589  1.00  0.00     0.041 C 
HETATM   12  O2  UNL     1       1.413  22.309  31.423  1.00  0.00    -0.378 OA
HETATM   13  C8  UNL     1       2.177  21.544  30.564  1.00  0.00     0.136 C 
HETATM   14  C9  UNL     1       3.205  20.828  31.423  1.00  0.00     0.041 C 
HETATM   15  C10 UNL     1       2.787  22.401  29.521  1.00  0.00     0.154 C 
ENDBRANCH   2   8
BRANCH   1  16
HETATM   16  C2  UNL     1       1.273  22.529  26.153  1.00  0.00     0.044 C 
HETATM   17  C1  UNL     1      -0.150  22.158  26.171  1.00  0.00     0.071 C 
HETATM   18  N1  UNL     1       2.040  21.489  25.891  1.00  0.00    -0.273 N 
ATOM     19  H1  UNL     1       3.048  21.638  25.854  1.00  0.00     0.194 HD
BRANCH  18  20
HETATM   20  O1  UNL     1       1.581  20.244  25.668  1.00  0.00    -0.290 OA
ATOM     21  H1  UNL     1       1.800  19.720  24.906  1.00  0.00     0.244 HD
ENDBRANCH  18  20
ENDBRANCH   1  16
BRANCH   7  22
HETATM   22  N5  UNL     1       2.254  24.398  24.072  1.00  0.00    -0.371 N 
ATOM     23  H5  UNL     1       1.354  24.538  23.612  1.00  0.00     0.161 HD
BRANCH  22  24
HETATM   24  C19 UNL     1       3.349  23.971  23.245  1.00  0.00     0.083 A 
HETATM   25  C20 UNL     1       3.814  24.868  22.085  1.00  0.00     0.027 A 
HETATM   26  C21 UNL     1       3.267  23.519  21.845  1.00  0.00     0.027 A 
ENDBRANCH  22  24
ENDBRANCH   7  22
BRANCH   4  27
HETATM   27  N3  UNL     1       3.918  27.365  27.437  1.00  0.00    -0.365 N 
HETATM   28  C13 UNL     1       4.214  28.244  26.331  1.00  0.00     0.126 C 
HETATM   29  C14 UNL     1       5.313  29.242  26.714  1.00  0.00     0.046 C 
HETATM   30  C15 UNL     1       4.671  30.413  27.383  1.00  0.00     0.169 C 
HETATM   31  O3  UNL     1       3.822  29.889  28.377  1.00  0.00    -0.389 OA
HETATM   32  C16 UNL     1       4.481  28.997  29.195  1.00  0.00     0.187 C 
HETATM   33  C17 UNL     1       4.191  27.544  28.850  1.00  0.00     0.150 C 
ENDBRANCH   4  27
TORSDOF 6
ENDMDL
MODEL 5
REMARK VINA RESULT: -6.759388426      2.340      5.953
REMARK  6 active torsions:
REMARK  status: ('A' for Active; 'I' for Inactive)
REMARK    1  A    between atoms: C2_2  and  C3_7 
REMARK    2  A    between atoms: N1_3  and  O1_5 
REMARK    3  A    between atoms: C4_8  and  N2_9 
REMARK    4  A    between atoms: C12_18  and  N3_19 
REMARK    5  A    between atoms: C18_28  and  N5_29 
REMARK    6  A    between atoms: N5_29  and  C19_31 
ROOT
HETATM    1  C3  UNL     1       2.163  24.325  24.999  1.00  0.00     0.058 A 
HETATM    2  C4  UNL     1       2.679  25.444  24.343  1.00  0.00     0.050 A 
HETATM    3  C11 UNL     1       3.218  26.474  25.134  1.00  0.00     0.078 A 
HETATM    4  C12 UNL     1       3.244  26.393  26.499  1.00  0.00     0.106 A 
HETATM    5  N4  UNL     1       2.737  25.304  27.062  1.00  0.00    -0.328 N 
ATOM      6  H4  UNL     1       2.759  25.246  28.080  1.00  0.00     0.169 HD
HETATM    7  C18 UNL     1       2.184  24.246  26.375  1.00  0.00     0.117 A 
ENDROOT
BRANCH   2   8
HETATM    8  N2  UNL     1       2.809  25.653  22.947  1.00  0.00    -0.375 N 
HETATM    9  C5  UNL     1       3.835  24.947  22.233  1.00  0.00     0.154 C 
HETATM   10  C6  UNL     1       3.906  25.220  20.767  1.00  0.00     0.136 C 
HETATM   11  C7  UNL     1       3.336  24.171  19.878  1.00  0.00     0.041 C 
HETATM   12  O2  UNL     1       3.373  26.465  20.432  1.00  0.00    -0.378 OA
HETATM   13  C8  UNL     1       2.057  26.573  20.836  1.00  0.00     0.136 C 
HETATM   14  C9  UNL     1       1.499  27.812  20.157  1.00  0.00     0.041 C 
HETATM   15  C10 UNL     1       1.979  26.635  22.313  1.00  0.00     0.154 C 
ENDBRANCH   2   8
BRANCH   1  16
HETATM   16  C2  UNL     1       1.580  23.258  24.214  1.00  0.00     0.044 C 
HETATM   17  C1  UNL     1       0.232  23.095  23.652  1.00  0.00     0.071 C 
HETATM   18  N1  UNL     1       2.316  22.180  24.028  1.00  0.00    -0.273 N 
ATOM     19  H1  UNL     1       3.272  22.190  24.382  1.00  0.00     0.194 HD
BRANCH  18  20
HETATM   20  O1  UNL     1       1.889  21.068  23.404  1.00  0.00    -0.290 OA
ATOM     21  H1  UNL     1       1.297  20.431  23.787  1.00  0.00     0.244 HD
ENDBRANCH  18  20
ENDBRANCH   1  16
BRANCH   7  22
HETATM   22  N5  UNL     1       1.536  23.272  27.179  1.00  0.00    -0.371 N 
ATOM     23  H5  UNL     1       0.550  23.429  27.389  1.00  0.00     0.161 HD
BRANCH  22  24
HETATM   24  C19 UNL     1       2.139  22.088  27.724  1.00  0.00     0.083 A 
HETATM   25  C20 UNL     1       1.608  21.511  29.048  1.00  0.00     0.027 A 
HETATM   26  C21 UNL     1       2.991  22.009  28.923  1.00  0.00     0.027 A 
ENDBRANCH  22  24
ENDBRANCH   7  22
BRANCH   4  27
HETATM   27  N3  UNL     1       3.826  27.473  27.251  1.00  0.00    -0.365 N 
HETATM   28  C13 UNL     1       4.232  28.620  26.475  1.00  0.00     0.126 C 
HETATM   29  C14 UNL     1       5.246  29.468  27.252  1.00  0.00     0.046 C 
HETATM   30  C15 UNL     1       4.492  30.414  28.128  1.00  0.00     0.169 C 
HETATM   31  O3  UNL     1       3.542  29.643  28.825  1.00  0.00    -0.389 OA
HETATM   32  C16 UNL     1       4.120  28.557  29.445  1.00  0.00     0.187 C 
HETATM   33  C17 UNL     1       3.916  27.255  28.682  1.00  0.00     0.150 C 
ENDBRANCH   4  27
TORSDOF 6
ENDMDL
