MODEL 1
REMARK VINA RESULT: -6.989796052      0.000      0.000
REMARK  7 active torsions:
REMARK  status: ('A' for Active; 'I' for Inactive)
REMARK    1  A    between atoms: C2_2  and  N1_4 
REMARK    2  A    between atoms: C2_2  and  C4_8 
REMARK    3  A    between atoms: C4_8  and  O1_9 
REMARK    4  A    between atoms: O1_9  and  C5_10 
REMARK    5  A    between atoms: C9_15  and  C11_17 
REMARK    6  A    between atoms: C13_20  and  C14_21 
REMARK    7  A    between atoms: C19_29  and  O7_31 
ROOT
HETATM    1  C5  UNL     1       0.715  21.198  34.603  1.00  0.00     0.124 C 
HETATM    2  C6  UNL     1       0.871  22.655  34.143  1.00  0.00     0.035 C 
HETATM    3  C7  UNL     1       0.921  22.558  32.632  1.00  0.00     0.054 C 
HETATM    4  C8  UNL     1       2.340  22.133  32.292  1.00  0.00     0.182 C 
HETATM    5  O2  UNL     1       2.375  21.837  30.938  1.00  0.00    -0.330 OA
HETATM    6  C9  UNL     1       3.051  22.868  30.274  1.00  0.00     0.179 C 
HETATM    7  C10 UNL     1       4.497  22.381  30.149  1.00  0.00     0.080 C 
HETATM    8  O5  UNL     1       3.049  23.949  31.151  1.00  0.00    -0.281 OA
HETATM    9  C18 UNL     1       3.159  23.370  32.424  1.00  0.00     0.299 C 
HETATM   10  O6  UNL     1       3.803  23.806  33.435  1.00  0.00    -0.262 OA
HETATM   11  C19 UNL     1       2.811  21.005  33.160  1.00  0.00     0.097 C 
HETATM   12  C20 UNL     1       3.423  19.917  32.260  1.00  0.00     0.050 C 
HETATM   13  C21 UNL     1       1.814  20.347  34.007  1.00  0.00     0.073 C 
ENDROOT
BRANCH  11  14
HETATM   14  O7  UNL     1       3.874  21.488  33.926  1.00  0.00    -0.387 OA
ATOM     15  H7  UNL     1       4.392  20.738  34.193  1.00  0.00     0.210 HD
ENDBRANCH  11  14
BRANCH   6  16
HETATM   16  C11 UNL     1       2.529  23.068  28.922  1.00  0.00     0.106 C 
HETATM   17  C12 UNL     1       1.010  22.997  28.770  1.00  0.00     0.181 C 
HETATM   18  O3  UNL     1       1.022  24.384  29.076  1.00  0.00    -0.380 OA
HETATM   19  C13 UNL     1       2.215  24.354  28.312  1.00  0.00     0.167 C 
BRANCH  19  20
HETATM   20  C14 UNL     1       3.058  25.507  28.301  1.00  0.00    -0.005 A 
HETATM   21  C15 UNL     1       3.779  25.976  27.205  1.00  0.00     0.036 A 
HETATM   22  C16 UNL     1       4.445  27.111  27.588  1.00  0.00     0.142 A 
HETATM   23  O4  UNL     1       4.157  27.327  28.828  1.00  0.00    -0.334 OA
HETATM   24  C17 UNL     1       3.328  26.397  29.308  1.00  0.00     0.151 A 
ENDBRANCH  19  20
ENDBRANCH   6  16
BRANCH   1  25
HETATM   25  O1  UNL     1       0.690  21.147  35.960  1.00  0.00    -0.383 OA
BRANCH  25  26
HETATM   26  C4  UNL     1       0.710  22.227  36.742  1.00  0.00     0.206 C 
BRANCH  26  27
HETATM   27  C2  UNL     1       0.144  22.208  38.111  1.00  0.00     0.137 C 
HETATM   28  C1  UNL     1       0.200  23.466  38.888  1.00  0.00     0.048 C 
HETATM   29  C3  UNL     1      -1.381  21.916  37.931  1.00  0.00     0.048 C 
BRANCH  27  30
HETATM   30  N1  UNL     1       0.604  21.094  38.922  1.00  0.00    -0.069 N 
ATOM     31  H13 UNL     1       1.516  20.752  38.616  1.00  0.00     0.275 HD
ATOM     32  H12 UNL     1       0.863  21.390  39.863  1.00  0.00     0.275 HD
ATOM     33  H11 UNL     1      -0.096  20.352  38.934  1.00  0.00     0.275 HD
ENDBRANCH  27  30
ENDBRANCH  26  27
ENDBRANCH  25  26
ENDBRANCH   1  25
TORSDOF 7
ENDMDL
MODEL 2
REMARK VINA RESULT: -6.913383963      3.374      7.712
REMARK  7 active torsions:
REMARK  status: ('A' for Active; 'I' for Inactive)
REMARK    1  A    between atoms: C2_2  and  N1_4 
REMARK    2  A    between atoms: C2_2  and  C4_8 
REMARK    3  A    between atoms: C4_8  and  O1_9 
REMARK    4  A    between atoms: O1_9  and  C5_10 
REMARK    5  A    between atoms: C9_15  and  C11_17 
REMARK    6  A    between atoms: C13_20  and  C14_21 
REMARK    7  A    between atoms: C19_29  and  O7_31 
ROOT
HETATM    1  C5  UNL     1       2.620  25.181  29.171  1.00  0.00     0.124 C 
HETATM    2  C6  UNL     1       1.954  23.809  28.989  1.00  0.00     0.035 C 
HETATM    3  C7  UNL     1       1.580  23.396  30.398  1.00  0.00     0.054 C 
HETATM    4  C8  UNL     1       2.859  22.868  31.027  1.00  0.00     0.182 C 
HETATM    5  O2  UNL     1       2.609  22.667  32.376  1.00  0.00    -0.330 OA
HETATM    6  C9  UNL     1       2.509  21.289  32.610  1.00  0.00     0.179 C 
HETATM    7  C10 UNL     1       3.904  20.861  33.073  1.00  0.00     0.080 C 
HETATM    8  O5  UNL     1       2.287  20.708  31.365  1.00  0.00    -0.281 OA
HETATM    9  C18 UNL     1       3.028  21.496  30.471  1.00  0.00     0.299 C 
HETATM   10  O6  UNL     1       3.680  21.118  29.441  1.00  0.00    -0.262 OA
HETATM   11  C19 UNL     1       4.026  23.770  30.766  1.00  0.00     0.097 C 
HETATM   12  C20 UNL     1       4.757  24.023  32.097  1.00  0.00     0.050 C 
HETATM   13  C21 UNL     1       3.744  25.081  30.177  1.00  0.00     0.073 C 
ENDROOT
BRANCH  11  14
HETATM   14  O7  UNL     1       4.934  23.057  29.980  1.00  0.00    -0.387 OA
ATOM     15  H7  UNL     1       5.786  23.458  30.100  1.00  0.00     0.210 HD
ENDBRANCH  11  14
BRANCH   6  16
HETATM   16  C11 UNL     1       1.570  20.996  33.692  1.00  0.00     0.106 C 
HETATM   17  C12 UNL     1       1.794  21.752  35.001  1.00  0.00     0.181 C 
HETATM   18  O3  UNL     1       0.974  22.764  34.431  1.00  0.00    -0.380 OA
HETATM   19  C13 UNL     1       0.283  21.646  33.901  1.00  0.00     0.167 C 
BRANCH  19  20
HETATM   20  C14 UNL     1      -0.722  21.862  32.909  1.00  0.00    -0.005 A 
HETATM   21  C15 UNL     1      -1.364  23.071  32.652  1.00  0.00     0.036 A 
HETATM   22  C16 UNL     1      -2.242  22.875  31.617  1.00  0.00     0.142 A 
HETATM   23  O4  UNL     1      -2.148  21.638  31.262  1.00  0.00    -0.334 OA
HETATM   24  C17 UNL     1      -1.251  20.981  32.002  1.00  0.00     0.151 A 
ENDBRANCH  19  20
ENDBRANCH   6  16
BRANCH   1  25
HETATM   25  O1  UNL     1       3.035  25.652  27.966  1.00  0.00    -0.383 OA
BRANCH  25  26
HETATM   26  C4  UNL     1       3.800  26.734  27.819  1.00  0.00     0.206 C 
BRANCH  26  27
HETATM   27  C2  UNL     1       4.222  27.213  26.483  1.00  0.00     0.137 C 
HETATM   28  C1  UNL     1       3.206  27.216  25.408  1.00  0.00     0.048 C 
HETATM   29  C3  UNL     1       4.604  28.716  26.676  1.00  0.00     0.048 C 
BRANCH  27  30
HETATM   30  N1  UNL     1       5.457  26.613  26.006  1.00  0.00    -0.069 N 
ATOM     31  H13 UNL     1       5.748  27.003  25.109  1.00  0.00     0.275 HD
ATOM     32  H12 UNL     1       6.261  26.903  26.563  1.00  0.00     0.275 HD
ATOM     33  H11 UNL     1       5.366  25.598  25.969  1.00  0.00     0.275 HD
ENDBRANCH  27  30
ENDBRANCH  26  27
ENDBRANCH  25  26
ENDBRANCH   1  25
TORSDOF 7
ENDMDL
MODEL 3
REMARK VINA RESULT: -6.659303435      3.848      8.131
REMARK  7 active torsions:
REMARK  status: ('A' for Active; 'I' for Inactive)
REMARK    1  A    between atoms: C2_2  and  N1_4 
REMARK    2  A    between atoms: C2_2  and  C4_8 
REMARK    3  A    between atoms: C4_8  and  O1_9 
REMARK    4  A    between atoms: O1_9  and  C5_10 
REMARK    5  A    between atoms: C9_15  and  C11_17 
REMARK    6  A    between atoms: C13_20  and  C14_21 
REMARK    7  A    between atoms: C19_29  and  O7_31 
ROOT
HETATM    1  C5  UNL     1       2.929  25.537  29.381  1.00  0.00     0.124 C 
HETATM    2  C6  UNL     1       2.214  24.316  28.785  1.00  0.00     0.035 C 
HETATM    3  C7  UNL     1       1.625  23.613  29.992  1.00  0.00     0.054 C 
HETATM    4  C8  UNL     1       2.772  22.835  30.617  1.00  0.00     0.182 C 
HETATM    5  O2  UNL     1       2.327  22.341  31.834  1.00  0.00    -0.330 OA
HETATM    6  C9  UNL     1       2.114  20.962  31.703  1.00  0.00     0.179 C 
HETATM    7  C10 UNL     1       3.404  20.310  32.208  1.00  0.00     0.080 C 
HETATM    8  O5  UNL     1       2.032  20.719  30.335  1.00  0.00    -0.281 OA
HETATM    9  C18 UNL     1       2.935  21.627  29.761  1.00  0.00     0.299 C 
HETATM   10  O6  UNL     1       3.698  21.448  28.755  1.00  0.00    -0.262 OA
HETATM   11  C19 UNL     1       4.015  23.663  30.730  1.00  0.00     0.097 C 
HETATM   12  C20 UNL     1       4.570  23.522  32.159  1.00  0.00     0.050 C 
HETATM   13  C21 UNL     1       3.896  25.097  30.457  1.00  0.00     0.073 C 
ENDROOT
BRANCH  11  14
HETATM   14  O7  UNL     1       4.979  23.078  29.905  1.00  0.00    -0.387 OA
ATOM     15  H7  UNL     1       5.829  23.288  30.272  1.00  0.00     0.210 HD
ENDBRANCH  11  14
BRANCH   6  16
HETATM   16  C11 UNL     1       1.019  20.506  32.558  1.00  0.00     0.106 C 
HETATM   17  C12 UNL     1      -0.172  21.455  32.691  1.00  0.00     0.181 C 
HETATM   18  O3  UNL     1      -0.678  20.810  31.531  1.00  0.00    -0.380 OA
HETATM   19  C13 UNL     1      -0.097  19.669  32.138  1.00  0.00     0.167 C 
BRANCH  19  20
HETATM   20  C14 UNL     1      -0.003  18.458  31.385  1.00  0.00    -0.005 A 
HETATM   21  C15 UNL     1       0.007  17.170  31.916  1.00  0.00     0.036 A 
HETATM   22  C16 UNL     1       0.087  16.282  30.875  1.00  0.00     0.142 A 
HETATM   23  O4  UNL     1       0.125  16.970  29.784  1.00  0.00    -0.334 OA
HETATM   24  C17 UNL     1       0.073  18.281  30.028  1.00  0.00     0.151 A 
ENDBRANCH  19  20
ENDBRANCH   6  16
BRANCH   1  25
HETATM   25  O1  UNL     1       3.534  26.243  28.390  1.00  0.00    -0.383 OA
BRANCH  25  26
HETATM   26  C4  UNL     1       3.373  25.981  27.093  1.00  0.00     0.206 C 
BRANCH  26  27
HETATM   27  C2  UNL     1       3.924  26.871  26.044  1.00  0.00     0.137 C 
HETATM   28  C1  UNL     1       3.160  26.993  24.783  1.00  0.00     0.048 C 
HETATM   29  C3  UNL     1       3.909  28.307  26.661  1.00  0.00     0.048 C 
BRANCH  27  30
HETATM   30  N1  UNL     1       5.331  26.644  25.761  1.00  0.00    -0.069 N 
ATOM     31  H13 UNL     1       5.893  26.629  26.612  1.00  0.00     0.275 HD
ATOM     32  H12 UNL     1       5.506  25.689  25.449  1.00  0.00     0.275 HD
ATOM     33  H11 UNL     1       5.672  27.333  25.090  1.00  0.00     0.275 HD
ENDBRANCH  27  30
ENDBRANCH  26  27
ENDBRANCH  25  26
ENDBRANCH   1  25
TORSDOF 7
ENDMDL
MODEL 4
REMARK VINA RESULT: -6.596225407      1.333      1.608
REMARK  7 active torsions:
REMARK  status: ('A' for Active; 'I' for Inactive)
REMARK    1  A    between atoms: C2_2  and  N1_4 
REMARK    2  A    between atoms: C2_2  and  C4_8 
REMARK    3  A    between atoms: C4_8  and  O1_9 
REMARK    4  A    between atoms: O1_9  and  C5_10 
REMARK    5  A    between atoms: C9_15  and  C11_17 
REMARK    6  A    between atoms: C13_20  and  C14_21 
REMARK    7  A    between atoms: C19_29  and  O7_31 
ROOT
HETATM    1  C5  UNL     1      -0.921  21.647  33.525  1.00  0.00     0.124 C 
HETATM    2  C6  UNL     1      -0.300  22.993  33.125  1.00  0.00     0.035 C 
HETATM    3  C7  UNL     1       0.111  22.791  31.681  1.00  0.00     0.054 C 
HETATM    4  C8  UNL     1       1.421  22.021  31.729  1.00  0.00     0.182 C 
HETATM    5  O2  UNL     1       1.729  21.639  30.431  1.00  0.00    -0.330 OA
HETATM    6  C9  UNL     1       2.784  22.437  29.971  1.00  0.00     0.179 C 
HETATM    7  C10 UNL     1       4.049  21.614  30.234  1.00  0.00     0.080 C 
HETATM    8  O5  UNL     1       2.823  23.541  30.818  1.00  0.00    -0.281 OA
HETATM    9  C18 UNL     1       2.456  23.034  32.074  1.00  0.00     0.299 C 
HETATM   10  O6  UNL     1       2.906  23.369  33.220  1.00  0.00    -0.262 OA
HETATM   11  C19 UNL     1       1.361  20.871  32.688  1.00  0.00     0.097 C 
HETATM   12  C20 UNL     1       1.898  19.614  31.981  1.00  0.00     0.050 C 
HETATM   13  C21 UNL     1       0.050  20.524  33.240  1.00  0.00     0.073 C 
ENDROOT
BRANCH  11  14
HETATM   14  O7  UNL     1       2.277  21.136  33.709  1.00  0.00    -0.387 OA
ATOM     15  H7  UNL     1       1.822  21.013  34.533  1.00  0.00     0.210 HD
ENDBRANCH  11  14
BRANCH   6  16
HETATM   16  C11 UNL     1       2.693  22.668  28.530  1.00  0.00     0.106 C 
HETATM   17  C12 UNL     1       1.322  22.432  27.896  1.00  0.00     0.181 C 
HETATM   18  O3  UNL     1       1.055  23.787  28.230  1.00  0.00    -0.380 OA
HETATM   19  C13 UNL     1       2.420  23.948  27.889  1.00  0.00     0.167 C 
BRANCH  19  20
HETATM   20  C14 UNL     1       3.064  25.189  28.182  1.00  0.00    -0.005 A 
HETATM   21  C15 UNL     1       3.067  25.833  29.417  1.00  0.00     0.036 A 
HETATM   22  C16 UNL     1       3.807  26.980  29.298  1.00  0.00     0.142 A 
HETATM   23  O4  UNL     1       4.229  27.041  28.080  1.00  0.00    -0.334 OA
HETATM   24  C17 UNL     1       3.815  25.993  27.364  1.00  0.00     0.151 A 
ENDBRANCH  19  20
ENDBRANCH   6  16
BRANCH   1  25
HETATM   25  O1  UNL     1      -1.306  21.689  34.827  1.00  0.00    -0.383 OA
BRANCH  25  26
HETATM   26  C4  UNL     1      -0.662  21.059  35.810  1.00  0.00     0.206 C 
BRANCH  26  27
HETATM   27  C2  UNL     1       0.274  21.772  36.710  1.00  0.00     0.137 C 
HETATM   28  C1  UNL     1      -0.307  22.496  37.862  1.00  0.00     0.048 C 
HETATM   29  C3  UNL     1       1.173  20.664  37.346  1.00  0.00     0.048 C 
BRANCH  27  30
HETATM   30  N1  UNL     1       1.229  22.618  36.014  1.00  0.00    -0.069 N 
ATOM     31  H13 UNL     1       0.821  23.514  35.747  1.00  0.00     0.275 HD
ATOM     32  H12 UNL     1       1.957  22.965  36.639  1.00  0.00     0.275 HD
ATOM     33  H11 UNL     1       1.620  22.124  35.211  1.00  0.00     0.275 HD
ENDBRANCH  27  30
ENDBRANCH  26  27
ENDBRANCH  25  26
ENDBRANCH   1  25
TORSDOF 7
ENDMDL
MODEL 5
REMARK VINA RESULT: -6.464244615      3.399      8.196
REMARK  7 active torsions:
REMARK  status: ('A' for Active; 'I' for Inactive)
REMARK    1  A    between atoms: C2_2  and  N1_4 
REMARK    2  A    between atoms: C2_2  and  C4_8 
REMARK    3  A    between atoms: C4_8  and  O1_9 
REMARK    4  A    between atoms: O1_9  and  C5_10 
REMARK    5  A    between atoms: C9_15  and  C11_17 
REMARK    6  A    between atoms: C13_20  and  C14_21 
REMARK    7  A    between atoms: C19_29  and  O7_31 
ROOT
HETATM    1  C5  UNL     1       2.303  24.933  29.166  1.00  0.00     0.124 C 
HETATM    2  C6  UNL     1       1.730  23.512  29.273  1.00  0.00     0.035 C 
HETATM    3  C7  UNL     1       1.559  23.299  30.763  1.00  0.00     0.054 C 
HETATM    4  C8  UNL     1       2.942  22.952  31.292  1.00  0.00     0.182 C 
HETATM    5  O2  UNL     1       2.871  22.947  32.677  1.00  0.00    -0.330 OA
HETATM    6  C9  UNL     1       2.908  21.619  33.120  1.00  0.00     0.179 C 
HETATM    7  C10 UNL     1       4.378  21.352  33.456  1.00  0.00     0.080 C 
HETATM    8  O5  UNL     1       2.586  20.840  32.012  1.00  0.00    -0.281 OA
HETATM    9  C18 UNL     1       3.151  21.524  30.924  1.00  0.00     0.299 C 
HETATM   10  O6  UNL     1       3.704  21.031  29.885  1.00  0.00    -0.262 OA
HETATM   11  C19 UNL     1       3.995  23.872  30.754  1.00  0.00     0.097 C 
HETATM   12  C20 UNL     1       4.856  24.371  31.928  1.00  0.00     0.050 C 
HETATM   13  C21 UNL     1       3.543  25.057  30.022  1.00  0.00     0.073 C 
ENDROOT
BRANCH  11  14
HETATM   14  O7  UNL     1       4.856  23.101  29.969  1.00  0.00    -0.387 OA
ATOM     15  H7  UNL     1       4.536  23.142  29.077  1.00  0.00     0.210 HD
ENDBRANCH  11  14
BRANCH   6  16
HETATM   16  C11 UNL     1       2.130  21.440  34.345  1.00  0.00     0.106 C 
HETATM   17  C12 UNL     1       0.688  21.948  34.308  1.00  0.00     0.181 C 
HETATM   18  O3  UNL     1       0.363  20.662  33.797  1.00  0.00    -0.380 OA
HETATM   19  C13 UNL     1       1.369  20.251  34.705  1.00  0.00     0.167 C 
BRANCH  19  20
HETATM   20  C14 UNL     1       1.841  18.903  34.650  1.00  0.00    -0.005 A 
HETATM   21  C15 UNL     1       1.551  17.981  33.648  1.00  0.00     0.036 A 
HETATM   22  C16 UNL     1       2.204  16.812  33.943  1.00  0.00     0.142 A 
HETATM   23  O4  UNL     1       2.848  16.999  35.046  1.00  0.00    -0.334 OA
HETATM   24  C17 UNL     1       2.668  18.236  35.516  1.00  0.00     0.151 A 
ENDBRANCH  19  20
ENDBRANCH   6  16
BRANCH   1  25
HETATM   25  O1  UNL     1       2.534  25.236  27.861  1.00  0.00    -0.383 OA
BRANCH  25  26
HETATM   26  C4  UNL     1       3.731  25.572  27.382  1.00  0.00     0.206 C 
BRANCH  26  27
HETATM   27  C2  UNL     1       3.977  26.894  26.759  1.00  0.00     0.137 C 
HETATM   28  C1  UNL     1       4.097  28.060  27.662  1.00  0.00     0.048 C 
HETATM   29  C3  UNL     1       5.373  26.779  26.065  1.00  0.00     0.048 C 
BRANCH  27  30
HETATM   30  N1  UNL     1       3.080  27.200  25.657  1.00  0.00    -0.069 N 
ATOM     31  H13 UNL     1       3.080  28.196  25.432  1.00  0.00     0.275 HD
ATOM     32  H12 UNL     1       3.434  26.846  24.769  1.00  0.00     0.275 HD
ATOM     33  H11 UNL     1       2.141  26.856  25.859  1.00  0.00     0.275 HD
ENDBRANCH  27  30
ENDBRANCH  26  27
ENDBRANCH  25  26
ENDBRANCH   1  25
TORSDOF 7
ENDMDL
