MODEL 1
REMARK VINA RESULT: -8.872263547      0.000      0.000
REMARK  6 active torsions:
REMARK  status: ('A' for Active; 'I' for Inactive)
REMARK    1  A    between atoms: N2_5  and  C4_6 
REMARK    2  A    between atoms: C4_6  and  C5_11 
REMARK    3  A    between atoms: N3_7  and  O1_9 
REMARK    4  A    between atoms: C8_15  and  C9_16 
REMARK    5  A    between atoms: C9_16  and  C10_17 
REMARK    6  A    between atoms: C13_20  and  N4_21 
ROOT
HETATM    1  N1  UNL     1       6.397  19.247  34.832  1.00  0.00    -0.191 NA
HETATM    2  C1  UNL     1       5.390  19.480  34.308  1.00  0.00     0.106 C 
HETATM    3  C2  UNL     1       4.126  19.753  33.669  1.00  0.00     0.131 A 
HETATM    4  C3  UNL     1       3.899  20.347  32.435  1.00  0.00     0.146 A 
HETATM    5  N2  UNL     1       2.567  20.401  32.238  1.00  0.00    -0.248 N 
HETATM    6  N6  UNL     1       1.927  19.878  33.269  1.00  0.00    -0.257 N 
ATOM      7  H6  UNL     1       0.915  19.795  33.372  1.00  0.00     0.191 HD
HETATM    8  C21 UNL     1       2.854  19.474  34.157  1.00  0.00     0.282 A 
HETATM    9  O3  UNL     1       2.685  18.923  35.276  1.00  0.00    -0.265 OA
ENDROOT
BRANCH   5  10
HETATM   10  C4  UNL     1       1.977  20.955  31.063  1.00  0.00     0.127 C 
HETATM   11  N3  UNL     1       1.247  20.185  30.340  1.00  0.00    -0.255 N 
ATOM     12  H3  UNL     1       0.813  20.554  29.494  1.00  0.00     0.195 HD
BRANCH  11  13
HETATM   13  O1  UNL     1       1.042  18.883  30.684  1.00  0.00    -0.288 OA
ATOM     14  H1  UNL     1       0.251  18.614  31.138  1.00  0.00     0.244 HD
ENDBRANCH  11  13
BRANCH  10  15
HETATM   15  C5  UNL     1       2.199  22.386  30.680  1.00  0.00     0.059 C 
HETATM   16  C6  UNL     1       0.926  23.136  30.661  1.00  0.00     0.038 C 
HETATM   17  C7  UNL     1       0.475  23.699  29.367  1.00  0.00     0.169 C 
HETATM   18  O2  UNL     1       1.440  24.092  28.492  1.00  0.00    -0.386 OA
HETATM   19  C8  UNL     1       2.491  24.793  29.035  1.00  0.00     0.125 C 
HETATM   20  C19 UNL     1       3.618  23.781  29.281  1.00  0.00     0.033 C 
HETATM   21  C20 UNL     1       2.993  22.391  29.426  1.00  0.00     0.015 C 
BRANCH  19  22
HETATM   22  C9  UNL     1       3.002  25.757  28.004  1.00  0.00     0.070 C 
BRANCH  22  23
HETATM   23  C10 UNL     1       3.716  26.906  28.542  1.00  0.00    -0.056 A 
HETATM   24  C11 UNL     1       3.675  27.318  29.856  1.00  0.00     0.009 A 
HETATM   25  C12 UNL     1       4.374  28.417  30.308  1.00  0.00     0.030 A 
HETATM   26  C13 UNL     1       5.161  29.164  29.426  1.00  0.00     0.039 A 
HETATM   27  C17 UNL     1       5.207  28.758  28.106  1.00  0.00     0.030 A 
HETATM   28  C18 UNL     1       4.497  27.654  27.684  1.00  0.00     0.009 A 
BRANCH  26  29
HETATM   29  N4  UNL     1       5.888  30.301  29.876  1.00  0.00    -0.317 N 
HETATM   30  C14 UNL     1       6.609  30.397  31.003  1.00  0.00     0.115 A 
HETATM   31  C15 UNL     1       7.137  31.673  31.032  1.00  0.00     0.106 A 
HETATM   32  N5  UNL     1       6.735  32.335  29.931  1.00  0.00    -0.360 N 
HETATM   33  C16 UNL     1       5.975  31.481  29.240  1.00  0.00     0.188 A 
ATOM     34  H5  UNL     1       6.964  33.295  29.676  1.00  0.00     0.166 HD
ENDBRANCH  26  29
ENDBRANCH  22  23
ENDBRANCH  19  22
ENDBRANCH  10  15
ENDBRANCH   5  10
TORSDOF 6
ENDMDL
MODEL 2
REMARK VINA RESULT: -8.366802964      1.685      2.636
REMARK  6 active torsions:
REMARK  status: ('A' for Active; 'I' for Inactive)
REMARK    1  A    between atoms: N2_5  and  C4_6 
REMARK    2  A    between atoms: C4_6  and  C5_11 
REMARK    3  A    between atoms: N3_7  and  O1_9 
REMARK    4  A    between atoms: C8_15  and  C9_16 
REMARK    5  A    between atoms: C9_16  and  C10_17 
REMARK    6  A    between atoms: C13_20  and  N4_21 
ROOT
HETATM    1  N1  UNL     1       8.645  19.982  35.632  1.00  0.00    -0.191 NA
HETATM    2  C1  UNL     1       7.512  20.011  35.385  1.00  0.00     0.106 C 
HETATM    3  C2  UNL     1       6.099  20.033  35.096  1.00  0.00     0.131 A 
HETATM    4  C3  UNL     1       5.477  20.234  33.871  1.00  0.00     0.146 A 
HETATM    5  N2  UNL     1       4.145  20.173  34.067  1.00  0.00    -0.248 N 
HETATM    6  N6  UNL     1       3.876  19.944  35.340  1.00  0.00    -0.257 N 
ATOM      7  H6  UNL     1       2.948  19.853  35.754  1.00  0.00     0.191 HD
HETATM    8  C21 UNL     1       5.051  19.855  35.991  1.00  0.00     0.282 A 
HETATM    9  O3  UNL     1       5.259  19.645  37.215  1.00  0.00    -0.265 OA
ENDROOT
BRANCH   5  10
HETATM   10  C4  UNL     1       3.197  20.337  33.014  1.00  0.00     0.127 C 
HETATM   11  N3  UNL     1       2.342  19.397  32.826  1.00  0.00    -0.255 N 
ATOM     12  H3  UNL     1       1.653  19.488  32.080  1.00  0.00     0.195 HD
BRANCH  11  13
HETATM   13  O1  UNL     1       2.341  18.281  33.607  1.00  0.00    -0.288 OA
ATOM     14  H1  UNL     1       1.721  17.577  33.456  1.00  0.00     0.244 HD
ENDBRANCH  11  13
BRANCH  10  15
HETATM   15  C5  UNL     1       3.194  21.563  32.153  1.00  0.00     0.059 C 
HETATM   16  C6  UNL     1       2.199  22.547  32.630  1.00  0.00     0.038 C 
HETATM   17  C7  UNL     1       1.077  22.889  31.726  1.00  0.00     0.169 C 
HETATM   18  O2  UNL     1       1.326  22.856  30.389  1.00  0.00    -0.386 OA
HETATM   19  C8  UNL     1       2.515  23.417  29.987  1.00  0.00     0.125 C 
HETATM   20  C19 UNL     1       3.522  22.267  29.848  1.00  0.00     0.033 C 
HETATM   21  C20 UNL     1       3.063  21.114  30.744  1.00  0.00     0.015 C 
BRANCH  19  22
HETATM   22  C9  UNL     1       2.331  23.991  28.612  1.00  0.00     0.070 C 
BRANCH  22  23
HETATM   23  C10 UNL     1       2.975  25.278  28.396  1.00  0.00    -0.056 A 
HETATM   24  C11 UNL     1       3.339  25.784  27.167  1.00  0.00     0.009 A 
HETATM   25  C12 UNL     1       3.948  27.012  27.024  1.00  0.00     0.030 A 
HETATM   26  C13 UNL     1       4.221  27.800  28.148  1.00  0.00     0.039 A 
HETATM   27  C17 UNL     1       3.860  27.299  29.385  1.00  0.00     0.030 A 
HETATM   28  C18 UNL     1       3.252  26.066  29.495  1.00  0.00     0.009 A 
BRANCH  26  29
HETATM   29  N4  UNL     1       4.849  29.069  28.018  1.00  0.00    -0.317 N 
HETATM   30  C14 UNL     1       4.988  29.783  26.892  1.00  0.00     0.115 A 
HETATM   31  C15 UNL     1       5.655  30.944  27.233  1.00  0.00     0.106 A 
HETATM   32  N5  UNL     1       5.912  30.924  28.555  1.00  0.00    -0.360 N 
HETATM   33  C16 UNL     1       5.412  29.773  29.015  1.00  0.00     0.188 A 
ATOM     34  H5  UNL     1       6.392  31.642  29.096  1.00  0.00     0.166 HD
ENDBRANCH  26  29
ENDBRANCH  22  23
ENDBRANCH  19  22
ENDBRANCH  10  15
ENDBRANCH   5  10
TORSDOF 6
ENDMDL
MODEL 3
REMARK VINA RESULT: -8.341619849      2.097      3.105
REMARK  6 active torsions:
REMARK  status: ('A' for Active; 'I' for Inactive)
REMARK    1  A    between atoms: N2_5  and  C4_6 
REMARK    2  A    between atoms: C4_6  and  C5_11 
REMARK    3  A    between atoms: N3_7  and  O1_9 
REMARK    4  A    between atoms: C8_15  and  C9_16 
REMARK    5  A    between atoms: C9_16  and  C10_17 
REMARK    6  A    between atoms: C13_20  and  N4_21 
ROOT
HETATM    1  N1  UNL     1      -2.405  21.283  34.813  1.00  0.00    -0.191 NA
HETATM    2  C1  UNL     1      -1.286  21.428  34.550  1.00  0.00     0.106 C 
HETATM    3  C2  UNL     1       0.109  21.626  34.238  1.00  0.00     0.131 A 
HETATM    4  C3  UNL     1       0.782  21.295  33.070  1.00  0.00     0.146 A 
HETATM    5  N2  UNL     1       2.071  21.661  33.216  1.00  0.00    -0.248 N 
HETATM    6  N6  UNL     1       2.264  22.205  34.404  1.00  0.00    -0.257 N 
ATOM      7  H6  UNL     1       3.147  22.566  34.766  1.00  0.00     0.191 HD
HETATM    8  C21 UNL     1       1.083  22.196  35.049  1.00  0.00     0.282 A 
HETATM    9  O3  UNL     1       0.813  22.618  36.204  1.00  0.00    -0.265 OA
ENDROOT
BRANCH   5  10
HETATM   10  C4  UNL     1       3.053  21.466  32.199  1.00  0.00     0.127 C 
HETATM   11  N3  UNL     1       4.074  20.741  32.485  1.00  0.00    -0.255 N 
ATOM     12  H3  UNL     1       4.792  20.586  31.778  1.00  0.00     0.195 HD
BRANCH  11  13
HETATM   13  O1  UNL     1       4.213  20.177  33.717  1.00  0.00    -0.288 OA
ATOM     14  H1  UNL     1       5.063  19.894  34.034  1.00  0.00     0.244 HD
ENDBRANCH  11  13
BRANCH  10  15
HETATM   15  C5  UNL     1       2.904  22.085  30.843  1.00  0.00     0.059 C 
HETATM   16  C6  UNL     1       4.106  21.848  30.015  1.00  0.00     0.038 C 
HETATM   17  C7  UNL     1       4.890  23.028  29.582  1.00  0.00     0.169 C 
HETATM   18  O2  UNL     1       4.203  24.183  29.364  1.00  0.00    -0.386 OA
HETATM   19  C8  UNL     1       3.019  24.055  28.676  1.00  0.00     0.125 C 
HETATM   20  C19 UNL     1       1.901  23.999  29.726  1.00  0.00     0.033 C 
HETATM   21  C20 UNL     1       2.502  23.499  31.043  1.00  0.00     0.015 C 
BRANCH  19  22
HETATM   22  C9  UNL     1       2.793  25.307  27.880  1.00  0.00     0.070 C 
BRANCH  22  23
HETATM   23  C10 UNL     1       3.493  26.482  28.378  1.00  0.00    -0.056 A 
HETATM   24  C11 UNL     1       3.439  26.945  29.674  1.00  0.00     0.009 A 
HETATM   25  C12 UNL     1       4.124  28.067  30.088  1.00  0.00     0.030 A 
HETATM   26  C13 UNL     1       4.913  28.786  29.183  1.00  0.00     0.039 A 
HETATM   27  C17 UNL     1       4.972  28.328  27.880  1.00  0.00     0.030 A 
HETATM   28  C18 UNL     1       4.274  27.202  27.497  1.00  0.00     0.009 A 
BRANCH  26  29
HETATM   29  N4  UNL     1       5.626  29.945  29.593  1.00  0.00    -0.317 N 
HETATM   30  C14 UNL     1       6.357  30.084  30.709  1.00  0.00     0.115 A 
HETATM   31  C15 UNL     1       6.866  31.369  30.697  1.00  0.00     0.106 A 
HETATM   32  N5  UNL     1       6.442  31.993  29.582  1.00  0.00    -0.360 N 
HETATM   33  C16 UNL     1       5.688  31.108  28.923  1.00  0.00     0.188 A 
ATOM     34  H5  UNL     1       6.654  32.949  29.298  1.00  0.00     0.166 HD
ENDBRANCH  26  29
ENDBRANCH  22  23
ENDBRANCH  19  22
ENDBRANCH  10  15
ENDBRANCH   5  10
TORSDOF 6
ENDMDL
MODEL 4
REMARK VINA RESULT: -8.293379945      2.794      9.037
REMARK  6 active torsions:
REMARK  status: ('A' for Active; 'I' for Inactive)
REMARK    1  A    between atoms: N2_5  and  C4_6 
REMARK    2  A    between atoms: C4_6  and  C5_11 
REMARK    3  A    between atoms: N3_7  and  O1_9 
REMARK    4  A    between atoms: C8_15  and  C9_16 
REMARK    5  A    between atoms: C9_16  and  C10_17 
REMARK    6  A    between atoms: C13_20  and  N4_21 
ROOT
HETATM    1  N1  UNL     1       6.456  29.588  33.609  1.00  0.00    -0.191 NA
HETATM    2  C1  UNL     1       6.244  29.633  32.470  1.00  0.00     0.106 C 
HETATM    3  C2  UNL     1       5.983  29.712  31.053  1.00  0.00     0.131 A 
HETATM    4  C3  UNL     1       5.226  28.851  30.270  1.00  0.00     0.146 A 
HETATM    5  N2  UNL     1       5.254  29.309  29.003  1.00  0.00    -0.248 N 
HETATM    6  N6  UNL     1       5.982  30.409  28.926  1.00  0.00    -0.257 N 
ATOM      7  H6  UNL     1       6.164  30.954  28.083  1.00  0.00     0.191 HD
HETATM    8  C21 UNL     1       6.440  30.678  30.163  1.00  0.00     0.282 A 
HETATM    9  O3  UNL     1       7.169  31.631  30.543  1.00  0.00    -0.265 OA
ENDROOT
BRANCH   5  10
HETATM   10  C4  UNL     1       4.577  28.660  27.928  1.00  0.00     0.127 C 
HETATM   11  N3  UNL     1       4.102  29.397  26.989  1.00  0.00    -0.255 N 
ATOM     12  H3  UNL     1       3.612  28.960  26.209  1.00  0.00     0.195 HD
BRANCH  11  13
HETATM   13  O1  UNL     1       4.242  30.752  27.019  1.00  0.00    -0.288 OA
ATOM     14  H1  UNL     1       4.241  31.263  26.218  1.00  0.00     0.244 HD
ENDBRANCH  11  13
BRANCH  10  15
HETATM   15  C5  UNL     1       4.420  27.171  27.891  1.00  0.00     0.059 C 
HETATM   16  C6  UNL     1       4.431  26.670  26.500  1.00  0.00     0.038 C 
HETATM   17  C7  UNL     1       3.207  26.004  25.996  1.00  0.00     0.169 C 
HETATM   18  O2  UNL     1       2.460  25.314  26.900  1.00  0.00    -0.386 OA
HETATM   19  C8  UNL     1       3.163  24.526  27.781  1.00  0.00     0.125 C 
HETATM   20  C19 UNL     1       3.330  25.344  29.069  1.00  0.00     0.033 C 
HETATM   21  C20 UNL     1       3.232  26.829  28.712  1.00  0.00     0.015 C 
BRANCH  19  22
HETATM   22  C9  UNL     1       2.317  23.338  28.137  1.00  0.00     0.070 C 
BRANCH  22  23
HETATM   23  C10 UNL     1       2.631  22.727  29.420  1.00  0.00    -0.056 A 
HETATM   24  C11 UNL     1       1.866  22.842  30.560  1.00  0.00     0.009 A 
HETATM   25  C12 UNL     1       2.216  22.239  31.749  1.00  0.00     0.030 A 
HETATM   26  C13 UNL     1       3.385  21.475  31.836  1.00  0.00     0.039 A 
HETATM   27  C17 UNL     1       4.158  21.355  30.697  1.00  0.00     0.030 A 
HETATM   28  C18 UNL     1       3.781  21.970  29.522  1.00  0.00     0.009 A 
BRANCH  26  29
HETATM   29  N4  UNL     1       3.760  20.847  33.055  1.00  0.00    -0.317 N 
HETATM   30  C14 UNL     1       4.156  19.575  33.214  1.00  0.00     0.115 A 
HETATM   31  C15 UNL     1       4.418  19.402  34.559  1.00  0.00     0.106 A 
HETATM   32  N5  UNL     1       4.181  20.562  35.200  1.00  0.00    -0.360 N 
HETATM   33  C16 UNL     1       3.782  21.430  34.266  1.00  0.00     0.188 A 
ATOM     34  H5  UNL     1       4.286  20.743  36.198  1.00  0.00     0.166 HD
ENDBRANCH  26  29
ENDBRANCH  22  23
ENDBRANCH  19  22
ENDBRANCH  10  15
ENDBRANCH   5  10
TORSDOF 6
ENDMDL
MODEL 5
REMARK VINA RESULT: -8.280982967      2.214      3.356
REMARK  6 active torsions:
REMARK  status: ('A' for Active; 'I' for Inactive)
REMARK    1  A    between atoms: N2_5  and  C4_6 
REMARK    2  A    between atoms: C4_6  and  C5_11 
REMARK    3  A    between atoms: N3_7  and  O1_9 
REMARK    4  A    between atoms: C8_15  and  C9_16 
REMARK    5  A    between atoms: C9_16  and  C10_17 
REMARK    6  A    between atoms: C13_20  and  N4_21 
ROOT
HETATM    1  N1  UNL     1      -0.090  22.617  37.581  1.00  0.00    -0.191 NA
HETATM    2  C1  UNL     1       0.651  22.171  36.810  1.00  0.00     0.106 C 
HETATM    3  C2  UNL     1       1.579  21.599  35.865  1.00  0.00     0.131 A 
HETATM    4  C3  UNL     1       2.200  22.220  34.789  1.00  0.00     0.146 A 
HETATM    5  N2  UNL     1       2.986  21.309  34.181  1.00  0.00    -0.248 N 
HETATM    6  N6  UNL     1       2.906  20.144  34.800  1.00  0.00    -0.257 N 
ATOM      7  H6  UNL     1       3.399  19.289  34.543  1.00  0.00     0.191 HD
HETATM    8  C21 UNL     1       2.054  20.293  35.832  1.00  0.00     0.282 A 
HETATM    9  O3  UNL     1       1.690  19.439  36.682  1.00  0.00    -0.265 OA
ENDROOT
BRANCH   5  10
HETATM   10  C4  UNL     1       3.775  21.608  33.031  1.00  0.00     0.127 C 
HETATM   11  N3  UNL     1       5.049  21.670  33.179  1.00  0.00    -0.255 N 
ATOM     12  H3  UNL     1       5.638  21.883  32.374  1.00  0.00     0.195 HD
BRANCH  11  13
HETATM   13  O1  UNL     1       5.627  21.455  34.394  1.00  0.00    -0.288 OA
ATOM     14  H1  UNL     1       5.717  20.578  34.747  1.00  0.00     0.244 HD
ENDBRANCH  11  13
BRANCH  10  15
HETATM   15  C5  UNL     1       3.144  21.845  31.693  1.00  0.00     0.059 C 
HETATM   16  C6  UNL     1       3.813  21.050  30.641  1.00  0.00     0.038 C 
HETATM   17  C7  UNL     1       4.496  21.784  29.551  1.00  0.00     0.169 C 
HETATM   18  O2  UNL     1       3.966  22.982  29.182  1.00  0.00    -0.386 OA
HETATM   19  C8  UNL     1       2.596  23.019  29.065  1.00  0.00     0.125 C 
HETATM   20  C19 UNL     1       2.055  23.583  30.386  1.00  0.00     0.033 C 
HETATM   21  C20 UNL     1       3.087  23.313  31.483  1.00  0.00     0.015 C 
BRANCH  19  22
HETATM   22  C9  UNL     1       2.237  24.013  27.999  1.00  0.00     0.070 C 
BRANCH  22  23
HETATM   23  C10 UNL     1       2.894  25.306  28.122  1.00  0.00    -0.056 A 
HETATM   24  C11 UNL     1       3.030  26.015  29.295  1.00  0.00     0.009 A 
HETATM   25  C12 UNL     1       3.664  27.238  29.350  1.00  0.00     0.030 A 
HETATM   26  C13 UNL     1       4.198  27.809  28.190  1.00  0.00     0.039 A 
HETATM   27  C17 UNL     1       4.065  27.104  27.009  1.00  0.00     0.030 A 
HETATM   28  C18 UNL     1       3.426  25.882  26.986  1.00  0.00     0.009 A 
BRANCH  26  29
HETATM   29  N4  UNL     1       4.854  29.070  28.229  1.00  0.00    -0.317 N 
HETATM   30  C14 UNL     1       4.909  29.977  27.243  1.00  0.00     0.115 A 
HETATM   31  C15 UNL     1       5.646  31.044  27.721  1.00  0.00     0.106 A 
HETATM   32  N5  UNL     1       6.028  30.776  28.984  1.00  0.00    -0.360 N 
HETATM   33  C16 UNL     1       5.535  29.569  29.275  1.00  0.00     0.188 A 
ATOM     34  H5  UNL     1       6.583  31.375  29.595  1.00  0.00     0.166 HD
ENDBRANCH  26  29
ENDBRANCH  22  23
ENDBRANCH  19  22
ENDBRANCH  10  15
ENDBRANCH   5  10
TORSDOF 6
ENDMDL
