MODEL 1
REMARK VINA RESULT: -7.680414139      0.000      0.000
REMARK  6 active torsions:
REMARK  status: ('A' for Active; 'I' for Inactive)
REMARK    1  A    between atoms: C2_2  and  N1_3 
REMARK    2  A    between atoms: N1_3  and  C3_5 
REMARK    3  A    between atoms: N2_9  and  C7_10 
REMARK    4  A    between atoms: C8_13  and  N4_14 
REMARK    5  A    between atoms: C11_17  and  O1_18 
REMARK    6  A    between atoms: N7_29  and  C17_30 
ROOT
HETATM    1  C7  UNL     1       3.251  25.257  28.252  1.00  0.00     0.134 A 
HETATM    2  N3  UNL     1       2.983  25.040  26.925  1.00  0.00    -0.176 N 
ATOM      3  H3  UNL     1       2.724  24.104  26.613  1.00  0.00     0.186 HD
HETATM    4  C8  UNL     1       3.054  26.036  26.028  1.00  0.00     0.683 A 
HETATM    5  N5  UNL     1       3.395  27.240  26.480  1.00  0.00    -0.174 N 
ATOM      6  H5  UNL     1       3.452  28.006  25.809  1.00  0.00     0.186 HD
HETATM    7  C14 UNL     1       3.670  27.508  27.774  1.00  0.00     0.153 A 
HETATM    8  C15 UNL     1       3.604  26.496  28.724  1.00  0.00     0.071 A 
HETATM    9  C16 UNL     1       3.930  27.019  29.963  1.00  0.00     0.126 A 
HETATM   10  N6  UNL     1       4.185  28.336  29.729  1.00  0.00    -0.307 N 
ATOM     11  H6  UNL     1       4.456  29.011  30.443  1.00  0.00     0.186 HD
HETATM   12  N7  UNL     1       4.032  28.613  28.451  1.00  0.00    -0.271 N 
ENDROOT
BRANCH   1  13
HETATM   13  N2  UNL     1       3.158  24.163  29.178  1.00  0.00    -0.364 N 
HETATM   14  C6  UNL     1       4.274  23.428  29.688  1.00  0.00     0.124 C 
HETATM   15  C5  UNL     1       4.131  21.944  29.650  1.00  0.00     0.022 C 
HETATM   16  C4  UNL     1       2.749  21.556  29.149  1.00  0.00     0.028 C 
HETATM   17  C3  UNL     1       1.675  22.324  29.825  1.00  0.00     0.098 C 
HETATM   18  C21 UNL     1       1.836  23.829  29.618  1.00  0.00     0.149 C 
BRANCH  17  19
HETATM   19  N1  UNL     1       1.490  21.998  31.178  1.00  0.00    -0.396 N 
ATOM     20  H1  UNL     1       1.275  21.030  31.417  1.00  0.00     0.159 HD
BRANCH  19  21
HETATM   21  C2  UNL     1       1.585  22.933  32.217  1.00  0.00     0.051 C 
HETATM   22  C1  UNL     1       2.784  22.938  33.108  1.00  0.00     0.054 C 
ENDBRANCH  19  21
ENDBRANCH  17  19
ENDBRANCH   1  13
BRANCH   4  23
HETATM   23  N4  UNL     1       2.763  25.751  24.667  1.00  0.00    -0.217 N 
HETATM   24  C9  UNL     1       2.246  24.440  24.324  1.00  0.00     0.143 C 
HETATM   25  C10 UNL     1       1.094  24.547  23.329  1.00  0.00     0.052 C 
HETATM   26  C11 UNL     1       1.617  25.340  22.146  1.00  0.00     0.121 C 
HETATM   27  C12 UNL     1       1.839  26.768  22.651  1.00  0.00     0.052 C 
HETATM   28  C13 UNL     1       2.980  26.762  23.645  1.00  0.00     0.143 C 
BRANCH  26  29
HETATM   29  O1  UNL     1       2.879  24.788  21.826  1.00  0.00    -0.395 OA
ATOM     30  H1  UNL     1       3.137  25.176  20.998  1.00  0.00     0.210 HD
ENDBRANCH  26  29
ENDBRANCH   4  23
BRANCH  12  31
HETATM   31  C17 UNL     1       4.216  29.899  27.812  1.00  0.00     0.110 C 
HETATM   32  C18 UNL     1       5.164  29.739  26.616  1.00  0.00     0.027 C 
HETATM   33  C19 UNL     1       5.918  31.002  27.041  1.00  0.00     0.004 C 
HETATM   34  C20 UNL     1       5.264  30.800  28.418  1.00  0.00     0.027 C 
ENDBRANCH  12  31
TORSDOF 6
ENDMDL
MODEL 2
REMARK VINA RESULT: -7.542280078      1.023      1.541
REMARK  6 active torsions:
REMARK  status: ('A' for Active; 'I' for Inactive)
REMARK    1  A    between atoms: C2_2  and  N1_3 
REMARK    2  A    between atoms: N1_3  and  C3_5 
REMARK    3  A    between atoms: N2_9  and  C7_10 
REMARK    4  A    between atoms: C8_13  and  N4_14 
REMARK    5  A    between atoms: C11_17  and  O1_18 
REMARK    6  A    between atoms: N7_29  and  C17_30 
ROOT
HETATM    1  C7  UNL     1       3.204  25.207  28.193  1.00  0.00     0.134 A 
HETATM    2  N3  UNL     1       2.994  25.017  26.851  1.00  0.00    -0.176 N 
ATOM      3  H3  UNL     1       2.748  24.088  26.509  1.00  0.00     0.186 HD
HETATM    4  C8  UNL     1       3.105  26.032  25.979  1.00  0.00     0.683 A 
HETATM    5  N5  UNL     1       3.428  27.224  26.470  1.00  0.00    -0.174 N 
ATOM      6  H5  UNL     1       3.516  28.004  25.818  1.00  0.00     0.186 HD
HETATM    7  C14 UNL     1       3.647  27.466  27.780  1.00  0.00     0.153 A 
HETATM    8  C15 UNL     1       3.538  26.435  28.705  1.00  0.00     0.071 A 
HETATM    9  C16 UNL     1       3.810  26.932  29.968  1.00  0.00     0.126 A 
HETATM   10  N6  UNL     1       4.077  28.252  29.772  1.00  0.00    -0.307 N 
ATOM     11  H6  UNL     1       4.317  28.913  30.511  1.00  0.00     0.186 HD
HETATM   12  N7  UNL     1       3.980  28.556  28.494  1.00  0.00    -0.271 N 
ENDROOT
BRANCH   1  13
HETATM   13  N2  UNL     1       3.069  24.094  29.091  1.00  0.00    -0.364 N 
HETATM   14  C6  UNL     1       1.822  23.535  29.515  1.00  0.00     0.124 C 
HETATM   15  C5  UNL     1       1.697  23.294  30.981  1.00  0.00     0.022 C 
HETATM   16  C4  UNL     1       3.003  23.625  31.687  1.00  0.00     0.028 C 
HETATM   17  C3  UNL     1       4.175  23.029  31.000  1.00  0.00     0.098 C 
HETATM   18  C21 UNL     1       4.294  23.515  29.557  1.00  0.00     0.149 C 
BRANCH  17  19
HETATM   19  N1  UNL     1       4.253  21.631  31.091  1.00  0.00    -0.396 N 
ATOM     20  H1  UNL     1       4.375  21.096  30.231  1.00  0.00     0.159 HD
BRANCH  19  21
HETATM   21  C2  UNL     1       4.173  20.931  32.303  1.00  0.00     0.051 C 
HETATM   22  C1  UNL     1       3.041  19.986  32.544  1.00  0.00     0.054 C 
ENDBRANCH  19  21
ENDBRANCH  17  19
ENDBRANCH   1  13
BRANCH   4  23
HETATM   23  N4  UNL     1       2.874  25.775  24.600  1.00  0.00    -0.217 N 
HETATM   24  C9  UNL     1       2.564  24.420  24.186  1.00  0.00     0.143 C 
HETATM   25  C10 UNL     1       1.419  24.402  23.177  1.00  0.00     0.052 C 
HETATM   26  C11 UNL     1       1.828  25.323  22.044  1.00  0.00     0.121 C 
HETATM   27  C12 UNL     1       1.827  26.741  22.621  1.00  0.00     0.052 C 
HETATM   28  C13 UNL     1       2.946  26.857  23.632  1.00  0.00     0.143 C 
BRANCH  26  29
HETATM   29  O1  UNL     1       3.162  24.984  21.719  1.00  0.00    -0.395 OA
ATOM     30  H1  UNL     1       3.632  25.805  21.637  1.00  0.00     0.210 HD
ENDBRANCH  26  29
ENDBRANCH   4  23
BRANCH  12  31
HETATM   31  C17 UNL     1       4.194  29.854  27.890  1.00  0.00     0.110 C 
HETATM   32  C18 UNL     1       5.163  29.710  26.709  1.00  0.00     0.027 C 
HETATM   33  C19 UNL     1       5.925  30.952  27.180  1.00  0.00     0.004 C 
HETATM   34  C20 UNL     1       5.242  30.726  28.538  1.00  0.00     0.027 C 
ENDBRANCH  12  31
TORSDOF 6
ENDMDL
MODEL 3
REMARK VINA RESULT: -7.513728775      2.315      5.209
REMARK  6 active torsions:
REMARK  status: ('A' for Active; 'I' for Inactive)
REMARK    1  A    between atoms: C2_2  and  N1_3 
REMARK    2  A    between atoms: N1_3  and  C3_5 
REMARK    3  A    between atoms: N2_9  and  C7_10 
REMARK    4  A    between atoms: C8_13  and  N4_14 
REMARK    5  A    between atoms: C11_17  and  O1_18 
REMARK    6  A    between atoms: N7_29  and  C17_30 
ROOT
HETATM    1  C7  UNL     1       3.161  24.617  29.434  1.00  0.00     0.134 A 
HETATM    2  N3  UNL     1       3.543  25.929  29.320  1.00  0.00    -0.176 N 
ATOM      3  H3  UNL     1       3.893  26.422  30.142  1.00  0.00     0.186 HD
HETATM    4  C8  UNL     1       3.464  26.578  28.148  1.00  0.00     0.683 A 
HETATM    5  N5  UNL     1       3.001  25.896  27.104  1.00  0.00    -0.174 N 
ATOM      6  H5  UNL     1       2.936  26.378  26.207  1.00  0.00     0.186 HD
HETATM    7  C14 UNL     1       2.611  24.605  27.161  1.00  0.00     0.153 A 
HETATM    8  C15 UNL     1       2.683  23.909  28.361  1.00  0.00     0.071 A 
HETATM    9  C16 UNL     1       2.228  22.617  28.160  1.00  0.00     0.126 A 
HETATM   10  N6  UNL     1       1.893  22.567  26.842  1.00  0.00    -0.307 N 
ATOM     11  H6  UNL     1       1.520  21.745  26.367  1.00  0.00     0.186 HD
HETATM   12  N7  UNL     1       2.119  23.729  26.266  1.00  0.00    -0.271 N 
ENDROOT
BRANCH   1  13
HETATM   13  N2  UNL     1       3.268  23.960  30.707  1.00  0.00    -0.364 N 
HETATM   14  C6  UNL     1       4.482  23.811  31.449  1.00  0.00     0.124 C 
HETATM   15  C5  UNL     1       4.741  22.441  31.979  1.00  0.00     0.022 C 
HETATM   16  C4  UNL     1       3.567  21.523  31.673  1.00  0.00     0.028 C 
HETATM   17  C3  UNL     1       2.266  22.147  32.016  1.00  0.00     0.098 C 
HETATM   18  C21 UNL     1       2.044  23.451  31.251  1.00  0.00     0.149 C 
BRANCH  17  19
HETATM   19  N1  UNL     1       2.039  22.301  33.392  1.00  0.00    -0.396 N 
ATOM     20  H1  UNL     1       2.824  22.168  34.030  1.00  0.00     0.159 HD
BRANCH  19  21
HETATM   21  C2  UNL     1       0.790  22.629  33.936  1.00  0.00     0.051 C 
HETATM   22  C1  UNL     1       0.468  22.252  35.346  1.00  0.00     0.054 C 
ENDBRANCH  19  21
ENDBRANCH  17  19
ENDBRANCH   1  13
BRANCH   4  23
HETATM   23  N4  UNL     1       3.874  27.937  28.091  1.00  0.00    -0.217 N 
HETATM   24  C9  UNL     1       4.105  28.648  29.334  1.00  0.00     0.143 C 
HETATM   25  C10 UNL     1       5.383  29.480  29.262  1.00  0.00     0.052 C 
HETATM   26  C11 UNL     1       5.247  30.377  28.046  1.00  0.00     0.121 C 
HETATM   27  C12 UNL     1       5.303  29.456  26.825  1.00  0.00     0.052 C 
HETATM   28  C13 UNL     1       4.061  28.592  26.807  1.00  0.00     0.143 C 
BRANCH  26  29
HETATM   29  O1  UNL     1       3.951  30.938  28.111  1.00  0.00    -0.395 OA
ATOM     30  H1  UNL     1       3.747  31.240  27.234  1.00  0.00     0.210 HD
ENDBRANCH  26  29
ENDBRANCH   4  23
BRANCH  12  31
HETATM   31  C17 UNL     1       1.886  24.073  24.879  1.00  0.00     0.110 C 
HETATM   32  C18 UNL     1       1.955  22.801  24.024  1.00  0.00     0.027 C 
HETATM   33  C19 UNL     1       2.807  23.540  22.989  1.00  0.00     0.004 C 
HETATM   34  C20 UNL     1       3.085  24.562  24.103  1.00  0.00     0.027 C 
ENDBRANCH  12  31
TORSDOF 6
ENDMDL
MODEL 4
REMARK VINA RESULT: -7.508698103      1.499      2.427
REMARK  6 active torsions:
REMARK  status: ('A' for Active; 'I' for Inactive)
REMARK    1  A    between atoms: C2_2  and  N1_3 
REMARK    2  A    between atoms: N1_3  and  C3_5 
REMARK    3  A    between atoms: N2_9  and  C7_10 
REMARK    4  A    between atoms: C8_13  and  N4_14 
REMARK    5  A    between atoms: C11_17  and  O1_18 
REMARK    6  A    between atoms: N7_29  and  C17_30 
ROOT
HETATM    1  C7  UNL     1       2.311  24.407  27.961  1.00  0.00     0.134 A 
HETATM    2  N3  UNL     1       2.174  24.280  26.603  1.00  0.00    -0.176 N 
ATOM      3  H3  UNL     1       1.659  23.484  26.224  1.00  0.00     0.186 HD
HETATM    4  C8  UNL     1       2.704  25.181  25.762  1.00  0.00     0.683 A 
HETATM    5  N5  UNL     1       3.366  26.201  26.300  1.00  0.00    -0.174 N 
ATOM      6  H5  UNL     1       3.773  26.893  25.671  1.00  0.00     0.186 HD
HETATM    7  C14 UNL     1       3.532  26.374  27.628  1.00  0.00     0.153 A 
HETATM    8  C15 UNL     1       2.993  25.457  28.522  1.00  0.00     0.071 A 
HETATM    9  C16 UNL     1       3.301  25.852  29.813  1.00  0.00     0.126 A 
HETATM   10  N6  UNL     1       4.018  27.000  29.664  1.00  0.00    -0.307 N 
ATOM     11  H6  UNL     1       4.399  27.551  30.432  1.00  0.00     0.186 HD
HETATM   12  N7  UNL     1       4.148  27.297  28.388  1.00  0.00    -0.271 N 
ENDROOT
BRANCH   1  13
HETATM   13  N2  UNL     1       1.723  23.422  28.825  1.00  0.00    -0.364 N 
HETATM   14  C6  UNL     1       0.439  23.542  29.444  1.00  0.00     0.124 C 
HETATM   15  C5  UNL     1       0.399  23.214  30.898  1.00  0.00     0.022 C 
HETATM   16  C4  UNL     1       1.760  22.725  31.370  1.00  0.00     0.028 C 
HETATM   17  C3  UNL     1       2.330  21.702  30.460  1.00  0.00     0.098 C 
HETATM   18  C21 UNL     1       2.499  22.236  29.039  1.00  0.00     0.149 C 
BRANCH  17  19
HETATM   19  N1  UNL     1       1.662  20.468  30.480  1.00  0.00    -0.396 N 
ATOM     20  H1  UNL     1       1.629  19.950  31.359  1.00  0.00     0.159 HD
BRANCH  19  21
HETATM   21  C2  UNL     1       1.039  19.910  29.356  1.00  0.00     0.051 C 
HETATM   22  C1  UNL     1       0.330  18.599  29.470  1.00  0.00     0.054 C 
ENDBRANCH  19  21
ENDBRANCH  17  19
ENDBRANCH   1  13
BRANCH   4  23
HETATM   23  N4  UNL     1       2.527  24.996  24.364  1.00  0.00    -0.217 N 
HETATM   24  C9  UNL     1       2.232  26.152  23.539  1.00  0.00     0.143 C 
HETATM   25  C10 UNL     1       3.051  26.133  22.252  1.00  0.00     0.052 C 
HETATM   26  C11 UNL     1       2.771  24.801  21.582  1.00  0.00     0.121 C 
HETATM   27  C12 UNL     1       3.406  23.731  22.473  1.00  0.00     0.052 C 
HETATM   28  C13 UNL     1       2.648  23.670  23.780  1.00  0.00     0.143 C 
BRANCH  26  29
HETATM   29  O1  UNL     1       1.369  24.626  21.619  1.00  0.00    -0.395 OA
ATOM     30  H1  UNL     1       1.218  23.688  21.639  1.00  0.00     0.210 HD
ENDBRANCH  26  29
ENDBRANCH   4  23
BRANCH  12  31
HETATM   31  C17 UNL     1       4.846  28.436  27.828  1.00  0.00     0.110 C 
HETATM   32  C18 UNL     1       5.285  29.370  28.963  1.00  0.00     0.027 C 
HETATM   33  C19 UNL     1       4.803  30.579  28.158  1.00  0.00     0.004 C 
HETATM   34  C20 UNL     1       3.982  29.572  27.337  1.00  0.00     0.027 C 
ENDBRANCH  12  31
TORSDOF 6
ENDMDL
MODEL 5
REMARK VINA RESULT: -7.503549920      2.395      5.430
REMARK  6 active torsions:
REMARK  status: ('A' for Active; 'I' for Inactive)
REMARK    1  A    between atoms: C2_2  and  N1_3 
REMARK    2  A    between atoms: N1_3  and  C3_5 
REMARK    3  A    between atoms: N2_9  and  C7_10 
REMARK    4  A    between atoms: C8_13  and  N4_14 
REMARK    5  A    between atoms: C11_17  and  O1_18 
REMARK    6  A    between atoms: N7_29  and  C17_30 
ROOT
HETATM    1  C7  UNL     1       2.898  23.648  29.580  1.00  0.00     0.134 A 
HETATM    2  N3  UNL     1       3.414  24.918  29.562  1.00  0.00    -0.176 N 
ATOM      3  H3  UNL     1       3.825  25.304  30.412  1.00  0.00     0.186 HD
HETATM    4  C8  UNL     1       3.388  25.664  28.446  1.00  0.00     0.683 A 
HETATM    5  N5  UNL     1       2.842  25.121  27.362  1.00  0.00    -0.174 N 
ATOM      6  H5  UNL     1       2.815  25.677  26.508  1.00  0.00     0.186 HD
HETATM    7  C14 UNL     1       2.319  23.877  27.326  1.00  0.00     0.153 A 
HETATM    8  C15 UNL     1       2.333  23.082  28.466  1.00  0.00     0.071 A 
HETATM    9  C16 UNL     1       1.742  21.865  28.174  1.00  0.00     0.126 A 
HETATM   10  N6  UNL     1       1.385  21.956  26.863  1.00  0.00    -0.307 N 
ATOM     11  H6  UNL     1       0.921  21.219  26.334  1.00  0.00     0.186 HD
HETATM   12  N7  UNL     1       1.725  23.132  26.376  1.00  0.00    -0.271 N 
ENDROOT
BRANCH   1  13
HETATM   13  N2  UNL     1       2.952  22.883  30.795  1.00  0.00    -0.364 N 
HETATM   14  C6  UNL     1       4.100  22.165  31.256  1.00  0.00     0.124 C 
HETATM   15  C5  UNL     1       3.840  20.767  31.707  1.00  0.00     0.022 C 
HETATM   16  C4  UNL     1       2.351  20.461  31.653  1.00  0.00     0.028 C 
HETATM   17  C3  UNL     1       1.538  21.536  32.274  1.00  0.00     0.098 C 
HETATM   18  C21 UNL     1       1.757  22.882  31.586  1.00  0.00     0.149 C 
BRANCH  17  19
HETATM   19  N1  UNL     1       1.667  21.632  33.668  1.00  0.00    -0.396 N 
ATOM     20  H1  UNL     1       1.608  20.776  34.220  1.00  0.00     0.159 HD
BRANCH  19  21
HETATM   21  C2  UNL     1       1.873  22.844  34.341  1.00  0.00     0.051 C 
HETATM   22  C1  UNL     1       3.251  23.234  34.769  1.00  0.00     0.054 C 
ENDBRANCH  19  21
ENDBRANCH  17  19
ENDBRANCH   1  13
BRANCH   4  23
HETATM   23  N4  UNL     1       3.939  26.973  28.487  1.00  0.00    -0.217 N 
HETATM   24  C9  UNL     1       4.647  27.469  27.322  1.00  0.00     0.143 C 
HETATM   25  C10 UNL     1       4.255  28.911  27.013  1.00  0.00     0.052 C 
HETATM   26  C11 UNL     1       4.503  29.707  28.280  1.00  0.00     0.121 C 
HETATM   27  C12 UNL     1       3.470  29.225  29.300  1.00  0.00     0.052 C 
HETATM   28  C13 UNL     1       3.786  27.795  29.677  1.00  0.00     0.143 C 
BRANCH  26  29
HETATM   29  O1  UNL     1       5.784  29.327  28.742  1.00  0.00    -0.395 OA
ATOM     30  H1  UNL     1       5.665  28.513  29.216  1.00  0.00     0.210 HD
ENDBRANCH  26  29
ENDBRANCH   4  23
BRANCH  12  31
HETATM   31  C17 UNL     1       1.511  23.608  25.026  1.00  0.00     0.110 C 
HETATM   32  C18 UNL     1       0.915  22.476  24.178  1.00  0.00     0.027 C 
HETATM   33  C19 UNL     1       1.881  22.817  23.040  1.00  0.00     0.004 C 
HETATM   34  C20 UNL     1       2.705  23.559  24.104  1.00  0.00     0.027 C 
ENDBRANCH  12  31
TORSDOF 6
ENDMDL
