MODEL 1
REMARK VINA RESULT: -7.127013943      0.000      0.000
REMARK  7 active torsions:
REMARK  status: ('A' for Active; 'I' for Inactive)
REMARK    1  A    between atoms: C4_4  and  C5_5 
REMARK    2  A    between atoms: C5_5  and  C6_6 
REMARK    3  A    between atoms: C8_8  and  O1_9 
REMARK    4  A    between atoms: O1_9  and  C9_10 
REMARK    5  A    between atoms: C16_18  and  C17_19 
REMARK    6  A    between atoms: C17_19  and  C18_20 
REMARK    7  A    between atoms: C21_25  and  O4_26 
ROOT
HETATM    1  C6  UNL     1      63.585  -3.030  23.451  1.00  0.00     0.026 C 
HETATM    2  C7  UNL     1      64.054  -3.444  24.869  1.00  0.00     0.040 C 
HETATM    3  C8  UNL     1      65.512  -3.689  24.723  1.00  0.00     0.133 C 
HETATM    4  C11 UNL     1      66.211  -2.470  24.269  1.00  0.00     0.045 C 
HETATM    5  C12 UNL     1      65.664  -1.690  23.134  1.00  0.00    -0.007 C 
HETATM    6  C13 UNL     1      65.985  -0.210  23.463  1.00  0.00     0.019 C 
HETATM    7  C14 UNL     1      66.370  -1.964  21.864  1.00  0.00    -0.003 C 
HETATM    8  C15 UNL     1      66.760  -3.359  21.554  1.00  0.00     0.011 C 
HETATM    9  C16 UNL     1      65.733  -1.345  20.625  1.00  0.00    -0.002 C 
HETATM   10  C19 UNL     1      64.340  -1.928  20.592  1.00  0.00     0.008 C 
HETATM   11  C20 UNL     1      63.625  -1.273  21.761  1.00  0.00     0.039 C 
HETATM   12  C21 UNL     1      64.137  -1.716  23.074  1.00  0.00     0.069 C 
ENDROOT
BRANCH   1  13
HETATM   13  C5  UNL     1      62.140  -3.199  23.301  1.00  0.00     0.040 C 
BRANCH  13  14
HETATM   14  C4  UNL     1      61.245  -3.422  24.439  1.00  0.00     0.137 C 
HETATM   15  C3  UNL     1      60.496  -4.756  24.120  1.00  0.00     0.076 C 
HETATM   16  C2  UNL     1      59.237  -4.648  24.883  1.00  0.00     0.010 C 
HETATM   17  C1  UNL     1      58.445  -5.608  25.263  1.00  0.00     0.025 C 
HETATM   18  C22 UNL     1      59.060  -3.235  25.128  1.00  0.00     0.289 C 
HETATM   19  O5  UNL     1      60.162  -2.564  24.618  1.00  0.00    -0.312 OA
HETATM   20  O6  UNL     1      58.078  -2.719  25.703  1.00  0.00    -0.260 OA
ENDBRANCH  13  14
ENDBRANCH   1  13
BRANCH  12  21
HETATM   21  O4  UNL     1      63.695  -0.805  24.034  1.00  0.00    -0.389 OA
ATOM     22  H4  UNL     1      62.771  -0.979  24.169  1.00  0.00     0.210 HD
ENDBRANCH  12  21
BRANCH   3  23
HETATM   23  O1  UNL     1      66.150  -4.154  25.887  1.00  0.00    -0.316 OA
BRANCH  23  24
HETATM   24  C9  UNL     1      65.781  -3.901  27.170  1.00  0.00     0.255 C 
HETATM   25  C10 UNL     1      66.213  -2.615  27.796  1.00  0.00     0.126 C 
HETATM   26  O2  UNL     1      65.094  -4.762  27.764  1.00  0.00    -0.266 OA
ENDBRANCH  23  24
ENDBRANCH   3  23
BRANCH   9  27
HETATM   27  C17 UNL     1      66.567  -1.693  19.445  1.00  0.00     0.104 C 
BRANCH  27  28
HETATM   28  C18 UNL     1      67.324  -0.511  18.963  1.00  0.00     0.231 C 
HETATM   29  N1  UNL     1      67.031   0.065  17.667  1.00  0.00    -0.062 NA
HETATM   30  O3  UNL     1      68.230   0.045  19.618  1.00  0.00    -0.277 OA
ENDBRANCH  27  28
ENDBRANCH   9  27
TORSDOF 7
ENDMDL
MODEL 2
REMARK VINA RESULT: -7.075550670      1.357      1.580
REMARK  7 active torsions:
REMARK  status: ('A' for Active; 'I' for Inactive)
REMARK    1  A    between atoms: C4_4  and  C5_5 
REMARK    2  A    between atoms: C5_5  and  C6_6 
REMARK    3  A    between atoms: C8_8  and  O1_9 
REMARK    4  A    between atoms: O1_9  and  C9_10 
REMARK    5  A    between atoms: C16_18  and  C17_19 
REMARK    6  A    between atoms: C17_19  and  C18_20 
REMARK    7  A    between atoms: C21_25  and  O4_26 
ROOT
HETATM    1  C6  UNL     1      63.196  -3.375  24.094  1.00  0.00     0.026 C 
HETATM    2  C7  UNL     1      63.458  -4.127  25.423  1.00  0.00     0.040 C 
HETATM    3  C8  UNL     1      64.879  -4.555  25.334  1.00  0.00     0.133 C 
HETATM    4  C11 UNL     1      65.775  -3.388  25.201  1.00  0.00     0.045 C 
HETATM    5  C12 UNL     1      65.454  -2.325  24.220  1.00  0.00    -0.007 C 
HETATM    6  C13 UNL     1      65.932  -1.005  24.876  1.00  0.00     0.019 C 
HETATM    7  C14 UNL     1      66.245  -2.445  22.976  1.00  0.00    -0.003 C 
HETATM    8  C15 UNL     1      66.477  -3.792  22.406  1.00  0.00     0.011 C 
HETATM    9  C16 UNL     1      65.825  -1.503  21.853  1.00  0.00    -0.002 C 
HETATM   10  C19 UNL     1      64.377  -1.851  21.595  1.00  0.00     0.008 C 
HETATM   11  C20 UNL     1      63.640  -1.343  22.821  1.00  0.00     0.039 C 
HETATM   12  C21 UNL     1      63.952  -2.110  24.044  1.00  0.00     0.069 C 
ENDROOT
BRANCH   1  13
HETATM   13  C5  UNL     1      61.765  -3.291  23.806  1.00  0.00     0.040 C 
BRANCH  13  14
HETATM   14  C4  UNL     1      60.736  -3.526  24.823  1.00  0.00     0.137 C 
HETATM   15  C3  UNL     1      60.018  -4.844  24.390  1.00  0.00     0.076 C 
HETATM   16  C2  UNL     1      58.677  -4.735  24.998  1.00  0.00     0.010 C 
HETATM   17  C1  UNL     1      57.836  -5.693  25.260  1.00  0.00     0.025 C 
HETATM   18  C22 UNL     1      58.486  -3.325  25.248  1.00  0.00     0.289 C 
HETATM   19  O5  UNL     1      59.648  -2.657  24.888  1.00  0.00    -0.312 OA
HETATM   20  O6  UNL     1      57.446  -2.808  25.710  1.00  0.00    -0.260 OA
ENDBRANCH  13  14
ENDBRANCH   1  13
BRANCH  12  21
HETATM   21  O4  UNL     1      63.537  -1.352  25.141  1.00  0.00    -0.389 OA
ATOM     22  H4  UNL     1      64.320  -1.131  25.631  1.00  0.00     0.210 HD
ENDBRANCH  12  21
BRANCH   3  23
HETATM   23  O1  UNL     1      65.328  -5.332  26.418  1.00  0.00    -0.316 OA
BRANCH  23  24
HETATM   24  C9  UNL     1      64.576  -6.160  27.189  1.00  0.00     0.255 C 
HETATM   25  C10 UNL     1      64.272  -7.530  26.678  1.00  0.00     0.126 C 
HETATM   26  O2  UNL     1      64.174  -5.730  28.294  1.00  0.00    -0.266 OA
ENDBRANCH  23  24
ENDBRANCH   3  23
BRANCH   9  27
HETATM   27  C17 UNL     1      66.722  -1.730  20.689  1.00  0.00     0.104 C 
BRANCH  27  28
HETATM   28  C18 UNL     1      67.678  -0.607  20.530  1.00  0.00     0.231 C 
HETATM   29  N1  UNL     1      67.999  -0.103  19.210  1.00  0.00    -0.062 NA
HETATM   30  O3  UNL     1      68.250  -0.043  21.486  1.00  0.00    -0.277 OA
ENDBRANCH  27  28
ENDBRANCH   9  27
TORSDOF 7
ENDMDL
MODEL 3
REMARK VINA RESULT: -6.895801921      7.475     11.191
REMARK  7 active torsions:
REMARK  status: ('A' for Active; 'I' for Inactive)
REMARK    1  A    between atoms: C4_4  and  C5_5 
REMARK    2  A    between atoms: C5_5  and  C6_6 
REMARK    3  A    between atoms: C8_8  and  O1_9 
REMARK    4  A    between atoms: O1_9  and  C9_10 
REMARK    5  A    between atoms: C16_18  and  C17_19 
REMARK    6  A    between atoms: C17_19  and  C18_20 
REMARK    7  A    between atoms: C21_25  and  O4_26 
ROOT
HETATM    1  C6  UNL     1      59.470  -9.033  26.504  1.00  0.00     0.026 C 
HETATM    2  C7  UNL     1      60.990  -9.064  26.803  1.00  0.00     0.040 C 
HETATM    3  C8  UNL     1      61.092  -9.676  28.153  1.00  0.00     0.133 C 
HETATM    4  C11 UNL     1      60.525 -11.040  28.158  1.00  0.00     0.045 C 
HETATM    5  C12 UNL     1      59.203 -11.287  27.536  1.00  0.00    -0.007 C 
HETATM    6  C13 UNL     1      59.297 -12.708  26.926  1.00  0.00     0.019 C 
HETATM    7  C14 UNL     1      58.113 -11.368  28.533  1.00  0.00    -0.003 C 
HETATM    8  C15 UNL     1      58.118 -10.420  29.672  1.00  0.00     0.011 C 
HETATM    9  C16 UNL     1      56.707 -11.424  27.947  1.00  0.00    -0.002 C 
HETATM   10  C19 UNL     1      56.589 -10.155  27.137  1.00  0.00     0.008 C 
HETATM   11  C20 UNL     1      57.510 -10.374  25.950  1.00  0.00     0.039 C 
HETATM   12  C21 UNL     1      58.939 -10.397  26.323  1.00  0.00     0.069 C 
ENDROOT
BRANCH   1  13
HETATM   13  C5  UNL     1      59.156  -8.066  25.453  1.00  0.00     0.040 C 
BRANCH  13  14
HETATM   14  C4  UNL     1      58.703  -6.703  25.739  1.00  0.00     0.137 C 
HETATM   15  C3  UNL     1      57.536  -6.434  24.735  1.00  0.00     0.076 C 
HETATM   16  C2  UNL     1      57.518  -4.965  24.595  1.00  0.00     0.010 C 
HETATM   17  C1  UNL     1      56.538  -4.211  24.188  1.00  0.00     0.025 C 
HETATM   18  C22 UNL     1      58.831  -4.527  25.009  1.00  0.00     0.289 C 
HETATM   19  O5  UNL     1      59.547  -5.637  25.432  1.00  0.00    -0.312 OA
HETATM   20  O6  UNL     1      59.239  -3.346  24.984  1.00  0.00    -0.260 OA
ENDBRANCH  13  14
ENDBRANCH   1  13
BRANCH  12  21
HETATM   21  O4  UNL     1      59.648 -10.965  25.263  1.00  0.00    -0.389 OA
ATOM     22  H4  UNL     1      59.007 -11.376  24.696  1.00  0.00     0.210 HD
ENDBRANCH  12  21
BRANCH   3  23
HETATM   23  O1  UNL     1      62.398  -9.742  28.672  1.00  0.00    -0.316 OA
BRANCH  23  24
HETATM   24  C9  UNL     1      63.525  -9.248  28.097  1.00  0.00     0.255 C 
HETATM   25  C10 UNL     1      64.339 -10.151  27.229  1.00  0.00     0.126 C 
HETATM   26  O2  UNL     1      63.826  -8.054  28.324  1.00  0.00    -0.266 OA
ENDBRANCH  23  24
ENDBRANCH   3  23
BRANCH   9  27
HETATM   27  C17 UNL     1      55.734 -11.524  29.068  1.00  0.00     0.104 C 
BRANCH  27  28
HETATM   28  C18 UNL     1      54.346 -11.634  28.557  1.00  0.00     0.231 C 
HETATM   29  N1  UNL     1      53.992 -12.686  27.626  1.00  0.00    -0.062 NA
HETATM   30  O3  UNL     1      53.424 -10.857  28.883  1.00  0.00    -0.277 OA
ENDBRANCH  27  28
ENDBRANCH   9  27
TORSDOF 7
ENDMDL
MODEL 4
REMARK VINA RESULT: -6.848343203      1.208      1.284
REMARK  7 active torsions:
REMARK  status: ('A' for Active; 'I' for Inactive)
REMARK    1  A    between atoms: C4_4  and  C5_5 
REMARK    2  A    between atoms: C5_5  and  C6_6 
REMARK    3  A    between atoms: C8_8  and  O1_9 
REMARK    4  A    between atoms: O1_9  and  C9_10 
REMARK    5  A    between atoms: C16_18  and  C17_19 
REMARK    6  A    between atoms: C17_19  and  C18_20 
REMARK    7  A    between atoms: C21_25  and  O4_26 
ROOT
HETATM    1  C6  UNL     1      63.413  -2.593  23.626  1.00  0.00     0.026 C 
HETATM    2  C7  UNL     1      63.706  -2.447  25.140  1.00  0.00     0.040 C 
HETATM    3  C8  UNL     1      65.184  -2.566  25.246  1.00  0.00     0.133 C 
HETATM    4  C11 UNL     1      65.857  -1.504  24.472  1.00  0.00     0.045 C 
HETATM    5  C12 UNL     1      65.422  -1.221  23.084  1.00  0.00    -0.007 C 
HETATM    6  C13 UNL     1      65.597   0.309  22.904  1.00  0.00     0.019 C 
HETATM    7  C14 UNL     1      66.315  -1.831  22.074  1.00  0.00    -0.003 C 
HETATM    8  C15 UNL     1      66.834  -3.196  22.316  1.00  0.00     0.011 C 
HETATM    9  C16 UNL     1      65.816  -1.743  20.636  1.00  0.00    -0.002 C 
HETATM   10  C19 UNL     1      64.482  -2.451  20.660  1.00  0.00     0.008 C 
HETATM   11  C20 UNL     1      63.571  -1.521  21.441  1.00  0.00     0.039 C 
HETATM   12  C21 UNL     1      63.924  -1.433  22.873  1.00  0.00     0.069 C 
ENDROOT
BRANCH   1  13
HETATM   13  C5  UNL     1      62.017  -2.960  23.390  1.00  0.00     0.040 C 
BRANCH  13  14
HETATM   14  C4  UNL     1      61.104  -3.344  24.470  1.00  0.00     0.137 C 
HETATM   15  C3  UNL     1      60.424  -4.666  23.988  1.00  0.00     0.076 C 
HETATM   16  C2  UNL     1      59.143  -4.694  24.720  1.00  0.00     0.010 C 
HETATM   17  C1  UNL     1      58.386  -5.723  24.971  1.00  0.00     0.025 C 
HETATM   18  C22 UNL     1      58.896  -3.325  25.110  1.00  0.00     0.289 C 
HETATM   19  O5  UNL     1      59.979  -2.557  24.708  1.00  0.00    -0.312 OA
HETATM   20  O6  UNL     1      57.878  -2.917  25.707  1.00  0.00    -0.260 OA
ENDBRANCH  13  14
ENDBRANCH   1  13
BRANCH  12  21
HETATM   21  O4  UNL     1      63.294  -0.305  23.400  1.00  0.00    -0.389 OA
ATOM     22  H4  UNL     1      63.922   0.115  23.975  1.00  0.00     0.210 HD
ENDBRANCH  12  21
BRANCH   3  23
HETATM   23  O1  UNL     1      65.683  -2.534  26.561  1.00  0.00    -0.316 OA
BRANCH  23  24
HETATM   24  C9  UNL     1      66.148  -3.591  27.278  1.00  0.00     0.255 C 
HETATM   25  C10 UNL     1      66.096  -4.950  26.659  1.00  0.00     0.126 C 
HETATM   26  O2  UNL     1      66.597  -3.371  28.425  1.00  0.00    -0.266 OA
ENDBRANCH  23  24
ENDBRANCH   3  23
BRANCH   9  27
HETATM   27  C17 UNL     1      66.827  -2.376  19.749  1.00  0.00     0.104 C 
BRANCH  27  28
HETATM   28  C18 UNL     1      66.443  -2.237  18.323  1.00  0.00     0.231 C 
HETATM   29  N1  UNL     1      66.163  -0.929  17.767  1.00  0.00    -0.062 NA
HETATM   30  O3  UNL     1      66.338  -3.201  17.536  1.00  0.00    -0.277 OA
ENDBRANCH  27  28
ENDBRANCH   9  27
TORSDOF 7
ENDMDL
MODEL 5
REMARK VINA RESULT: -6.703758783      3.185      5.947
REMARK  7 active torsions:
REMARK  status: ('A' for Active; 'I' for Inactive)
REMARK    1  A    between atoms: C4_4  and  C5_5 
REMARK    2  A    between atoms: C5_5  and  C6_6 
REMARK    3  A    between atoms: C8_8  and  O1_9 
REMARK    4  A    between atoms: O1_9  and  C9_10 
REMARK    5  A    between atoms: C16_18  and  C17_19 
REMARK    6  A    between atoms: C17_19  and  C18_20 
REMARK    7  A    between atoms: C21_25  and  O4_26 
ROOT
HETATM    1  C6  UNL     1      63.096  -3.959  25.330  1.00  0.00     0.026 C 
HETATM    2  C7  UNL     1      62.939  -3.564  23.840  1.00  0.00     0.040 C 
HETATM    3  C8  UNL     1      63.967  -2.512  23.623  1.00  0.00     0.133 C 
HETATM    4  C11 UNL     1      65.322  -3.035  23.892  1.00  0.00     0.045 C 
HETATM    5  C12 UNL     1      65.577  -3.813  25.126  1.00  0.00    -0.007 C 
HETATM    6  C13 UNL     1      66.634  -4.875  24.730  1.00  0.00     0.019 C 
HETATM    7  C14 UNL     1      66.222  -3.004  26.184  1.00  0.00    -0.003 C 
HETATM    8  C15 UNL     1      65.769  -1.609  26.388  1.00  0.00     0.011 C 
HETATM    9  C16 UNL     1      66.332  -3.689  27.541  1.00  0.00    -0.002 C 
HETATM   10  C19 UNL     1      64.904  -4.007  27.917  1.00  0.00     0.008 C 
HETATM   11  C20 UNL     1      64.496  -5.113  26.959  1.00  0.00     0.039 C 
HETATM   12  C21 UNL     1      64.377  -4.653  25.560  1.00  0.00     0.069 C 
ENDROOT
BRANCH   1  13
HETATM   13  C5  UNL     1      61.894  -4.625  25.831  1.00  0.00     0.040 C 
BRANCH  13  14
HETATM   14  C4  UNL     1      60.612  -4.583  25.123  1.00  0.00     0.137 C 
HETATM   15  C3  UNL     1      59.976  -3.206  25.498  1.00  0.00     0.076 C 
HETATM   16  C2  UNL     1      58.526  -3.424  25.327  1.00  0.00     0.010 C 
HETATM   17  C1  UNL     1      57.597  -2.531  25.147  1.00  0.00     0.025 C 
HETATM   18  C22 UNL     1      58.346  -4.856  25.400  1.00  0.00     0.289 C 
HETATM   19  O5  UNL     1      59.595  -5.446  25.529  1.00  0.00    -0.312 OA
HETATM   20  O6  UNL     1      57.247  -5.449  25.354  1.00  0.00    -0.260 OA
ENDBRANCH  13  14
ENDBRANCH   1  13
BRANCH  12  21
HETATM   21  O4  UNL     1      64.375  -5.781  24.739  1.00  0.00    -0.389 OA
ATOM     22  H4  UNL     1      64.898  -6.440  25.179  1.00  0.00     0.210 HD
ENDBRANCH  12  21
BRANCH   3  23
HETATM   23  O1  UNL     1      63.963  -1.942  22.337  1.00  0.00    -0.316 OA
BRANCH  23  24
HETATM   24  C9  UNL     1      64.565  -0.783  21.963  1.00  0.00     0.255 C 
HETATM   25  C10 UNL     1      65.830  -0.860  21.171  1.00  0.00     0.126 C 
HETATM   26  O2  UNL     1      64.027   0.295  22.301  1.00  0.00    -0.266 OA
ENDBRANCH  23  24
ENDBRANCH   3  23
BRANCH   9  27
HETATM   27  C17 UNL     1      67.016  -2.761  28.481  1.00  0.00     0.104 C 
BRANCH  27  28
HETATM   28  C18 UNL     1      67.077  -3.339  29.846  1.00  0.00     0.231 C 
HETATM   29  N1  UNL     1      66.642  -2.561  30.988  1.00  0.00    -0.062 NA
HETATM   30  O3  UNL     1      67.493  -4.491  30.093  1.00  0.00    -0.277 OA
ENDBRANCH  27  28
ENDBRANCH   9  27
TORSDOF 7
ENDMDL
