MODEL 1
REMARK VINA RESULT: -6.662462773      0.000      0.000
REMARK  8 active torsions:
REMARK  status: ('A' for Active; 'I' for Inactive)
REMARK    1  A    between atoms: C2_2  and  C3_3 
REMARK    2  A    between atoms: C5_5  and  C6_6 
REMARK       I    between atoms: C6_6  and  N1_8 
REMARK    3  A    between atoms: N1_8  and  C7_10 
REMARK    4  A    between atoms: C7_10  and  C8_11 
REMARK    5  A    between atoms: C7_10  and  C12_21 
REMARK    6  A    between atoms: C11_18  and  O3_19 
REMARK       I    between atoms: N3_25  and  C16_26 
REMARK    7  A    between atoms: C16_26  and  O5_28 
REMARK    8  A    between atoms: O5_28  and  C17_29 
ROOT
HETATM    1  C6  UNL     1      61.021  -3.765  24.890  1.00  0.00     0.241 C 
HETATM    2  O1  UNL     1      60.834  -3.236  26.029  1.00  0.00    -0.271 OA
HETATM    3  N1  UNL     1      62.295  -3.767  24.268  1.00  0.00    -0.351 N 
ATOM      4  H1  UNL     1      62.383  -4.209  23.353  1.00  0.00     0.163 HD
ENDROOT
BRANCH   3   5
HETATM    5  C7  UNL     1      63.477  -3.177  24.859  1.00  0.00     0.125 C 
BRANCH   5   6
HETATM    6  C8  UNL     1      64.113  -2.278  23.881  1.00  0.00     0.201 C 
HETATM    7  O2  UNL     1      63.318  -2.182  22.721  1.00  0.00    -0.378 OA
HETATM    8  C9  UNL     1      64.162  -1.969  21.638  1.00  0.00     0.196 C 
HETATM    9  C10 UNL     1      65.257  -0.998  22.007  1.00  0.00     0.261 C 
HETATM   10  N2  UNL     1      64.915  -0.163  23.123  1.00  0.00    -0.044 N 
HETATM   11  C11 UNL     1      64.516  -0.931  24.305  1.00  0.00     0.350 C 
ATOM     12  H22 UNL     1      65.674   0.481  23.344  1.00  0.00     0.280 HD
ATOM     13  H21 UNL     1      64.195   0.512  22.866  1.00  0.00     0.280 HD
BRANCH  11  14
HETATM   14  O3  UNL     1      65.643  -0.920  25.137  1.00  0.00    -0.368 OA
ATOM     15  H3  UNL     1      66.152  -0.120  25.077  1.00  0.00     0.212 HD
ENDBRANCH  11  14
ENDBRANCH   5   6
BRANCH   5  16
HETATM   16  C12 UNL     1      64.288  -4.210  25.521  1.00  0.00    -0.028 C 
HETATM   17  C13 UNL     1      65.117  -3.710  26.691  1.00  0.00     0.016 C 
HETATM   18  C14 UNL     1      63.520  -5.410  26.019  1.00  0.00     0.016 C 
HETATM   19  C15 UNL     1      65.279  -4.766  24.512  1.00  0.00     0.016 C 
ENDBRANCH   5  16
ENDBRANCH   3   5
BRANCH   1  20
HETATM   20  C5  UNL     1      59.854  -4.389  24.219  1.00  0.00     0.182 C 
HETATM   21  C4  UNL     1      59.964  -5.899  24.475  1.00  0.00     0.041 C 
HETATM   22  C3  UNL     1      58.997  -6.117  25.633  1.00  0.00     0.006 C 
HETATM   23  C20 UNL     1      57.912  -5.166  25.269  1.00  0.00     0.134 C 
HETATM   24  N3  UNL     1      58.600  -4.006  24.757  1.00  0.00    -0.314 N 
HETATM   25  C16 UNL     1      58.098  -2.675  24.773  1.00  0.00     0.363 C 
HETATM   26  O4  UNL     1      58.774  -1.752  24.283  1.00  0.00    -0.238 OA
BRANCH  22  27
HETATM   27  C2  UNL     1      58.554  -7.537  25.770  1.00  0.00     0.002 C 
HETATM   28  C1  UNL     1      59.674  -8.515  25.910  1.00  0.00     0.005 C 
ENDBRANCH  22  27
BRANCH  25  29
HETATM   29  O5  UNL     1      56.864  -2.414  25.331  1.00  0.00    -0.299 OA
BRANCH  29  30
HETATM   30  C17 UNL     1      55.689  -2.205  24.559  1.00  0.00     0.125 C 
HETATM   31  C18 UNL     1      55.400  -3.449  23.746  1.00  0.00     0.040 C 
HETATM   32  C19 UNL     1      55.958  -1.013  23.663  1.00  0.00     0.040 C 
ENDBRANCH  29  30
ENDBRANCH  25  29
ENDBRANCH   1  20
TORSDOF 8
ENDMDL
MODEL 2
REMARK VINA RESULT: -6.631246033      0.712      1.458
REMARK  8 active torsions:
REMARK  status: ('A' for Active; 'I' for Inactive)
REMARK    1  A    between atoms: C2_2  and  C3_3 
REMARK    2  A    between atoms: C5_5  and  C6_6 
REMARK       I    between atoms: C6_6  and  N1_8 
REMARK    3  A    between atoms: N1_8  and  C7_10 
REMARK    4  A    between atoms: C7_10  and  C8_11 
REMARK    5  A    between atoms: C7_10  and  C12_21 
REMARK    6  A    between atoms: C11_18  and  O3_19 
REMARK       I    between atoms: N3_25  and  C16_26 
REMARK    7  A    between atoms: C16_26  and  O5_28 
REMARK    8  A    between atoms: O5_28  and  C17_29 
ROOT
HETATM    1  C6  UNL     1      60.910  -3.582  24.877  1.00  0.00     0.241 C 
HETATM    2  O1  UNL     1      60.702  -3.087  26.028  1.00  0.00    -0.271 OA
HETATM    3  N1  UNL     1      62.185  -3.527  24.261  1.00  0.00    -0.351 N 
ATOM      4  H1  UNL     1      62.291  -3.943  23.335  1.00  0.00     0.163 HD
ENDROOT
BRANCH   3   5
HETATM    5  C7  UNL     1      63.345  -2.915  24.872  1.00  0.00     0.125 C 
BRANCH   5   6
HETATM    6  C8  UNL     1      63.923  -1.930  23.942  1.00  0.00     0.201 C 
HETATM    7  O2  UNL     1      65.328  -2.040  23.928  1.00  0.00    -0.378 OA
HETATM    8  C9  UNL     1      65.856  -0.782  23.667  1.00  0.00     0.196 C 
HETATM    9  C10 UNL     1      65.043  -0.080  22.607  1.00  0.00     0.261 C 
HETATM   10  N2  UNL     1      64.293  -0.984  21.783  1.00  0.00    -0.044 N 
HETATM   11  C11 UNL     1      63.427  -1.874  22.561  1.00  0.00     0.350 C 
ATOM     12  H22 UNL     1      63.758  -0.478  21.078  1.00  0.00     0.280 HD
ATOM     13  H21 UNL     1      64.910  -1.518  21.171  1.00  0.00     0.280 HD
BRANCH  11  14
HETATM   14  O3  UNL     1      62.147  -1.319  22.448  1.00  0.00    -0.368 OA
ATOM     15  H3  UNL     1      61.740  -1.471  21.603  1.00  0.00     0.212 HD
ENDBRANCH  11  14
ENDBRANCH   5   6
BRANCH   5  16
HETATM   16  C12 UNL     1      64.216  -3.943  25.462  1.00  0.00    -0.028 C 
HETATM   17  C13 UNL     1      63.485  -5.006  26.264  1.00  0.00     0.016 C 
HETATM   18  C14 UNL     1      65.101  -4.675  24.484  1.00  0.00     0.016 C 
HETATM   19  C15 UNL     1      65.172  -3.269  26.432  1.00  0.00     0.016 C 
ENDBRANCH   5  16
ENDBRANCH   3   5
BRANCH   1  20
HETATM   20  C5  UNL     1      59.766  -4.226  24.185  1.00  0.00     0.182 C 
HETATM   21  C4  UNL     1      59.898  -5.733  24.441  1.00  0.00     0.041 C 
HETATM   22  C3  UNL     1      58.915  -5.970  25.582  1.00  0.00     0.006 C 
HETATM   23  C20 UNL     1      57.820  -5.039  25.200  1.00  0.00     0.134 C 
HETATM   24  N3  UNL     1      58.496  -3.866  24.701  1.00  0.00    -0.314 N 
HETATM   25  C16 UNL     1      57.970  -2.544  24.710  1.00  0.00     0.363 C 
HETATM   26  O4  UNL     1      58.638  -1.608  24.233  1.00  0.00    -0.238 OA
BRANCH  22  27
HETATM   27  C2  UNL     1      58.496  -7.398  25.710  1.00  0.00     0.002 C 
HETATM   28  C1  UNL     1      59.630  -8.356  25.873  1.00  0.00     0.005 C 
ENDBRANCH  22  27
BRANCH  25  29
HETATM   29  O5  UNL     1      56.722  -2.305  25.248  1.00  0.00    -0.299 OA
BRANCH  29  30
HETATM   30  C17 UNL     1      55.552  -2.146  24.456  1.00  0.00     0.125 C 
HETATM   31  C18 UNL     1      55.290  -3.425  23.690  1.00  0.00     0.040 C 
HETATM   32  C19 UNL     1      55.812  -0.986  23.516  1.00  0.00     0.040 C 
ENDBRANCH  29  30
ENDBRANCH  25  29
ENDBRANCH   1  20
TORSDOF 8
ENDMDL
MODEL 3
REMARK VINA RESULT: -6.519984064      2.629      5.389
REMARK  8 active torsions:
REMARK  status: ('A' for Active; 'I' for Inactive)
REMARK    1  A    between atoms: C2_2  and  C3_3 
REMARK    2  A    between atoms: C5_5  and  C6_6 
REMARK       I    between atoms: C6_6  and  N1_8 
REMARK    3  A    between atoms: N1_8  and  C7_10 
REMARK    4  A    between atoms: C7_10  and  C8_11 
REMARK    5  A    between atoms: C7_10  and  C12_21 
REMARK    6  A    between atoms: C11_18  and  O3_19 
REMARK       I    between atoms: N3_25  and  C16_26 
REMARK    7  A    between atoms: C16_26  and  O5_28 
REMARK    8  A    between atoms: O5_28  and  C17_29 
ROOT
HETATM    1  C6  UNL     1      62.809  -3.164  23.850  1.00  0.00     0.241 C 
HETATM    2  O1  UNL     1      62.369  -3.647  22.761  1.00  0.00    -0.271 OA
HETATM    3  N1  UNL     1      64.099  -2.584  23.941  1.00  0.00    -0.351 N 
ATOM      4  H1  UNL     1      64.397  -2.211  24.843  1.00  0.00     0.163 HD
ENDROOT
BRANCH   3   5
HETATM    5  C7  UNL     1      65.017  -2.491  22.826  1.00  0.00     0.125 C 
BRANCH   5   6
HETATM    6  C8  UNL     1      66.384  -2.780  23.295  1.00  0.00     0.201 C 
HETATM    7  O2  UNL     1      66.456  -2.640  24.696  1.00  0.00    -0.378 OA
HETATM    8  C9  UNL     1      67.740  -2.223  25.022  1.00  0.00     0.196 C 
HETATM    9  C10 UNL     1      68.760  -2.954  24.181  1.00  0.00     0.261 C 
HETATM   10  N2  UNL     1      68.269  -4.196  23.657  1.00  0.00    -0.044 N 
HETATM   11  C11 UNL     1      67.024  -4.040  22.899  1.00  0.00     0.350 C 
ATOM     12  H22 UNL     1      68.982  -4.662  23.096  1.00  0.00     0.280 HD
ATOM     13  H21 UNL     1      68.161  -4.888  24.398  1.00  0.00     0.280 HD
BRANCH  11  14
HETATM   14  O3  UNL     1      67.415  -4.071  21.555  1.00  0.00    -0.368 OA
ATOM     15  H3  UNL     1      67.872  -4.868  21.311  1.00  0.00     0.212 HD
ENDBRANCH  11  14
ENDBRANCH   5   6
BRANCH   5  16
HETATM   16  C12 UNL     1      64.765  -1.263  22.057  1.00  0.00    -0.028 C 
HETATM   17  C13 UNL     1      64.321  -1.496  20.623  1.00  0.00     0.016 C 
HETATM   18  C14 UNL     1      63.764  -0.314  22.669  1.00  0.00     0.016 C 
HETATM   19  C15 UNL     1      66.060  -0.471  21.972  1.00  0.00     0.016 C 
ENDBRANCH   5  16
ENDBRANCH   3   5
BRANCH   1  20
HETATM   20  C5  UNL     1      61.925  -3.225  25.039  1.00  0.00     0.182 C 
HETATM   21  C4  UNL     1      60.485  -3.160  24.512  1.00  0.00     0.041 C 
HETATM   22  C3  UNL     1      60.053  -4.622  24.527  1.00  0.00     0.006 C 
HETATM   23  C20 UNL     1      60.720  -5.094  25.768  1.00  0.00     0.134 C 
HETATM   24  N3  UNL     1      62.007  -4.440  25.764  1.00  0.00    -0.314 N 
HETATM   25  C16 UNL     1      63.183  -4.928  26.398  1.00  0.00     0.363 C 
HETATM   26  O4  UNL     1      64.236  -4.266  26.343  1.00  0.00    -0.238 OA
BRANCH  22  27
HETATM   27  C2  UNL     1      58.569  -4.797  24.517  1.00  0.00     0.002 C 
HETATM   28  C1  UNL     1      58.078  -5.890  25.408  1.00  0.00     0.005 C 
ENDBRANCH  22  27
BRANCH  25  29
HETATM   29  O5  UNL     1      63.151  -6.132  27.070  1.00  0.00    -0.299 OA
BRANCH  29  30
HETATM   30  C17 UNL     1      64.003  -7.225  26.749  1.00  0.00     0.125 C 
HETATM   31  C18 UNL     1      63.165  -8.474  26.577  1.00  0.00     0.040 C 
HETATM   32  C19 UNL     1      64.980  -7.372  27.897  1.00  0.00     0.040 C 
ENDBRANCH  29  30
ENDBRANCH  25  29
ENDBRANCH   1  20
TORSDOF 8
ENDMDL
MODEL 4
REMARK VINA RESULT: -6.424923866      1.726      7.034
REMARK  8 active torsions:
REMARK  status: ('A' for Active; 'I' for Inactive)
REMARK    1  A    between atoms: C2_2  and  C3_3 
REMARK    2  A    between atoms: C5_5  and  C6_6 
REMARK       I    between atoms: C6_6  and  N1_8 
REMARK    3  A    between atoms: N1_8  and  C7_10 
REMARK    4  A    between atoms: C7_10  and  C8_11 
REMARK    5  A    between atoms: C7_10  and  C12_21 
REMARK    6  A    between atoms: C11_18  and  O3_19 
REMARK       I    between atoms: N3_25  and  C16_26 
REMARK    7  A    between atoms: C16_26  and  O5_28 
REMARK    8  A    between atoms: O5_28  and  C17_29 
ROOT
HETATM    1  C6  UNL     1      61.568  -3.433  24.158  1.00  0.00     0.241 C 
HETATM    2  O1  UNL     1      61.517  -3.764  22.933  1.00  0.00    -0.271 OA
HETATM    3  N1  UNL     1      60.478  -3.659  25.037  1.00  0.00    -0.351 N 
ATOM      4  H1  UNL     1      60.578  -3.373  26.011  1.00  0.00     0.163 HD
ENDROOT
BRANCH   3   5
HETATM    5  C7  UNL     1      59.233  -4.273  24.629  1.00  0.00     0.125 C 
BRANCH   5   6
HETATM    6  C8  UNL     1      58.107  -3.438  25.080  1.00  0.00     0.201 C 
HETATM    7  O2  UNL     1      58.576  -2.178  25.503  1.00  0.00    -0.378 OA
HETATM    8  C9  UNL     1      57.732  -1.719  26.507  1.00  0.00     0.196 C 
HETATM    9  C10 UNL     1      56.294  -2.025  26.165  1.00  0.00     0.261 C 
HETATM   10  N2  UNL     1      56.080  -2.222  24.760  1.00  0.00    -0.044 N 
HETATM   11  C11 UNL     1      56.953  -3.252  24.192  1.00  0.00     0.350 C 
ATOM     12  H22 UNL     1      55.100  -2.425  24.565  1.00  0.00     0.280 HD
ATOM     13  H21 UNL     1      56.171  -1.344  24.250  1.00  0.00     0.280 HD
BRANCH  11  14
HETATM   14  O3  UNL     1      56.143  -4.389  24.082  1.00  0.00    -0.368 OA
ATOM     15  H3  UNL     1      55.248  -4.195  23.827  1.00  0.00     0.212 HD
ENDBRANCH  11  14
ENDBRANCH   5   6
BRANCH   5  16
HETATM   16  C12 UNL     1      59.239  -5.708  24.953  1.00  0.00    -0.028 C 
HETATM   17  C13 UNL     1      60.453  -6.173  25.740  1.00  0.00     0.016 C 
HETATM   18  C14 UNL     1      58.026  -6.204  25.701  1.00  0.00     0.016 C 
HETATM   19  C15 UNL     1      59.253  -6.498  23.655  1.00  0.00     0.016 C 
ENDBRANCH   5  16
ENDBRANCH   3   5
BRANCH   1  20
HETATM   20  C5  UNL     1      62.813  -2.795  24.651  1.00  0.00     0.182 C 
HETATM   21  C4  UNL     1      63.342  -3.692  25.778  1.00  0.00     0.041 C 
HETATM   22  C3  UNL     1      64.427  -4.505  25.082  1.00  0.00     0.006 C 
HETATM   23  C20 UNL     1      64.998  -3.480  24.169  1.00  0.00     0.134 C 
HETATM   24  N3  UNL     1      63.856  -2.738  23.693  1.00  0.00    -0.314 N 
HETATM   25  C16 UNL     1      63.782  -2.039  22.456  1.00  0.00     0.363 C 
HETATM   26  O4  UNL     1      62.748  -1.414  22.158  1.00  0.00    -0.238 OA
BRANCH  22  27
HETATM   27  C2  UNL     1      65.412  -5.107  26.030  1.00  0.00     0.002 C 
HETATM   28  C1  UNL     1      64.930  -5.188  27.442  1.00  0.00     0.005 C 
ENDBRANCH  22  27
BRANCH  25  29
HETATM   29  O5  UNL     1      64.858  -2.058  21.593  1.00  0.00    -0.299 OA
BRANCH  29  30
HETATM   30  C17 UNL     1      65.577  -0.890  21.220  1.00  0.00     0.125 C 
HETATM   31  C18 UNL     1      66.520  -1.226  20.085  1.00  0.00     0.040 C 
HETATM   32  C19 UNL     1      66.337  -0.431  22.448  1.00  0.00     0.040 C 
ENDBRANCH  29  30
ENDBRANCH  25  29
ENDBRANCH   1  20
TORSDOF 8
ENDMDL
MODEL 5
REMARK VINA RESULT: -6.323161721      2.896      5.879
REMARK  8 active torsions:
REMARK  status: ('A' for Active; 'I' for Inactive)
REMARK    1  A    between atoms: C2_2  and  C3_3 
REMARK    2  A    between atoms: C5_5  and  C6_6 
REMARK       I    between atoms: C6_6  and  N1_8 
REMARK    3  A    between atoms: N1_8  and  C7_10 
REMARK    4  A    between atoms: C7_10  and  C8_11 
REMARK    5  A    between atoms: C7_10  and  C12_21 
REMARK    6  A    between atoms: C11_18  and  O3_19 
REMARK       I    between atoms: N3_25  and  C16_26 
REMARK    7  A    between atoms: C16_26  and  O5_28 
REMARK    8  A    between atoms: O5_28  and  C17_29 
ROOT
HETATM    1  C6  UNL     1      64.354  -3.861  25.426  1.00  0.00     0.241 C 
HETATM    2  O1  UNL     1      64.913  -4.413  24.428  1.00  0.00    -0.271 OA
HETATM    3  N1  UNL     1      64.762  -4.136  26.755  1.00  0.00    -0.351 N 
ATOM      4  H1  UNL     1      64.276  -3.661  27.516  1.00  0.00     0.163 HD
ENDROOT
BRANCH   3   5
HETATM    5  C7  UNL     1      65.830  -5.053  27.093  1.00  0.00     0.125 C 
BRANCH   5   6
HETATM    6  C8  UNL     1      65.271  -6.204  27.822  1.00  0.00     0.201 C 
HETATM    7  O2  UNL     1      64.494  -5.759  28.911  1.00  0.00    -0.378 OA
HETATM    8  C9  UNL     1      64.575  -6.715  29.916  1.00  0.00     0.196 C 
HETATM    9  C10 UNL     1      64.508  -8.104  29.329  1.00  0.00     0.261 C 
HETATM   10  N2  UNL     1      63.889  -8.137  28.035  1.00  0.00    -0.044 N 
HETATM   11  C11 UNL     1      64.524  -7.227  27.079  1.00  0.00     0.350 C 
ATOM     12  H22 UNL     1      63.859  -9.088  27.669  1.00  0.00     0.280 HD
ATOM     13  H21 UNL     1      62.888  -7.955  28.105  1.00  0.00     0.280 HD
BRANCH  11  14
HETATM   14  O3  UNL     1      65.335  -8.047  26.285  1.00  0.00    -0.368 OA
ATOM     15  H3  UNL     1      65.180  -7.947  25.353  1.00  0.00     0.212 HD
ENDBRANCH  11  14
ENDBRANCH   5   6
BRANCH   5  16
HETATM   16  C12 UNL     1      66.969  -4.322  27.669  1.00  0.00    -0.028 C 
HETATM   17  C13 UNL     1      66.596  -3.045  28.401  1.00  0.00     0.016 C 
HETATM   18  C14 UNL     1      67.836  -5.121  28.611  1.00  0.00     0.016 C 
HETATM   19  C15 UNL     1      67.896  -3.903  26.539  1.00  0.00     0.016 C 
ENDBRANCH   5  16
ENDBRANCH   3   5
BRANCH   1  20
HETATM   20  C5  UNL     1      63.248  -2.910  25.159  1.00  0.00     0.182 C 
HETATM   21  C4  UNL     1      63.732  -1.987  24.033  1.00  0.00     0.041 C 
HETATM   22  C3  UNL     1      63.073  -2.588  22.797  1.00  0.00     0.006 C 
HETATM   23  C20 UNL     1      61.758  -2.997  23.356  1.00  0.00     0.134 C 
HETATM   24  N3  UNL     1      62.065  -3.516  24.667  1.00  0.00    -0.314 N 
HETATM   25  C16 UNL     1      61.295  -4.482  25.374  1.00  0.00     0.363 C 
HETATM   26  O4  UNL     1      61.647  -4.842  26.512  1.00  0.00    -0.238 OA
BRANCH  22  27
HETATM   27  C2  UNL     1      62.987  -1.631  21.652  1.00  0.00     0.002 C 
HETATM   28  C1  UNL     1      64.274  -1.438  20.919  1.00  0.00     0.005 C 
ENDBRANCH  22  27
BRANCH  25  29
HETATM   29  O5  UNL     1      60.163  -5.014  24.794  1.00  0.00    -0.299 OA
BRANCH  29  30
HETATM   30  C17 UNL     1      58.876  -4.948  25.395  1.00  0.00     0.125 C 
HETATM   31  C18 UNL     1      57.970  -5.972  24.746  1.00  0.00     0.040 C 
HETATM   32  C19 UNL     1      58.360  -3.540  25.176  1.00  0.00     0.040 C 
ENDBRANCH  29  30
ENDBRANCH  25  29
ENDBRANCH   1  20
TORSDOF 8
ENDMDL
