MODEL 1
REMARK VINA RESULT: -5.643250236      0.000      0.000
REMARK  7 active torsions:
REMARK  status: ('A' for Active; 'I' for Inactive)
REMARK    1  A    between atoms: C2_2  and  C3_3 
REMARK    2  A    between atoms: C3_3  and  C4_4 
REMARK    3  A    between atoms: C4_4  and  C5_5 
REMARK    4  A    between atoms: C5_5  and  O1_6 
REMARK    5  A    between atoms: C5_5  and  C6_8 
REMARK    6  A    between atoms: N2_19  and  C14_20 
REMARK    7  A    between atoms: C14_20  and  S1_21 
ROOT
HETATM    1  C4  UNL     1      -5.565 -12.869   7.914  1.00  0.00     0.188 C 
HETATM    2  C9  UNL     1      -5.566 -13.339   9.279  1.00  0.00     0.197 C 
HETATM    3  N1  UNL     1      -5.058 -12.634  10.429  1.00  0.00    -0.344 N 
ATOM      4  H1  UNL     1      -5.364 -11.715  10.747  1.00  0.00     0.163 HD
HETATM    5  C10 UNL     1      -4.048 -13.447  11.052  1.00  0.00     0.265 C 
HETATM    6  O2  UNL     1      -3.784 -13.554  12.242  1.00  0.00    -0.270 OA
HETATM    7  C11 UNL     1      -3.469 -14.077   9.805  1.00  0.00     0.301 C 
HETATM    8  C12 UNL     1      -2.844 -12.946   9.159  1.00  0.00     0.089 C 
HETATM    9  C13 UNL     1      -3.164 -12.497   7.812  1.00  0.00     0.249 C 
HETATM   10  N2  UNL     1      -4.321 -13.056   7.176  1.00  0.00    -0.020 N 
HETATM   11  C16 UNL     1      -3.888 -14.396   6.915  1.00  0.00     0.209 C 
HETATM   12  C17 UNL     1      -3.034 -15.307   7.436  1.00  0.00    -0.032 C 
HETATM   13  C18 UNL     1      -3.060 -16.600   6.628  1.00  0.00     0.046 C 
HETATM   14  C19 UNL     1      -2.093 -15.398   8.554  1.00  0.00     0.309 C 
HETATM   15  N3  UNL     1      -2.617 -15.167   9.890  1.00  0.00     0.115 N 
HETATM   16  C20 UNL     1      -1.536 -15.131  10.799  1.00  0.00     0.312 C 
HETATM   17  C21 UNL     1      -4.814 -14.601   9.481  1.00  0.00     0.200 C 
HETATM   18  O5  UNL     1      -5.119 -15.763   9.430  1.00  0.00    -0.292 OA
ENDROOT
BRANCH   1  19
HETATM   19  C3  UNL     1      -6.166 -11.512   7.696  1.00  0.00     0.045 C 
BRANCH  19  20
HETATM   20  C2  UNL     1      -6.846 -10.697   8.668  1.00  0.00    -0.002 C 
HETATM   21  C1  UNL     1      -7.304  -9.346   7.986  1.00  0.00     0.005 C 
ENDBRANCH  19  20
ENDBRANCH   1  19
BRANCH   1  22
HETATM   22  C5  UNL     1      -6.623 -13.704   7.181  1.00  0.00     0.161 C 
BRANCH  22  23
HETATM   23  O1  UNL     1      -6.308 -15.024   6.991  1.00  0.00    -0.393 OA
ATOM     24  H1  UNL     1      -6.975 -15.648   7.253  1.00  0.00     0.210 HD
ENDBRANCH  22  23
BRANCH  22  25
HETATM   25  C6  UNL     1      -8.044 -13.571   7.416  1.00  0.00     0.009 C 
HETATM   26  C7  UNL     1      -8.788 -13.750   6.025  1.00  0.00     0.012 C 
HETATM   27  C8  UNL     1      -8.783 -14.621   8.201  1.00  0.00     0.012 C 
ENDBRANCH  22  25
ENDBRANCH   1  22
BRANCH  10  28
HETATM   28  C14 UNL     1      -4.323 -12.429   5.870  1.00  0.00     0.383 C 
BRANCH  28  29
HETATM   29  S1  UNL     1      -2.869 -12.482   4.921  1.00  0.00     0.166 S 
HETATM   30  C15 UNL     1      -3.259 -11.553   3.390  1.00  0.00     0.163 C 
HETATM   31  O3  UNL     1      -1.704 -11.688   5.449  1.00  0.00    -0.227 OA
HETATM   32  O4  UNL     1      -2.382 -13.766   4.436  1.00  0.00    -0.227 OA
ENDBRANCH  28  29
ENDBRANCH  10  28
TORSDOF 7
ENDMDL
MODEL 2
REMARK VINA RESULT: -5.625489001      8.510     11.772
REMARK  7 active torsions:
REMARK  status: ('A' for Active; 'I' for Inactive)
REMARK    1  A    between atoms: C2_2  and  C3_3 
REMARK    2  A    between atoms: C3_3  and  C4_4 
REMARK    3  A    between atoms: C4_4  and  C5_5 
REMARK    4  A    between atoms: C5_5  and  O1_6 
REMARK    5  A    between atoms: C5_5  and  C6_8 
REMARK    6  A    between atoms: N2_19  and  C14_20 
REMARK    7  A    between atoms: C14_20  and  S1_21 
ROOT
HETATM    1  C4  UNL     1       0.042 -12.007  -1.250  1.00  0.00     0.188 C 
HETATM    2  C9  UNL     1       0.856 -11.226  -2.149  1.00  0.00     0.197 C 
HETATM    3  N1  UNL     1       0.795 -11.234  -3.589  1.00  0.00    -0.344 N 
ATOM      4  H1  UNL     1      -0.029 -11.020  -4.151  1.00  0.00     0.163 HD
HETATM    5  C10 UNL     1       2.090 -11.596  -4.099  1.00  0.00     0.265 C 
HETATM    6  O2  UNL     1       2.644 -11.203  -5.116  1.00  0.00    -0.270 OA
HETATM    7  C11 UNL     1       2.495 -12.566  -3.011  1.00  0.00     0.301 C 
HETATM    8  C12 UNL     1       1.573 -13.657  -3.222  1.00  0.00     0.089 C 
HETATM    9  C13 UNL     1       0.652 -14.156  -2.211  1.00  0.00     0.249 C 
HETATM   10  N2  UNL     1       0.482 -13.379  -1.019  1.00  0.00    -0.020 N 
HETATM   11  C16 UNL     1       1.737 -13.580  -0.360  1.00  0.00     0.209 C 
HETATM   12  C17 UNL     1       3.025 -13.842  -0.685  1.00  0.00    -0.032 C 
HETATM   13  C18 UNL     1       3.892 -13.940   0.564  1.00  0.00     0.046 C 
HETATM   14  C19 UNL     1       3.815 -14.057  -1.899  1.00  0.00     0.309 C 
HETATM   15  N3  UNL     1       3.805 -13.002  -2.900  1.00  0.00     0.115 N 
HETATM   16  C20 UNL     1       4.480 -13.466  -4.052  1.00  0.00     0.312 C 
HETATM   17  C21 UNL     1       2.312 -11.482  -2.019  1.00  0.00     0.200 C 
HETATM   18  O5  UNL     1       3.180 -10.999  -1.342  1.00  0.00    -0.292 OA
ENDROOT
BRANCH   1  19
HETATM   19  C3  UNL     1      -1.440 -11.907  -1.465  1.00  0.00     0.045 C 
BRANCH  19  20
HETATM   20  C2  UNL     1      -2.120 -11.130  -2.467  1.00  0.00    -0.002 C 
HETATM   21  C1  UNL     1      -2.512  -9.723  -1.859  1.00  0.00     0.005 C 
ENDBRANCH  19  20
ENDBRANCH   1  19
BRANCH   1  22
HETATM   22  C5  UNL     1       0.121 -11.302   0.110  1.00  0.00     0.161 C 
BRANCH  22  23
HETATM   23  O1  UNL     1       0.488  -9.983   0.072  1.00  0.00    -0.393 OA
ATOM     24  H1  UNL     1       1.274  -9.760   0.558  1.00  0.00     0.210 HD
ENDBRANCH  22  23
BRANCH  22  25
HETATM   25  C6  UNL     1      -0.841 -11.510   1.171  1.00  0.00     0.009 C 
HETATM   26  C7  UNL     1      -0.040 -11.845   2.500  1.00  0.00     0.012 C 
HETATM   27  C8  UNL     1      -1.660 -10.357   1.687  1.00  0.00     0.012 C 
ENDBRANCH  22  25
ENDBRANCH   1  22
BRANCH  10  28
HETATM   28  C14 UNL     1      -0.453 -14.162  -0.238  1.00  0.00     0.383 C 
BRANCH  28  29
HETATM   29  S1  UNL     1      -0.187 -15.873  -0.095  1.00  0.00     0.166 S 
HETATM   30  C15 UNL     1       0.113 -16.168   1.688  1.00  0.00     0.163 C 
HETATM   31  O3  UNL     1      -1.387 -16.752  -0.334  1.00  0.00    -0.227 OA
HETATM   32  O4  UNL     1       0.970 -16.471  -0.748  1.00  0.00    -0.227 OA
ENDBRANCH  28  29
ENDBRANCH  10  28
TORSDOF 7
ENDMDL
MODEL 3
REMARK VINA RESULT: -5.547096349      8.122     11.683
REMARK  7 active torsions:
REMARK  status: ('A' for Active; 'I' for Inactive)
REMARK    1  A    between atoms: C2_2  and  C3_3 
REMARK    2  A    between atoms: C3_3  and  C4_4 
REMARK    3  A    between atoms: C4_4  and  C5_5 
REMARK    4  A    between atoms: C5_5  and  O1_6 
REMARK    5  A    between atoms: C5_5  and  C6_8 
REMARK    6  A    between atoms: N2_19  and  C14_20 
REMARK    7  A    between atoms: C14_20  and  S1_21 
ROOT
HETATM    1  C4  UNL     1       0.520 -12.350  -1.011  1.00  0.00     0.188 C 
HETATM    2  C9  UNL     1       1.240 -11.723  -2.093  1.00  0.00     0.197 C 
HETATM    3  N1  UNL     1       1.283 -12.165  -3.465  1.00  0.00    -0.344 N 
ATOM      4  H1  UNL     1       0.476 -12.289  -4.076  1.00  0.00     0.163 HD
HETATM    5  C10 UNL     1       2.655 -12.401  -3.825  1.00  0.00     0.265 C 
HETATM    6  O2  UNL     1       3.199 -12.222  -4.907  1.00  0.00    -0.270 OA
HETATM    7  C11 UNL     1       3.152 -12.911  -2.491  1.00  0.00     0.301 C 
HETATM    8  C12 UNL     1       2.461 -14.174  -2.376  1.00  0.00     0.089 C 
HETATM    9  C13 UNL     1       1.578 -14.524  -1.274  1.00  0.00     0.249 C 
HETATM   10  N2  UNL     1       1.185 -13.481  -0.373  1.00  0.00    -0.020 N 
HETATM   11  C16 UNL     1       2.406 -13.232   0.332  1.00  0.00     0.209 C 
HETATM   12  C17 UNL     1       3.740 -13.320   0.117  1.00  0.00    -0.032 C 
HETATM   13  C18 UNL     1       4.519 -12.877   1.350  1.00  0.00     0.046 C 
HETATM   14  C19 UNL     1       4.640 -13.723  -0.965  1.00  0.00     0.309 C 
HETATM   15  N3  UNL     1       4.508 -13.031  -2.237  1.00  0.00     0.115 N 
HETATM   16  C20 UNL     1       5.336 -13.671  -3.187  1.00  0.00     0.312 C 
HETATM   17  C21 UNL     1       2.705 -11.642  -1.874  1.00  0.00     0.200 C 
HETATM   18  O5  UNL     1       3.421 -10.822  -1.363  1.00  0.00    -0.292 OA
ENDROOT
BRANCH   1  19
HETATM   19  C3  UNL     1      -0.936 -12.608  -1.265  1.00  0.00     0.045 C 
BRANCH  19  20
HETATM   20  C2  UNL     1      -1.690 -12.247  -2.438  1.00  0.00    -0.002 C 
HETATM   21  C1  UNL     1      -2.392 -10.851  -2.196  1.00  0.00     0.005 C 
ENDBRANCH  19  20
ENDBRANCH   1  19
BRANCH   1  22
HETATM   22  C5  UNL     1       0.373 -11.276   0.074  1.00  0.00     0.161 C 
BRANCH  22  23
HETATM   23  O1  UNL     1       0.580  -9.986  -0.338  1.00  0.00    -0.393 OA
ATOM     24  H1  UNL     1       0.252  -9.311   0.246  1.00  0.00     0.210 HD
ENDBRANCH  22  23
BRANCH  22  25
HETATM   25  C6  UNL     1      -0.661 -11.305   1.086  1.00  0.00     0.009 C 
HETATM   26  C7  UNL     1       0.038 -11.155   2.504  1.00  0.00     0.012 C 
HETATM   27  C8  UNL     1      -1.642 -10.169   1.199  1.00  0.00     0.012 C 
ENDBRANCH  22  25
ENDBRANCH   1  22
BRANCH  10  28
HETATM   28  C14 UNL     1       0.356 -14.167   0.596  1.00  0.00     0.383 C 
BRANCH  28  29
HETATM   29  S1  UNL     1       1.122 -14.908   1.969  1.00  0.00     0.166 S 
HETATM   30  C15 UNL     1      -0.204 -15.852   2.810  1.00  0.00     0.163 C 
HETATM   31  O3  UNL     1       2.107 -16.005   1.664  1.00  0.00    -0.227 OA
HETATM   32  O4  UNL     1       1.670 -14.062   3.021  1.00  0.00    -0.227 OA
ENDBRANCH  28  29
ENDBRANCH  10  28
TORSDOF 7
ENDMDL
MODEL 4
REMARK VINA RESULT: -5.404419330      7.031      9.440
REMARK  7 active torsions:
REMARK  status: ('A' for Active; 'I' for Inactive)
REMARK    1  A    between atoms: C2_2  and  C3_3 
REMARK    2  A    between atoms: C3_3  and  C4_4 
REMARK    3  A    between atoms: C4_4  and  C5_5 
REMARK    4  A    between atoms: C5_5  and  O1_6 
REMARK    5  A    between atoms: C5_5  and  C6_8 
REMARK    6  A    between atoms: N2_19  and  C14_20 
REMARK    7  A    between atoms: C14_20  and  S1_21 
ROOT
HETATM    1  C4  UNL     1       0.195 -12.771   0.398  1.00  0.00     0.188 C 
HETATM    2  C9  UNL     1      -0.774 -13.544   1.136  1.00  0.00     0.197 C 
HETATM    3  N1  UNL     1      -1.017 -13.485   2.556  1.00  0.00    -0.344 N 
ATOM      4  H1  UNL     1      -1.284 -12.653   3.081  1.00  0.00     0.163 HD
HETATM    5  C10 UNL     1      -0.819 -14.799   3.107  1.00  0.00     0.265 C 
HETATM    6  O2  UNL     1      -1.414 -15.334   4.033  1.00  0.00    -0.270 OA
HETATM    7  C11 UNL     1       0.305 -15.253   2.202  1.00  0.00     0.301 C 
HETATM    8  C12 UNL     1       1.389 -14.391   2.613  1.00  0.00     0.089 C 
HETATM    9  C13 UNL     1       2.105 -13.497   1.716  1.00  0.00     0.249 C 
HETATM   10  N2  UNL     1       1.561 -13.282   0.407  1.00  0.00    -0.020 N 
HETATM   11  C16 UNL     1       1.809 -14.546  -0.220  1.00  0.00     0.209 C 
HETATM   12  C17 UNL     1       1.942 -15.846   0.131  1.00  0.00    -0.032 C 
HETATM   13  C18 UNL     1       2.213 -16.714  -1.091  1.00  0.00     0.046 C 
HETATM   14  C19 UNL     1       1.898 -16.649   1.355  1.00  0.00     0.309 C 
HETATM   15  N3  UNL     1       0.685 -16.584   2.155  1.00  0.00     0.115 N 
HETATM   16  C20 UNL     1       0.903 -17.286   3.362  1.00  0.00     0.312 C 
HETATM   17  C21 UNL     1      -0.575 -15.010   1.038  1.00  0.00     0.200 C 
HETATM   18  O5  UNL     1      -0.976 -15.850   0.276  1.00  0.00    -0.292 OA
ENDROOT
BRANCH   1  19
HETATM   19  C3  UNL     1       0.135 -11.286   0.609  1.00  0.00     0.045 C 
BRANCH  19  20
HETATM   20  C2  UNL     1      -0.459 -10.590   1.720  1.00  0.00    -0.002 C 
HETATM   21  C1  UNL     1      -1.926 -10.145   1.330  1.00  0.00     0.005 C 
ENDBRANCH  19  20
ENDBRANCH   1  19
BRANCH   1  22
HETATM   22  C5  UNL     1      -0.263 -12.809  -1.066  1.00  0.00     0.161 C 
BRANCH  22  23
HETATM   23  O1  UNL     1      -1.163 -13.793  -1.379  1.00  0.00    -0.393 OA
ATOM     24  H1  UNL     1      -0.806 -14.547  -1.833  1.00  0.00     0.210 HD
ENDBRANCH  22  23
BRANCH  22  25
HETATM   25  C6  UNL     1      -0.551 -11.621  -1.840  1.00  0.00     0.009 C 
HETATM   26  C7  UNL     1       0.284 -11.702  -3.188  1.00  0.00     0.012 C 
HETATM   27  C8  UNL     1      -1.918 -11.418  -2.435  1.00  0.00     0.012 C 
ENDBRANCH  22  25
ENDBRANCH   1  22
BRANCH  10  28
HETATM   28  C14 UNL     1       2.517 -12.389  -0.213  1.00  0.00     0.383 C 
BRANCH  28  29
HETATM   29  S1  UNL     1       4.208 -12.772  -0.097  1.00  0.00     0.166 S 
HETATM   30  C15 UNL     1       5.072 -11.408  -0.962  1.00  0.00     0.163 C 
HETATM   31  O3  UNL     1       4.817 -12.673   1.276  1.00  0.00    -0.227 OA
HETATM   32  O4  UNL     1       4.712 -13.974  -0.749  1.00  0.00    -0.227 OA
ENDBRANCH  28  29
ENDBRANCH  10  28
TORSDOF 7
ENDMDL
MODEL 5
REMARK VINA RESULT: -5.371527420      6.623     10.504
REMARK  7 active torsions:
REMARK  status: ('A' for Active; 'I' for Inactive)
REMARK    1  A    between atoms: C2_2  and  C3_3 
REMARK    2  A    between atoms: C3_3  and  C4_4 
REMARK    3  A    between atoms: C4_4  and  C5_5 
REMARK    4  A    between atoms: C5_5  and  O1_6 
REMARK    5  A    between atoms: C5_5  and  C6_8 
REMARK    6  A    between atoms: N2_19  and  C14_20 
REMARK    7  A    between atoms: C14_20  and  S1_21 
ROOT
HETATM    1  C4  UNL     1       1.795 -14.238   0.082  1.00  0.00     0.188 C 
HETATM    2  C9  UNL     1       1.750 -14.752   1.430  1.00  0.00     0.197 C 
HETATM    3  N1  UNL     1       1.120 -15.974   1.862  1.00  0.00    -0.344 N 
ATOM      4  H1  UNL     1       1.333 -16.908   1.515  1.00  0.00     0.163 HD
HETATM    5  C10 UNL     1       0.141 -15.652   2.866  1.00  0.00     0.265 C 
HETATM    6  O2  UNL     1      -0.185 -16.304   3.848  1.00  0.00    -0.270 OA
HETATM    7  C11 UNL     1      -0.311 -14.317   2.316  1.00  0.00     0.301 C 
HETATM    8  C12 UNL     1      -0.982 -14.706   1.097  1.00  0.00     0.089 C 
HETATM    9  C13 UNL     1      -0.618 -14.220  -0.225  1.00  0.00     0.249 C 
HETATM   10  N2  UNL     1       0.615 -13.502  -0.360  1.00  0.00    -0.020 N 
HETATM   11  C16 UNL     1       0.306 -12.270   0.302  1.00  0.00     0.209 C 
HETATM   12  C17 UNL     1      -0.505 -11.822   1.289  1.00  0.00    -0.032 C 
HETATM   13  C18 UNL     1      -0.329 -10.323   1.499  1.00  0.00     0.046 C 
HETATM   14  C19 UNL     1      -1.501 -12.374   2.208  1.00  0.00     0.309 C 
HETATM   15  N3  UNL     1      -1.078 -13.456   3.083  1.00  0.00     0.115 N 
HETATM   16  C20 UNL     1      -2.212 -13.957   3.762  1.00  0.00     0.312 C 
HETATM   17  C21 UNL     1       1.089 -13.844   2.398  1.00  0.00     0.200 C 
HETATM   18  O5  UNL     1       1.486 -12.954   3.103  1.00  0.00    -0.292 OA
ENDROOT
BRANCH   1  19
HETATM   19  C3  UNL     1       2.299 -15.194  -0.959  1.00  0.00     0.045 C 
BRANCH  19  20
HETATM   20  C2  UNL     1       2.602 -16.590  -0.781  1.00  0.00    -0.002 C 
HETATM   21  C1  UNL     1       4.165 -16.767  -0.616  1.00  0.00     0.005 C 
ENDBRANCH  19  20
ENDBRANCH   1  19
BRANCH   1  22
HETATM   22  C5  UNL     1       2.957 -13.237   0.051  1.00  0.00     0.161 C 
BRANCH  22  23
HETATM   23  O1  UNL     1       3.718 -13.178   1.189  1.00  0.00    -0.393 OA
ATOM     24  H1  UNL     1       3.468 -12.510   1.816  1.00  0.00     0.210 HD
ENDBRANCH  22  23
BRANCH  22  25
HETATM   25  C6  UNL     1       3.797 -13.030  -1.109  1.00  0.00     0.009 C 
HETATM   26  C7  UNL     1       3.762 -11.484  -1.468  1.00  0.00     0.012 C 
HETATM   27  C8  UNL     1       5.288 -13.202  -1.003  1.00  0.00     0.012 C 
ENDBRANCH  22  25
ENDBRANCH   1  22
BRANCH  10  28
HETATM   28  C14 UNL     1       0.647 -13.147  -1.763  1.00  0.00     0.383 C 
BRANCH  28  29
HETATM   29  S1  UNL     1      -0.321 -11.809  -2.304  1.00  0.00     0.166 S 
HETATM   30  C15 UNL     1      -0.268 -11.885  -4.134  1.00  0.00     0.163 C 
HETATM   31  O3  UNL     1      -1.802 -11.921  -2.055  1.00  0.00    -0.227 OA
HETATM   32  O4  UNL     1       0.107 -10.451  -1.998  1.00  0.00    -0.227 OA
ENDBRANCH  28  29
ENDBRANCH  10  28
TORSDOF 7
ENDMDL
