MODEL 1
REMARK VINA RESULT: -7.821411115      0.000      0.000
REMARK  8 active torsions:
REMARK  status: ('A' for Active; 'I' for Inactive)
REMARK       I    between atoms: C2_2  and  N1_4 
REMARK    1  A    between atoms: N1_4  and  C3_6 
REMARK    2  A    between atoms: C3_6  and  C4_7 
REMARK    3  A    between atoms: C3_6  and  C21_33 
REMARK       I    between atoms: C4_7  and  N2_9 
REMARK    4  A    between atoms: C7_12  and  N3_13 
REMARK    5  A    between atoms: C10_16  and  C11_17 
REMARK    6  A    between atoms: C11_17  and  C12_18 
REMARK       I    between atoms: C12_18  and  N4_20 
REMARK    7  A    between atoms: N4_20  and  C13_22 
REMARK    8  A    between atoms: C15_24  and  C16_25 
ROOT
HETATM    1  C4  UNL     1      -5.705 -11.322   5.275  1.00  0.00     0.243 C 
HETATM    2  O2  UNL     1      -5.158 -12.191   4.566  1.00  0.00    -0.271 OA
HETATM    3  N2  UNL     1      -6.193 -11.619   6.544  1.00  0.00    -0.343 N 
HETATM    4  C5  UNL     1      -6.785 -10.738   7.532  1.00  0.00     0.128 C 
HETATM    5  C6  UNL     1      -6.993 -11.612   8.786  1.00  0.00     0.058 C 
HETATM    6  C7  UNL     1      -7.263 -12.926   8.086  1.00  0.00     0.246 C 
HETATM    7  C10 UNL     1      -6.175 -13.020   7.101  1.00  0.00     0.129 C 
ENDROOT
BRANCH   7   8
HETATM    8  C11 UNL     1      -4.792 -13.208   7.540  1.00  0.00     0.130 C 
BRANCH   8   9
HETATM    9  C12 UNL     1      -4.095 -14.473   7.239  1.00  0.00     0.225 C 
HETATM   10  O3  UNL     1      -3.709 -15.222   8.143  1.00  0.00    -0.273 OA
HETATM   11  N4  UNL     1      -3.882 -14.814   5.915  1.00  0.00    -0.312 N 
ATOM     12  H4  UNL     1      -4.757 -14.872   5.393  1.00  0.00     0.170 HD
BRANCH  11  13
HETATM   13  C13 UNL     1      -2.899 -15.069   5.196  1.00  0.00     0.126 A 
HETATM   14  C14 UNL     1      -2.547 -14.166   4.164  1.00  0.00     0.077 A 
HETATM   15  C15 UNL     1      -1.433 -14.665   3.549  1.00  0.00     0.037 A 
HETATM   16  N5  UNL     1      -1.127 -15.802   4.170  1.00  0.00    -0.301 N 
HETATM   17  N6  UNL     1      -1.989 -16.050   5.145  1.00  0.00    -0.281 N 
ATOM     18  H5  UNL     1      -0.338 -16.402   3.929  1.00  0.00     0.187 HD
HETATM   19  C20 UNL     1      -1.983 -17.201   6.056  1.00  0.00     0.179 C 
BRANCH  15  20
HETATM   20  C16 UNL     1      -0.781 -13.954   2.407  1.00  0.00    -0.007 C 
HETATM   21  C17 UNL     1       0.731 -13.833   2.669  1.00  0.00     0.021 C 
HETATM   22  C18 UNL     1      -0.988 -14.689   1.126  1.00  0.00     0.021 C 
HETATM   23  C19 UNL     1      -1.292 -12.539   2.283  1.00  0.00     0.021 C 
ENDBRANCH  15  20
ENDBRANCH  11  13
ENDBRANCH   8   9
ENDBRANCH   7   8
BRANCH   6  24
HETATM   24  N3  UNL     1      -7.578 -14.012   8.916  1.00  0.00     0.086 N 
HETATM   25  C8  UNL     1      -7.973 -15.155   8.065  1.00  0.00     0.310 C 
HETATM   26  C9  UNL     1      -8.852 -13.692   9.607  1.00  0.00     0.310 C 
ENDBRANCH   6  24
BRANCH   1  27
HETATM   27  C3  UNL     1      -5.804  -9.945   4.683  1.00  0.00     0.180 C 
BRANCH  27  28
HETATM   28  N1  UNL     1      -5.402  -9.986   3.326  1.00  0.00    -0.348 N 
HETATM   29  C2  UNL     1      -5.123  -9.110   2.321  1.00  0.00     0.214 C 
HETATM   30  C1  UNL     1      -4.691  -9.636   0.960  1.00  0.00     0.117 C 
HETATM   31  O1  UNL     1      -5.173  -7.871   2.360  1.00  0.00    -0.274 OA
ATOM     32  H1  UNL     1      -5.290 -10.949   3.010  1.00  0.00     0.163 HD
ENDBRANCH  27  28
BRANCH  27  33
HETATM   33  C21 UNL     1      -7.196  -9.431   4.954  1.00  0.00     0.009 C 
HETATM   34  C22 UNL     1      -8.174  -9.618   3.839  1.00  0.00     0.012 C 
HETATM   35  C23 UNL     1      -7.104  -7.937   5.321  1.00  0.00     0.012 C 
ENDBRANCH  27  33
ENDBRANCH   1  27
TORSDOF 8
ENDMDL
MODEL 2
REMARK VINA RESULT: -7.728911834      2.681      7.283
REMARK  8 active torsions:
REMARK  status: ('A' for Active; 'I' for Inactive)
REMARK       I    between atoms: C2_2  and  N1_4 
REMARK    1  A    between atoms: N1_4  and  C3_6 
REMARK    2  A    between atoms: C3_6  and  C4_7 
REMARK    3  A    between atoms: C3_6  and  C21_33 
REMARK       I    between atoms: C4_7  and  N2_9 
REMARK    4  A    between atoms: C7_12  and  N3_13 
REMARK    5  A    between atoms: C10_16  and  C11_17 
REMARK    6  A    between atoms: C11_17  and  C12_18 
REMARK       I    between atoms: C12_18  and  N4_20 
REMARK    7  A    between atoms: N4_20  and  C13_22 
REMARK    8  A    between atoms: C15_24  and  C16_25 
ROOT
HETATM    1  C4  UNL     1      -2.569 -14.675   8.655  1.00  0.00     0.243 C 
HETATM    2  O2  UNL     1      -1.753 -13.747   8.485  1.00  0.00    -0.271 OA
HETATM    3  N2  UNL     1      -3.847 -14.632   8.104  1.00  0.00    -0.343 N 
HETATM    4  C5  UNL     1      -4.895 -15.633   8.130  1.00  0.00     0.128 C 
HETATM    5  C6  UNL     1      -6.017 -15.072   7.233  1.00  0.00     0.058 C 
HETATM    6  C7  UNL     1      -5.804 -13.603   7.519  1.00  0.00     0.246 C 
HETATM    7  C10 UNL     1      -4.353 -13.428   7.351  1.00  0.00     0.129 C 
ENDROOT
BRANCH   7   8
HETATM    8  C11 UNL     1      -3.739 -13.555   6.029  1.00  0.00     0.130 C 
BRANCH   8   9
HETATM    9  C12 UNL     1      -3.237 -12.352   5.338  1.00  0.00     0.225 C 
HETATM   10  O3  UNL     1      -2.364 -11.639   5.845  1.00  0.00    -0.273 OA
HETATM   11  N4  UNL     1      -3.762 -12.032   4.098  1.00  0.00    -0.312 N 
ATOM     12  H4  UNL     1      -3.632 -12.788   3.425  1.00  0.00     0.170 HD
BRANCH  11  13
HETATM   13  C13 UNL     1      -4.353 -11.061   3.591  1.00  0.00     0.126 A 
HETATM   14  C14 UNL     1      -5.550 -10.595   4.186  1.00  0.00     0.077 A 
HETATM   15  C15 UNL     1      -5.976  -9.521   3.455  1.00  0.00     0.037 A 
HETATM   16  N5  UNL     1      -5.091  -9.346   2.477  1.00  0.00    -0.301 N 
HETATM   17  N6  UNL     1      -4.128 -10.253   2.548  1.00  0.00    -0.281 N 
ATOM     18  H5  UNL     1      -5.146  -8.614   1.768  1.00  0.00     0.187 HD
HETATM   19  C20 UNL     1      -2.972 -10.384   1.652  1.00  0.00     0.179 C 
BRANCH  15  20
HETATM   20  C16 UNL     1      -7.220  -8.773   3.811  1.00  0.00    -0.007 C 
HETATM   21  C17 UNL     1      -7.666  -9.159   5.232  1.00  0.00     0.021 C 
HETATM   22  C18 UNL     1      -6.994  -7.299   3.764  1.00  0.00     0.021 C 
HETATM   23  C19 UNL     1      -8.363  -9.153   2.903  1.00  0.00     0.021 C 
ENDBRANCH  15  20
ENDBRANCH  11  13
ENDBRANCH   8   9
ENDBRANCH   7   8
BRANCH   6  24
HETATM   24  N3  UNL     1      -6.710 -12.720   6.913  1.00  0.00     0.086 N 
HETATM   25  C8  UNL     1      -6.999 -11.620   7.859  1.00  0.00     0.310 C 
HETATM   26  C9  UNL     1      -8.022 -13.408   6.837  1.00  0.00     0.310 C 
ENDBRANCH   6  24
BRANCH   1  27
HETATM   27  C3  UNL     1      -2.095 -15.837   9.483  1.00  0.00     0.180 C 
BRANCH  27  28
HETATM   28  N1  UNL     1      -0.837 -16.273   9.003  1.00  0.00    -0.348 N 
HETATM   29  C2  UNL     1      -0.327 -16.888   7.900  1.00  0.00     0.214 C 
HETATM   30  C1  UNL     1       1.169 -17.155   7.808  1.00  0.00     0.117 C 
HETATM   31  O1  UNL     1      -0.944 -17.284   6.899  1.00  0.00    -0.274 OA
ATOM     32  H1  UNL     1      -0.100 -16.069   9.677  1.00  0.00     0.163 HD
ENDBRANCH  27  28
BRANCH  27  33
HETATM   33  C21 UNL     1      -2.151 -15.417  10.930  1.00  0.00     0.009 C 
HETATM   34  C22 UNL     1      -1.102 -16.018  11.811  1.00  0.00     0.012 C 
HETATM   35  C23 UNL     1      -3.550 -15.753  11.484  1.00  0.00     0.012 C 
ENDBRANCH  27  33
ENDBRANCH   1  27
TORSDOF 8
ENDMDL
MODEL 3
REMARK VINA RESULT: -7.630152112      2.713      7.333
REMARK  8 active torsions:
REMARK  status: ('A' for Active; 'I' for Inactive)
REMARK       I    between atoms: C2_2  and  N1_4 
REMARK    1  A    between atoms: N1_4  and  C3_6 
REMARK    2  A    between atoms: C3_6  and  C4_7 
REMARK    3  A    between atoms: C3_6  and  C21_33 
REMARK       I    between atoms: C4_7  and  N2_9 
REMARK    4  A    between atoms: C7_12  and  N3_13 
REMARK    5  A    between atoms: C10_16  and  C11_17 
REMARK    6  A    between atoms: C11_17  and  C12_18 
REMARK       I    between atoms: C12_18  and  N4_20 
REMARK    7  A    between atoms: N4_20  and  C13_22 
REMARK    8  A    between atoms: C15_24  and  C16_25 
ROOT
HETATM    1  C4  UNL     1      -2.806 -14.292   8.766  1.00  0.00     0.243 C 
HETATM    2  O2  UNL     1      -2.054 -13.321   8.547  1.00  0.00    -0.271 OA
HETATM    3  N2  UNL     1      -4.044 -14.410   8.140  1.00  0.00    -0.343 N 
HETATM    4  C5  UNL     1      -5.012 -15.488   8.209  1.00  0.00     0.128 C 
HETATM    5  C6  UNL     1      -6.111 -15.115   7.194  1.00  0.00     0.058 C 
HETATM    6  C7  UNL     1      -6.031 -13.611   7.337  1.00  0.00     0.246 C 
HETATM    7  C10 UNL     1      -4.591 -13.333   7.237  1.00  0.00     0.129 C 
ENDROOT
BRANCH   7   8
HETATM    8  C11 UNL     1      -3.881 -13.539   5.973  1.00  0.00     0.130 C 
BRANCH   8   9
HETATM    9  C12 UNL     1      -3.295 -12.384   5.268  1.00  0.00     0.225 C 
HETATM   10  O3  UNL     1      -2.373 -11.729   5.767  1.00  0.00    -0.273 OA
HETATM   11  N4  UNL     1      -3.795 -12.043   4.024  1.00  0.00    -0.312 N 
ATOM     12  H4  UNL     1      -3.719 -12.814   3.360  1.00  0.00     0.170 HD
BRANCH  11  13
HETATM   13  C13 UNL     1      -4.314 -11.037   3.505  1.00  0.00     0.126 A 
HETATM   14  C14 UNL     1      -5.496 -10.503   4.070  1.00  0.00     0.077 A 
HETATM   15  C15 UNL     1      -5.840  -9.404   3.331  1.00  0.00     0.037 A 
HETATM   16  N5  UNL     1      -4.920  -9.280   2.376  1.00  0.00    -0.301 N 
HETATM   17  N6  UNL     1      -4.015 -10.242   2.470  1.00  0.00    -0.281 N 
ATOM     18  H5  UNL     1      -4.914  -8.546   1.669  1.00  0.00     0.187 HD
HETATM   19  C20 UNL     1      -2.846 -10.441   1.604  1.00  0.00     0.179 C 
BRANCH  15  20
HETATM   20  C16 UNL     1      -7.046  -8.584   3.657  1.00  0.00    -0.007 C 
HETATM   21  C17 UNL     1      -7.246  -8.542   5.182  1.00  0.00     0.021 C 
HETATM   22  C18 UNL     1      -6.900  -7.187   3.155  1.00  0.00     0.021 C 
HETATM   23  C19 UNL     1      -8.298  -9.211   3.095  1.00  0.00     0.021 C 
ENDBRANCH  15  20
ENDBRANCH  11  13
ENDBRANCH   8   9
ENDBRANCH   7   8
BRANCH   6  24
HETATM   24  N3  UNL     1      -6.960 -12.871   6.591  1.00  0.00     0.086 N 
HETATM   25  C8  UNL     1      -7.185 -11.576   7.270  1.00  0.00     0.310 C 
HETATM   26  C9  UNL     1      -8.282 -13.529   6.744  1.00  0.00     0.310 C 
ENDBRANCH   6  24
BRANCH   1  27
HETATM   27  C3  UNL     1      -2.300 -15.322   9.736  1.00  0.00     0.180 C 
BRANCH  27  28
HETATM   28  N1  UNL     1      -3.296 -15.581  10.709  1.00  0.00    -0.348 N 
HETATM   29  C2  UNL     1      -3.906 -14.930  11.738  1.00  0.00     0.214 C 
HETATM   30  C1  UNL     1      -4.990 -15.635  12.540  1.00  0.00     0.117 C 
HETATM   31  O1  UNL     1      -3.691 -13.776  12.138  1.00  0.00    -0.274 OA
ATOM     32  H1  UNL     1      -3.663 -16.527  10.610  1.00  0.00     0.163 HD
ENDBRANCH  27  28
BRANCH  27  33
HETATM   33  C21 UNL     1      -1.823 -16.507   8.934  1.00  0.00     0.009 C 
HETATM   34  C22 UNL     1      -2.205 -17.845   9.482  1.00  0.00     0.012 C 
HETATM   35  C23 UNL     1      -0.290 -16.420   8.796  1.00  0.00     0.012 C 
ENDBRANCH  27  33
ENDBRANCH   1  27
TORSDOF 8
ENDMDL
MODEL 4
REMARK VINA RESULT: -7.578213932      2.822      6.329
REMARK  8 active torsions:
REMARK  status: ('A' for Active; 'I' for Inactive)
REMARK       I    between atoms: C2_2  and  N1_4 
REMARK    1  A    between atoms: N1_4  and  C3_6 
REMARK    2  A    between atoms: C3_6  and  C4_7 
REMARK    3  A    between atoms: C3_6  and  C21_33 
REMARK       I    between atoms: C4_7  and  N2_9 
REMARK    4  A    between atoms: C7_12  and  N3_13 
REMARK    5  A    between atoms: C10_16  and  C11_17 
REMARK    6  A    between atoms: C11_17  and  C12_18 
REMARK       I    between atoms: C12_18  and  N4_20 
REMARK    7  A    between atoms: N4_20  and  C13_22 
REMARK    8  A    between atoms: C15_24  and  C16_25 
ROOT
HETATM    1  C4  UNL     1      -3.927 -12.235   5.942  1.00  0.00     0.243 C 
HETATM    2  O2  UNL     1      -2.820 -12.088   5.385  1.00  0.00    -0.271 OA
HETATM    3  N2  UNL     1      -5.023 -11.447   5.603  1.00  0.00    -0.343 N 
HETATM    4  C5  UNL     1      -6.391 -11.517   6.080  1.00  0.00     0.128 C 
HETATM    5  C6  UNL     1      -7.170 -10.486   5.238  1.00  0.00     0.058 C 
HETATM    6  C7  UNL     1      -6.055  -9.483   5.044  1.00  0.00     0.246 C 
HETATM    7  C10 UNL     1      -4.919 -10.313   4.615  1.00  0.00     0.129 C 
ENDROOT
BRANCH   7   8
HETATM    8  C11 UNL     1      -4.936 -10.978   3.311  1.00  0.00     0.130 C 
BRANCH   8   9
HETATM    9  C12 UNL     1      -4.390 -10.283   2.129  1.00  0.00     0.225 C 
HETATM   10  O3  UNL     1      -5.133  -9.847   1.243  1.00  0.00    -0.273 OA
HETATM   11  N4  UNL     1      -3.019 -10.123   2.029  1.00  0.00    -0.312 N 
ATOM     12  H4  UNL     1      -2.638  -9.612   2.825  1.00  0.00     0.170 HD
BRANCH  11  13
HETATM   13  C13 UNL     1      -2.131 -10.441   1.217  1.00  0.00     0.126 A 
HETATM   14  C14 UNL     1      -2.387 -10.315  -0.169  1.00  0.00     0.077 A 
HETATM   15  C15 UNL     1      -1.254 -10.706  -0.829  1.00  0.00     0.037 A 
HETATM   16  N5  UNL     1      -0.366 -11.047   0.102  1.00  0.00    -0.301 N 
HETATM   17  N6  UNL     1      -0.875 -10.896   1.315  1.00  0.00    -0.281 N 
ATOM     18  H5  UNL     1       0.578 -11.381  -0.092  1.00  0.00     0.187 HD
HETATM   19  C20 UNL     1      -0.205 -11.163   2.593  1.00  0.00     0.179 C 
BRANCH  15  20
HETATM   20  C16 UNL     1      -1.171 -10.692  -2.321  1.00  0.00    -0.007 C 
HETATM   21  C17 UNL     1      -1.776 -11.989  -2.885  1.00  0.00     0.021 C 
HETATM   22  C18 UNL     1      -1.912  -9.530  -2.891  1.00  0.00     0.021 C 
HETATM   23  C19 UNL     1       0.265 -10.671  -2.786  1.00  0.00     0.021 C 
ENDBRANCH  15  20
ENDBRANCH  11  13
ENDBRANCH   8   9
ENDBRANCH   7   8
BRANCH   6  24
HETATM   24  N3  UNL     1      -6.394  -8.313   4.350  1.00  0.00     0.086 N 
HETATM   25  C8  UNL     1      -7.008  -7.362   5.302  1.00  0.00     0.310 C 
HETATM   26  C9  UNL     1      -7.538  -8.635   3.461  1.00  0.00     0.310 C 
ENDBRANCH   6  24
BRANCH   1  27
HETATM   27  C3  UNL     1      -4.008 -13.306   6.992  1.00  0.00     0.180 C 
BRANCH  27  28
HETATM   28  N1  UNL     1      -3.248 -14.428   6.579  1.00  0.00    -0.348 N 
HETATM   29  C2  UNL     1      -3.269 -15.781   6.730  1.00  0.00     0.214 C 
HETATM   30  C1  UNL     1      -2.203 -16.632   6.055  1.00  0.00     0.117 C 
HETATM   31  O1  UNL     1      -4.083 -16.459   7.376  1.00  0.00    -0.274 OA
ATOM     32  H1  UNL     1      -2.458 -14.139   6.004  1.00  0.00     0.163 HD
ENDBRANCH  27  28
BRANCH  27  33
HETATM   33  C21 UNL     1      -3.620 -12.683   8.310  1.00  0.00     0.009 C 
HETATM   34  C22 UNL     1      -2.510 -13.370   9.039  1.00  0.00     0.012 C 
HETATM   35  C23 UNL     1      -4.871 -12.618   9.208  1.00  0.00     0.012 C 
ENDBRANCH  27  33
ENDBRANCH   1  27
TORSDOF 8
ENDMDL
MODEL 5
REMARK VINA RESULT: -7.554214812      2.968      6.974
REMARK  8 active torsions:
REMARK  status: ('A' for Active; 'I' for Inactive)
REMARK       I    between atoms: C2_2  and  N1_4 
REMARK    1  A    between atoms: N1_4  and  C3_6 
REMARK    2  A    between atoms: C3_6  and  C4_7 
REMARK    3  A    between atoms: C3_6  and  C21_33 
REMARK       I    between atoms: C4_7  and  N2_9 
REMARK    4  A    between atoms: C7_12  and  N3_13 
REMARK    5  A    between atoms: C10_16  and  C11_17 
REMARK    6  A    between atoms: C11_17  and  C12_18 
REMARK       I    between atoms: C12_18  and  N4_20 
REMARK    7  A    between atoms: N4_20  and  C13_22 
REMARK    8  A    between atoms: C15_24  and  C16_25 
ROOT
HETATM    1  C4  UNL     1      -1.509 -13.410   2.947  1.00  0.00     0.243 C 
HETATM    2  O2  UNL     1      -1.338 -12.283   2.441  1.00  0.00    -0.271 OA
HETATM    3  N2  UNL     1      -2.446 -13.621   3.955  1.00  0.00    -0.343 N 
HETATM    4  C5  UNL     1      -2.835 -14.857   4.606  1.00  0.00     0.128 C 
HETATM    5  C6  UNL     1      -4.011 -14.479   5.529  1.00  0.00     0.058 C 
HETATM    6  C7  UNL     1      -3.572 -13.072   5.869  1.00  0.00     0.246 C 
HETATM    7  C10 UNL     1      -3.240 -12.491   4.559  1.00  0.00     0.129 C 
ENDROOT
BRANCH   7   8
HETATM    8  C11 UNL     1      -4.291 -12.233   3.575  1.00  0.00     0.130 C 
BRANCH   8   9
HETATM    9  C12 UNL     1      -4.502 -10.861   3.073  1.00  0.00     0.225 C 
HETATM   10  O3  UNL     1      -5.577 -10.276   3.241  1.00  0.00    -0.273 OA
HETATM   11  N4  UNL     1      -3.464 -10.232   2.408  1.00  0.00    -0.312 N 
ATOM     12  H4  UNL     1      -2.626 -10.168   2.987  1.00  0.00     0.170 HD
BRANCH  11  13
HETATM   13  C13 UNL     1      -3.289  -9.724   1.285  1.00  0.00     0.126 A 
HETATM   14  C14 UNL     1      -2.586 -10.457   0.299  1.00  0.00     0.077 A 
HETATM   15  C15 UNL     1      -2.554  -9.689  -0.832  1.00  0.00     0.037 A 
HETATM   16  N5  UNL     1      -3.198  -8.559  -0.548  1.00  0.00    -0.301 N 
HETATM   17  N6  UNL     1      -3.635  -8.570   0.702  1.00  0.00    -0.281 N 
ATOM     18  H5  UNL     1      -3.336  -7.790  -1.204  1.00  0.00     0.187 HD
HETATM   19  C20 UNL     1      -4.392  -7.511   1.381  1.00  0.00     0.179 C 
BRANCH  15  20
HETATM   20  C16 UNL     1      -1.889 -10.163  -2.084  1.00  0.00    -0.007 C 
HETATM   21  C17 UNL     1      -2.436 -11.550  -2.466  1.00  0.00     0.021 C 
HETATM   22  C18 UNL     1      -2.137  -9.223  -3.215  1.00  0.00     0.021 C 
HETATM   23  C19 UNL     1      -0.406 -10.349  -1.877  1.00  0.00     0.021 C 
ENDBRANCH  15  20
ENDBRANCH  11  13
ENDBRANCH   8   9
ENDBRANCH   7   8
BRANCH   6  24
HETATM   24  N3  UNL     1      -4.380 -12.378   6.781  1.00  0.00     0.086 N 
HETATM   25  C8  UNL     1      -3.856 -12.608   8.145  1.00  0.00     0.310 C 
HETATM   26  C9  UNL     1      -5.690 -13.074   6.837  1.00  0.00     0.310 C 
ENDBRANCH   6  24
BRANCH   1  27
HETATM   27  C3  UNL     1      -0.653 -14.520   2.407  1.00  0.00     0.180 C 
BRANCH  27  28
HETATM   28  N1  UNL     1      -0.578 -14.413   0.997  1.00  0.00    -0.348 N 
HETATM   29  C2  UNL     1      -0.889 -15.161  -0.098  1.00  0.00     0.214 C 
HETATM   30  C1  UNL     1      -0.634 -14.602  -1.490  1.00  0.00     0.117 C 
HETATM   31  O1  UNL     1      -1.380 -16.300  -0.123  1.00  0.00    -0.274 OA
ATOM     32  H1  UNL     1      -0.175 -13.517   0.722  1.00  0.00     0.163 HD
ENDBRANCH  27  28
BRANCH  27  33
HETATM   33  C21 UNL     1       0.658 -14.488   3.152  1.00  0.00     0.009 C 
HETATM   34  C22 UNL     1       1.775 -13.784   2.450  1.00  0.00     0.012 C 
HETATM   35  C23 UNL     1       1.076 -15.938   3.471  1.00  0.00     0.012 C 
ENDBRANCH  27  33
ENDBRANCH   1  27
TORSDOF 8
ENDMDL
