MODEL 1
REMARK VINA RESULT: -4.651022760      0.000      0.000
REMARK  2 active torsions:
REMARK  status: ('A' for Active; 'I' for Inactive)
REMARK       I    between atoms: N1_2  and  C2_4 
REMARK    1  A    between atoms: C2_4  and  C3_6 
REMARK    2  A    between atoms: C3_6  and  N2_7 
ROOT
HETATM    1  N2  UNL     1      27.948   0.803   2.375  1.00  0.00    -0.308 N 
HETATM    2  C4  UNL     1      28.375   0.768   1.124  1.00  0.00     0.147 A 
HETATM    3  S1  UNL     1      27.880  -0.234  -0.087  1.00  0.00    -0.052 SA
HETATM    4  S2  UNL     1      29.550   1.998   1.059  1.00  0.00    -0.053 SA
HETATM    5  C5  UNL     1      29.442   2.520   2.683  1.00  0.00     0.090 A 
HETATM    6  C6  UNL     1      30.087   3.509   3.452  1.00  0.00     0.123 A 
HETATM    7  S3  UNL     1      31.197   4.385   2.658  1.00  0.00    -0.059 SA
HETATM    8  N3  UNL     1      29.778   3.687   4.746  1.00  0.00    -0.323 N 
ATOM      9  H3  UNL     1      30.232   4.398   5.320  1.00  0.00     0.169 HD
HETATM   10  C7  UNL     1      28.832   2.868   5.237  1.00  0.00     0.178 A 
HETATM   11  S4  UNL     1      28.417   3.055   6.841  1.00  0.00    -0.040 SA
HETATM   12  N4  UNL     1      28.210   1.925   4.527  1.00  0.00    -0.318 N 
ATOM     13  H4  UNL     1      27.504   1.351   4.987  1.00  0.00     0.170 HD
HETATM   14  C8  UNL     1      28.482   1.695   3.196  1.00  0.00     0.132 A 
ENDROOT
BRANCH   1  15
HETATM   15  C3  UNL     1      26.888  -0.154   2.814  1.00  0.00     0.234 C 
BRANCH  15  16
HETATM   16  C2  UNL     1      25.571   0.536   2.802  1.00  0.00     0.235 C 
HETATM   17  N1  UNL     1      24.690   0.302   1.727  1.00  0.00    -0.364 N 
HETATM   18  C1  UNL     1      23.410   0.962   1.702  1.00  0.00     0.149 C 
ATOM     19  H1  UNL     1      24.956  -0.331   0.973  1.00  0.00     0.161 HD
HETATM   20  O1  UNL     1      25.277   1.318   3.763  1.00  0.00    -0.272 OA
ENDBRANCH  15  16
ENDBRANCH   1  15
TORSDOF 2
ENDMDL
MODEL 2
REMARK VINA RESULT: -4.241263380      7.975     11.246
REMARK  2 active torsions:
REMARK  status: ('A' for Active; 'I' for Inactive)
REMARK       I    between atoms: N1_2  and  C2_4 
REMARK    1  A    between atoms: C2_4  and  C3_6 
REMARK    2  A    between atoms: C3_6  and  N2_7 
ROOT
HETATM    1  N2  UNL     1      20.983  -4.944   0.406  1.00  0.00    -0.308 N 
HETATM    2  C4  UNL     1      20.740  -4.379  -0.765  1.00  0.00     0.147 A 
HETATM    3  S1  UNL     1      20.504  -2.781  -1.088  1.00  0.00    -0.052 SA
HETATM    4  S2  UNL     1      20.731  -5.687  -1.854  1.00  0.00    -0.053 SA
HETATM    5  C5  UNL     1      21.047  -6.937  -0.732  1.00  0.00     0.090 A 
HETATM    6  C6  UNL     1      21.198  -8.335  -0.821  1.00  0.00     0.123 A 
HETATM    7  S3  UNL     1      21.046  -8.951  -2.314  1.00  0.00    -0.059 SA
HETATM    8  N3  UNL     1      21.449  -9.073   0.271  1.00  0.00    -0.323 N 
ATOM      9  H3  UNL     1      21.562 -10.086   0.229  1.00  0.00     0.169 HD
HETATM   10  C7  UNL     1      21.541  -8.391   1.426  1.00  0.00     0.178 A 
HETATM   11  S4  UNL     1      21.853  -9.269   2.809  1.00  0.00    -0.040 SA
HETATM   12  N4  UNL     1      21.401  -7.068   1.532  1.00  0.00    -0.318 N 
ATOM     13  H4  UNL     1      21.489  -6.639   2.453  1.00  0.00     0.170 HD
HETATM   14  C8  UNL     1      21.143  -6.257   0.449  1.00  0.00     0.132 A 
ENDROOT
BRANCH   1  15
HETATM   15  C3  UNL     1      21.068  -4.087   1.628  1.00  0.00     0.234 C 
BRANCH  15  16
HETATM   16  C2  UNL     1      22.452  -3.560   1.761  1.00  0.00     0.235 C 
HETATM   17  N1  UNL     1      22.647  -2.165   1.808  1.00  0.00    -0.364 N 
HETATM   18  C1  UNL     1      23.982  -1.640   1.937  1.00  0.00     0.149 C 
ATOM     19  H1  UNL     1      21.850  -1.533   1.752  1.00  0.00     0.161 HD
HETATM   20  O1  UNL     1      23.421  -4.384   1.827  1.00  0.00    -0.272 OA
ENDBRANCH  15  16
ENDBRANCH   1  15
TORSDOF 2
ENDMDL
MODEL 3
REMARK VINA RESULT: -4.228012196      9.260     11.653
REMARK  2 active torsions:
REMARK  status: ('A' for Active; 'I' for Inactive)
REMARK       I    between atoms: N1_2  and  C2_4 
REMARK    1  A    between atoms: C2_4  and  C3_6 
REMARK    2  A    between atoms: C3_6  and  N2_7 
ROOT
HETATM    1  N2  UNL     1      21.927  -4.999  -0.392  1.00  0.00    -0.308 N 
HETATM    2  C4  UNL     1      22.164  -4.442   0.785  1.00  0.00     0.147 A 
HETATM    3  S1  UNL     1      22.408  -2.847   1.118  1.00  0.00    -0.052 SA
HETATM    4  S2  UNL     1      22.156  -5.755   1.867  1.00  0.00    -0.053 SA
HETATM    5  C5  UNL     1      21.841  -6.998   0.735  1.00  0.00     0.090 A 
HETATM    6  C6  UNL     1      21.680  -8.395   0.816  1.00  0.00     0.123 A 
HETATM    7  S3  UNL     1      21.815  -9.020   2.307  1.00  0.00    -0.059 SA
HETATM    8  N3  UNL     1      21.433  -9.126  -0.282  1.00  0.00    -0.323 N 
ATOM      9  H3  UNL     1      21.313 -10.138  -0.246  1.00  0.00     0.169 HD
HETATM   10  C7  UNL     1      21.355  -8.437  -1.434  1.00  0.00     0.178 A 
HETATM   11  S4  UNL     1      21.049  -9.305  -2.824  1.00  0.00    -0.040 SA
HETATM   12  N4  UNL     1      21.504  -7.114  -1.532  1.00  0.00    -0.318 N 
ATOM     13  H4  UNL     1      21.427  -6.680  -2.452  1.00  0.00     0.170 HD
HETATM   14  C8  UNL     1      21.759  -6.311  -0.442  1.00  0.00     0.132 A 
ENDROOT
BRANCH   1  15
HETATM   15  C3  UNL     1      21.858  -4.136  -1.610  1.00  0.00     0.234 C 
BRANCH  15  16
HETATM   16  C2  UNL     1      20.483  -3.584  -1.741  1.00  0.00     0.235 C 
HETATM   17  N1  UNL     1      20.311  -2.186  -1.769  1.00  0.00    -0.364 N 
HETATM   18  C1  UNL     1      18.985  -1.637  -1.896  1.00  0.00     0.149 C 
ATOM     19  H1  UNL     1      21.118  -1.567  -1.700  1.00  0.00     0.161 HD
HETATM   20  O1  UNL     1      19.502  -4.392  -1.824  1.00  0.00    -0.272 OA
ENDBRANCH  15  16
ENDBRANCH   1  15
TORSDOF 2
ENDMDL
MODEL 4
REMARK VINA RESULT: -4.165795812      1.628      1.785
REMARK  2 active torsions:
REMARK  status: ('A' for Active; 'I' for Inactive)
REMARK       I    between atoms: N1_2  and  C2_4 
REMARK    1  A    between atoms: C2_4  and  C3_6 
REMARK    2  A    between atoms: C3_6  and  N2_7 
ROOT
HETATM    1  N2  UNL     1      27.025   2.521   2.447  1.00  0.00    -0.308 N 
HETATM    2  C4  UNL     1      27.306   2.927   1.219  1.00  0.00     0.147 A 
HETATM    3  S1  UNL     1      26.426   2.688  -0.153  1.00  0.00    -0.052 SA
HETATM    4  S2  UNL     1      28.784   3.753   1.392  1.00  0.00    -0.053 SA
HETATM    5  C5  UNL     1      28.986   3.537   3.076  1.00  0.00     0.090 A 
HETATM    6  C6  UNL     1      29.965   3.919   4.014  1.00  0.00     0.123 A 
HETATM    7  S3  UNL     1      31.210   4.763   3.408  1.00  0.00    -0.059 SA
HETATM    8  N3  UNL     1      29.843   3.591   5.310  1.00  0.00    -0.323 N 
ATOM      9  H3  UNL     1      30.539   3.858   6.006  1.00  0.00     0.169 HD
HETATM   10  C7  UNL     1      28.743   2.888   5.632  1.00  0.00     0.178 A 
HETATM   11  S4  UNL     1      28.552   2.459   7.232  1.00  0.00    -0.040 SA
HETATM   12  N4  UNL     1      27.805   2.515   4.759  1.00  0.00    -0.318 N 
ATOM     13  H4  UNL     1      27.005   1.983   5.098  1.00  0.00     0.170 HD
HETATM   14  C8  UNL     1      27.874   2.821   3.417  1.00  0.00     0.132 A 
ENDROOT
BRANCH   1  15
HETATM   15  C3  UNL     1      25.771   1.746   2.691  1.00  0.00     0.234 C 
BRANCH  15  16
HETATM   16  C2  UNL     1      26.047   0.297   2.507  1.00  0.00     0.235 C 
HETATM   17  N1  UNL     1      25.270  -0.432   1.585  1.00  0.00    -0.364 N 
HETATM   18  C1  UNL     1      25.526  -1.836   1.395  1.00  0.00     0.149 C 
ATOM     19  H1  UNL     1      24.531   0.031   1.056  1.00  0.00     0.161 HD
HETATM   20  O1  UNL     1      26.979  -0.244   3.187  1.00  0.00    -0.272 OA
ENDBRANCH  15  16
ENDBRANCH   1  15
TORSDOF 2
ENDMDL
MODEL 5
REMARK VINA RESULT: -4.163830499      8.380      9.879
REMARK  2 active torsions:
REMARK  status: ('A' for Active; 'I' for Inactive)
REMARK       I    between atoms: N1_2  and  C2_4 
REMARK    1  A    between atoms: C2_4  and  C3_6 
REMARK    2  A    between atoms: C3_6  and  N2_7 
ROOT
HETATM    1  N2  UNL     1      20.407  -1.349  -1.147  1.00  0.00    -0.308 N 
HETATM    2  C4  UNL     1      20.791  -0.162  -0.706  1.00  0.00     0.147 A 
HETATM    3  S1  UNL     1      20.291   1.321  -1.222  1.00  0.00    -0.052 SA
HETATM    4  S2  UNL     1      21.918  -0.527   0.516  1.00  0.00    -0.053 SA
HETATM    5  C5  UNL     1      21.848  -2.232   0.407  1.00  0.00     0.090 A 
HETATM    6  C6  UNL     1      22.483  -3.295   1.079  1.00  0.00     0.123 A 
HETATM    7  S3  UNL     1      23.533  -2.853   2.232  1.00  0.00    -0.059 SA
HETATM    8  N3  UNL     1      22.213  -4.571   0.761  1.00  0.00    -0.323 N 
ATOM      9  H3  UNL     1      22.661  -5.355   1.234  1.00  0.00     0.169 HD
HETATM   10  C7  UNL     1      21.314  -4.748  -0.223  1.00  0.00     0.178 A 
HETATM   11  S4  UNL     1      20.949  -6.318  -0.651  1.00  0.00    -0.040 SA
HETATM   12  N4  UNL     1      20.702  -3.755  -0.872  1.00  0.00    -0.318 N 
ATOM     13  H4  UNL     1      20.034  -3.989  -1.605  1.00  0.00     0.170 HD
HETATM   14  C8  UNL     1      20.937  -2.427  -0.591  1.00  0.00     0.132 A 
ENDROOT
BRANCH   1  15
HETATM   15  C3  UNL     1      19.397  -1.429  -2.246  1.00  0.00     0.234 C 
BRANCH  15  16
HETATM   16  C2  UNL     1      18.062  -1.728  -1.663  1.00  0.00     0.235 C 
HETATM   17  N1  UNL     1      17.216  -0.657  -1.314  1.00  0.00    -0.364 N 
HETATM   18  C1  UNL     1      15.920  -0.931  -0.749  1.00  0.00     0.149 C 
ATOM     19  H1  UNL     1      17.519   0.306  -1.460  1.00  0.00     0.161 HD
HETATM   20  O1  UNL     1      17.723  -2.944  -1.495  1.00  0.00    -0.272 OA
ENDBRANCH  15  16
ENDBRANCH   1  15
TORSDOF 2
ENDMDL
