MODEL 1
REMARK VINA RESULT: -5.574154083      0.000      0.000
REMARK  3 active torsions:
REMARK  status: ('A' for Active; 'I' for Inactive)
REMARK    1  A    between atoms: C2_2  and  N1_4 
REMARK    2  A    between atoms: N1_4  and  N2_5 
REMARK    3  A    between atoms: N2_5  and  C4_7 
ROOT
HETATM    1  C4  UNL     1      28.946   2.186   3.989  1.00  0.00     0.153 C 
HETATM    2  N3  UNL     1      27.936   1.421   3.827  1.00  0.00    -0.349 N 
ATOM      3  H3  UNL     1      27.586   0.948   4.661  1.00  0.00     0.163 HD
HETATM    4  C5  UNL     1      27.220   1.146   2.568  1.00  0.00     0.186 C 
HETATM    5  C6  UNL     1      26.334   0.005   2.875  1.00  0.00     0.055 C 
HETATM    6  C7  UNL     1      25.332  -0.384   1.855  1.00  0.00    -0.042 C 
HETATM    7  C8  UNL     1      24.016  -0.809   2.503  1.00  0.00     0.015 C 
HETATM    8  C9  UNL     1      25.788  -1.621   1.063  1.00  0.00     0.015 C 
HETATM    9  C10 UNL     1      25.156   0.713   0.875  1.00  0.00     0.039 C 
HETATM   10  C11 UNL     1      25.343   2.112   1.481  1.00  0.00     0.027 C 
HETATM   11  C12 UNL     1      24.921   3.020   0.340  1.00  0.00     0.038 C 
HETATM   12  C13 UNL     1      24.278   2.357   2.550  1.00  0.00     0.038 C 
HETATM   13  N4  UNL     1      26.663   2.307   1.975  1.00  0.00    -0.363 N 
HETATM   14  C14 UNL     1      27.506   3.042   1.123  1.00  0.00     0.071 C 
HETATM   15  C15 UNL     1      28.498   3.967   1.788  1.00  0.00     0.126 C 
HETATM   16  S1  UNL     1      29.775   3.139   2.735  1.00  0.00    -0.088 SA
ENDROOT
BRANCH   1  17
HETATM   17  N2  UNL     1      29.504   2.329   5.274  1.00  0.00    -0.284 N 
ATOM     18  H2  UNL     1      30.427   2.748   5.387  1.00  0.00     0.184 HD
BRANCH  17  19
HETATM   19  N1  UNL     1      28.805   1.905   6.376  1.00  0.00    -0.135 NA
BRANCH  19  20
HETATM   20  C2  UNL     1      28.284   2.973   7.192  1.00  0.00     0.091 C 
HETATM   21  C1  UNL     1      27.880   2.541   8.558  1.00  0.00     0.029 C 
HETATM   22  C3  UNL     1      27.111   3.659   6.526  1.00  0.00     0.029 C 
ENDBRANCH  19  20
ENDBRANCH  17  19
ENDBRANCH   1  17
TORSDOF 3
ENDMDL
MODEL 2
REMARK VINA RESULT: -5.464539026      1.917      5.973
REMARK  3 active torsions:
REMARK  status: ('A' for Active; 'I' for Inactive)
REMARK    1  A    between atoms: C2_2  and  N1_4 
REMARK    2  A    between atoms: N1_4  and  N2_5 
REMARK    3  A    between atoms: N2_5  and  C4_7 
ROOT
HETATM    1  C4  UNL     1      25.586   2.127   2.885  1.00  0.00     0.153 C 
HETATM    2  N3  UNL     1      25.840   2.154   4.136  1.00  0.00    -0.349 N 
ATOM      3  H3  UNL     1      25.517   1.356   4.683  1.00  0.00     0.163 HD
HETATM    4  C5  UNL     1      26.548   3.214   4.877  1.00  0.00     0.186 C 
HETATM    5  C6  UNL     1      26.327   2.896   6.302  1.00  0.00     0.055 C 
HETATM    6  C7  UNL     1      27.085   3.674   7.309  1.00  0.00    -0.042 C 
HETATM    7  C8  UNL     1      27.522   2.794   8.478  1.00  0.00     0.015 C 
HETATM    8  C9  UNL     1      26.210   4.763   7.953  1.00  0.00     0.015 C 
HETATM    9  C10 UNL     1      28.223   4.366   6.660  1.00  0.00     0.039 C 
HETATM   10  C11 UNL     1      28.815   3.591   5.473  1.00  0.00     0.027 C 
HETATM   11  C12 UNL     1      30.051   4.405   5.136  1.00  0.00     0.038 C 
HETATM   12  C13 UNL     1      29.383   2.258   5.959  1.00  0.00     0.038 C 
HETATM   13  N4  UNL     1      27.872   3.428   4.419  1.00  0.00    -0.363 N 
HETATM   14  C14 UNL     1      28.028   4.325   3.348  1.00  0.00     0.071 C 
HETATM   15  C15 UNL     1      27.735   3.787   1.968  1.00  0.00     0.126 C 
HETATM   16  S1  UNL     1      26.017   3.363   1.679  1.00  0.00    -0.088 SA
ENDROOT
BRANCH   1  17
HETATM   17  N2  UNL     1      24.893   1.024   2.346  1.00  0.00    -0.284 N 
ATOM     18  H2  UNL     1      24.068   0.658   2.821  1.00  0.00     0.184 HD
BRANCH  17  19
HETATM   19  N1  UNL     1      25.329   0.443   1.183  1.00  0.00    -0.135 NA
BRANCH  19  20
HETATM   20  C2  UNL     1      26.277  -0.627   1.376  1.00  0.00     0.091 C 
HETATM   21  C1  UNL     1      27.493  -0.511   0.525  1.00  0.00     0.029 C 
HETATM   22  C3  UNL     1      25.641  -1.980   1.145  1.00  0.00     0.029 C 
ENDBRANCH  19  20
ENDBRANCH  17  19
ENDBRANCH   1  17
TORSDOF 3
ENDMDL
MODEL 3
REMARK VINA RESULT: -5.395528487      2.224      2.757
REMARK  3 active torsions:
REMARK  status: ('A' for Active; 'I' for Inactive)
REMARK    1  A    between atoms: C2_2  and  N1_4 
REMARK    2  A    between atoms: N1_4  and  N2_5 
REMARK    3  A    between atoms: N2_5  and  C4_7 
ROOT
HETATM    1  C4  UNL     1      25.810   3.251   5.050  1.00  0.00     0.153 C 
HETATM    2  N3  UNL     1      25.984   2.125   4.472  1.00  0.00    -0.349 N 
ATOM      3  H3  UNL     1      26.315   1.359   5.059  1.00  0.00     0.163 HD
HETATM    4  C5  UNL     1      25.760   1.812   3.049  1.00  0.00     0.186 C 
HETATM    5  C6  UNL     1      26.367   0.481   2.851  1.00  0.00     0.055 C 
HETATM    6  C7  UNL     1      26.131  -0.200   1.556  1.00  0.00    -0.042 C 
HETATM    7  C8  UNL     1      25.942  -1.704   1.746  1.00  0.00     0.015 C 
HETATM    8  C9  UNL     1      27.351  -0.079   0.628  1.00  0.00     0.015 C 
HETATM    9  C10 UNL     1      24.991   0.433   0.854  1.00  0.00     0.039 C 
HETATM   10  C11 UNL     1      23.916   0.985   1.802  1.00  0.00     0.027 C 
HETATM   11  C12 UNL     1      22.809   1.382   0.843  1.00  0.00     0.038 C 
HETATM   12  C13 UNL     1      23.303  -0.160   2.607  1.00  0.00     0.038 C 
HETATM   13  N4  UNL     1      24.421   2.024   2.633  1.00  0.00    -0.363 N 
HETATM   14  C14 UNL     1      24.094   3.325   2.210  1.00  0.00     0.071 C 
HETATM   15  C15 UNL     1      23.822   4.339   3.296  1.00  0.00     0.126 C 
HETATM   16  S1  UNL     1      25.246   4.762   4.299  1.00  0.00    -0.088 SA
ENDROOT
BRANCH   1  17
HETATM   17  N2  UNL     1      26.077   3.366   6.429  1.00  0.00    -0.284 N 
ATOM     18  H2  UNL     1      25.537   2.820   7.101  1.00  0.00     0.184 HD
BRANCH  17  19
HETATM   19  N1  UNL     1      27.064   4.212   6.868  1.00  0.00    -0.135 NA
BRANCH  19  20
HETATM   20  C2  UNL     1      28.217   3.541   7.414  1.00  0.00     0.091 C 
HETATM   21  C1  UNL     1      29.001   2.777   6.405  1.00  0.00     0.029 C 
HETATM   22  C3  UNL     1      27.835   2.613   8.546  1.00  0.00     0.029 C 
ENDBRANCH  19  20
ENDBRANCH  17  19
ENDBRANCH   1  17
TORSDOF 3
ENDMDL
MODEL 4
REMARK VINA RESULT: -5.387797597      5.169      7.718
REMARK  3 active torsions:
REMARK  status: ('A' for Active; 'I' for Inactive)
REMARK    1  A    between atoms: C2_2  and  N1_4 
REMARK    2  A    between atoms: N1_4  and  N2_5 
REMARK    3  A    between atoms: N2_5  and  C4_7 
ROOT
HETATM    1  C4  UNL     1      23.229  -1.240   1.576  1.00  0.00     0.153 C 
HETATM    2  N3  UNL     1      22.480  -1.378   0.550  1.00  0.00    -0.349 N 
ATOM      3  H3  UNL     1      22.538  -0.645  -0.157  1.00  0.00     0.163 HD
HETATM    4  C5  UNL     1      21.539  -2.479   0.276  1.00  0.00     0.186 C 
HETATM    5  C6  UNL     1      20.739  -2.020  -0.876  1.00  0.00     0.055 C 
HETATM    6  C7  UNL     1      19.829  -2.997  -1.518  1.00  0.00    -0.042 C 
HETATM    7  C8  UNL     1      19.804  -2.820  -3.035  1.00  0.00     0.015 C 
HETATM    8  C9  UNL     1      18.370  -2.778  -1.081  1.00  0.00     0.015 C 
HETATM    9  C10 UNL     1      20.197  -4.373  -1.112  1.00  0.00     0.039 C 
HETATM   10  C11 UNL     1      21.702  -4.556  -0.863  1.00  0.00     0.027 C 
HETATM   11  C12 UNL     1      21.819  -6.057  -0.665  1.00  0.00     0.038 C 
HETATM   12  C13 UNL     1      22.473  -4.302  -2.159  1.00  0.00     0.038 C 
HETATM   13  N4  UNL     1      22.167  -3.749   0.213  1.00  0.00    -0.363 N 
HETATM   14  C14 UNL     1      22.327  -4.431   1.432  1.00  0.00     0.071 C 
HETATM   15  C15 UNL     1      23.487  -4.002   2.298  1.00  0.00     0.126 C 
HETATM   16  S1  UNL     1      23.349  -2.344   2.967  1.00  0.00    -0.088 SA
ENDROOT
BRANCH   1  17
HETATM   17  N2  UNL     1      24.071  -0.114   1.668  1.00  0.00    -0.284 N 
ATOM     18  H2  UNL     1      23.852   0.634   2.326  1.00  0.00     0.184 HD
BRANCH  17  19
HETATM   19  N1  UNL     1      25.185  -0.024   0.874  1.00  0.00    -0.135 NA
BRANCH  19  20
HETATM   20  C2  UNL     1      26.330  -0.743   1.377  1.00  0.00     0.091 C 
HETATM   21  C1  UNL     1      26.817  -0.248   2.693  1.00  0.00     0.029 C 
HETATM   22  C3  UNL     1      27.475  -0.723   0.388  1.00  0.00     0.029 C 
ENDBRANCH  19  20
ENDBRANCH  17  19
ENDBRANCH   1  17
TORSDOF 3
ENDMDL
MODEL 5
REMARK VINA RESULT: -5.370247777      7.431     10.305
REMARK  3 active torsions:
REMARK  status: ('A' for Active; 'I' for Inactive)
REMARK    1  A    between atoms: C2_2  and  N1_4 
REMARK    2  A    between atoms: N1_4  and  N2_5 
REMARK    3  A    between atoms: N2_5  and  C4_7 
ROOT
HETATM    1  C4  UNL     1      19.659  -1.139  -1.548  1.00  0.00     0.153 C 
HETATM    2  N3  UNL     1      20.410  -1.302  -0.528  1.00  0.00    -0.349 N 
ATOM      3  H3  UNL     1      20.357  -0.584   0.195  1.00  0.00     0.163 HD
HETATM    4  C5  UNL     1      21.345  -2.415  -0.280  1.00  0.00     0.186 C 
HETATM    5  C6  UNL     1      22.151  -1.985   0.879  1.00  0.00     0.055 C 
HETATM    6  C7  UNL     1      23.057  -2.981   1.497  1.00  0.00    -0.042 C 
HETATM    7  C8  UNL     1      23.088  -2.836   3.017  1.00  0.00     0.015 C 
HETATM    8  C9  UNL     1      24.516  -2.761   1.060  1.00  0.00     0.015 C 
HETATM    9  C10 UNL     1      22.679  -4.345   1.062  1.00  0.00     0.039 C 
HETATM   10  C11 UNL     1      21.173  -4.515   0.815  1.00  0.00     0.027 C 
HETATM   11  C12 UNL     1      21.047  -6.010   0.585  1.00  0.00     0.038 C 
HETATM   12  C13 UNL     1      20.407  -4.284   2.118  1.00  0.00     0.038 C 
HETATM   13  N4  UNL     1      20.710  -3.682  -0.242  1.00  0.00    -0.363 N 
HETATM   14  C14 UNL     1      20.542  -4.337  -1.475  1.00  0.00     0.071 C 
HETATM   15  C15 UNL     1      19.382  -3.883  -2.329  1.00  0.00     0.126 C 
HETATM   16  S1  UNL     1      19.528  -2.212  -2.962  1.00  0.00    -0.088 SA
ENDROOT
BRANCH   1  17
HETATM   17  N2  UNL     1      18.823  -0.006  -1.614  1.00  0.00    -0.284 N 
ATOM     18  H2  UNL     1      19.067   0.774  -2.224  1.00  0.00     0.184 HD
BRANCH  17  19
HETATM   19  N1  UNL     1      17.680   0.048  -0.857  1.00  0.00    -0.135 NA
BRANCH  19  20
HETATM   20  C2  UNL     1      16.579  -0.712  -1.395  1.00  0.00     0.091 C 
HETATM   21  C1  UNL     1      16.071  -0.194  -2.695  1.00  0.00     0.029 C 
HETATM   22  C3  UNL     1      15.430  -0.793  -0.414  1.00  0.00     0.029 C 
ENDBRANCH  19  20
ENDBRANCH  17  19
ENDBRANCH   1  17
TORSDOF 3
ENDMDL
