MODEL 1
REMARK VINA RESULT: -6.619739215      0.000      0.000
REMARK  3 active torsions:
REMARK  status: ('A' for Active; 'I' for Inactive)
REMARK    1  A    between atoms: C4_4  and  N1_5 
REMARK    2  A    between atoms: N3_14  and  C8_15 
REMARK    3  A    between atoms: C8_15  and  C9_16 
ROOT
HETATM    1  C1  UNL     1      21.143  -9.913  -1.669  1.00  0.00     0.032 C 
HETATM    2  C2  UNL     1      21.939  -9.072  -0.662  1.00  0.00     0.081 C 
HETATM    3  C3  UNL     1      20.939  -8.582   0.357  1.00  0.00     0.062 C 
HETATM    4  C4  UNL     1      21.355  -7.322   1.042  1.00  0.00     0.225 C 
HETATM    5  C5  UNL     1      21.585  -6.270   0.027  1.00  0.00     0.054 A 
HETATM    6  C6  UNL     1      22.181  -6.646  -1.157  1.00  0.00     0.113 A 
HETATM    7  N2  UNL     1      22.396  -5.704  -2.084  1.00  0.00    -0.338 N 
ATOM      8  H2  UNL     1      22.837  -5.956  -2.968  1.00  0.00     0.168 HD
HETATM    9  C7  UNL     1      22.033  -4.425  -1.860  1.00  0.00     0.185 A 
HETATM   10  N3  UNL     1      21.450  -4.026  -0.718  1.00  0.00    -0.333 N 
HETATM   11  C15 UNL     1      21.226  -4.958   0.227  1.00  0.00     0.116 A 
HETATM   12  S1  UNL     1      20.511  -4.546   1.663  1.00  0.00    -0.059 SA
HETATM   13  N4  UNL     1      22.565  -8.016  -1.389  1.00  0.00    -0.371 N 
ATOM     14  H4  UNL     1      23.287  -8.232  -2.076  1.00  0.00     0.161 HD
ENDROOT
BRANCH  10  15
HETATM   15  C8  UNL     1      21.064  -2.668  -0.482  1.00  0.00     0.135 C 
BRANCH  15  16
HETATM   16  C9  UNL     1      20.033  -2.138  -1.452  1.00  0.00     0.004 C 
HETATM   17  C10 UNL     1      20.165  -0.635  -1.454  1.00  0.00     0.006 C 
HETATM   18  C11 UNL     1      18.828   0.038  -1.195  1.00  0.00     0.000 C 
HETATM   19  C12 UNL     1      17.924  -0.500  -2.291  1.00  0.00     0.000 C 
HETATM   20  C13 UNL     1      17.546  -1.894  -1.847  1.00  0.00     0.000 C 
HETATM   21  C14 UNL     1      18.662  -2.643  -1.198  1.00  0.00     0.006 C 
ENDBRANCH  15  16
ENDBRANCH  10  15
BRANCH   4  22
HETATM   22  N1  UNL     1      22.610  -7.512   1.762  1.00  0.00    -0.071 N 
ATOM     23  H13 UNL     1      22.863  -8.499   1.826  1.00  0.00     0.275 HD
ATOM     24  H12 UNL     1      23.410  -7.183   1.220  1.00  0.00     0.275 HD
ATOM     25  H11 UNL     1      22.571  -7.072   2.681  1.00  0.00     0.275 HD
ENDBRANCH   4  22
TORSDOF 3
ENDMDL
MODEL 2
REMARK VINA RESULT: -6.511396001      2.712      4.181
REMARK  3 active torsions:
REMARK  status: ('A' for Active; 'I' for Inactive)
REMARK    1  A    between atoms: C4_4  and  N1_5 
REMARK    2  A    between atoms: N3_14  and  C8_15 
REMARK    3  A    between atoms: C8_15  and  C9_16 
ROOT
HETATM    1  C1  UNL     1      21.888 -10.062   1.490  1.00  0.00     0.032 C 
HETATM    2  C2  UNL     1      21.052  -9.224   0.513  1.00  0.00     0.081 C 
HETATM    3  C3  UNL     1      22.020  -8.684  -0.512  1.00  0.00     0.062 C 
HETATM    4  C4  UNL     1      21.558  -7.423  -1.163  1.00  0.00     0.225 C 
HETATM    5  C5  UNL     1      21.315  -6.399  -0.123  1.00  0.00     0.054 A 
HETATM    6  C6  UNL     1      20.749  -6.816   1.062  1.00  0.00     0.113 A 
HETATM    7  N2  UNL     1      20.523  -5.900   2.012  1.00  0.00    -0.338 N 
ATOM      8  H2  UNL     1      20.104  -6.183   2.898  1.00  0.00     0.168 HD
HETATM    9  C7  UNL     1      20.845  -4.606   1.808  1.00  0.00     0.185 A 
HETATM   10  N3  UNL     1      21.398  -4.168   0.666  1.00  0.00    -0.333 N 
HETATM   11  C15 UNL     1      21.632  -5.073  -0.301  1.00  0.00     0.116 A 
HETATM   12  S1  UNL     1      22.311  -4.612  -1.740  1.00  0.00    -0.059 SA
HETATM   13  N4  UNL     1      20.408  -8.201   1.272  1.00  0.00    -0.371 N 
ATOM     14  H4  UNL     1      19.704  -8.451   1.966  1.00  0.00     0.161 HD
ENDROOT
BRANCH  10  15
HETATM   15  C8  UNL     1      21.741  -2.795   0.453  1.00  0.00     0.135 C 
BRANCH  15  16
HETATM   16  C9  UNL     1      22.800  -2.265   1.392  1.00  0.00     0.004 C 
HETATM   17  C10 UNL     1      22.638  -0.766   1.434  1.00  0.00     0.006 C 
HETATM   18  C11 UNL     1      23.952  -0.061   1.138  1.00  0.00     0.000 C 
HETATM   19  C12 UNL     1      24.909  -0.604   2.184  1.00  0.00     0.000 C 
HETATM   20  C13 UNL     1      25.295  -1.981   1.693  1.00  0.00     0.000 C 
HETATM   21  C14 UNL     1      24.168  -2.737   1.073  1.00  0.00     0.006 C 
ENDBRANCH  15  16
ENDBRANCH  10  15
BRANCH   4  22
HETATM   22  N1  UNL     1      20.296  -7.635  -1.867  1.00  0.00    -0.071 N 
ATOM     23  H13 UNL     1      19.899  -8.552  -1.662  1.00  0.00     0.275 HD
ATOM     24  H12 UNL     1      19.549  -7.054  -1.485  1.00  0.00     0.275 HD
ATOM     25  H11 UNL     1      20.412  -7.489  -2.870  1.00  0.00     0.275 HD
ENDBRANCH   4  22
TORSDOF 3
ENDMDL
MODEL 3
REMARK VINA RESULT: -6.244758401      2.357      3.630
REMARK  3 active torsions:
REMARK  status: ('A' for Active; 'I' for Inactive)
REMARK    1  A    between atoms: C4_4  and  N1_5 
REMARK    2  A    between atoms: N3_14  and  C8_15 
REMARK    3  A    between atoms: C8_15  and  C9_16 
ROOT
HETATM    1  C1  UNL     1      20.782  -9.487  -3.066  1.00  0.00     0.032 C 
HETATM    2  C2  UNL     1      21.644  -9.135  -1.846  1.00  0.00     0.081 C 
HETATM    3  C3  UNL     1      20.679  -8.853  -0.720  1.00  0.00     0.062 C 
HETATM    4  C4  UNL     1      21.237  -7.950   0.331  1.00  0.00     0.225 C 
HETATM    5  C5  UNL     1      21.655  -6.676  -0.295  1.00  0.00     0.054 A 
HETATM    6  C6  UNL     1      22.244  -6.740  -1.539  1.00  0.00     0.113 A 
HETATM    7  N2  UNL     1      22.627  -5.594  -2.116  1.00  0.00    -0.338 N 
ATOM      8  H2  UNL     1      23.067  -5.614  -3.037  1.00  0.00     0.168 HD
HETATM    9  C7  UNL     1      22.438  -4.414  -1.492  1.00  0.00     0.185 A 
HETATM   10  N3  UNL     1      21.867  -4.318  -0.280  1.00  0.00    -0.333 N 
HETATM   11  C15 UNL     1      21.475  -5.457   0.317  1.00  0.00     0.116 A 
HETATM   12  S1  UNL     1      20.763  -5.423   1.812  1.00  0.00    -0.059 SA
HETATM   13  N4  UNL     1      22.442  -8.006  -2.199  1.00  0.00    -0.371 N 
ATOM     14  H4  UNL     1      23.156  -8.095  -2.922  1.00  0.00     0.161 HD
ENDROOT
BRANCH  10  15
HETATM   15  C8  UNL     1      21.665  -3.063   0.379  1.00  0.00     0.135 C 
BRANCH  15  16
HETATM   16  C9  UNL     1      22.937  -2.291   0.650  1.00  0.00     0.004 C 
HETATM   17  C10 UNL     1      23.919  -3.264   1.255  1.00  0.00     0.006 C 
HETATM   18  C11 UNL     1      24.488  -2.734   2.560  1.00  0.00     0.000 C 
HETATM   19  C12 UNL     1      25.100  -1.397   2.183  1.00  0.00     0.000 C 
HETATM   20  C13 UNL     1      23.934  -0.444   2.062  1.00  0.00     0.000 C 
HETATM   21  C14 UNL     1      22.724  -1.051   1.434  1.00  0.00     0.006 C 
ENDBRANCH  15  16
ENDBRANCH  10  15
BRANCH   4  22
HETATM   22  N1  UNL     1      22.421  -8.541   0.947  1.00  0.00    -0.071 N 
ATOM     23  H13 UNL     1      22.563  -9.505   0.645  1.00  0.00     0.275 HD
ATOM     24  H12 UNL     1      23.281  -8.135   0.577  1.00  0.00     0.275 HD
ATOM     25  H11 UNL     1      22.377  -8.466   1.963  1.00  0.00     0.275 HD
ENDBRANCH   4  22
TORSDOF 3
ENDMDL
MODEL 4
REMARK VINA RESULT: -6.212540839      1.752      2.763
REMARK  3 active torsions:
REMARK  status: ('A' for Active; 'I' for Inactive)
REMARK    1  A    between atoms: C4_4  and  N1_5 
REMARK    2  A    between atoms: N3_14  and  C8_15 
REMARK    3  A    between atoms: C8_15  and  C9_16 
ROOT
HETATM    1  C1  UNL     1      21.888  -9.486   2.950  1.00  0.00     0.032 C 
HETATM    2  C2  UNL     1      21.125  -9.061   1.687  1.00  0.00     0.081 C 
HETATM    3  C3  UNL     1      22.174  -8.816   0.628  1.00  0.00     0.062 C 
HETATM    4  C4  UNL     1      21.736  -7.862  -0.434  1.00  0.00     0.225 C 
HETATM    5  C5  UNL     1      21.354  -6.577   0.193  1.00  0.00     0.054 A 
HETATM    6  C6  UNL     1      20.685  -6.629   1.396  1.00  0.00     0.113 A 
HETATM    7  N2  UNL     1      20.333  -5.474   1.974  1.00  0.00    -0.338 N 
ATOM      8  H2  UNL     1      19.837  -5.486   2.865  1.00  0.00     0.168 HD
HETATM    9  C7  UNL     1      20.629  -4.295   1.390  1.00  0.00     0.185 A 
HETATM   10  N3  UNL     1      21.279  -4.211   0.218  1.00  0.00    -0.333 N 
HETATM   11  C15 UNL     1      21.642  -5.360  -0.379  1.00  0.00     0.116 A 
HETATM   12  S1  UNL     1      22.447  -5.340  -1.826  1.00  0.00    -0.059 SA
HETATM   13  N4  UNL     1      20.373  -7.894   2.015  1.00  0.00    -0.371 N 
ATOM     14  H4  UNL     1      19.611  -7.954   2.690  1.00  0.00     0.161 HD
ENDROOT
BRANCH  10  15
HETATM   15  C8  UNL     1      21.594  -2.959  -0.400  1.00  0.00     0.135 C 
BRANCH  15  16
HETATM   16  C9  UNL     1      20.391  -2.094  -0.703  1.00  0.00     0.004 C 
HETATM   17  C10 UNL     1      19.818  -2.585  -2.009  1.00  0.00     0.006 C 
HETATM   18  C11 UNL     1      19.651  -1.447  -3.002  1.00  0.00     0.000 C 
HETATM   19  C12 UNL     1      18.763  -0.451  -2.277  1.00  0.00     0.000 C 
HETATM   20  C13 UNL     1      19.673   0.257  -1.299  1.00  0.00     0.000 C 
HETATM   21  C14 UNL     1      20.676  -0.640  -0.654  1.00  0.00     0.006 C 
ENDBRANCH  15  16
ENDBRANCH  10  15
BRANCH   4  22
HETATM   22  N1  UNL     1      20.561  -8.370  -1.135  1.00  0.00    -0.071 N 
ATOM     23  H13 UNL     1      19.709  -8.236  -0.590  1.00  0.00     0.275 HD
ATOM     24  H12 UNL     1      20.321  -7.790  -1.940  1.00  0.00     0.275 HD
ATOM     25  H11 UNL     1      20.690  -9.347  -1.399  1.00  0.00     0.275 HD
ENDBRANCH   4  22
TORSDOF 3
ENDMDL
MODEL 5
REMARK VINA RESULT: -6.081340616      1.826      2.650
REMARK  3 active torsions:
REMARK  status: ('A' for Active; 'I' for Inactive)
REMARK    1  A    between atoms: C4_4  and  N1_5 
REMARK    2  A    between atoms: N3_14  and  C8_15 
REMARK    3  A    between atoms: C8_15  and  C9_16 
ROOT
HETATM    1  C1  UNL     1      22.045  -9.517   3.153  1.00  0.00     0.032 C 
HETATM    2  C2  UNL     1      21.277  -9.278   1.846  1.00  0.00     0.081 C 
HETATM    3  C3  UNL     1      22.323  -9.145   0.765  1.00  0.00     0.062 C 
HETATM    4  C4  UNL     1      21.865  -8.348  -0.412  1.00  0.00     0.225 C 
HETATM    5  C5  UNL     1      21.447  -7.003   0.043  1.00  0.00     0.054 A 
HETATM    6  C6  UNL     1      20.776  -6.917   1.243  1.00  0.00     0.113 A 
HETATM    7  N2  UNL     1      20.392  -5.706   1.667  1.00  0.00    -0.338 N 
ATOM      8  H2  UNL     1      19.893  -5.616   2.552  1.00  0.00     0.168 HD
HETATM    9  C7  UNL     1      20.660  -4.606   0.936  1.00  0.00     0.185 A 
HETATM   10  N3  UNL     1      21.312  -4.656  -0.237  1.00  0.00    -0.333 N 
HETATM   11  C15 UNL     1      21.706  -5.863  -0.681  1.00  0.00     0.116 A 
HETATM   12  S1  UNL     1      22.515  -6.010  -2.118  1.00  0.00    -0.059 SA
HETATM   13  N4  UNL     1      20.494  -8.099   2.020  1.00  0.00    -0.371 N 
ATOM     14  H4  UNL     1      19.732  -8.091   2.697  1.00  0.00     0.161 HD
ENDROOT
BRANCH  10  15
HETATM   15  C8  UNL     1      21.597  -3.487  -1.011  1.00  0.00     0.135 C 
BRANCH  15  16
HETATM   16  C9  UNL     1      20.451  -3.021  -1.880  1.00  0.00     0.004 C 
HETATM   17  C10 UNL     1      20.026  -1.671  -1.358  1.00  0.00     0.006 C 
HETATM   18  C11 UNL     1      18.533  -1.632  -1.078  1.00  0.00     0.000 C 
HETATM   19  C12 UNL     1      17.897  -2.005  -2.405  1.00  0.00     0.000 C 
HETATM   20  C13 UNL     1      18.050  -3.505  -2.513  1.00  0.00     0.000 C 
HETATM   21  C14 UNL     1      19.357  -4.014  -2.005  1.00  0.00     0.006 C 
ENDBRANCH  15  16
ENDBRANCH  10  15
BRANCH   4  22
HETATM   22  N1  UNL     1      20.705  -8.973  -1.042  1.00  0.00    -0.071 N 
ATOM     23  H13 UNL     1      20.242  -9.629  -0.413  1.00  0.00     0.275 HD
ATOM     24  H12 UNL     1      19.940  -8.310  -1.165  1.00  0.00     0.275 HD
ATOM     25  H11 UNL     1      20.966  -9.415  -1.924  1.00  0.00     0.275 HD
ENDBRANCH   4  22
TORSDOF 3
ENDMDL
