MODEL 1
REMARK VINA RESULT: -5.323054338      0.000      0.000
REMARK  4 active torsions:
REMARK  status: ('A' for Active; 'I' for Inactive)
REMARK    1  A    between atoms: C2_2  and  C10_23 
REMARK    2  A    between atoms: N1_3  and  N2_5 
REMARK    3  A    between atoms: C3_6  and  C4_7 
REMARK    4  A    between atoms: C5_9  and  N3_10 
ROOT
HETATM    1  N2  UNL     1      20.914  -6.452   1.462  1.00  0.00    -0.216 N 
HETATM    2  C3  UNL     1      20.349  -5.225   1.681  1.00  0.00     0.102 A 
HETATM    3  C8  UNL     1      19.627  -5.387   2.812  1.00  0.00     0.179 A 
HETATM    4  O1  UNL     1      19.753  -6.650   3.247  1.00  0.00    -0.288 OA
HETATM    5  C9  UNL     1      20.535  -7.300   2.430  1.00  0.00     0.244 A 
HETATM    6  N5  UNL     1      20.902  -8.559   2.515  1.00  0.00    -0.363 N 
ATOM      7  H51 UNL     1      20.614  -9.203   3.250  1.00  0.00     0.159 HD
ATOM      8  H52 UNL     1      21.513  -9.067   1.876  1.00  0.00     0.159 HD
ENDROOT
BRANCH   2   9
HETATM    9  C4  UNL     1      20.574  -4.092   0.800  1.00  0.00     0.061 A 
HETATM   10  S1  UNL     1      19.574  -3.589  -0.529  1.00  0.00    -0.050 SA
HETATM   11  C5  UNL     1      20.474  -2.246  -1.033  1.00  0.00     0.143 A 
HETATM   12  N4  UNL     1      21.491  -2.229  -0.180  1.00  0.00    -0.340 N 
HETATM   13  C6  UNL     1      21.560  -3.152   0.753  1.00  0.00     0.027 A 
ATOM     14  H4  UNL     1      22.210  -1.509  -0.248  1.00  0.00     0.168 HD
HETATM   15  C7  UNL     1      22.711  -3.186   1.765  1.00  0.00     0.070 C 
BRANCH  11  16
HETATM   16  N3  UNL     1      20.256  -1.399  -2.021  1.00  0.00    -0.380 N 
ATOM     17  H32 UNL     1      19.769  -1.592  -2.896  1.00  0.00     0.158 HD
ATOM     18  H31 UNL     1      20.517  -0.417  -2.114  1.00  0.00     0.158 HD
ENDBRANCH  11  16
ENDBRANCH   2   9
BRANCH   1  19
HETATM   19  N1  UNL     1      21.748  -6.779   0.410  1.00  0.00    -0.298 N 
HETATM   20  C2  UNL     1      21.344  -7.376  -0.665  1.00  0.00     0.008 C 
HETATM   21  C1  UNL     1      19.919  -7.741  -0.809  1.00  0.00     0.066 C 
ATOM     22  H1  UNL     1      22.737  -6.538   0.484  1.00  0.00     0.187 HD
BRANCH  20  23
HETATM   23  C10 UNL     1      22.263  -7.715  -1.780  1.00  0.00    -0.012 C 
HETATM   24  C11 UNL     1      22.690  -6.473  -2.513  1.00  0.00     0.021 C 
HETATM   25  C12 UNL     1      23.522  -8.299  -1.127  1.00  0.00     0.021 C 
HETATM   26  C13 UNL     1      21.666  -8.752  -2.692  1.00  0.00     0.021 C 
ENDBRANCH  20  23
ENDBRANCH   1  19
TORSDOF 4
ENDMDL
MODEL 2
REMARK VINA RESULT: -5.320709549      2.444      4.260
REMARK  4 active torsions:
REMARK  status: ('A' for Active; 'I' for Inactive)
REMARK    1  A    between atoms: C2_2  and  C10_23 
REMARK    2  A    between atoms: N1_3  and  N2_5 
REMARK    3  A    between atoms: C3_6  and  C4_7 
REMARK    4  A    between atoms: C5_9  and  N3_10 
ROOT
HETATM    1  N2  UNL     1      21.970  -6.458  -1.464  1.00  0.00    -0.216 N 
HETATM    2  C3  UNL     1      22.536  -5.231  -1.681  1.00  0.00     0.102 A 
HETATM    3  C8  UNL     1      23.261  -5.392  -2.810  1.00  0.00     0.179 A 
HETATM    4  O1  UNL     1      23.136  -6.656  -3.246  1.00  0.00    -0.288 OA
HETATM    5  C9  UNL     1      22.351  -7.306  -2.431  1.00  0.00     0.244 A 
HETATM    6  N5  UNL     1      21.984  -8.564  -2.517  1.00  0.00    -0.363 N 
ATOM      7  H51 UNL     1      22.273  -9.209  -3.252  1.00  0.00     0.159 HD
ATOM      8  H52 UNL     1      21.372  -9.072  -1.880  1.00  0.00     0.159 HD
ENDROOT
BRANCH   2   9
HETATM    9  C4  UNL     1      22.309  -4.098  -0.800  1.00  0.00     0.061 A 
HETATM   10  S1  UNL     1      23.310  -3.592   0.527  1.00  0.00    -0.050 SA
HETATM   11  C5  UNL     1      22.408  -2.251   1.032  1.00  0.00     0.143 A 
HETATM   12  N4  UNL     1      21.390  -2.237   0.181  1.00  0.00    -0.340 N 
HETATM   13  C6  UNL     1      21.321  -3.160  -0.752  1.00  0.00     0.027 A 
ATOM     14  H4  UNL     1      20.669  -1.518   0.249  1.00  0.00     0.168 HD
HETATM   15  C7  UNL     1      20.170  -3.198  -1.763  1.00  0.00     0.070 C 
BRANCH  11  16
HETATM   16  N3  UNL     1      22.624  -1.403   2.019  1.00  0.00    -0.380 N 
ATOM     17  H32 UNL     1      23.382  -0.723   2.086  1.00  0.00     0.158 HD
ATOM     18  H31 UNL     1      22.105  -1.255   2.884  1.00  0.00     0.158 HD
ENDBRANCH  11  16
ENDBRANCH   2   9
BRANCH   1  19
HETATM   19  N1  UNL     1      21.133  -6.785  -0.414  1.00  0.00    -0.298 N 
HETATM   20  C2  UNL     1      21.538  -7.367   0.669  1.00  0.00     0.008 C 
HETATM   21  C1  UNL     1      22.966  -7.715   0.825  1.00  0.00     0.066 C 
ATOM     22  H1  UNL     1      20.143  -6.556  -0.496  1.00  0.00     0.187 HD
BRANCH  20  23
HETATM   23  C10 UNL     1      20.616  -7.707   1.782  1.00  0.00    -0.012 C 
HETATM   24  C11 UNL     1      20.194  -6.465   2.519  1.00  0.00     0.021 C 
HETATM   25  C12 UNL     1      19.354  -8.281   1.125  1.00  0.00     0.021 C 
HETATM   26  C13 UNL     1      21.207  -8.750   2.689  1.00  0.00     0.021 C 
ENDBRANCH  20  23
ENDBRANCH   1  19
TORSDOF 4
ENDMDL
MODEL 3
REMARK VINA RESULT: -5.302417041      2.372      5.676
REMARK  4 active torsions:
REMARK  status: ('A' for Active; 'I' for Inactive)
REMARK    1  A    between atoms: C2_2  and  C10_23 
REMARK    2  A    between atoms: N1_3  and  N2_5 
REMARK    3  A    between atoms: C3_6  and  C4_7 
REMARK    4  A    between atoms: C5_9  and  N3_10 
ROOT
HETATM    1  N2  UNL     1      21.262  -5.081  -0.597  1.00  0.00    -0.216 N 
HETATM    2  C3  UNL     1      20.747  -6.344  -0.480  1.00  0.00     0.102 A 
HETATM    3  C8  UNL     1      19.671  -6.342  -1.297  1.00  0.00     0.179 A 
HETATM    4  O1  UNL     1      19.548  -5.136  -1.874  1.00  0.00    -0.288 OA
HETATM    5  C9  UNL     1      20.514  -4.368  -1.451  1.00  0.00     0.244 A 
HETATM    6  N5  UNL     1      20.737  -3.117  -1.785  1.00  0.00    -0.363 N 
ATOM      7  H51 UNL     1      20.169  -2.575  -2.435  1.00  0.00     0.159 HD
ATOM      8  H52 UNL     1      21.492  -2.516  -1.454  1.00  0.00     0.159 HD
ENDROOT
BRANCH   2   9
HETATM    9  C4  UNL     1      21.342  -7.355   0.376  1.00  0.00     0.061 A 
HETATM   10  S1  UNL     1      20.784  -7.854   1.945  1.00  0.00    -0.050 SA
HETATM   11  C5  UNL     1      21.962  -9.025   2.275  1.00  0.00     0.143 A 
HETATM   12  N4  UNL     1      22.728  -8.994   1.191  1.00  0.00    -0.340 N 
HETATM   13  C6  UNL     1      22.432  -8.159   0.221  1.00  0.00     0.027 A 
ATOM     14  H4  UNL     1      23.536  -9.612   1.112  1.00  0.00     0.168 HD
HETATM   15  C7  UNL     1      23.278  -8.076  -1.055  1.00  0.00     0.070 C 
BRANCH  11  16
HETATM   16  N3  UNL     1      22.119  -9.798   3.333  1.00  0.00    -0.380 N 
ATOM     17  H32 UNL     1      21.399 -10.076   4.000  1.00  0.00     0.158 HD
ATOM     18  H31 UNL     1      22.955 -10.260   3.691  1.00  0.00     0.158 HD
ENDBRANCH  11  16
ENDBRANCH   2   9
BRANCH   1  19
HETATM   19  N1  UNL     1      22.381  -4.603   0.059  1.00  0.00    -0.298 N 
HETATM   20  C2  UNL     1      22.340  -4.034   1.220  1.00  0.00     0.008 C 
HETATM   21  C1  UNL     1      21.045  -3.869   1.912  1.00  0.00     0.066 C 
ATOM     22  H1  UNL     1      23.288  -4.705  -0.396  1.00  0.00     0.187 HD
BRANCH  20  23
HETATM   23  C10 UNL     1      23.559  -3.530   1.903  1.00  0.00    -0.012 C 
HETATM   24  C11 UNL     1      24.323  -2.597   1.004  1.00  0.00     0.021 C 
HETATM   25  C12 UNL     1      23.062  -2.693   3.089  1.00  0.00     0.021 C 
HETATM   26  C13 UNL     1      24.405  -4.657   2.426  1.00  0.00     0.021 C 
ENDBRANCH  20  23
ENDBRANCH   1  19
TORSDOF 4
ENDMDL
MODEL 4
REMARK VINA RESULT: -5.297643079      2.666      5.150
REMARK  4 active torsions:
REMARK  status: ('A' for Active; 'I' for Inactive)
REMARK    1  A    between atoms: C2_2  and  C10_23 
REMARK    2  A    between atoms: N1_3  and  N2_5 
REMARK    3  A    between atoms: C3_6  and  C4_7 
REMARK    4  A    between atoms: C5_9  and  N3_10 
ROOT
HETATM    1  N2  UNL     1      21.619  -5.077   0.613  1.00  0.00    -0.216 N 
HETATM    2  C3  UNL     1      22.137  -6.339   0.496  1.00  0.00     0.102 A 
HETATM    3  C8  UNL     1      23.212  -6.336   1.313  1.00  0.00     0.179 A 
HETATM    4  O1  UNL     1      23.333  -5.131   1.891  1.00  0.00    -0.288 OA
HETATM    5  C9  UNL     1      22.366  -4.363   1.468  1.00  0.00     0.244 A 
HETATM    6  N5  UNL     1      22.141  -3.113   1.802  1.00  0.00    -0.363 N 
ATOM      7  H51 UNL     1      22.709  -2.570   2.453  1.00  0.00     0.159 HD
ATOM      8  H52 UNL     1      21.386  -2.513   1.472  1.00  0.00     0.159 HD
ENDROOT
BRANCH   2   9
HETATM    9  C4  UNL     1      21.543  -7.351  -0.361  1.00  0.00     0.061 A 
HETATM   10  S1  UNL     1      22.104  -7.849  -1.929  1.00  0.00    -0.050 SA
HETATM   11  C5  UNL     1      20.927  -9.021  -2.261  1.00  0.00     0.143 A 
HETATM   12  N4  UNL     1      20.159  -8.990  -1.178  1.00  0.00    -0.340 N 
HETATM   13  C6  UNL     1      20.453  -8.155  -0.207  1.00  0.00     0.027 A 
ATOM     14  H4  UNL     1      19.351  -9.608  -1.100  1.00  0.00     0.168 HD
HETATM   15  C7  UNL     1      19.605  -8.072   1.067  1.00  0.00     0.070 C 
BRANCH  11  16
HETATM   16  N3  UNL     1      20.772  -9.795  -3.318  1.00  0.00    -0.380 N 
ATOM     17  H32 UNL     1      21.509 -10.162  -3.921  1.00  0.00     0.158 HD
ATOM     18  H31 UNL     1      19.922 -10.172  -3.738  1.00  0.00     0.158 HD
ENDBRANCH  11  16
ENDBRANCH   2   9
BRANCH   1  19
HETATM   19  N1  UNL     1      20.500  -4.600  -0.043  1.00  0.00    -0.298 N 
HETATM   20  C2  UNL     1      20.539  -4.038  -1.207  1.00  0.00     0.008 C 
HETATM   21  C1  UNL     1      21.834  -3.879  -1.902  1.00  0.00     0.066 C 
ATOM     22  H1  UNL     1      19.594  -4.698   0.415  1.00  0.00     0.187 HD
BRANCH  20  23
HETATM   23  C10 UNL     1      19.321  -3.535  -1.890  1.00  0.00    -0.012 C 
HETATM   24  C11 UNL     1      18.552  -2.607  -0.989  1.00  0.00     0.021 C 
HETATM   25  C12 UNL     1      19.816  -2.692  -3.072  1.00  0.00     0.021 C 
HETATM   26  C13 UNL     1      18.479  -4.663  -2.419  1.00  0.00     0.021 C 
ENDBRANCH  20  23
ENDBRANCH   1  19
TORSDOF 4
ENDMDL
MODEL 5
REMARK VINA RESULT: -5.183375372      2.585      5.329
REMARK  4 active torsions:
REMARK  status: ('A' for Active; 'I' for Inactive)
REMARK    1  A    between atoms: C2_2  and  C10_23 
REMARK    2  A    between atoms: N1_3  and  N2_5 
REMARK    3  A    between atoms: C3_6  and  C4_7 
REMARK    4  A    between atoms: C5_9  and  N3_10 
ROOT
HETATM    1  N2  UNL     1      21.888  -4.587  -0.086  1.00  0.00    -0.216 N 
HETATM    2  C3  UNL     1      22.129  -5.901   0.213  1.00  0.00     0.102 A 
HETATM    3  C8  UNL     1      22.939  -5.855   1.293  1.00  0.00     0.179 A 
HETATM    4  O1  UNL     1      23.172  -4.575   1.624  1.00  0.00    -0.288 OA
HETATM    5  C9  UNL     1      22.534  -3.801   0.789  1.00  0.00     0.244 A 
HETATM    6  N5  UNL     1      22.512  -2.488   0.781  1.00  0.00    -0.363 N 
ATOM      7  H51 UNL     1      23.003  -1.891   1.447  1.00  0.00     0.159 HD
ATOM      8  H52 UNL     1      22.014  -1.884   0.129  1.00  0.00     0.159 HD
ENDROOT
BRANCH   2   9
HETATM    9  C4  UNL     1      21.562  -6.994  -0.558  1.00  0.00     0.061 A 
HETATM   10  S1  UNL     1      22.089  -7.555  -2.116  1.00  0.00    -0.050 SA
HETATM   11  C5  UNL     1      20.971  -8.808  -2.329  1.00  0.00     0.143 A 
HETATM   12  N4  UNL     1      20.246  -8.755  -1.218  1.00  0.00    -0.340 N 
HETATM   13  C6  UNL     1      20.528  -7.847  -0.311  1.00  0.00     0.027 A 
ATOM     14  H4  UNL     1      19.479  -9.412  -1.071  1.00  0.00     0.168 HD
HETATM   15  C7  UNL     1      19.727  -7.735   0.991  1.00  0.00     0.070 C 
BRANCH  11  16
HETATM   16  N3  UNL     1      20.820  -9.652  -3.332  1.00  0.00    -0.380 N 
ATOM     17  H32 UNL     1      21.556 -10.032  -3.928  1.00  0.00     0.158 HD
ATOM     18  H31 UNL     1      19.975 -10.083  -3.707  1.00  0.00     0.158 HD
ENDBRANCH  11  16
ENDBRANCH   2   9
BRANCH   1  19
HETATM   19  N1  UNL     1      21.101  -4.127  -1.125  1.00  0.00    -0.298 N 
HETATM   20  C2  UNL     1      19.917  -3.631  -0.961  1.00  0.00     0.008 C 
HETATM   21  C1  UNL     1      19.345  -3.535   0.398  1.00  0.00     0.066 C 
ATOM     22  H1  UNL     1      21.473  -4.183  -2.073  1.00  0.00     0.187 HD
BRANCH  20  23
HETATM   23  C10 UNL     1      19.094  -3.145  -2.096  1.00  0.00    -0.012 C 
HETATM   24  C11 UNL     1      18.214  -4.245  -2.624  1.00  0.00     0.021 C 
HETATM   25  C12 UNL     1      18.161  -2.075  -1.512  1.00  0.00     0.021 C 
HETATM   26  C13 UNL     1      19.943  -2.515  -3.165  1.00  0.00     0.021 C 
ENDBRANCH  20  23
ENDBRANCH   1  19
TORSDOF 4
ENDMDL
