MODEL 1
REMARK VINA RESULT: -7.803745622      0.000      0.000
REMARK  4 active torsions:
REMARK  status: ('A' for Active; 'I' for Inactive)
REMARK    1  A    between atoms: C2_2  and  C14_23 
REMARK    2  A    between atoms: N1_3  and  N2_5 
REMARK    3  A    between atoms: C14_23  and  O2_24 
REMARK    4  A    between atoms: N5_26  and  O3_28 
ROOT
HETATM    1  N2  UNL     1      21.079  -5.880  -1.009  1.00  0.00    -0.307 N 
ATOM      2  H2  UNL     1      20.721  -6.324  -1.854  1.00  0.00     0.186 HD
HETATM    3  C3  UNL     1      21.038  -4.601  -0.904  1.00  0.00     0.032 C 
HETATM    4  C4  UNL     1      20.471  -3.813  -2.020  1.00  0.00     0.094 C 
HETATM    5  C5  UNL     1      19.849  -2.507  -1.577  1.00  0.00     0.074 C 
HETATM    6  C6  UNL     1      20.002  -1.530  -2.714  1.00  0.00     0.039 C 
HETATM    7  C7  UNL     1      19.155  -0.312  -2.578  1.00  0.00     0.003 C 
HETATM    8  C8  UNL     1      17.730  -0.585  -2.206  1.00  0.00     0.000 C 
HETATM    9  C9  UNL     1      17.597  -1.535  -1.046  1.00  0.00     0.003 C 
HETATM   10  C10 UNL     1      18.397  -2.792  -1.260  1.00  0.00     0.039 C 
HETATM   11  O1  UNL     1      20.440  -1.952  -0.443  1.00  0.00    -0.326 OA
HETATM   12  C11 UNL     1      21.502  -2.515   0.243  1.00  0.00     0.136 C 
HETATM   13  N3  UNL     1      22.397  -1.721   0.779  1.00  0.00    -0.382 N 
ATOM     14  H31 UNL     1      23.179  -2.136   1.284  1.00  0.00     0.158 HD
ATOM     15  H32 UNL     1      22.351  -0.704   0.715  1.00  0.00     0.158 HD
HETATM   16  C12 UNL     1      21.567  -3.978   0.336  1.00  0.00     0.213 C 
HETATM   17  C13 UNL     1      20.738  -4.490   1.452  1.00  0.00     0.078 C 
HETATM   18  N4  UNL     1      20.102  -4.901   2.309  1.00  0.00    -0.196 NA
ENDROOT
BRANCH   1  19
HETATM   19  N1  UNL     1      21.599  -6.668   0.003  1.00  0.00    -0.301 N 
HETATM   20  C2  UNL     1      21.104  -7.814   0.318  1.00  0.00     0.074 C 
HETATM   21  C1  UNL     1      19.929  -8.325  -0.424  1.00  0.00     0.074 C 
ATOM     22  H1  UNL     1      22.408  -6.327   0.522  1.00  0.00     0.186 HD
BRANCH  20  23
HETATM   23  C14 UNL     1      21.702  -8.588   1.390  1.00  0.00     0.184 C 
HETATM   24  N5  UNL     1      21.074  -8.773   2.495  1.00  0.00    -0.246 N 
ATOM     25  H5  UNL     1      20.146  -8.365   2.607  1.00  0.00     0.196 HD
BRANCH  23  26
HETATM   26  O2  UNL     1      22.980  -9.137   1.212  1.00  0.00    -0.343 OA
ATOM     27  H2  UNL     1      23.745  -8.614   1.423  1.00  0.00     0.219 HD
ENDBRANCH  23  26
BRANCH  24  28
HETATM   28  O3  UNL     1      21.603  -9.494   3.525  1.00  0.00    -0.288 OA
ATOM     29  H3  UNL     1      21.435 -10.422   3.635  1.00  0.00     0.244 HD
ENDBRANCH  24  28
ENDBRANCH  20  23
ENDBRANCH   1  19
TORSDOF 4
ENDMDL
MODEL 2
REMARK VINA RESULT: -7.707710356      2.700      4.679
REMARK  4 active torsions:
REMARK  status: ('A' for Active; 'I' for Inactive)
REMARK    1  A    between atoms: C2_2  and  C14_23 
REMARK    2  A    between atoms: N1_3  and  N2_5 
REMARK    3  A    between atoms: C14_23  and  O2_24 
REMARK    4  A    between atoms: N5_26  and  O3_28 
ROOT
HETATM    1  N2  UNL     1      21.714  -5.838   1.090  1.00  0.00    -0.307 N 
ATOM      2  H2  UNL     1      22.061  -6.294   1.933  1.00  0.00     0.186 HD
HETATM    3  C3  UNL     1      21.821  -4.564   0.975  1.00  0.00     0.032 C 
HETATM    4  C4  UNL     1      22.447  -3.799   2.077  1.00  0.00     0.094 C 
HETATM    5  C5  UNL     1      23.131  -2.532   1.614  1.00  0.00     0.074 C 
HETATM    6  C6  UNL     1      23.048  -1.540   2.746  1.00  0.00     0.039 C 
HETATM    7  C7  UNL     1      23.956  -0.370   2.588  1.00  0.00     0.003 C 
HETATM    8  C8  UNL     1      25.358  -0.721   2.196  1.00  0.00     0.000 C 
HETATM    9  C9  UNL     1      25.423  -1.685   1.041  1.00  0.00     0.003 C 
HETATM   10  C10 UNL     1      24.560  -2.896   1.278  1.00  0.00     0.039 C 
HETATM   11  O1  UNL     1      22.552  -1.953   0.485  1.00  0.00    -0.326 OA
HETATM   12  C11 UNL     1      21.452  -2.464  -0.181  1.00  0.00     0.136 C 
HETATM   13  N3  UNL     1      20.592  -1.627  -0.709  1.00  0.00    -0.382 N 
ATOM     14  H31 UNL     1      19.781  -2.003  -1.199  1.00  0.00     0.158 HD
ATOM     15  H32 UNL     1      20.693  -0.613  -0.653  1.00  0.00     0.158 HD
HETATM   16  C12 UNL     1      21.307  -3.922  -0.261  1.00  0.00     0.213 C 
HETATM   17  C13 UNL     1      22.091  -4.485  -1.386  1.00  0.00     0.078 C 
HETATM   18  N4  UNL     1      22.690  -4.935  -2.249  1.00  0.00    -0.196 NA
ENDROOT
BRANCH   1  19
HETATM   19  N1  UNL     1      21.137  -6.604   0.092  1.00  0.00    -0.301 N 
HETATM   20  C2  UNL     1      21.558  -7.781  -0.214  1.00  0.00     0.074 C 
HETATM   21  C1  UNL     1      22.708  -8.354   0.523  1.00  0.00     0.074 C 
ATOM     22  H1  UNL     1      20.345  -6.220  -0.423  1.00  0.00     0.186 HD
BRANCH  20  23
HETATM   23  C14 UNL     1      20.904  -8.529  -1.272  1.00  0.00     0.184 C 
HETATM   24  N5  UNL     1      21.528  -8.811  -2.359  1.00  0.00    -0.246 N 
ATOM     25  H5  UNL     1      22.493  -8.500  -2.467  1.00  0.00     0.196 HD
BRANCH  23  26
HETATM   26  O2  UNL     1      19.576  -8.944  -1.100  1.00  0.00    -0.343 OA
ATOM     27  H2  UNL     1      19.277  -9.737  -1.529  1.00  0.00     0.219 HD
ENDBRANCH  23  26
BRANCH  24  28
HETATM   28  O3  UNL     1      20.947  -9.512  -3.375  1.00  0.00    -0.288 OA
ATOM     29  H3  UNL     1      21.372  -9.637  -4.215  1.00  0.00     0.244 HD
ENDBRANCH  24  28
ENDBRANCH  20  23
ENDBRANCH   1  19
TORSDOF 4
ENDMDL
MODEL 3
REMARK VINA RESULT: -7.094386917      2.833      4.370
REMARK  4 active torsions:
REMARK  status: ('A' for Active; 'I' for Inactive)
REMARK    1  A    between atoms: C2_2  and  C14_23 
REMARK    2  A    between atoms: N1_3  and  N2_5 
REMARK    3  A    between atoms: C14_23  and  O2_24 
REMARK    4  A    between atoms: N5_26  and  O3_28 
ROOT
HETATM    1  N2  UNL     1      21.061  -6.914   1.043  1.00  0.00    -0.307 N 
ATOM      2  H2  UNL     1      21.081  -7.090   2.047  1.00  0.00     0.186 HD
HETATM    3  C3  UNL     1      21.271  -5.724   0.609  1.00  0.00     0.032 C 
HETATM    4  C4  UNL     1      21.534  -4.645   1.587  1.00  0.00     0.094 C 
HETATM    5  C5  UNL     1      22.402  -3.536   1.037  1.00  0.00     0.074 C 
HETATM    6  C6  UNL     1      22.001  -2.264   1.739  1.00  0.00     0.039 C 
HETATM    7  C7  UNL     1      22.974  -1.149   1.565  1.00  0.00     0.003 C 
HETATM    8  C8  UNL     1      24.404  -1.533   1.785  1.00  0.00     0.000 C 
HETATM    9  C9  UNL     1      24.797  -2.786   1.048  1.00  0.00     0.003 C 
HETATM   10  C10 UNL     1      23.839  -3.916   1.319  1.00  0.00     0.039 C 
HETATM   11  O1  UNL     1      22.267  -3.336  -0.336  1.00  0.00    -0.326 OA
HETATM   12  C11 UNL     1      21.426  -4.068  -1.156  1.00  0.00     0.136 C 
HETATM   13  N3  UNL     1      20.840  -3.460  -2.159  1.00  0.00    -0.382 N 
ATOM     14  H31 UNL     1      20.220  -4.000  -2.763  1.00  0.00     0.158 HD
ATOM     15  H32 UNL     1      20.973  -2.470  -2.367  1.00  0.00     0.158 HD
HETATM   16  C12 UNL     1      21.236  -5.492  -0.857  1.00  0.00     0.213 C 
HETATM   17  C13 UNL     1      22.317  -6.319  -1.441  1.00  0.00     0.078 C 
HETATM   18  N4  UNL     1      23.145  -6.972  -1.885  1.00  0.00    -0.196 NA
ENDROOT
BRANCH   1  19
HETATM   19  N1  UNL     1      20.809  -7.962   0.175  1.00  0.00    -0.301 N 
HETATM   20  C2  UNL     1      21.342  -9.126   0.314  1.00  0.00     0.074 C 
HETATM   21  C1  UNL     1      22.266  -9.369   1.445  1.00  0.00     0.074 C 
ATOM     22  H1  UNL     1      20.174  -7.806  -0.608  1.00  0.00     0.186 HD
BRANCH  20  23
HETATM   23  C14 UNL     1      21.031 -10.179  -0.635  1.00  0.00     0.184 C 
HETATM   24  N5  UNL     1      20.695  -9.898  -1.842  1.00  0.00    -0.246 N 
ATOM     25  H5  UNL     1      20.649  -8.919  -2.124  1.00  0.00     0.196 HD
BRANCH  23  26
HETATM   26  O2  UNL     1      21.101 -11.518  -0.222  1.00  0.00    -0.343 OA
ATOM     27  H2  UNL     1      20.322 -12.060  -0.267  1.00  0.00     0.219 HD
ENDBRANCH  23  26
BRANCH  24  28
HETATM   28  O3  UNL     1      20.397 -10.860  -2.762  1.00  0.00    -0.288 OA
ATOM     29  H3  UNL     1      20.631 -11.772  -2.638  1.00  0.00     0.244 HD
ENDBRANCH  24  28
ENDBRANCH  20  23
ENDBRANCH   1  19
TORSDOF 4
ENDMDL
MODEL 4
REMARK VINA RESULT: -6.890457964      2.955      6.862
REMARK  4 active torsions:
REMARK  status: ('A' for Active; 'I' for Inactive)
REMARK    1  A    between atoms: C2_2  and  C14_23 
REMARK    2  A    between atoms: N1_3  and  N2_5 
REMARK    3  A    between atoms: C14_23  and  O2_24 
REMARK    4  A    between atoms: N5_26  and  O3_28 
ROOT
HETATM    1  N2  UNL     1      22.041  -3.601   1.106  1.00  0.00    -0.307 N 
ATOM      2  H2  UNL     1      22.016  -3.809   2.104  1.00  0.00     0.186 HD
HETATM    3  C3  UNL     1      22.209  -4.560   0.269  1.00  0.00     0.032 C 
HETATM    4  C4  UNL     1      22.360  -5.939   0.785  1.00  0.00     0.094 C 
HETATM    5  C5  UNL     1      21.874  -6.997  -0.180  1.00  0.00     0.074 C 
HETATM    6  C6  UNL     1      22.702  -8.234   0.058  1.00  0.00     0.039 C 
HETATM    7  C7  UNL     1      22.139  -9.464  -0.564  1.00  0.00     0.003 C 
HETATM    8  C8  UNL     1      20.674  -9.665  -0.326  1.00  0.00     0.000 C 
HETATM    9  C9  UNL     1      19.858  -8.431  -0.602  1.00  0.00     0.003 C 
HETATM   10  C10 UNL     1      20.408  -7.226   0.115  1.00  0.00     0.039 C 
HETATM   11  O1  UNL     1      21.997  -6.643  -1.523  1.00  0.00    -0.326 OA
HETATM   12  C11 UNL     1      22.512  -5.439  -1.972  1.00  0.00     0.136 C 
HETATM   13  N3  UNL     1      23.212  -5.429  -3.080  1.00  0.00    -0.382 N 
ATOM     14  H31 UNL     1      23.591  -4.542  -3.411  1.00  0.00     0.158 HD
ATOM     15  H32 UNL     1      23.398  -6.267  -3.631  1.00  0.00     0.158 HD
HETATM   16  C12 UNL     1      22.243  -4.233  -1.180  1.00  0.00     0.213 C 
HETATM   17  C13 UNL     1      20.923  -3.648  -1.511  1.00  0.00     0.078 C 
HETATM   18  N4  UNL     1      19.906  -3.184  -1.755  1.00  0.00    -0.196 NA
ENDROOT
BRANCH   1  19
HETATM   19  N1  UNL     1      21.894  -2.292   0.681  1.00  0.00    -0.301 N 
HETATM   20  C2  UNL     1      22.546  -1.313   1.202  1.00  0.00     0.074 C 
HETATM   21  C1  UNL     1      23.498  -1.581   2.304  1.00  0.00     0.074 C 
ATOM     22  H1  UNL     1      21.240  -2.096  -0.078  1.00  0.00     0.186 HD
BRANCH  20  23
HETATM   23  C14 UNL     1      22.342   0.035   0.705  1.00  0.00     0.184 C 
HETATM   24  N5  UNL     1      23.099   0.999   1.089  1.00  0.00    -0.246 N 
ATOM     25  H5  UNL     1      23.849   0.800   1.751  1.00  0.00     0.196 HD
BRANCH  23  26
HETATM   26  O2  UNL     1      21.302   0.282  -0.204  1.00  0.00    -0.343 OA
ATOM     27  H2  UNL     1      20.963   1.165  -0.295  1.00  0.00     0.219 HD
ENDBRANCH  23  26
BRANCH  24  28
HETATM   28  O3  UNL     1      22.938   2.278   0.644  1.00  0.00    -0.288 OA
ATOM     29  H3  UNL     1      23.532   2.978   0.883  1.00  0.00     0.244 HD
ENDBRANCH  24  28
ENDBRANCH  20  23
ENDBRANCH   1  19
TORSDOF 4
ENDMDL
MODEL 5
REMARK VINA RESULT: -6.874905425      2.068      6.891
REMARK  4 active torsions:
REMARK  status: ('A' for Active; 'I' for Inactive)
REMARK    1  A    between atoms: C2_2  and  C14_23 
REMARK    2  A    between atoms: N1_3  and  N2_5 
REMARK    3  A    between atoms: C14_23  and  O2_24 
REMARK    4  A    between atoms: N5_26  and  O3_28 
ROOT
HETATM    1  N2  UNL     1      20.855  -3.539  -1.097  1.00  0.00    -0.307 N 
ATOM      2  H2  UNL     1      20.884  -3.729  -2.099  1.00  0.00     0.186 HD
HETATM    3  C3  UNL     1      20.684  -4.511  -0.277  1.00  0.00     0.032 C 
HETATM    4  C4  UNL     1      20.534  -5.881  -0.817  1.00  0.00     0.094 C 
HETATM    5  C5  UNL     1      21.016  -6.955   0.132  1.00  0.00     0.074 C 
HETATM    6  C6  UNL     1      20.188  -8.187  -0.130  1.00  0.00     0.039 C 
HETATM    7  C7  UNL     1      20.749  -9.429   0.474  1.00  0.00     0.003 C 
HETATM    8  C8  UNL     1      22.215  -9.626   0.238  1.00  0.00     0.000 C 
HETATM    9  C9  UNL     1      23.031  -8.396   0.538  1.00  0.00     0.003 C 
HETATM   10  C10 UNL     1      22.483  -7.180  -0.161  1.00  0.00     0.039 C 
HETATM   11  O1  UNL     1      20.888  -6.623   1.480  1.00  0.00    -0.326 OA
HETATM   12  C11 UNL     1      20.373  -5.427   1.947  1.00  0.00     0.136 C 
HETATM   13  N3  UNL     1      19.668  -5.435   3.053  1.00  0.00    -0.382 N 
ATOM     14  H31 UNL     1      19.288  -4.553   3.397  1.00  0.00     0.158 HD
ATOM     15  H32 UNL     1      19.480  -6.282   3.589  1.00  0.00     0.158 HD
HETATM   16  C12 UNL     1      20.645  -4.208   1.176  1.00  0.00     0.213 C 
HETATM   17  C13 UNL     1      21.964  -3.629   1.522  1.00  0.00     0.078 C 
HETATM   18  N4  UNL     1      22.979  -3.170   1.778  1.00  0.00    -0.196 NA
ENDROOT
BRANCH   1  19
HETATM   19  N1  UNL     1      21.001  -2.237  -0.650  1.00  0.00    -0.301 N 
HETATM   20  C2  UNL     1      20.357  -1.247  -1.162  1.00  0.00     0.074 C 
HETATM   21  C1  UNL     1      19.415  -1.496  -2.278  1.00  0.00     0.074 C 
ATOM     22  H1  UNL     1      21.648  -2.054   0.117  1.00  0.00     0.186 HD
BRANCH  20  23
HETATM   23  C14 UNL     1      20.559   0.092  -0.642  1.00  0.00     0.184 C 
HETATM   24  N5  UNL     1      19.757   1.046  -0.953  1.00  0.00    -0.246 N 
ATOM     25  H5  UNL     1      18.973   0.845  -1.573  1.00  0.00     0.196 HD
BRANCH  23  26
HETATM   26  O2  UNL     1      21.647   0.341   0.208  1.00  0.00    -0.343 OA
ATOM     27  H2  UNL     1      21.653  -0.039   1.079  1.00  0.00     0.219 HD
ENDBRANCH  23  26
BRANCH  24  28
HETATM   28  O3  UNL     1      19.915   2.316  -0.483  1.00  0.00    -0.288 OA
ATOM     29  H3  UNL     1      19.510   3.067  -0.901  1.00  0.00     0.244 HD
ENDBRANCH  24  28
ENDBRANCH  20  23
ENDBRANCH   1  19
TORSDOF 4
ENDMDL
