MODEL 1
REMARK VINA RESULT: -6.016050832      0.000      0.000
REMARK  3 active torsions:
REMARK  status: ('A' for Active; 'I' for Inactive)
REMARK    1  A    between atoms: C5_6  and  C6_7 
REMARK    2  A    between atoms: C10_14  and  C11_15 
REMARK    3  A    between atoms: C11_15  and  N3_16 
ROOT
HETATM    1  N1  UNL     1       9.077  -7.177 -29.615  1.00  0.00    -0.191 NA
HETATM    2  C1  UNL     1       9.558  -8.146 -30.009  1.00  0.00     0.107 C 
HETATM    3  C2  UNL     1      10.172  -9.375 -30.481  1.00  0.00     0.086 A 
HETATM    4  C3  UNL     1      10.352  -9.770 -31.772  1.00  0.00     0.031 A 
HETATM    5  C4  UNL     1      10.949 -10.956 -31.991  1.00  0.00     0.022 A 
HETATM    6  C5  UNL     1      11.332 -11.678 -30.898  1.00  0.00     0.019 A 
HETATM    7  S2  UNL     1      10.841 -10.668 -29.602  1.00  0.00    -0.078 SA
ENDROOT
BRANCH   6   8
HETATM    8  C6  UNL     1      11.969 -13.033 -30.814  1.00  0.00     0.017 A 
HETATM    9  C7  UNL     1      12.481 -13.417 -29.586  1.00  0.00     0.067 A 
HETATM   10  S1  UNL     1      13.111 -14.967 -29.884  1.00  0.00    -0.081 SA
HETATM   11  C8  UNL     1      12.723 -15.107 -31.534  1.00  0.00     0.103 A 
HETATM   12  C9  UNL     1      12.101 -13.910 -31.818  1.00  0.00     0.075 A 
HETATM   13  N5  UNL     1      12.867 -16.141 -32.543  1.00  0.00    -0.337 N 
HETATM   14  N2  UNL     1      11.753 -13.787 -33.229  1.00  0.00    -0.374 N 
HETATM   15  C10 UNL     1      11.270 -14.949 -33.969  1.00  0.00     0.174 C 
ATOM     16  H2  UNL     1      11.847 -12.887 -33.699  1.00  0.00     0.160 HD
HETATM   17  C12 UNL     1      12.374 -15.982 -33.870  1.00  0.00     0.100 C 
HETATM   18  N4  UNL     1      12.820 -16.643 -34.852  1.00  0.00    -0.387 N 
ATOM     19  H42 UNL     1      12.467 -16.529 -35.801  1.00  0.00     0.157 HD
ATOM     20  H41 UNL     1      13.563 -17.338 -34.785  1.00  0.00     0.157 HD
ATOM     21  H5  UNL     1      13.338 -17.011 -32.294  1.00  0.00     0.168 HD
BRANCH  15  22
HETATM   22  C11 UNL     1      10.065 -15.564 -33.297  1.00  0.00     0.262 C 
BRANCH  22  23
HETATM   23  N3  UNL     1       9.099 -16.032 -34.263  1.00  0.00    -0.077 N 
ATOM     24  H33 UNL     1       9.257 -15.613 -35.180  1.00  0.00     0.274 HD
ATOM     25  H32 UNL     1       9.257 -17.010 -34.506  1.00  0.00     0.274 HD
ATOM     26  H31 UNL     1       8.143 -15.877 -33.943  1.00  0.00     0.274 HD
ENDBRANCH  22  23
ENDBRANCH  15  22
ENDBRANCH   6   8
TORSDOF 3
ENDMDL
MODEL 2
REMARK VINA RESULT: -5.831916761      0.996      1.026
REMARK  3 active torsions:
REMARK  status: ('A' for Active; 'I' for Inactive)
REMARK    1  A    between atoms: C5_6  and  C6_7 
REMARK    2  A    between atoms: C10_14  and  C11_15 
REMARK    3  A    between atoms: C11_15  and  N3_16 
ROOT
HETATM    1  N1  UNL     1       9.549  -7.670 -29.539  1.00  0.00    -0.191 NA
HETATM    2  C1  UNL     1       9.956  -8.623 -30.041  1.00  0.00     0.107 C 
HETATM    3  C2  UNL     1      10.480  -9.833 -30.652  1.00  0.00     0.086 A 
HETATM    4  C3  UNL     1      10.476 -10.164 -31.972  1.00  0.00     0.031 A 
HETATM    5  C4  UNL     1      11.017 -11.344 -32.328  1.00  0.00     0.022 A 
HETATM    6  C5  UNL     1      11.534 -12.123 -31.333  1.00  0.00     0.019 A 
HETATM    7  S2  UNL     1      11.241 -11.175 -29.936  1.00  0.00    -0.078 SA
ENDROOT
BRANCH   6   8
HETATM    8  C6  UNL     1      12.154 -13.487 -31.403  1.00  0.00     0.017 A 
HETATM    9  C7  UNL     1      13.132 -13.785 -30.469  1.00  0.00     0.067 A 
HETATM   10  S1  UNL     1      13.588 -15.375 -30.864  1.00  0.00    -0.081 SA
HETATM   11  C8  UNL     1      12.549 -15.636 -32.185  1.00  0.00     0.103 A 
HETATM   12  C9  UNL     1      11.860 -14.447 -32.290  1.00  0.00     0.075 A 
HETATM   13  N5  UNL     1      12.264 -16.753 -33.069  1.00  0.00    -0.337 N 
HETATM   14  N2  UNL     1      10.956 -14.428 -33.434  1.00  0.00    -0.374 N 
HETATM   15  C10 UNL     1      10.214 -15.630 -33.802  1.00  0.00     0.174 C 
ATOM     16  H2  UNL     1      10.842 -13.573 -33.978  1.00  0.00     0.160 HD
HETATM   17  C12 UNL     1      11.263 -16.687 -34.080  1.00  0.00     0.100 C 
HETATM   18  N4  UNL     1      11.263 -17.440 -35.096  1.00  0.00    -0.387 N 
ATOM     19  H42 UNL     1      10.547 -17.392 -35.819  1.00  0.00     0.157 HD
ATOM     20  H41 UNL     1      11.970 -18.151 -35.282  1.00  0.00     0.157 HD
ATOM     21  H5  UNL     1      12.800 -17.615 -32.962  1.00  0.00     0.168 HD
BRANCH  15  22
HETATM   22  C11 UNL     1       9.401 -16.149 -32.640  1.00  0.00     0.262 C 
BRANCH  22  23
HETATM   23  N3  UNL     1       8.363 -17.052 -33.079  1.00  0.00    -0.077 N 
ATOM     24  H33 UNL     1       7.484 -16.560 -33.238  1.00  0.00     0.274 HD
ATOM     25  H32 UNL     1       8.534 -17.383 -34.028  1.00  0.00     0.274 HD
ATOM     26  H31 UNL     1       8.243 -17.829 -32.429  1.00  0.00     0.274 HD
ENDBRANCH  22  23
ENDBRANCH  15  22
ENDBRANCH   6   8
TORSDOF 3
ENDMDL
MODEL 3
REMARK VINA RESULT: -5.621145837      0.945      1.059
REMARK  3 active torsions:
REMARK  status: ('A' for Active; 'I' for Inactive)
REMARK    1  A    between atoms: C5_6  and  C6_7 
REMARK    2  A    between atoms: C10_14  and  C11_15 
REMARK    3  A    between atoms: C11_15  and  N3_16 
ROOT
HETATM    1  N1  UNL     1       9.718  -7.952 -30.114  1.00  0.00    -0.191 NA
HETATM    2  C1  UNL     1      10.133  -8.954 -30.502  1.00  0.00     0.107 C 
HETATM    3  C2  UNL     1      10.666 -10.223 -30.968  1.00  0.00     0.086 A 
HETATM    4  C3  UNL     1      10.726 -10.676 -32.250  1.00  0.00     0.031 A 
HETATM    5  C4  UNL     1      11.264 -11.892 -32.464  1.00  0.00     0.022 A 
HETATM    6  C5  UNL     1      11.712 -12.581 -31.373  1.00  0.00     0.019 A 
HETATM    7  S2  UNL     1      11.362 -11.502 -30.089  1.00  0.00    -0.078 SA
ENDROOT
BRANCH   6   8
HETATM    8  C6  UNL     1      12.309 -13.954 -31.281  1.00  0.00     0.017 A 
HETATM    9  C7  UNL     1      12.802 -14.347 -30.049  1.00  0.00     0.067 A 
HETATM   10  S1  UNL     1      13.389 -15.917 -30.338  1.00  0.00    -0.081 SA
HETATM   11  C8  UNL     1      13.005 -16.052 -31.989  1.00  0.00     0.103 A 
HETATM   12  C9  UNL     1      12.420 -14.839 -32.281  1.00  0.00     0.075 A 
HETATM   13  N5  UNL     1      13.124 -17.094 -32.994  1.00  0.00    -0.337 N 
HETATM   14  N2  UNL     1      12.083 -14.711 -33.694  1.00  0.00    -0.374 N 
HETATM   15  C10 UNL     1      11.570 -15.862 -34.433  1.00  0.00     0.174 C 
ATOM     16  H2  UNL     1      12.205 -13.816 -34.168  1.00  0.00     0.160 HD
HETATM   17  C12 UNL     1      12.643 -16.926 -34.324  1.00  0.00     0.100 C 
HETATM   18  N4  UNL     1      13.074 -17.603 -35.301  1.00  0.00    -0.387 N 
ATOM     19  H42 UNL     1      12.730 -17.482 -36.253  1.00  0.00     0.157 HD
ATOM     20  H41 UNL     1      13.796 -18.319 -35.228  1.00  0.00     0.157 HD
ATOM     21  H5  UNL     1      13.568 -17.976 -32.739  1.00  0.00     0.168 HD
BRANCH  15  22
HETATM   22  C11 UNL     1      10.344 -16.438 -33.765  1.00  0.00     0.262 C 
BRANCH  22  23
HETATM   23  N3  UNL     1       9.129 -15.891 -34.321  1.00  0.00    -0.077 N 
ATOM     24  H33 UNL     1       8.532 -15.496 -33.594  1.00  0.00     0.274 HD
ATOM     25  H32 UNL     1       9.313 -15.041 -34.854  1.00  0.00     0.274 HD
ATOM     26  H31 UNL     1       8.629 -16.581 -34.880  1.00  0.00     0.274 HD
ENDBRANCH  22  23
ENDBRANCH  15  22
ENDBRANCH   6   8
TORSDOF 3
ENDMDL
MODEL 4
REMARK VINA RESULT: -5.592558948      1.490      1.970
REMARK  3 active torsions:
REMARK  status: ('A' for Active; 'I' for Inactive)
REMARK    1  A    between atoms: C5_6  and  C6_7 
REMARK    2  A    between atoms: C10_14  and  C11_15 
REMARK    3  A    between atoms: C11_15  and  N3_16 
ROOT
HETATM    1  N1  UNL     1       9.781  -8.176 -30.400  1.00  0.00    -0.191 NA
HETATM    2  C1  UNL     1      10.251  -9.227 -30.396  1.00  0.00     0.107 C 
HETATM    3  C2  UNL     1      10.838 -10.556 -30.414  1.00  0.00     0.086 A 
HETATM    4  C3  UNL     1      11.287 -11.279 -29.352  1.00  0.00     0.031 A 
HETATM    5  C4  UNL     1      11.799 -12.501 -29.592  1.00  0.00     0.022 A 
HETATM    6  C5  UNL     1      11.829 -12.925 -30.890  1.00  0.00     0.019 A 
HETATM    7  S2  UNL     1      11.140 -11.596 -31.725  1.00  0.00    -0.078 SA
ENDROOT
BRANCH   6   8
HETATM    8  C6  UNL     1      12.371 -14.195 -31.475  1.00  0.00     0.017 A 
HETATM    9  C7  UNL     1      13.571 -14.663 -30.968  1.00  0.00     0.067 A 
HETATM   10  S1  UNL     1      13.856 -16.080 -31.864  1.00  0.00    -0.081 SA
HETATM   11  C8  UNL     1      12.472 -16.062 -32.851  1.00  0.00     0.103 A 
HETATM   12  C9  UNL     1      11.809 -14.921 -32.451  1.00  0.00     0.075 A 
HETATM   13  N5  UNL     1      11.917 -16.940 -33.866  1.00  0.00    -0.337 N 
HETATM   14  N2  UNL     1      10.612 -14.668 -33.244  1.00  0.00    -0.374 N 
HETATM   15  C10 UNL     1       9.767 -15.780 -33.672  1.00  0.00     0.174 C 
ATOM     16  H2  UNL     1      10.363 -13.712 -33.499  1.00  0.00     0.160 HD
HETATM   17  C12 UNL     1      10.666 -16.679 -34.496  1.00  0.00     0.100 C 
HETATM   18  N4  UNL     1      10.353 -17.157 -35.624  1.00  0.00    -0.387 N 
ATOM     19  H42 UNL     1       9.458 -16.970 -36.075  1.00  0.00     0.157 HD
ATOM     20  H41 UNL     1      10.958 -17.763 -36.178  1.00  0.00     0.157 HD
ATOM     21  H5  UNL     1      12.441 -17.772 -34.138  1.00  0.00     0.168 HD
BRANCH  15  22
HETATM   22  C11 UNL     1       9.317 -16.610 -32.494  1.00  0.00     0.262 C 
BRANCH  22  23
HETATM   23  N3  UNL     1       8.041 -17.238 -32.745  1.00  0.00    -0.077 N 
ATOM     24  H33 UNL     1       7.521 -17.383 -31.879  1.00  0.00     0.274 HD
ATOM     25  H32 UNL     1       7.397 -16.601 -33.213  1.00  0.00     0.274 HD
ATOM     26  H31 UNL     1       8.148 -18.109 -33.265  1.00  0.00     0.274 HD
ENDBRANCH  22  23
ENDBRANCH  15  22
ENDBRANCH   6   8
TORSDOF 3
ENDMDL
MODEL 5
REMARK VINA RESULT: -5.323835840      1.769      2.155
REMARK  3 active torsions:
REMARK  status: ('A' for Active; 'I' for Inactive)
REMARK    1  A    between atoms: C5_6  and  C6_7 
REMARK    2  A    between atoms: C10_14  and  C11_15 
REMARK    3  A    between atoms: C11_15  and  N3_16 
ROOT
HETATM    1  N1  UNL     1      10.571  -9.363 -27.697  1.00  0.00    -0.191 NA
HETATM    2  C1  UNL     1      10.856 -10.118 -28.519  1.00  0.00     0.107 C 
HETATM    3  C2  UNL     1      11.225 -11.086 -29.537  1.00  0.00     0.086 A 
HETATM    4  C3  UNL     1      11.207 -10.917 -30.888  1.00  0.00     0.031 A 
HETATM    5  C4  UNL     1      11.591 -11.951 -31.658  1.00  0.00     0.022 A 
HETATM    6  C5  UNL     1      11.973 -13.099 -31.024  1.00  0.00     0.019 A 
HETATM    7  S2  UNL     1      11.779 -12.686 -29.372  1.00  0.00    -0.078 SA
ENDROOT
BRANCH   6   8
HETATM    8  C6  UNL     1      12.403 -14.417 -31.596  1.00  0.00     0.017 A 
HETATM    9  C7  UNL     1      13.580 -14.963 -31.112  1.00  0.00     0.067 A 
HETATM   10  S1  UNL     1      13.734 -16.414 -31.984  1.00  0.00    -0.081 SA
HETATM   11  C8  UNL     1      12.327 -16.312 -32.934  1.00  0.00     0.103 A 
HETATM   12  C9  UNL     1      11.762 -15.118 -32.541  1.00  0.00     0.075 A 
HETATM   13  N5  UNL     1      11.681 -17.166 -33.915  1.00  0.00    -0.337 N 
HETATM   14  N2  UNL     1      10.565 -14.791 -33.306  1.00  0.00    -0.374 N 
HETATM   15  C10 UNL     1       9.629 -15.846 -33.688  1.00  0.00     0.174 C 
ATOM     16  H2  UNL     1      10.380 -13.825 -33.576  1.00  0.00     0.160 HD
HETATM   17  C12 UNL     1      10.435 -16.825 -34.516  1.00  0.00     0.100 C 
HETATM   18  N4  UNL     1      10.056 -17.300 -35.625  1.00  0.00    -0.387 N 
ATOM     19  H42 UNL     1       9.164 -17.056 -36.055  1.00  0.00     0.157 HD
ATOM     20  H41 UNL     1      10.599 -17.960 -36.182  1.00  0.00     0.157 HD
ATOM     21  H5  UNL     1      12.134 -18.040 -34.182  1.00  0.00     0.168 HD
BRANCH  15  22
HETATM   22  C11 UNL     1       9.152 -16.618 -32.481  1.00  0.00     0.262 C 
BRANCH  22  23
HETATM   23  N3  UNL     1       7.935 -17.343 -32.761  1.00  0.00    -0.077 N 
ATOM     24  H33 UNL     1       7.217 -16.730 -33.148  1.00  0.00     0.274 HD
ATOM     25  H32 UNL     1       8.051 -17.973 -33.554  1.00  0.00     0.274 HD
ATOM     26  H31 UNL     1       7.596 -17.839 -31.937  1.00  0.00     0.274 HD
ENDBRANCH  22  23
ENDBRANCH  15  22
ENDBRANCH   6   8
TORSDOF 3
ENDMDL
