MODEL 1
REMARK VINA RESULT: -6.785565014      0.000      0.000
REMARK  2 active torsions:
REMARK  status: ('A' for Active; 'I' for Inactive)
REMARK    1  A    between atoms: N2_10  and  N3_12 
REMARK    2  A    between atoms: C9_18  and  C10_19 
ROOT
HETATM    1  N3  UNL     1      11.393 -11.907 -32.311  1.00  0.00    -0.270 N 
ATOM      2  H3  UNL     1      11.571 -11.287 -33.101  1.00  0.00     0.190 HD
HETATM    3  C8  UNL     1      11.242 -13.164 -32.549  1.00  0.00     0.207 C 
HETATM    4  N4  UNL     1      10.987 -14.182 -31.590  1.00  0.00    -0.272 N 
ATOM      5  H4  UNL     1      11.182 -14.153 -30.588  1.00  0.00     0.185 HD
HETATM    6  N5  UNL     1      10.412 -15.233 -32.315  1.00  0.00    -0.108 NA
HETATM    7  C9  UNL     1      11.254 -15.229 -33.515  1.00  0.00     0.233 C 
HETATM    8  N6  UNL     1      11.292 -13.841 -33.824  1.00  0.00    -0.336 N 
ATOM      9  H6  UNL     1      11.344 -13.415 -34.749  1.00  0.00     0.164 HD
ENDROOT
BRANCH   1  10
HETATM   10  N2  UNL     1      11.331 -11.370 -31.095  1.00  0.00    -0.296 N 
HETATM   11  C7  UNL     1      10.805 -10.358 -30.590  1.00  0.00     0.074 A 
HETATM   12  C2  UNL     1      10.025  -9.381 -31.312  1.00  0.00     0.051 A 
HETATM   13  C6  UNL     1      11.013 -10.157 -29.118  1.00  0.00     0.041 A 
HETATM   14  C1  UNL     1       9.785  -9.460 -32.591  1.00  0.00     0.045 C 
HETATM   15  N1  UNL     1       9.493  -8.264 -30.548  1.00  0.00    -0.364 N 
HETATM   16  C3  UNL     1       9.711  -8.158 -29.292  1.00  0.00     0.095 A 
ATOM     17  H1  UNL     1       8.937  -7.553 -31.023  1.00  0.00     0.165 HD
HETATM   18  C4  UNL     1      10.487  -9.117 -28.536  1.00  0.00    -0.044 A 
HETATM   19  C5  UNL     1      10.690  -8.903 -27.047  1.00  0.00     0.049 C 
ATOM     20  H2  UNL     1      11.838 -11.923 -30.404  1.00  0.00     0.187 HD
ENDBRANCH   1  10
BRANCH   7  21
HETATM   21  C10 UNL     1      10.516 -15.973 -34.632  1.00  0.00    -0.011 A 
HETATM   22  C11 UNL     1       9.283 -16.522 -34.481  1.00  0.00     0.018 A 
HETATM   23  C12 UNL     1       8.746 -17.159 -35.562  1.00  0.00     0.050 A 
HETATM   24  S1  UNL     1       9.941 -16.991 -36.756  1.00  0.00    -0.113 SA
HETATM   25  C13 UNL     1      11.097 -16.118 -35.866  1.00  0.00     0.060 A 
ENDBRANCH   7  21
TORSDOF 2
ENDMDL
MODEL 2
REMARK VINA RESULT: -6.579336921      3.348      3.563
REMARK  2 active torsions:
REMARK  status: ('A' for Active; 'I' for Inactive)
REMARK    1  A    between atoms: N2_10  and  N3_12 
REMARK    2  A    between atoms: C9_18  and  C10_19 
ROOT
HETATM    1  N3  UNL     1      12.208 -12.739 -30.735  1.00  0.00    -0.270 N 
ATOM      2  H3  UNL     1      12.096 -12.536 -31.728  1.00  0.00     0.190 HD
HETATM    3  C8  UNL     1      12.795 -13.836 -30.402  1.00  0.00     0.207 C 
HETATM    4  N4  UNL     1      13.043 -14.297 -29.080  1.00  0.00    -0.272 N 
ATOM      5  H4  UNL     1      13.087 -13.738 -28.227  1.00  0.00     0.185 HD
HETATM    6  N5  UNL     1      13.214 -15.682 -29.200  1.00  0.00    -0.108 NA
HETATM    7  C9  UNL     1      14.033 -15.751 -30.414  1.00  0.00     0.233 C 
HETATM    8  N6  UNL     1      13.336 -14.855 -31.271  1.00  0.00    -0.336 N 
ATOM      9  H6  UNL     1      13.240 -14.919 -32.285  1.00  0.00     0.164 HD
ENDROOT
BRANCH   1  10
HETATM   10  N2  UNL     1      11.738 -11.854 -29.858  1.00  0.00    -0.296 N 
HETATM   11  C7  UNL     1      11.108 -10.780 -29.920  1.00  0.00     0.074 A 
HETATM   12  C2  UNL     1      10.672 -10.145 -31.141  1.00  0.00     0.051 A 
HETATM   13  C6  UNL     1      10.787 -10.113 -28.616  1.00  0.00     0.041 A 
HETATM   14  C1  UNL     1      10.899 -10.640 -32.326  1.00  0.00     0.045 C 
HETATM   15  N1  UNL     1       9.948  -8.891 -31.012  1.00  0.00    -0.364 N 
HETATM   16  C3  UNL     1       9.710  -8.379 -29.865  1.00  0.00     0.095 A 
ATOM     17  H1  UNL     1       9.624  -8.411 -31.852  1.00  0.00     0.165 HD
HETATM   18  C4  UNL     1      10.129  -8.988 -28.620  1.00  0.00    -0.044 A 
HETATM   19  C5  UNL     1       9.799  -8.303 -27.307  1.00  0.00     0.049 C 
ATOM     20  H2  UNL     1      11.946 -12.121 -28.895  1.00  0.00     0.187 HD
ENDBRANCH   1  10
BRANCH   7  21
HETATM   21  C10 UNL     1      13.940 -17.169 -30.985  1.00  0.00    -0.011 A 
HETATM   22  C11 UNL     1      12.807 -17.917 -30.958  1.00  0.00     0.018 A 
HETATM   23  C12 UNL     1      12.871 -19.167 -31.502  1.00  0.00     0.050 A 
HETATM   24  S1  UNL     1      14.478 -19.287 -32.036  1.00  0.00    -0.113 SA
HETATM   25  C13 UNL     1      15.040 -17.754 -31.561  1.00  0.00     0.060 A 
ENDBRANCH   7  21
TORSDOF 2
ENDMDL
MODEL 3
REMARK VINA RESULT: -6.484770508      1.264      1.544
REMARK  2 active torsions:
REMARK  status: ('A' for Active; 'I' for Inactive)
REMARK    1  A    between atoms: N2_10  and  N3_12 
REMARK    2  A    between atoms: C9_18  and  C10_19 
ROOT
HETATM    1  N3  UNL     1      12.482 -12.795 -30.954  1.00  0.00    -0.270 N 
ATOM      2  H3  UNL     1      13.470 -12.676 -31.179  1.00  0.00     0.190 HD
HETATM    3  C8  UNL     1      11.836 -13.740 -31.546  1.00  0.00     0.207 C 
HETATM    4  N4  UNL     1      10.463 -14.066 -31.370  1.00  0.00    -0.272 N 
ATOM      5  H4  UNL     1       9.869 -13.838 -30.573  1.00  0.00     0.185 HD
HETATM    6  N5  UNL     1      10.101 -14.767 -32.528  1.00  0.00    -0.108 NA
HETATM    7  C9  UNL     1      11.279 -15.621 -32.708  1.00  0.00     0.233 C 
HETATM    8  N6  UNL     1      12.334 -14.686 -32.518  1.00  0.00    -0.336 N 
ATOM      9  H6  UNL     1      13.247 -14.684 -32.972  1.00  0.00     0.164 HD
ENDROOT
BRANCH   1  10
HETATM   10  N2  UNL     1      11.936 -11.967 -30.067  1.00  0.00    -0.296 N 
HETATM   11  C7  UNL     1      11.255 -10.924 -30.117  1.00  0.00     0.074 A 
HETATM   12  C2  UNL     1      10.834 -10.267 -31.332  1.00  0.00     0.051 A 
HETATM   13  C6  UNL     1      10.853 -10.320 -28.805  1.00  0.00     0.041 A 
HETATM   14  C1  UNL     1      11.130 -10.708 -32.524  1.00  0.00     0.045 C 
HETATM   15  N1  UNL     1      10.043  -9.057 -31.190  1.00  0.00    -0.364 N 
HETATM   16  C3  UNL     1       9.736  -8.598 -30.035  1.00  0.00     0.095 A 
ATOM     17  H1  UNL     1       9.727  -8.563 -32.025  1.00  0.00     0.165 HD
HETATM   18  C4  UNL     1      10.140  -9.229 -28.797  1.00  0.00    -0.044 A 
HETATM   19  C5  UNL     1       9.726  -8.609 -27.475  1.00  0.00     0.049 C 
ATOM     20  H2  UNL     1      12.122 -12.258 -29.106  1.00  0.00     0.187 HD
ENDBRANCH   1  10
BRANCH   7  21
HETATM   21  C10 UNL     1      11.303 -16.120 -34.156  1.00  0.00    -0.011 A 
HETATM   22  C11 UNL     1      11.928 -15.463 -35.166  1.00  0.00     0.018 A 
HETATM   23  C12 UNL     1      11.866 -16.024 -36.409  1.00  0.00     0.050 A 
HETATM   24  S1  UNL     1      10.954 -17.434 -36.164  1.00  0.00    -0.113 SA
HETATM   25  C13 UNL     1      10.668 -17.289 -34.494  1.00  0.00     0.060 A 
ENDBRANCH   7  21
TORSDOF 2
ENDMDL
MODEL 4
REMARK VINA RESULT: -6.443720838      5.629      6.559
REMARK  2 active torsions:
REMARK  status: ('A' for Active; 'I' for Inactive)
REMARK    1  A    between atoms: N2_10  and  N3_12 
REMARK    2  A    between atoms: C9_18  and  C10_19 
ROOT
HETATM    1  N3  UNL     1      12.336 -13.380 -28.712  1.00  0.00    -0.270 N 
ATOM      2  H3  UNL     1      12.209 -13.856 -29.604  1.00  0.00     0.190 HD
HETATM    3  C8  UNL     1      13.099 -13.933 -27.833  1.00  0.00     0.207 C 
HETATM    4  N4  UNL     1      13.401 -13.430 -26.538  1.00  0.00    -0.272 N 
ATOM      5  H4  UNL     1      13.332 -12.464 -26.216  1.00  0.00     0.185 HD
HETATM    6  N5  UNL     1      13.811 -14.546 -25.798  1.00  0.00    -0.108 NA
HETATM    7  C9  UNL     1      14.651 -15.233 -26.784  1.00  0.00     0.233 C 
HETATM    8  N6  UNL     1      13.824 -15.178 -27.940  1.00  0.00    -0.336 N 
ATOM      9  H6  UNL     1      13.758 -15.870 -28.687  1.00  0.00     0.164 HD
ENDROOT
BRANCH   1  10
HETATM   10  N2  UNL     1      11.705 -12.223 -28.523  1.00  0.00    -0.296 N 
HETATM   11  C7  UNL     1      11.241 -11.327 -29.255  1.00  0.00     0.074 A 
HETATM   12  C2  UNL     1      11.287 -11.329 -30.699  1.00  0.00     0.051 A 
HETATM   13  C6  UNL     1      10.592 -10.164 -28.565  1.00  0.00     0.041 A 
HETATM   14  C1  UNL     1      11.827 -12.290 -31.396  1.00  0.00     0.045 C 
HETATM   15  N1  UNL     1      10.692 -10.193 -31.381  1.00  0.00    -0.364 N 
HETATM   16  C3  UNL     1      10.154  -9.234 -30.726  1.00  0.00     0.095 A 
ATOM     17  H1  UNL     1      10.704 -10.158 -32.401  1.00  0.00     0.165 HD
HETATM   18  C4  UNL     1      10.090  -9.198 -29.281  1.00  0.00    -0.044 A 
HETATM   19  C5  UNL     1       9.430  -8.016 -28.594  1.00  0.00     0.049 C 
ATOM     20  H2  UNL     1      11.567 -12.019 -27.533  1.00  0.00     0.187 HD
ENDBRANCH   1  10
BRANCH   7  21
HETATM   21  C10 UNL     1      14.816 -16.693 -26.353  1.00  0.00    -0.011 A 
HETATM   22  C11 UNL     1      13.971 -17.687 -26.729  1.00  0.00     0.018 A 
HETATM   23  C12 UNL     1      14.239 -18.943 -26.267  1.00  0.00     0.050 A 
HETATM   24  S1  UNL     1      15.638 -18.732 -25.329  1.00  0.00    -0.113 SA
HETATM   25  C13 UNL     1      15.859 -17.059 -25.539  1.00  0.00     0.060 A 
ENDBRANCH   7  21
TORSDOF 2
ENDMDL
MODEL 5
REMARK VINA RESULT: -6.414956038      2.913      8.140
REMARK  2 active torsions:
REMARK  status: ('A' for Active; 'I' for Inactive)
REMARK    1  A    between atoms: N2_10  and  N3_12 
REMARK    2  A    between atoms: C9_18  and  C10_19 
ROOT
HETATM    1  N3  UNL     1      11.082 -14.627 -32.723  1.00  0.00    -0.270 N 
ATOM      2  H3  UNL     1      11.082 -15.286 -31.945  1.00  0.00     0.190 HD
HETATM    3  C8  UNL     1      11.184 -13.371 -32.454  1.00  0.00     0.207 C 
HETATM    4  N4  UNL     1      11.201 -12.303 -33.392  1.00  0.00    -0.272 N 
ATOM      5  H4  UNL     1      11.440 -12.352 -34.383  1.00  0.00     0.185 HD
HETATM    6  N5  UNL     1      10.818 -11.169 -32.664  1.00  0.00    -0.108 NA
HETATM    7  C9  UNL     1      11.573 -11.374 -31.424  1.00  0.00     0.233 C 
HETATM    8  N6  UNL     1      11.303 -12.745 -31.157  1.00  0.00    -0.336 N 
ATOM      9  H6  UNL     1      11.213 -13.191 -30.244  1.00  0.00     0.164 HD
ENDROOT
BRANCH   1  10
HETATM   10  N2  UNL     1      10.976 -15.114 -33.957  1.00  0.00    -0.296 N 
HETATM   11  C7  UNL     1      10.285 -15.988 -34.518  1.00  0.00     0.074 A 
HETATM   12  C2  UNL     1       9.288 -16.802 -33.864  1.00  0.00     0.051 A 
HETATM   13  C6  UNL     1      10.525 -16.195 -35.984  1.00  0.00     0.041 A 
HETATM   14  C1  UNL     1       9.002 -16.703 -32.595  1.00  0.00     0.045 C 
HETATM   15  N1  UNL     1       8.583 -17.771 -34.686  1.00  0.00    -0.364 N 
HETATM   16  C3  UNL     1       8.840 -17.893 -35.933  1.00  0.00     0.095 A 
ATOM     17  H1  UNL     1       7.871 -18.365 -34.261  1.00  0.00     0.165 HD
HETATM   18  C4  UNL     1       9.831 -17.095 -36.622  1.00  0.00    -0.044 A 
HETATM   19  C5  UNL     1      10.065 -17.314 -38.106  1.00  0.00     0.049 C 
ATOM     20  H2  UNL     1      11.620 -14.660 -34.605  1.00  0.00     0.187 HD
ENDBRANCH   1  10
BRANCH   7  21
HETATM   21  C10 UNL     1      10.945 -10.514 -30.323  1.00  0.00    -0.011 A 
HETATM   22  C11 UNL     1      10.149  -9.442 -30.570  1.00  0.00     0.018 A 
HETATM   23  C12 UNL     1       9.660  -8.765 -29.490  1.00  0.00     0.050 A 
HETATM   24  S1  UNL     1      10.303  -9.611 -28.166  1.00  0.00    -0.113 SA
HETATM   25  C13 UNL     1      11.177 -10.806 -29.002  1.00  0.00     0.060 A 
ENDBRANCH   7  21
TORSDOF 2
ENDMDL
