MODEL 1
REMARK VINA RESULT: -6.736991219      0.000      0.000
REMARK  6 active torsions:
REMARK  status: ('A' for Active; 'I' for Inactive)
REMARK    1  A    between atoms: N1_1  and  C1_4 
REMARK    2  A    between atoms: C8_13  and  C9_14 
REMARK    3  A    between atoms: C9_14  and  C10_15 
REMARK    4  A    between atoms: C10_15  and  C11_16 
REMARK    5  A    between atoms: C11_16  and  C12_17 
REMARK    6  A    between atoms: C12_17  and  N3_18 
ROOT
HETATM    1  C1  UNL     1      18.543  19.505  67.325  1.00  0.00     0.106 A 
HETATM    2  N2  UNL     1      19.974  19.403  67.206  1.00  0.00    -0.342 N 
ATOM      3  H2  UNL     1      20.642  19.334  67.975  1.00  0.00     0.167 HD
HETATM    4  C2  UNL     1      20.256  19.415  65.946  1.00  0.00     0.044 A 
HETATM    5  C3  UNL     1      21.514  19.340  65.328  1.00  0.00     0.030 A 
HETATM    6  C4  UNL     1      21.602  19.367  63.954  1.00  0.00     0.002 A 
HETATM    7  C5  UNL     1      20.485  19.468  63.153  1.00  0.00     0.001 A 
HETATM    8  C6  UNL     1      19.271  19.540  63.805  1.00  0.00     0.014 A 
HETATM    9  C7  UNL     1      19.138  19.514  65.179  1.00  0.00     0.001 A 
HETATM   10  C8  UNL     1      18.051  19.573  65.967  1.00  0.00    -0.002 A 
ENDROOT
BRANCH  10  11
HETATM   11  C9  UNL     1      16.667  19.668  65.491  1.00  0.00     0.043 C 
BRANCH  11  12
HETATM   12  C10 UNL     1      16.244  21.059  65.178  1.00  0.00     0.006 C 
BRANCH  12  13
HETATM   13  C11 UNL     1      15.516  21.057  63.825  1.00  0.00     0.027 C 
BRANCH  13  14
HETATM   14  C12 UNL     1      16.427  21.796  62.862  1.00  0.00     0.229 C 
BRANCH  14  15
HETATM   15  N3  UNL     1      16.686  21.024  61.668  1.00  0.00    -0.079 N 
ATOM     16  H33 UNL     1      15.865  20.988  61.064  1.00  0.00     0.274 HD
ATOM     17  H32 UNL     1      17.325  21.513  61.041  1.00  0.00     0.274 HD
ATOM     18  H31 UNL     1      17.026  20.087  61.889  1.00  0.00     0.274 HD
ENDBRANCH  14  15
ENDBRANCH  13  14
ENDBRANCH  12  13
ENDBRANCH  11  12
ENDBRANCH  10  11
BRANCH   1  19
HETATM   19  N1  UNL     1      17.863  19.533  68.420  1.00  0.00    -0.385 N 
ATOM     20  H12 UNL     1      18.112  19.975  69.305  1.00  0.00     0.157 HD
ATOM     21  H11 UNL     1      16.952  19.103  68.581  1.00  0.00     0.157 HD
ENDBRANCH   1  19
TORSDOF 6
ENDMDL
MODEL 2
REMARK VINA RESULT: -6.662570812      2.642      4.339
REMARK  6 active torsions:
REMARK  status: ('A' for Active; 'I' for Inactive)
REMARK    1  A    between atoms: N1_1  and  C1_4 
REMARK    2  A    between atoms: C8_13  and  C9_14 
REMARK    3  A    between atoms: C9_14  and  C10_15 
REMARK    4  A    between atoms: C10_15  and  C11_16 
REMARK    5  A    between atoms: C11_16  and  C12_17 
REMARK    6  A    between atoms: C12_17  and  N3_18 
ROOT
HETATM    1  C1  UNL     1      17.376  21.218  63.099  1.00  0.00     0.106 A 
HETATM    2  N2  UNL     1      18.359  20.166  63.111  1.00  0.00    -0.342 N 
ATOM      3  H2  UNL     1      18.776  19.718  62.295  1.00  0.00     0.167 HD
HETATM    4  C2  UNL     1      18.615  19.894  64.347  1.00  0.00     0.044 A 
HETATM    5  C3  UNL     1      19.504  18.943  64.870  1.00  0.00     0.030 A 
HETATM    6  C4  UNL     1      19.635  18.808  66.234  1.00  0.00     0.002 A 
HETATM    7  C5  UNL     1      18.915  19.583  67.117  1.00  0.00     0.001 A 
HETATM    8  C6  UNL     1      18.053  20.505  66.557  1.00  0.00     0.014 A 
HETATM    9  C7  UNL     1      17.893  20.673  65.195  1.00  0.00     0.001 A 
HETATM   10  C8  UNL     1      17.111  21.508  64.490  1.00  0.00    -0.002 A 
ENDROOT
BRANCH  10  11
HETATM   11  C9  UNL     1      16.206  22.507  65.068  1.00  0.00     0.043 C 
BRANCH  11  12
HETATM   12  C10 UNL     1      16.915  23.633  65.731  1.00  0.00     0.006 C 
BRANCH  12  13
HETATM   13  C11 UNL     1      15.887  24.476  66.500  1.00  0.00     0.027 C 
BRANCH  13  14
HETATM   14  C12 UNL     1      16.645  25.685  67.019  1.00  0.00     0.229 C 
BRANCH  14  15
HETATM   15  N3  UNL     1      16.450  25.872  68.438  1.00  0.00    -0.079 N 
ATOM     16  H33 UNL     1      16.364  26.861  68.674  1.00  0.00     0.274 HD
ATOM     17  H32 UNL     1      15.525  25.556  68.731  1.00  0.00     0.274 HD
ATOM     18  H31 UNL     1      17.186  25.423  68.985  1.00  0.00     0.274 HD
ENDBRANCH  14  15
ENDBRANCH  13  14
ENDBRANCH  12  13
ENDBRANCH  11  12
ENDBRANCH  10  11
BRANCH   1  19
HETATM   19  N1  UNL     1      16.852  21.767  62.057  1.00  0.00    -0.385 N 
ATOM     20  H12 UNL     1      17.089  21.614  61.077  1.00  0.00     0.157 HD
ATOM     21  H11 UNL     1      16.105  22.462  62.048  1.00  0.00     0.157 HD
ENDBRANCH   1  19
TORSDOF 6
ENDMDL
MODEL 3
REMARK VINA RESULT: -6.594442795      2.535      5.564
REMARK  6 active torsions:
REMARK  status: ('A' for Active; 'I' for Inactive)
REMARK    1  A    between atoms: N1_1  and  C1_4 
REMARK    2  A    between atoms: C8_13  and  C9_14 
REMARK    3  A    between atoms: C9_14  and  C10_15 
REMARK    4  A    between atoms: C10_15  and  C11_16 
REMARK    5  A    between atoms: C11_16  and  C12_17 
REMARK    6  A    between atoms: C12_17  and  N3_18 
ROOT
HETATM    1  C1  UNL     1      15.589  21.190  64.247  1.00  0.00     0.106 A 
HETATM    2  N2  UNL     1      14.761  22.084  65.014  1.00  0.00    -0.342 N 
ATOM      3  H2  UNL     1      13.757  21.994  65.171  1.00  0.00     0.167 HD
HETATM    4  C2  UNL     1      15.526  23.021  65.466  1.00  0.00     0.044 A 
HETATM    5  C3  UNL     1      15.184  24.123  66.265  1.00  0.00     0.030 A 
HETATM    6  C4  UNL     1      16.159  25.018  66.645  1.00  0.00     0.002 A 
HETATM    7  C5  UNL     1      17.475  24.871  66.266  1.00  0.00     0.001 A 
HETATM    8  C6  UNL     1      17.763  23.772  65.481  1.00  0.00     0.014 A 
HETATM    9  C7  UNL     1      16.817  22.850  65.077  1.00  0.00     0.001 A 
HETATM   10  C8  UNL     1      16.922  21.742  64.325  1.00  0.00    -0.002 A 
ENDROOT
BRANCH  10  11
HETATM   11  C9  UNL     1      18.168  21.232  63.743  1.00  0.00     0.043 C 
BRANCH  11  12
HETATM   12  C10 UNL     1      18.542  19.881  64.240  1.00  0.00     0.006 C 
BRANCH  12  13
HETATM   13  C11 UNL     1      18.785  19.965  65.754  1.00  0.00     0.027 C 
BRANCH  13  14
HETATM   14  C12 UNL     1      19.621  18.749  66.109  1.00  0.00     0.229 C 
BRANCH  14  15
HETATM   15  N3  UNL     1      20.707  19.086  67.002  1.00  0.00    -0.079 N 
ATOM     16  H33 UNL     1      20.363  19.534  67.851  1.00  0.00     0.274 HD
ATOM     17  H32 UNL     1      21.119  18.250  67.416  1.00  0.00     0.274 HD
ATOM     18  H31 UNL     1      21.414  19.659  66.540  1.00  0.00     0.274 HD
ENDBRANCH  14  15
ENDBRANCH  13  14
ENDBRANCH  12  13
ENDBRANCH  11  12
ENDBRANCH  10  11
BRANCH   1  19
HETATM   19  N1  UNL     1      15.201  20.129  63.624  1.00  0.00    -0.385 N 
ATOM     20  H12 UNL     1      14.565  20.062  62.829  1.00  0.00     0.157 HD
ATOM     21  H11 UNL     1      15.471  19.169  63.835  1.00  0.00     0.157 HD
ENDBRANCH   1  19
TORSDOF 6
ENDMDL
MODEL 4
REMARK VINA RESULT: -6.554235244      4.322      6.048
REMARK  6 active torsions:
REMARK  status: ('A' for Active; 'I' for Inactive)
REMARK    1  A    between atoms: N1_1  and  C1_4 
REMARK    2  A    between atoms: C8_13  and  C9_14 
REMARK    3  A    between atoms: C9_14  and  C10_15 
REMARK    4  A    between atoms: C10_15  and  C11_16 
REMARK    5  A    between atoms: C11_16  and  C12_17 
REMARK    6  A    between atoms: C12_17  and  N3_18 
ROOT
HETATM    1  C1  UNL     1      19.166  24.639  64.549  1.00  0.00     0.106 A 
HETATM    2  N2  UNL     1      19.120  25.974  65.087  1.00  0.00    -0.342 N 
ATOM      3  H2  UNL     1      19.744  26.745  64.847  1.00  0.00     0.167 HD
HETATM    4  C2  UNL     1      18.142  26.014  65.928  1.00  0.00     0.044 A 
HETATM    5  C3  UNL     1      17.699  27.094  66.707  1.00  0.00     0.030 A 
HETATM    6  C4  UNL     1      16.624  26.930  67.552  1.00  0.00     0.002 A 
HETATM    7  C5  UNL     1      15.959  25.728  67.664  1.00  0.00     0.001 A 
HETATM    8  C6  UNL     1      16.430  24.695  66.879  1.00  0.00     0.014 A 
HETATM    9  C7  UNL     1      17.503  24.817  66.018  1.00  0.00     0.001 A 
HETATM   10  C8  UNL     1      18.085  23.929  65.195  1.00  0.00    -0.002 A 
ENDROOT
BRANCH  10  11
HETATM   11  C9  UNL     1      17.656  22.539  65.012  1.00  0.00     0.043 C 
BRANCH  11  12
HETATM   12  C10 UNL     1      16.684  22.362  63.901  1.00  0.00     0.006 C 
BRANCH  12  13
HETATM   13  C11 UNL     1      15.294  22.103  64.500  1.00  0.00     0.027 C 
BRANCH  13  14
HETATM   14  C12 UNL     1      14.470  21.486  63.385  1.00  0.00     0.229 C 
BRANCH  14  15
HETATM   15  N3  UNL     1      15.191  20.437  62.701  1.00  0.00    -0.079 N 
ATOM     16  H33 UNL     1      14.618  19.600  62.595  1.00  0.00     0.274 HD
ATOM     17  H32 UNL     1      15.328  20.663  61.716  1.00  0.00     0.274 HD
ATOM     18  H31 UNL     1      16.077  20.225  63.160  1.00  0.00     0.274 HD
ENDBRANCH  14  15
ENDBRANCH  13  14
ENDBRANCH  12  13
ENDBRANCH  11  12
ENDBRANCH  10  11
BRANCH   1  19
HETATM   19  N1  UNL     1      20.007  24.190  63.680  1.00  0.00    -0.385 N 
ATOM     20  H12 UNL     1      20.413  23.257  63.619  1.00  0.00     0.157 HD
ATOM     21  H11 UNL     1      20.411  24.711  62.901  1.00  0.00     0.157 HD
ENDBRANCH   1  19
TORSDOF 6
ENDMDL
MODEL 5
REMARK VINA RESULT: -6.452460332      3.869      5.896
REMARK  6 active torsions:
REMARK  status: ('A' for Active; 'I' for Inactive)
REMARK    1  A    between atoms: N1_1  and  C1_4 
REMARK    2  A    between atoms: C8_13  and  C9_14 
REMARK    3  A    between atoms: C9_14  and  C10_15 
REMARK    4  A    between atoms: C10_15  and  C11_16 
REMARK    5  A    between atoms: C11_16  and  C12_17 
REMARK    6  A    between atoms: C12_17  and  N3_18 
ROOT
HETATM    1  C1  UNL     1      18.540  22.641  63.274  1.00  0.00     0.106 A 
HETATM    2  N2  UNL     1      17.605  21.914  62.456  1.00  0.00    -0.342 N 
ATOM      3  H2  UNL     1      17.789  21.513  61.536  1.00  0.00     0.167 HD
HETATM    4  C2  UNL     1      16.489  21.863  63.103  1.00  0.00     0.044 A 
HETATM    5  C3  UNL     1      15.279  21.263  62.719  1.00  0.00     0.030 A 
HETATM    6  C4  UNL     1      14.192  21.319  63.563  1.00  0.00     0.002 A 
HETATM    7  C5  UNL     1      14.248  21.951  64.786  1.00  0.00     0.001 A 
HETATM    8  C6  UNL     1      15.458  22.526  65.120  1.00  0.00     0.014 A 
HETATM    9  C7  UNL     1      16.572  22.493  64.305  1.00  0.00     0.001 A 
HETATM   10  C8  UNL     1      17.808  22.993  64.470  1.00  0.00    -0.002 A 
ENDROOT
BRANCH  10  11
HETATM   11  C9  UNL     1      18.272  23.723  65.655  1.00  0.00     0.043 C 
BRANCH  11  12
HETATM   12  C10 UNL     1      18.148  25.199  65.524  1.00  0.00     0.006 C 
BRANCH  12  13
HETATM   13  C11 UNL     1      17.058  25.687  66.490  1.00  0.00     0.027 C 
BRANCH  13  14
HETATM   14  C12 UNL     1      17.289  27.178  66.658  1.00  0.00     0.229 C 
BRANCH  14  15
HETATM   15  N3  UNL     1      17.925  27.757  65.496  1.00  0.00    -0.079 N 
ATOM     16  H33 UNL     1      18.734  28.322  65.758  1.00  0.00     0.274 HD
ATOM     17  H32 UNL     1      18.400  27.046  64.939  1.00  0.00     0.274 HD
ATOM     18  H31 UNL     1      17.266  28.293  64.930  1.00  0.00     0.274 HD
ENDBRANCH  14  15
ENDBRANCH  13  14
ENDBRANCH  12  13
ENDBRANCH  11  12
ENDBRANCH  10  11
BRANCH   1  19
HETATM   19  N1  UNL     1      19.766  22.915  62.981  1.00  0.00    -0.385 N 
ATOM     20  H12 UNL     1      20.402  22.391  62.381  1.00  0.00     0.157 HD
ATOM     21  H11 UNL     1      20.306  23.713  63.314  1.00  0.00     0.157 HD
ENDBRANCH   1  19
TORSDOF 6
ENDMDL
