MODEL 1
REMARK VINA RESULT: -10.636878093      0.000      0.000
REMARK  3 active torsions:
REMARK  status: ('A' for Active; 'I' for Inactive)
REMARK    1  A    between atoms: C4_4  and  N1_5 
REMARK    2  A    between atoms: N1_5  and  C5_7 
REMARK    3  A    between atoms: C7_11  and  C8_12 
ROOT
HETATM    1  C5  UNL     1     -13.281   3.516 -16.584  1.00  0.00     0.116 A 
HETATM    2  N2  UNL     1     -13.437   2.188 -16.694  1.00  0.00    -0.351 N 
ATOM      3  H2  UNL     1     -14.059   1.691 -16.056  1.00  0.00     0.166 HD
HETATM    4  C6  UNL     1     -12.771   1.519 -17.643  1.00  0.00     0.102 A 
HETATM    5  C7  UNL     1     -11.913   2.164 -18.532  1.00  0.00     0.001 A 
HETATM    6  C14 UNL     1     -11.766   3.513 -18.410  1.00  0.00    -0.010 A 
HETATM    7  C15 UNL     1     -10.960   4.214 -19.242  1.00  0.00     0.013 A 
HETATM    8  C16 UNL     1     -10.828   5.582 -19.112  1.00  0.00     0.001 A 
HETATM    9  C17 UNL     1     -11.518   6.282 -18.123  1.00  0.00     0.001 A 
HETATM   10  C18 UNL     1     -12.346   5.591 -17.264  1.00  0.00     0.016 A 
HETATM   11  C19 UNL     1     -12.455   4.230 -17.421  1.00  0.00     0.019 A 
ENDROOT
BRANCH   1  12
HETATM   12  N1  UNL     1     -13.927   4.184 -15.660  1.00  0.00    -0.342 N 
ATOM     13  H1  UNL     1     -13.533   4.230 -14.721  1.00  0.00     0.167 HD
BRANCH  12  14
HETATM   14  C4  UNL     1     -15.151   4.843 -15.922  1.00  0.00     0.033 A 
HETATM   15  C3  UNL     1     -15.954   4.465 -16.982  1.00  0.00     0.029 A 
HETATM   16  C2  UNL     1     -17.144   5.148 -17.190  1.00  0.00     0.002 A 
HETATM   17  C1  UNL     1     -17.555   6.185 -16.384  1.00  0.00     0.000 A 
HETATM   18  C21 UNL     1     -16.718   6.539 -15.323  1.00  0.00     0.002 A 
HETATM   19  C20 UNL     1     -15.534   5.874 -15.099  1.00  0.00     0.029 A 
ENDBRANCH  12  14
ENDBRANCH   1  12
BRANCH   5  20
HETATM   20  C8  UNL     1     -11.200   1.365 -19.507  1.00  0.00    -0.024 A 
HETATM   21  C9  UNL     1     -11.758   1.226 -20.787  1.00  0.00     0.012 A 
HETATM   22  C10 UNL     1     -11.181   0.465 -21.767  1.00  0.00     0.001 A 
HETATM   23  C11 UNL     1      -9.997  -0.204 -21.502  1.00  0.00     0.000 A 
HETATM   24  C12 UNL     1      -9.458  -0.062 -20.243  1.00  0.00     0.001 A 
HETATM   25  C13 UNL     1     -10.033   0.700 -19.262  1.00  0.00     0.012 A 
ENDBRANCH   5  20
TORSDOF 3
ENDMDL
MODEL 2
REMARK VINA RESULT: -10.507856178      0.172      1.403
REMARK  3 active torsions:
REMARK  status: ('A' for Active; 'I' for Inactive)
REMARK    1  A    between atoms: C4_4  and  N1_5 
REMARK    2  A    between atoms: N1_5  and  C5_7 
REMARK    3  A    between atoms: C7_11  and  C8_12 
ROOT
HETATM    1  C5  UNL     1     -13.422   3.508 -16.655  1.00  0.00     0.116 A 
HETATM    2  N2  UNL     1     -13.627   2.190 -16.793  1.00  0.00    -0.351 N 
ATOM      3  H2  UNL     1     -14.263   1.702 -16.163  1.00  0.00     0.166 HD
HETATM    4  C6  UNL     1     -12.993   1.519 -17.763  1.00  0.00     0.102 A 
HETATM    5  C7  UNL     1     -12.118   2.153 -18.644  1.00  0.00     0.001 A 
HETATM    6  C14 UNL     1     -11.921   3.493 -18.491  1.00  0.00    -0.010 A 
HETATM    7  C15 UNL     1     -11.095   4.183 -19.313  1.00  0.00     0.013 A 
HETATM    8  C16 UNL     1     -10.911   5.541 -19.153  1.00  0.00     0.001 A 
HETATM    9  C17 UNL     1     -11.569   6.243 -18.142  1.00  0.00     0.001 A 
HETATM   10  C18 UNL     1     -12.415   5.563 -17.293  1.00  0.00     0.016 A 
HETATM   11  C19 UNL     1     -12.576   4.211 -17.481  1.00  0.00     0.019 A 
ENDROOT
BRANCH   1  12
HETATM   12  N1  UNL     1     -14.036   4.178 -15.710  1.00  0.00    -0.342 N 
ATOM     13  H1  UNL     1     -13.622   4.208 -14.779  1.00  0.00     0.167 HD
BRANCH  12  14
HETATM   14  C4  UNL     1     -15.253   4.861 -15.939  1.00  0.00     0.033 A 
HETATM   15  C3  UNL     1     -15.704   5.833 -15.065  1.00  0.00     0.029 A 
HETATM   16  C2  UNL     1     -16.905   6.470 -15.341  1.00  0.00     0.002 A 
HETATM   17  C1  UNL     1     -17.665   6.172 -16.448  1.00  0.00     0.000 A 
HETATM   18  C21 UNL     1     -17.179   5.184 -17.309  1.00  0.00     0.002 A 
HETATM   19  C20 UNL     1     -15.990   4.541 -17.054  1.00  0.00     0.029 A 
ENDBRANCH  12  14
ENDBRANCH   1  12
BRANCH   5  20
HETATM   20  C8  UNL     1     -11.443   1.351 -19.643  1.00  0.00    -0.024 A 
HETATM   21  C9  UNL     1     -10.165   0.854 -19.343  1.00  0.00     0.012 A 
HETATM   22  C10 UNL     1      -9.432   0.116 -20.231  1.00  0.00     0.001 A 
HETATM   23  C11 UNL     1      -9.955  -0.162 -21.483  1.00  0.00     0.000 A 
HETATM   24  C12 UNL     1     -11.209   0.331 -21.767  1.00  0.00     0.001 A 
HETATM   25  C13 UNL     1     -11.946   1.068 -20.880  1.00  0.00     0.012 A 
ENDBRANCH   5  20
TORSDOF 3
ENDMDL
MODEL 3
REMARK VINA RESULT: -10.499104072      1.183      6.639
REMARK  3 active torsions:
REMARK  status: ('A' for Active; 'I' for Inactive)
REMARK    1  A    between atoms: C4_4  and  N1_5 
REMARK    2  A    between atoms: N1_5  and  C5_7 
REMARK    3  A    between atoms: C7_11  and  C8_12 
ROOT
HETATM    1  C5  UNL     1     -12.050   2.140 -17.844  1.00  0.00     0.116 A 
HETATM    2  N2  UNL     1     -13.096   1.637 -17.172  1.00  0.00    -0.351 N 
ATOM      3  H2  UNL     1     -13.192   0.629 -17.055  1.00  0.00     0.166 HD
HETATM    4  C6  UNL     1     -14.014   2.466 -16.657  1.00  0.00     0.102 A 
HETATM    5  C7  UNL     1     -13.915   3.849 -16.797  1.00  0.00     0.001 A 
HETATM    6  C14 UNL     1     -12.846   4.345 -17.481  1.00  0.00    -0.010 A 
HETATM    7  C15 UNL     1     -12.673   5.677 -17.651  1.00  0.00     0.013 A 
HETATM    8  C16 UNL     1     -11.581   6.167 -18.337  1.00  0.00     0.001 A 
HETATM    9  C17 UNL     1     -10.624   5.307 -18.876  1.00  0.00     0.001 A 
HETATM   10  C18 UNL     1     -10.778   3.946 -18.717  1.00  0.00     0.016 A 
HETATM   11  C19 UNL     1     -11.876   3.493 -18.027  1.00  0.00     0.019 A 
ENDROOT
BRANCH   1  12
HETATM   12  N1  UNL     1     -11.144   1.342 -18.353  1.00  0.00    -0.342 N 
ATOM     13  H1  UNL     1     -10.210   1.335 -17.946  1.00  0.00     0.167 HD
BRANCH  12  14
HETATM   14  C4  UNL     1     -11.420   0.489 -19.447  1.00  0.00     0.033 A 
HETATM   15  C3  UNL     1     -11.753  -0.839 -19.253  1.00  0.00     0.029 A 
HETATM   16  C2  UNL     1     -12.013  -1.628 -20.364  1.00  0.00     0.002 A 
HETATM   17  C1  UNL     1     -11.953  -1.142 -21.650  1.00  0.00     0.000 A 
HETATM   18  C21 UNL     1     -11.614   0.205 -21.807  1.00  0.00     0.002 A 
HETATM   19  C20 UNL     1     -11.353   1.004 -20.719  1.00  0.00     0.029 A 
ENDBRANCH  12  14
ENDBRANCH   1  12
BRANCH   5  20
HETATM   20  C8  UNL     1     -14.968   4.676 -16.244  1.00  0.00    -0.024 A 
HETATM   21  C9  UNL     1     -16.161   4.805 -16.969  1.00  0.00     0.012 A 
HETATM   22  C10 UNL     1     -17.201   5.589 -16.548  1.00  0.00     0.001 A 
HETATM   23  C11 UNL     1     -17.088   6.292 -15.360  1.00  0.00     0.000 A 
HETATM   24  C12 UNL     1     -15.912   6.158 -14.656  1.00  0.00     0.001 A 
HETATM   25  C13 UNL     1     -14.871   5.373 -15.073  1.00  0.00     0.012 A 
ENDBRANCH   5  20
TORSDOF 3
ENDMDL
MODEL 4
REMARK VINA RESULT: -10.216484135      1.551      6.852
REMARK  3 active torsions:
REMARK  status: ('A' for Active; 'I' for Inactive)
REMARK    1  A    between atoms: C4_4  and  N1_5 
REMARK    2  A    between atoms: N1_5  and  C5_7 
REMARK    3  A    between atoms: C7_11  and  C8_12 
ROOT
HETATM    1  C5  UNL     1     -12.543   2.506 -19.687  1.00  0.00     0.116 A 
HETATM    2  N2  UNL     1     -13.709   1.870 -19.500  1.00  0.00    -0.351 N 
ATOM      3  H2  UNL     1     -13.877   0.968 -19.947  1.00  0.00     0.166 HD
HETATM    4  C6  UNL     1     -14.650   2.423 -18.726  1.00  0.00     0.102 A 
HETATM    5  C7  UNL     1     -14.456   3.653 -18.099  1.00  0.00     0.001 A 
HETATM    6  C14 UNL     1     -13.266   4.288 -18.297  1.00  0.00    -0.010 A 
HETATM    7  C15 UNL     1     -12.997   5.480 -17.714  1.00  0.00     0.013 A 
HETATM    8  C16 UNL     1     -11.784   6.107 -17.916  1.00  0.00     0.001 A 
HETATM    9  C17 UNL     1     -10.802   5.534 -18.723  1.00  0.00     0.001 A 
HETATM   10  C18 UNL     1     -11.053   4.320 -19.328  1.00  0.00     0.016 A 
HETATM   11  C19 UNL     1     -12.269   3.723 -19.105  1.00  0.00     0.019 A 
ENDROOT
BRANCH   1  12
HETATM   12  N1  UNL     1     -11.613   1.977 -20.442  1.00  0.00    -0.342 N 
ATOM     13  H1  UNL     1     -11.378   2.429 -21.325  1.00  0.00     0.167 HD
BRANCH  12  14
HETATM   14  C4  UNL     1     -10.923   0.798 -20.074  1.00  0.00     0.033 A 
HETATM   15  C3  UNL     1     -10.572   0.556 -18.758  1.00  0.00     0.029 A 
HETATM   16  C2  UNL     1      -9.897  -0.618 -18.457  1.00  0.00     0.002 A 
HETATM   17  C1  UNL     1      -9.562  -1.549 -19.413  1.00  0.00     0.000 A 
HETATM   18  C21 UNL     1      -9.933  -1.270 -20.731  1.00  0.00     0.002 A 
HETATM   19  C20 UNL     1     -10.603  -0.113 -21.052  1.00  0.00     0.029 A 
ENDBRANCH  12  14
ENDBRANCH   1  12
BRANCH   5  20
HETATM   20  C8  UNL     1     -15.537   4.203 -17.307  1.00  0.00    -0.024 A 
HETATM   21  C9  UNL     1     -16.640   4.750 -17.978  1.00  0.00     0.012 A 
HETATM   22  C10 UNL     1     -17.695   5.323 -17.322  1.00  0.00     0.001 A 
HETATM   23  C11 UNL     1     -17.691   5.375 -15.938  1.00  0.00     0.000 A 
HETATM   24  C12 UNL     1     -16.603   4.835 -15.288  1.00  0.00     0.001 A 
HETATM   25  C13 UNL     1     -15.547   4.260 -15.942  1.00  0.00     0.012 A 
ENDBRANCH   5  20
TORSDOF 3
ENDMDL
MODEL 5
REMARK VINA RESULT: -9.993458182      1.532      6.728
REMARK  3 active torsions:
REMARK  status: ('A' for Active; 'I' for Inactive)
REMARK    1  A    between atoms: C4_4  and  N1_5 
REMARK    2  A    between atoms: N1_5  and  C5_7 
REMARK    3  A    between atoms: C7_11  and  C8_12 
ROOT
HETATM    1  C5  UNL     1     -12.368   1.845 -18.070  1.00  0.00     0.116 A 
HETATM    2  N2  UNL     1     -13.481   1.403 -17.465  1.00  0.00    -0.351 N 
ATOM      3  H2  UNL     1     -13.669   0.403 -17.406  1.00  0.00     0.166 HD
HETATM    4  C6  UNL     1     -14.344   2.283 -16.939  1.00  0.00     0.102 A 
HETATM    5  C7  UNL     1     -14.120   3.658 -17.001  1.00  0.00     0.001 A 
HETATM    6  C14 UNL     1     -12.984   4.091 -17.617  1.00  0.00    -0.010 A 
HETATM    7  C15 UNL     1     -12.690   5.409 -17.708  1.00  0.00     0.013 A 
HETATM    8  C16 UNL     1     -11.532   5.834 -18.328  1.00  0.00     0.001 A 
HETATM    9  C17 UNL     1     -10.632   4.921 -18.877  1.00  0.00     0.001 A 
HETATM   10  C18 UNL     1     -10.910   3.572 -18.797  1.00  0.00     0.016 A 
HETATM   11  C19 UNL     1     -12.070   3.184 -18.173  1.00  0.00     0.019 A 
ENDROOT
BRANCH   1  12
HETATM   12  N1  UNL     1     -11.516   0.996 -18.588  1.00  0.00    -0.342 N 
ATOM     13  H1  UNL     1     -10.537   1.046 -18.306  1.00  0.00     0.167 HD
BRANCH  12  14
HETATM   14  C4  UNL     1     -11.907   0.012 -19.526  1.00  0.00     0.033 A 
HETATM   15  C3  UNL     1     -11.717   0.201 -20.883  1.00  0.00     0.029 A 
HETATM   16  C2  UNL     1     -12.121  -0.799 -21.755  1.00  0.00     0.002 A 
HETATM   17  C1  UNL     1     -12.701  -1.970 -21.325  1.00  0.00     0.000 A 
HETATM   18  C21 UNL     1     -12.876  -2.126 -19.948  1.00  0.00     0.002 A 
HETATM   19  C20 UNL     1     -12.483  -1.147 -19.065  1.00  0.00     0.029 A 
ENDBRANCH  12  14
ENDBRANCH   1  12
BRANCH   5  20
HETATM   20  C8  UNL     1     -15.118   4.545 -16.441  1.00  0.00    -0.024 A 
HETATM   21  C9  UNL     1     -14.797   5.253 -15.274  1.00  0.00     0.012 A 
HETATM   22  C10 UNL     1     -15.682   6.089 -14.649  1.00  0.00     0.001 A 
HETATM   23  C11 UNL     1     -16.952   6.255 -15.177  1.00  0.00     0.000 A 
HETATM   24  C12 UNL     1     -17.257   5.555 -16.323  1.00  0.00     0.001 A 
HETATM   25  C13 UNL     1     -16.373   4.719 -16.951  1.00  0.00     0.012 A 
ENDBRANCH   5  20
TORSDOF 3
ENDMDL
