MODEL 1
REMARK VINA RESULT: -10.655360165      0.000      0.000
REMARK  3 active torsions:
REMARK  status: ('A' for Active; 'I' for Inactive)
REMARK    1  A    between atoms: C4_4  and  N1_5 
REMARK    2  A    between atoms: N1_5  and  C5_7 
REMARK    3  A    between atoms: C13_17  and  C14_18 
ROOT
HETATM    1  C5  UNL     1     -11.553   2.488 -18.299  1.00  0.00     0.117 A 
HETATM    2  N2  UNL     1     -10.824   1.358 -18.216  1.00  0.00    -0.341 N 
ATOM      3  H2  UNL     1     -10.344   1.155 -17.340  1.00  0.00     0.167 HD
HETATM    4  C6  UNL     1     -10.697   0.489 -19.227  1.00  0.00     0.044 A 
HETATM    5  C7  UNL     1      -9.942  -0.669 -19.126  1.00  0.00     0.030 A 
HETATM    6  C8  UNL     1      -9.816  -1.561 -20.172  1.00  0.00     0.002 A 
HETATM    7  C9  UNL     1     -10.452  -1.318 -21.376  1.00  0.00     0.001 A 
HETATM    8  C10 UNL     1     -11.204  -0.177 -21.495  1.00  0.00     0.014 A 
HETATM    9  C11 UNL     1     -11.326   0.708 -20.449  1.00  0.00    -0.009 A 
HETATM   10  C12 UNL     1     -12.075   1.851 -20.561  1.00  0.00     0.029 A 
HETATM   11  C13 UNL     1     -12.192   2.744 -19.490  1.00  0.00     0.019 A 
ENDROOT
BRANCH   1  12
HETATM   12  N1  UNL     1     -11.681   3.315 -17.338  1.00  0.00    -0.342 N 
ATOM     13  H1  UNL     1     -10.862   3.854 -17.058  1.00  0.00     0.167 HD
BRANCH  12  14
HETATM   14  C4  UNL     1     -12.893   3.533 -16.630  1.00  0.00     0.033 A 
HETATM   15  C3  UNL     1     -13.698   2.510 -16.195  1.00  0.00     0.029 A 
HETATM   16  C2  UNL     1     -14.855   2.774 -15.518  1.00  0.00     0.002 A 
HETATM   17  C1  UNL     1     -15.221   4.082 -15.266  1.00  0.00     0.000 A 
HETATM   18  C21 UNL     1     -14.431   5.109 -15.692  1.00  0.00     0.002 A 
HETATM   19  C20 UNL     1     -13.271   4.831 -16.372  1.00  0.00     0.029 A 
ENDBRANCH  12  14
ENDBRANCH   1  12
BRANCH  11  20
HETATM   20  C14 UNL     1     -13.008   3.918 -19.741  1.00  0.00    -0.022 A 
HETATM   21  C15 UNL     1     -12.428   5.154 -20.011  1.00  0.00     0.012 A 
HETATM   22  C16 UNL     1     -13.207   6.266 -20.241  1.00  0.00     0.001 A 
HETATM   23  C17 UNL     1     -14.572   6.110 -20.196  1.00  0.00     0.000 A 
HETATM   24  C18 UNL     1     -15.151   4.907 -19.933  1.00  0.00     0.001 A 
HETATM   25  C19 UNL     1     -14.375   3.779 -19.699  1.00  0.00     0.012 A 
ENDBRANCH  11  20
TORSDOF 3
ENDMDL
MODEL 2
REMARK VINA RESULT: -10.621045322      0.127      1.411
REMARK  3 active torsions:
REMARK  status: ('A' for Active; 'I' for Inactive)
REMARK    1  A    between atoms: C4_4  and  N1_5 
REMARK    2  A    between atoms: N1_5  and  C5_7 
REMARK    3  A    between atoms: C13_17  and  C14_18 
ROOT
HETATM    1  C5  UNL     1     -11.553   2.395 -18.305  1.00  0.00     0.117 A 
HETATM    2  N2  UNL     1     -10.844   1.250 -18.239  1.00  0.00    -0.341 N 
ATOM      3  H2  UNL     1     -10.357   1.032 -17.371  1.00  0.00     0.167 HD
HETATM    4  C6  UNL     1     -10.748   0.386 -19.257  1.00  0.00     0.044 A 
HETATM    5  C7  UNL     1     -10.015  -0.787 -19.174  1.00  0.00     0.030 A 
HETATM    6  C8  UNL     1      -9.920  -1.675 -20.227  1.00  0.00     0.002 A 
HETATM    7  C9  UNL     1     -10.568  -1.412 -21.420  1.00  0.00     0.001 A 
HETATM    8  C10 UNL     1     -11.299  -0.255 -21.522  1.00  0.00     0.014 A 
HETATM    9  C11 UNL     1     -11.390   0.624 -20.469  1.00  0.00    -0.009 A 
HETATM   10  C12 UNL     1     -12.118   1.783 -20.564  1.00  0.00     0.029 A 
HETATM   11  C13 UNL     1     -12.203   2.670 -19.485  1.00  0.00     0.019 A 
ENDROOT
BRANCH   1  12
HETATM   12  N1  UNL     1     -11.652   3.218 -17.337  1.00  0.00    -0.342 N 
ATOM     13  H1  UNL     1     -10.813   3.722 -17.050  1.00  0.00     0.167 HD
BRANCH  12  14
HETATM   14  C4  UNL     1     -12.857   3.478 -16.631  1.00  0.00     0.033 A 
HETATM   15  C3  UNL     1     -13.285   4.746 -16.329  1.00  0.00     0.029 A 
HETATM   16  C2  UNL     1     -14.453   4.942 -15.647  1.00  0.00     0.002 A 
HETATM   17  C1  UNL     1     -15.213   3.856 -15.258  1.00  0.00     0.000 A 
HETATM   18  C21 UNL     1     -14.800   2.590 -15.552  1.00  0.00     0.002 A 
HETATM   19  C20 UNL     1     -13.624   2.406 -16.238  1.00  0.00     0.029 A 
ENDBRANCH  12  14
ENDBRANCH   1  12
BRANCH  11  20
HETATM   20  C14 UNL     1     -12.999   3.861 -19.718  1.00  0.00    -0.022 A 
HETATM   21  C15 UNL     1     -14.390   3.815 -19.698  1.00  0.00     0.012 A 
HETATM   22  C16 UNL     1     -15.140   4.947 -19.928  1.00  0.00     0.001 A 
HETATM   23  C17 UNL     1     -14.467   6.120 -20.174  1.00  0.00     0.000 A 
HETATM   24  C18 UNL     1     -13.108   6.178 -20.196  1.00  0.00     0.001 A 
HETATM   25  C19 UNL     1     -12.341   5.043 -19.966  1.00  0.00     0.012 A 
ENDBRANCH  11  20
TORSDOF 3
ENDMDL
MODEL 3
REMARK VINA RESULT: -10.608919734      0.537      1.134
REMARK  3 active torsions:
REMARK  status: ('A' for Active; 'I' for Inactive)
REMARK    1  A    between atoms: C4_4  and  N1_5 
REMARK    2  A    between atoms: N1_5  and  C5_7 
REMARK    3  A    between atoms: C13_17  and  C14_18 
ROOT
HETATM    1  C5  UNL     1     -11.722   3.011 -18.295  1.00  0.00     0.117 A 
HETATM    2  N2  UNL     1     -10.918   1.935 -18.186  1.00  0.00    -0.341 N 
ATOM      3  H2  UNL     1     -10.379   1.819 -17.328  1.00  0.00     0.167 HD
HETATM    4  C6  UNL     1     -10.791   1.012 -19.147  1.00  0.00     0.044 A 
HETATM    5  C7  UNL     1      -9.959  -0.089 -19.020  1.00  0.00     0.030 A 
HETATM    6  C8  UNL     1      -9.833  -1.038 -20.015  1.00  0.00     0.002 A 
HETATM    7  C9  UNL     1     -10.549  -0.912 -21.192  1.00  0.00     0.001 A 
HETATM    8  C10 UNL     1     -11.378   0.171 -21.337  1.00  0.00     0.014 A 
HETATM    9  C11 UNL     1     -11.499   1.112 -20.342  1.00  0.00    -0.009 A 
HETATM   10  C12 UNL     1     -12.326   2.199 -20.479  1.00  0.00     0.029 A 
HETATM   11  C13 UNL     1     -12.441   3.150 -19.459  1.00  0.00     0.019 A 
ENDROOT
BRANCH   1  12
HETATM   12  N1  UNL     1     -11.851   3.890 -17.380  1.00  0.00    -0.342 N 
ATOM     13  H1  UNL     1     -11.041   4.468 -17.156  1.00  0.00     0.167 HD
BRANCH  12  14
HETATM   14  C4  UNL     1     -13.050   4.114 -16.653  1.00  0.00     0.033 A 
HETATM   15  C3  UNL     1     -13.834   3.094 -16.175  1.00  0.00     0.029 A 
HETATM   16  C2  UNL     1     -14.980   3.365 -15.480  1.00  0.00     0.002 A 
HETATM   17  C1  UNL     1     -15.355   4.675 -15.255  1.00  0.00     0.000 A 
HETATM   18  C21 UNL     1     -14.585   5.698 -15.724  1.00  0.00     0.002 A 
HETATM   19  C20 UNL     1     -13.436   5.414 -16.421  1.00  0.00     0.029 A 
ENDBRANCH  12  14
ENDBRANCH   1  12
BRANCH  11  20
HETATM   20  C14 UNL     1     -13.343   4.253 -19.734  1.00  0.00    -0.022 A 
HETATM   21  C15 UNL     1     -14.722   4.100 -19.630  1.00  0.00     0.012 A 
HETATM   22  C16 UNL     1     -15.574   5.149 -19.899  1.00  0.00     0.001 A 
HETATM   23  C17 UNL     1     -15.013   6.347 -20.271  1.00  0.00     0.000 A 
HETATM   24  C18 UNL     1     -13.666   6.509 -20.377  1.00  0.00     0.001 A 
HETATM   25  C19 UNL     1     -12.799   5.459 -20.108  1.00  0.00     0.012 A 
ENDBRANCH  11  20
TORSDOF 3
ENDMDL
MODEL 4
REMARK VINA RESULT: -10.575589924      0.912      1.362
REMARK  3 active torsions:
REMARK  status: ('A' for Active; 'I' for Inactive)
REMARK    1  A    between atoms: C4_4  and  N1_5 
REMARK    2  A    between atoms: N1_5  and  C5_7 
REMARK    3  A    between atoms: C13_17  and  C14_18 
ROOT
HETATM    1  C5  UNL     1     -11.758   1.609 -18.374  1.00  0.00     0.117 A 
HETATM    2  N2  UNL     1     -11.351   0.324 -18.357  1.00  0.00    -0.341 N 
ATOM      3  H2  UNL     1     -10.946  -0.044 -17.497  1.00  0.00     0.167 HD
HETATM    4  C6  UNL     1     -11.450  -0.492 -19.413  1.00  0.00     0.044 A 
HETATM    5  C7  UNL     1     -11.026  -1.812 -19.381  1.00  0.00     0.030 A 
HETATM    6  C8  UNL     1     -11.132  -2.649 -20.473  1.00  0.00     0.002 A 
HETATM    7  C9  UNL     1     -11.675  -2.183 -21.657  1.00  0.00     0.001 A 
HETATM    8  C10 UNL     1     -12.101  -0.880 -21.710  1.00  0.00     0.014 A 
HETATM    9  C11 UNL     1     -11.993  -0.052 -20.617  1.00  0.00    -0.009 A 
HETATM   10  C12 UNL     1     -12.416   1.253 -20.662  1.00  0.00     0.029 A 
HETATM   11  C13 UNL     1     -12.301   2.086 -19.544  1.00  0.00     0.019 A 
ENDROOT
BRANCH   1  12
HETATM   12  N1  UNL     1     -11.670   2.388 -17.369  1.00  0.00    -0.342 N 
ATOM     13  H1  UNL     1     -10.738   2.644 -17.042  1.00  0.00     0.167 HD
BRANCH  12  14
HETATM   14  C4  UNL     1     -12.788   2.922 -16.674  1.00  0.00     0.033 A 
HETATM   15  C3  UNL     1     -12.932   4.262 -16.412  1.00  0.00     0.029 A 
HETATM   16  C2  UNL     1     -14.028   4.725 -15.740  1.00  0.00     0.002 A 
HETATM   17  C1  UNL     1     -15.002   3.840 -15.319  1.00  0.00     0.000 A 
HETATM   18  C21 UNL     1     -14.872   2.506 -15.573  1.00  0.00     0.002 A 
HETATM   19  C20 UNL     1     -13.766   2.053 -16.250  1.00  0.00     0.029 A 
ENDBRANCH  12  14
ENDBRANCH   1  12
BRANCH  11  20
HETATM   20  C14 UNL     1     -12.778   3.444 -19.726  1.00  0.00    -0.022 A 
HETATM   21  C15 UNL     1     -11.892   4.503 -19.903  1.00  0.00     0.012 A 
HETATM   22  C16 UNL     1     -12.351   5.791 -20.068  1.00  0.00     0.001 A 
HETATM   23  C17 UNL     1     -13.711   5.991 -20.051  1.00  0.00     0.000 A 
HETATM   24  C18 UNL     1     -14.588   4.965 -19.879  1.00  0.00     0.001 A 
HETATM   25  C19 UNL     1     -14.136   3.662 -19.712  1.00  0.00     0.012 A 
ENDBRANCH  11  20
TORSDOF 3
ENDMDL
MODEL 5
REMARK VINA RESULT: -10.166048574      1.768      2.312
REMARK  3 active torsions:
REMARK  status: ('A' for Active; 'I' for Inactive)
REMARK    1  A    between atoms: C4_4  and  N1_5 
REMARK    2  A    between atoms: N1_5  and  C5_7 
REMARK    3  A    between atoms: C13_17  and  C14_18 
ROOT
HETATM    1  C5  UNL     1     -13.278   1.401 -19.818  1.00  0.00     0.117 A 
HETATM    2  N2  UNL     1     -13.320   0.110 -20.200  1.00  0.00    -0.341 N 
ATOM      3  H2  UNL     1     -14.211  -0.382 -20.147  1.00  0.00     0.167 HD
HETATM    4  C6  UNL     1     -12.250  -0.560 -20.647  1.00  0.00     0.044 A 
HETATM    5  C7  UNL     1     -12.309  -1.889 -21.036  1.00  0.00     0.030 A 
HETATM    6  C8  UNL     1     -11.202  -2.573 -21.496  1.00  0.00     0.002 A 
HETATM    7  C9  UNL     1      -9.976  -1.938 -21.581  1.00  0.00     0.001 A 
HETATM    8  C10 UNL     1      -9.897  -0.623 -21.200  1.00  0.00     0.014 A 
HETATM    9  C11 UNL     1     -11.004   0.054 -20.744  1.00  0.00    -0.009 A 
HETATM   10  C12 UNL     1     -10.932   1.369 -20.360  1.00  0.00     0.029 A 
HETATM   11  C13 UNL     1     -12.066   2.047 -19.897  1.00  0.00     0.019 A 
ENDROOT
BRANCH   1  12
HETATM   12  N1  UNL     1     -14.295   2.044 -19.398  1.00  0.00    -0.342 N 
ATOM     13  H1  UNL     1     -15.012   2.301 -20.078  1.00  0.00     0.167 HD
BRANCH  12  14
HETATM   14  C4  UNL     1     -14.496   2.425 -18.045  1.00  0.00     0.033 A 
HETATM   15  C3  UNL     1     -14.213   1.597 -16.987  1.00  0.00     0.029 A 
HETATM   16  C2  UNL     1     -14.423   2.013 -15.703  1.00  0.00     0.002 A 
HETATM   17  C1  UNL     1     -14.925   3.277 -15.462  1.00  0.00     0.000 A 
HETATM   18  C21 UNL     1     -15.211   4.110 -16.503  1.00  0.00     0.002 A 
HETATM   19  C20 UNL     1     -14.995   3.682 -17.790  1.00  0.00     0.029 A 
ENDBRANCH  12  14
ENDBRANCH   1  12
BRANCH  11  20
HETATM   20  C14 UNL     1     -11.854   3.431 -19.517  1.00  0.00    -0.022 A 
HETATM   21  C15 UNL     1     -12.194   4.474 -20.373  1.00  0.00     0.012 A 
HETATM   22  C16 UNL     1     -11.983   5.786 -20.010  1.00  0.00     0.001 A 
HETATM   23  C17 UNL     1     -11.428   6.026 -18.775  1.00  0.00     0.000 A 
HETATM   24  C18 UNL     1     -11.092   5.014 -17.929  1.00  0.00     0.001 A 
HETATM   25  C19 UNL     1     -11.300   3.688 -18.285  1.00  0.00     0.012 A 
ENDBRANCH  11  20
TORSDOF 3
ENDMDL
