MODEL 1
REMARK VINA RESULT: -10.633895862      0.000      0.000
REMARK  3 active torsions:
REMARK  status: ('A' for Active; 'I' for Inactive)
REMARK    1  A    between atoms: C4_4  and  C5_5 
REMARK    2  A    between atoms: C7_7  and  N1_8 
REMARK    3  A    between atoms: N1_8  and  C8_10 
ROOT
HETATM    1  C5  UNL     1     -13.277   5.078 -18.640  1.00  0.00    -0.013 A 
HETATM    2  C6  UNL     1     -12.475   3.927 -18.701  1.00  0.00     0.042 A 
HETATM    3  C7  UNL     1     -12.291   3.089 -17.627  1.00  0.00     0.035 A 
HETATM    4  C13 UNL     1     -12.904   3.364 -16.429  1.00  0.00     0.042 A 
HETATM    5  C14 UNL     1     -13.698   4.483 -16.332  1.00  0.00    -0.023 A 
HETATM    6  C15 UNL     1     -14.337   4.776 -15.134  1.00  0.00     0.012 A 
HETATM    7  C16 UNL     1     -15.152   5.877 -14.983  1.00  0.00     0.001 A 
HETATM    8  C17 UNL     1     -15.314   6.694 -16.086  1.00  0.00     0.001 A 
HETATM    9  C18 UNL     1     -14.697   6.446 -17.310  1.00  0.00     0.013 A 
HETATM   10  C19 UNL     1     -13.885   5.335 -17.426  1.00  0.00    -0.015 A 
ENDROOT
BRANCH   3  11
HETATM   11  N1  UNL     1     -11.476   1.929 -17.704  1.00  0.00    -0.342 N 
ATOM     12  H1  UNL     1     -10.995   1.613 -16.862  1.00  0.00     0.167 HD
BRANCH  11  13
HETATM   13  C8  UNL     1     -11.319   1.258 -18.795  1.00  0.00     0.105 A 
HETATM   14  C9  UNL     1     -10.119   1.268 -19.451  1.00  0.00     0.048 A 
HETATM   15  C10 UNL     1      -9.948   0.552 -20.619  1.00  0.00     0.005 A 
HETATM   16  C11 UNL     1     -11.050  -0.170 -21.082  1.00  0.00     0.017 A 
HETATM   17  C12 UNL     1     -12.245  -0.158 -20.395  1.00  0.00     0.089 A 
HETATM   18  N2  UNL     1     -12.356   0.559 -19.259  1.00  0.00    -0.352 N 
ATOM     19  H2  UNL     1     -13.240   0.568 -18.751  1.00  0.00     0.166 HD
ENDBRANCH  11  13
ENDBRANCH   3  11
BRANCH   1  20
HETATM   20  C4  UNL     1     -13.388   5.933 -19.817  1.00  0.00    -0.025 A 
HETATM   21  C3  UNL     1     -12.198   6.232 -20.457  1.00  0.00     0.012 A 
HETATM   22  C2  UNL     1     -12.104   7.050 -21.555  1.00  0.00     0.001 A 
HETATM   23  C1  UNL     1     -13.289   7.584 -22.016  1.00  0.00     0.000 A 
HETATM   24  C21 UNL     1     -14.494   7.305 -21.399  1.00  0.00     0.001 A 
HETATM   25  C20 UNL     1     -14.545   6.480 -20.300  1.00  0.00     0.012 A 
ENDBRANCH   1  20
TORSDOF 3
ENDMDL
MODEL 2
REMARK VINA RESULT: -10.614001778      0.728      1.256
REMARK  3 active torsions:
REMARK  status: ('A' for Active; 'I' for Inactive)
REMARK    1  A    between atoms: C4_4  and  C5_5 
REMARK    2  A    between atoms: C7_7  and  N1_8 
REMARK    3  A    between atoms: N1_8  and  C8_10 
ROOT
HETATM    1  C5  UNL     1     -13.492   4.852 -18.856  1.00  0.00    -0.013 A 
HETATM    2  C6  UNL     1     -13.119   3.522 -19.112  1.00  0.00     0.042 A 
HETATM    3  C7  UNL     1     -13.167   2.537 -18.156  1.00  0.00     0.035 A 
HETATM    4  C13 UNL     1     -13.593   2.834 -16.885  1.00  0.00     0.042 A 
HETATM    5  C14 UNL     1     -13.969   4.126 -16.596  1.00  0.00    -0.023 A 
HETATM    6  C15 UNL     1     -14.414   4.448 -15.321  1.00  0.00     0.012 A 
HETATM    7  C16 UNL     1     -14.811   5.722 -14.979  1.00  0.00     0.001 A 
HETATM    8  C17 UNL     1     -14.751   6.686 -15.969  1.00  0.00     0.001 A 
HETATM    9  C18 UNL     1     -14.312   6.415 -17.263  1.00  0.00     0.013 A 
HETATM   10  C19 UNL     1     -13.920   5.128 -17.571  1.00  0.00    -0.015 A 
ENDROOT
BRANCH   3  11
HETATM   11  N1  UNL     1     -12.785   1.197 -18.431  1.00  0.00    -0.342 N 
ATOM     12  H1  UNL     1     -13.238   0.443 -17.914  1.00  0.00     0.167 HD
BRANCH  11  13
HETATM   13  C8  UNL     1     -11.889   0.893 -19.309  1.00  0.00     0.105 A 
HETATM   14  C9  UNL     1     -10.561   1.059 -19.033  1.00  0.00     0.048 A 
HETATM   15  C10 UNL     1      -9.600   0.735 -19.970  1.00  0.00     0.005 A 
HETATM   16  C11 UNL     1     -10.055   0.237 -21.192  1.00  0.00     0.017 A 
HETATM   17  C12 UNL     1     -11.403   0.081 -21.436  1.00  0.00     0.089 A 
HETATM   18  N2  UNL     1     -12.298   0.414 -20.485  1.00  0.00    -0.352 N 
ATOM     19  H2  UNL     1     -13.295   0.298 -20.666  1.00  0.00     0.166 HD
ENDBRANCH  11  13
ENDBRANCH   3  11
BRANCH   1  20
HETATM   20  C4  UNL     1     -13.374   5.843 -19.919  1.00  0.00    -0.025 A 
HETATM   21  C3  UNL     1     -14.558   6.433 -20.325  1.00  0.00     0.012 A 
HETATM   22  C2  UNL     1     -14.645   7.358 -21.336  1.00  0.00     0.001 A 
HETATM   23  C1  UNL     1     -13.459   7.691 -21.956  1.00  0.00     0.000 A 
HETATM   24  C21 UNL     1     -12.260   7.120 -21.573  1.00  0.00     0.001 A 
HETATM   25  C20 UNL     1     -12.216   6.197 -20.556  1.00  0.00     0.012 A 
ENDBRANCH   1  20
TORSDOF 3
ENDMDL
MODEL 3
REMARK VINA RESULT: -10.612163918      1.322      1.741
REMARK  3 active torsions:
REMARK  status: ('A' for Active; 'I' for Inactive)
REMARK    1  A    between atoms: C4_4  and  C5_5 
REMARK    2  A    between atoms: C7_7  and  N1_8 
REMARK    3  A    between atoms: N1_8  and  C8_10 
ROOT
HETATM    1  C5  UNL     1     -13.817   4.709 -18.917  1.00  0.00    -0.013 A 
HETATM    2  C6  UNL     1     -13.724   3.353 -19.269  1.00  0.00     0.042 A 
HETATM    3  C7  UNL     1     -13.943   2.334 -18.375  1.00  0.00     0.035 A 
HETATM    4  C13 UNL     1     -14.269   2.622 -17.071  1.00  0.00     0.042 A 
HETATM    5  C14 UNL     1     -14.371   3.940 -16.690  1.00  0.00    -0.023 A 
HETATM    6  C15 UNL     1     -14.710   4.256 -15.381  1.00  0.00     0.012 A 
HETATM    7  C16 UNL     1     -14.836   5.558 -14.946  1.00  0.00     0.001 A 
HETATM    8  C17 UNL     1     -14.610   6.556 -15.876  1.00  0.00     0.001 A 
HETATM    9  C18 UNL     1     -14.268   6.292 -17.201  1.00  0.00     0.013 A 
HETATM   10  C19 UNL     1     -14.148   4.977 -17.602  1.00  0.00    -0.015 A 
ENDROOT
BRANCH   3  11
HETATM   11  N1  UNL     1     -13.843   0.966 -18.746  1.00  0.00    -0.342 N 
ATOM     12  H1  UNL     1     -14.681   0.487 -19.076  1.00  0.00     0.167 HD
BRANCH  11  13
HETATM   13  C8  UNL     1     -12.737   0.306 -18.683  1.00  0.00     0.105 A 
HETATM   14  C9  UNL     1     -11.545   0.958 -18.535  1.00  0.00     0.048 A 
HETATM   15  C10 UNL     1     -10.360   0.253 -18.468  1.00  0.00     0.005 A 
HETATM   16  C11 UNL     1     -10.447  -1.137 -18.556  1.00  0.00     0.017 A 
HETATM   17  C12 UNL     1     -11.667  -1.762 -18.703  1.00  0.00     0.089 A 
HETATM   18  N2  UNL     1     -12.794  -1.025 -18.764  1.00  0.00    -0.352 N 
ATOM     19  H2  UNL     1     -13.696  -1.488 -18.873  1.00  0.00     0.166 HD
ENDBRANCH  11  13
ENDBRANCH   3  11
BRANCH   1  20
HETATM   20  C4  UNL     1     -13.531   5.728 -19.921  1.00  0.00    -0.025 A 
HETATM   21  C3  UNL     1     -14.629   6.409 -20.417  1.00  0.00     0.012 A 
HETATM   22  C2  UNL     1     -14.556   7.372 -21.392  1.00  0.00     0.001 A 
HETATM   23  C1  UNL     1     -13.294   7.648 -21.878  1.00  0.00     0.000 A 
HETATM   24  C21 UNL     1     -12.179   6.986 -21.403  1.00  0.00     0.001 A 
HETATM   25  C20 UNL     1     -12.294   6.027 -20.425  1.00  0.00     0.012 A 
ENDBRANCH   1  20
TORSDOF 3
ENDMDL
MODEL 4
REMARK VINA RESULT: -10.541282769      2.448      4.335
REMARK  3 active torsions:
REMARK  status: ('A' for Active; 'I' for Inactive)
REMARK    1  A    between atoms: C4_4  and  C5_5 
REMARK    2  A    between atoms: C7_7  and  N1_8 
REMARK    3  A    between atoms: N1_8  and  C8_10 
ROOT
HETATM    1  C5  UNL     1     -14.099   3.694 -17.049  1.00  0.00    -0.013 A 
HETATM    2  C6  UNL     1     -14.367   2.317 -17.124  1.00  0.00     0.042 A 
HETATM    3  C7  UNL     1     -13.542   1.431 -17.774  1.00  0.00     0.035 A 
HETATM    4  C13 UNL     1     -12.399   1.882 -18.389  1.00  0.00     0.042 A 
HETATM    5  C14 UNL     1     -12.103   3.224 -18.335  1.00  0.00    -0.023 A 
HETATM    6  C15 UNL     1     -10.947   3.701 -18.939  1.00  0.00     0.012 A 
HETATM    7  C16 UNL     1     -10.596   5.033 -18.909  1.00  0.00     0.001 A 
HETATM    8  C17 UNL     1     -11.449   5.893 -18.243  1.00  0.00     0.001 A 
HETATM    9  C18 UNL     1     -12.620   5.466 -17.621  1.00  0.00     0.013 A 
HETATM   10  C19 UNL     1     -12.943   4.125 -17.672  1.00  0.00    -0.015 A 
ENDROOT
BRANCH   3  11
HETATM   11  N1  UNL     1     -13.828   0.042 -17.842  1.00  0.00    -0.342 N 
ATOM     12  H1  UNL     1     -14.411  -0.374 -17.114  1.00  0.00     0.167 HD
BRANCH  11  13
HETATM   13  C8  UNL     1     -13.380  -0.717 -18.784  1.00  0.00     0.105 A 
HETATM   14  C9  UNL     1     -14.042  -0.808 -19.976  1.00  0.00     0.048 A 
HETATM   15  C10 UNL     1     -13.566  -1.620 -20.987  1.00  0.00     0.005 A 
HETATM   16  C11 UNL     1     -12.391  -2.327 -20.726  1.00  0.00     0.017 A 
HETATM   17  C12 UNL     1     -11.749  -2.210 -19.512  1.00  0.00     0.089 A 
HETATM   18  N2  UNL     1     -12.258  -1.403 -18.560  1.00  0.00    -0.352 N 
ATOM     19  H2  UNL     1     -11.782  -1.317 -17.662  1.00  0.00     0.166 HD
ENDBRANCH  11  13
ENDBRANCH   3  11
BRANCH   1  20
HETATM   20  C4  UNL     1     -15.048   4.569 -16.370  1.00  0.00    -0.025 A 
HETATM   21  C3  UNL     1     -16.242   4.790 -17.033  1.00  0.00     0.012 A 
HETATM   22  C2  UNL     1     -17.236   5.614 -16.566  1.00  0.00     0.001 A 
HETATM   23  C1  UNL     1     -16.989   6.237 -15.361  1.00  0.00     0.000 A 
HETATM   24  C21 UNL     1     -15.807   6.037 -14.674  1.00  0.00     0.001 A 
HETATM   25  C20 UNL     1     -14.836   5.204 -15.177  1.00  0.00     0.012 A 
ENDBRANCH   1  20
TORSDOF 3
ENDMDL
MODEL 5
REMARK VINA RESULT: -10.407508027      2.390      4.194
REMARK  3 active torsions:
REMARK  status: ('A' for Active; 'I' for Inactive)
REMARK    1  A    between atoms: C4_4  and  C5_5 
REMARK    2  A    between atoms: C7_7  and  N1_8 
REMARK    3  A    between atoms: N1_8  and  C8_10 
ROOT
HETATM    1  C5  UNL     1     -14.391   3.364 -17.608  1.00  0.00    -0.013 A 
HETATM    2  C6  UNL     1     -14.501   1.966 -17.693  1.00  0.00     0.042 A 
HETATM    3  C7  UNL     1     -13.475   1.162 -18.128  1.00  0.00     0.035 A 
HETATM    4  C13 UNL     1     -12.278   1.721 -18.504  1.00  0.00     0.042 A 
HETATM    5  C14 UNL     1     -12.132   3.087 -18.433  1.00  0.00    -0.023 A 
HETATM    6  C15 UNL     1     -10.927   3.674 -18.797  1.00  0.00     0.012 A 
HETATM    7  C16 UNL     1     -10.722   5.035 -18.736  1.00  0.00     0.001 A 
HETATM    8  C17 UNL     1     -11.777   5.810 -18.292  1.00  0.00     0.001 A 
HETATM    9  C18 UNL     1     -13.006   5.272 -17.915  1.00  0.00     0.013 A 
HETATM   10  C19 UNL     1     -13.178   3.904 -17.989  1.00  0.00    -0.015 A 
ENDROOT
BRANCH   3  11
HETATM   11  N1  UNL     1     -13.603  -0.250 -18.209  1.00  0.00    -0.342 N 
ATOM     12  H1  UNL     1     -14.195  -0.727 -17.529  1.00  0.00     0.167 HD
BRANCH  11  13
HETATM   13  C8  UNL     1     -13.000  -0.954 -19.107  1.00  0.00     0.105 A 
HETATM   14  C9  UNL     1     -13.376  -0.876 -20.419  1.00  0.00     0.048 A 
HETATM   15  C10 UNL     1     -12.733  -1.628 -21.382  1.00  0.00     0.005 A 
HETATM   16  C11 UNL     1     -11.697  -2.457 -20.947  1.00  0.00     0.017 A 
HETATM   17  C12 UNL     1     -11.344  -2.509 -19.615  1.00  0.00     0.089 A 
HETATM   18  N2  UNL     1     -12.006  -1.753 -18.717  1.00  0.00    -0.352 N 
ATOM     19  H2  UNL     1     -11.744  -1.793 -17.732  1.00  0.00     0.166 HD
ENDBRANCH  11  13
ENDBRANCH   3  11
BRANCH   1  20
HETATM   20  C4  UNL     1     -15.543   4.145 -17.172  1.00  0.00    -0.025 A 
HETATM   21  C3  UNL     1     -15.633   4.374 -15.811  1.00  0.00     0.012 A 
HETATM   22  C2  UNL     1     -16.666   5.055 -15.216  1.00  0.00     0.001 A 
HETATM   23  C1  UNL     1     -17.651   5.522 -16.061  1.00  0.00     0.000 A 
HETATM   24  C21 UNL     1     -17.589   5.309 -17.425  1.00  0.00     0.001 A 
HETATM   25  C20 UNL     1     -16.538   4.622 -17.982  1.00  0.00     0.012 A 
ENDBRANCH   1  20
TORSDOF 3
ENDMDL
