MODEL 1
REMARK VINA RESULT: -10.714491130      0.000      0.000
REMARK  3 active torsions:
REMARK  status: ('A' for Active; 'I' for Inactive)
REMARK    1  A    between atoms: C1_1  and  C15_21 
REMARK    2  A    between atoms: N1_2  and  N2_4 
REMARK    3  A    between atoms: N2_4  and  C2_6 
ROOT
HETATM    1  C2  UNL     1     -11.984   0.671 -18.305  1.00  0.00     0.131 A 
HETATM    2  N3  UNL     1     -13.160   0.089 -18.139  1.00  0.00    -0.340 N 
ATOM      3  H3  UNL     1     -13.722   0.283 -17.310  1.00  0.00     0.167 HD
HETATM    4  C3  UNL     1     -13.603  -0.763 -19.077  1.00  0.00     0.044 A 
HETATM    5  C4  UNL     1     -14.840  -1.391 -18.928  1.00  0.00     0.030 A 
HETATM    6  C5  UNL     1     -15.297  -2.264 -19.887  1.00  0.00     0.002 A 
HETATM    7  C6  UNL     1     -14.527  -2.514 -20.995  1.00  0.00     0.001 A 
HETATM    8  C7  UNL     1     -13.294  -1.902 -21.166  1.00  0.00     0.014 A 
HETATM    9  C8  UNL     1     -12.846  -1.034 -20.206  1.00  0.00     0.002 A 
HETATM   10  C9  UNL     1     -11.600  -0.422 -20.389  1.00  0.00    -0.010 A 
HETATM   11  C10 UNL     1     -10.819  -0.668 -21.501  1.00  0.00     0.013 A 
HETATM   12  C11 UNL     1      -9.608  -0.016 -21.588  1.00  0.00     0.001 A 
HETATM   13  C12 UNL     1      -9.174   0.858 -20.608  1.00  0.00     0.001 A 
HETATM   14  C13 UNL     1      -9.952   1.093 -19.515  1.00  0.00     0.016 A 
HETATM   15  C14 UNL     1     -11.178   0.450 -19.399  1.00  0.00     0.020 A 
ENDROOT
BRANCH   1  16
HETATM   16  N2  UNL     1     -11.524   1.498 -17.421  1.00  0.00    -0.285 N 
ATOM     17  H2  UNL     1     -10.563   1.420 -17.085  1.00  0.00     0.188 HD
BRANCH  16  18
HETATM   18  N1  UNL     1     -12.364   2.491 -16.941  1.00  0.00    -0.309 N 
HETATM   19  C1  UNL     1     -12.244   3.730 -17.204  1.00  0.00     0.118 C 
ATOM     20  H1  UNL     1     -13.133   2.207 -16.335  1.00  0.00     0.186 HD
BRANCH  19  21
HETATM   21  C15 UNL     1     -13.189   4.691 -16.643  1.00  0.00    -0.019 A 
HETATM   22  C16 UNL     1     -14.049   4.307 -15.637  1.00  0.00     0.013 A 
HETATM   23  C17 UNL     1     -14.927   5.244 -15.133  1.00  0.00     0.001 A 
HETATM   24  C18 UNL     1     -14.941   6.532 -15.628  1.00  0.00     0.000 A 
HETATM   25  C19 UNL     1     -14.088   6.918 -16.628  1.00  0.00     0.001 A 
HETATM   26  C20 UNL     1     -13.207   5.998 -17.141  1.00  0.00     0.013 A 
ENDBRANCH  19  21
ENDBRANCH  16  18
ENDBRANCH   1  16
TORSDOF 3
ENDMDL
MODEL 2
REMARK VINA RESULT: -10.706773940      0.041      1.004
REMARK  3 active torsions:
REMARK  status: ('A' for Active; 'I' for Inactive)
REMARK    1  A    between atoms: C1_1  and  C15_21 
REMARK    2  A    between atoms: N1_2  and  N2_4 
REMARK    3  A    between atoms: N2_4  and  C2_6 
ROOT
HETATM    1  C2  UNL     1     -11.957   0.667 -18.309  1.00  0.00     0.131 A 
HETATM    2  N3  UNL     1     -13.133   0.084 -18.146  1.00  0.00    -0.340 N 
ATOM      3  H3  UNL     1     -13.695   0.274 -17.317  1.00  0.00     0.167 HD
HETATM    4  C3  UNL     1     -13.575  -0.762 -19.090  1.00  0.00     0.044 A 
HETATM    5  C4  UNL     1     -14.812  -1.391 -18.944  1.00  0.00     0.030 A 
HETATM    6  C5  UNL     1     -15.269  -2.258 -19.908  1.00  0.00     0.002 A 
HETATM    7  C6  UNL     1     -14.499  -2.502 -21.018  1.00  0.00     0.001 A 
HETATM    8  C7  UNL     1     -13.266  -1.889 -21.185  1.00  0.00     0.014 A 
HETATM    9  C8  UNL     1     -12.818  -1.027 -20.220  1.00  0.00     0.002 A 
HETATM   10  C9  UNL     1     -11.573  -0.414 -20.400  1.00  0.00    -0.010 A 
HETATM   11  C10 UNL     1     -10.791  -0.652 -21.512  1.00  0.00     0.013 A 
HETATM   12  C11 UNL     1      -9.581  -0.001 -21.596  1.00  0.00     0.001 A 
HETATM   13  C12 UNL     1      -9.146   0.868 -20.611  1.00  0.00     0.001 A 
HETATM   14  C13 UNL     1      -9.924   1.097 -19.516  1.00  0.00     0.016 A 
HETATM   15  C14 UNL     1     -11.151   0.453 -19.404  1.00  0.00     0.020 A 
ENDROOT
BRANCH   1  16
HETATM   16  N2  UNL     1     -11.497   1.489 -17.420  1.00  0.00    -0.285 N 
ATOM     17  H2  UNL     1     -10.543   1.398 -17.071  1.00  0.00     0.188 HD
BRANCH  16  18
HETATM   18  N1  UNL     1     -12.329   2.496 -16.955  1.00  0.00    -0.309 N 
HETATM   19  C1  UNL     1     -12.201   3.730 -17.239  1.00  0.00     0.118 C 
ATOM     20  H1  UNL     1     -13.098   2.229 -16.341  1.00  0.00     0.186 HD
BRANCH  19  21
HETATM   21  C15 UNL     1     -13.137   4.707 -16.692  1.00  0.00    -0.019 A 
HETATM   22  C16 UNL     1     -13.155   5.996 -17.183  1.00  0.00     0.013 A 
HETATM   23  C17 UNL     1     -14.054   6.890 -16.639  1.00  0.00     0.001 A 
HETATM   24  C18 UNL     1     -14.911   6.500 -15.631  1.00  0.00     0.000 A 
HETATM   25  C19 UNL     1     -14.896   5.220 -15.141  1.00  0.00     0.001 A 
HETATM   26  C20 UNL     1     -14.008   4.317 -15.670  1.00  0.00     0.013 A 
ENDBRANCH  19  21
ENDBRANCH  16  18
ENDBRANCH   1  16
TORSDOF 3
ENDMDL
MODEL 3
REMARK VINA RESULT: -10.152524976      1.271      7.025
REMARK  3 active torsions:
REMARK  status: ('A' for Active; 'I' for Inactive)
REMARK    1  A    between atoms: C1_1  and  C15_21 
REMARK    2  A    between atoms: N1_2  and  N2_4 
REMARK    3  A    between atoms: N2_4  and  C2_6 
ROOT
HETATM    1  C2  UNL     1     -12.497   3.056 -16.943  1.00  0.00     0.131 A 
HETATM    2  N3  UNL     1     -13.490   3.226 -16.088  1.00  0.00    -0.340 N 
ATOM      3  H3  UNL     1     -13.849   2.439 -15.548  1.00  0.00     0.167 HD
HETATM    4  C3  UNL     1     -14.020   4.451 -15.941  1.00  0.00     0.044 A 
HETATM    5  C4  UNL     1     -15.069   4.659 -15.045  1.00  0.00     0.030 A 
HETATM    6  C5  UNL     1     -15.614   5.912 -14.892  1.00  0.00     0.002 A 
HETATM    7  C6  UNL     1     -15.119   6.960 -15.627  1.00  0.00     0.001 A 
HETATM    8  C7  UNL     1     -14.076   6.778 -16.524  1.00  0.00     0.014 A 
HETATM    9  C8  UNL     1     -13.539   5.527 -16.671  1.00  0.00     0.002 A 
HETATM   10  C9  UNL     1     -12.488   5.355 -17.579  1.00  0.00    -0.010 A 
HETATM   11  C10 UNL     1     -11.983   6.402 -18.322  1.00  0.00     0.013 A 
HETATM   12  C11 UNL     1     -10.947   6.131 -19.189  1.00  0.00     0.001 A 
HETATM   13  C12 UNL     1     -10.417   4.860 -19.323  1.00  0.00     0.001 A 
HETATM   14  C13 UNL     1     -10.923   3.833 -18.585  1.00  0.00     0.016 A 
HETATM   15  C14 UNL     1     -11.968   4.077 -17.702  1.00  0.00     0.020 A 
ENDROOT
BRANCH   1  16
HETATM   16  N2  UNL     1     -11.960   1.890 -17.112  1.00  0.00    -0.285 N 
ATOM     17  H2  UNL     1     -11.094   1.641 -16.634  1.00  0.00     0.188 HD
BRANCH  16  18
HETATM   18  N1  UNL     1     -12.588   0.987 -17.957  1.00  0.00    -0.309 N 
HETATM   19  C1  UNL     1     -12.015   0.369 -18.911  1.00  0.00     0.118 C 
ATOM     20  H1  UNL     1     -13.580   0.807 -17.803  1.00  0.00     0.186 HD
BRANCH  19  21
HETATM   21  C15 UNL     1     -12.775  -0.562 -19.739  1.00  0.00    -0.019 A 
HETATM   22  C16 UNL     1     -12.231  -1.047 -20.909  1.00  0.00     0.013 A 
HETATM   23  C17 UNL     1     -12.981  -1.925 -21.664  1.00  0.00     0.001 A 
HETATM   24  C18 UNL     1     -14.243  -2.304 -21.256  1.00  0.00     0.000 A 
HETATM   25  C19 UNL     1     -14.787  -1.823 -20.093  1.00  0.00     0.001 A 
HETATM   26  C20 UNL     1     -14.055  -0.949 -19.329  1.00  0.00     0.013 A 
ENDBRANCH  19  21
ENDBRANCH  16  18
ENDBRANCH   1  16
TORSDOF 3
ENDMDL
MODEL 4
REMARK VINA RESULT: -10.100136237      0.793      3.464
REMARK  3 active torsions:
REMARK  status: ('A' for Active; 'I' for Inactive)
REMARK    1  A    between atoms: C1_1  and  C15_21 
REMARK    2  A    between atoms: N1_2  and  N2_4 
REMARK    3  A    between atoms: N2_4  and  C2_6 
ROOT
HETATM    1  C2  UNL     1     -13.188   0.286 -18.322  1.00  0.00     0.131 A 
HETATM    2  N3  UNL     1     -12.010   0.869 -18.466  1.00  0.00    -0.340 N 
ATOM      3  H3  UNL     1     -11.722   1.617 -17.836  1.00  0.00     0.167 HD
HETATM    4  C3  UNL     1     -11.199   0.461 -19.455  1.00  0.00     0.044 A 
HETATM    5  C4  UNL     1      -9.950   1.058 -19.630  1.00  0.00     0.030 A 
HETATM    6  C5  UNL     1      -9.117   0.643 -20.642  1.00  0.00     0.002 A 
HETATM    7  C6  UNL     1      -9.521  -0.365 -21.481  1.00  0.00     0.001 A 
HETATM    8  C7  UNL     1     -10.758  -0.975 -21.327  1.00  0.00     0.014 A 
HETATM    9  C8  UNL     1     -11.583  -0.555 -20.317  1.00  0.00     0.002 A 
HETATM   10  C9  UNL     1     -12.828  -1.177 -20.171  1.00  0.00    -0.010 A 
HETATM   11  C10 UNL     1     -13.243  -2.192 -21.009  1.00  0.00     0.013 A 
HETATM   12  C11 UNL     1     -14.487  -2.740 -20.784  1.00  0.00     0.001 A 
HETATM   13  C12 UNL     1     -15.305  -2.303 -19.757  1.00  0.00     0.001 A 
HETATM   14  C13 UNL     1     -14.886  -1.300 -18.935  1.00  0.00     0.016 A 
HETATM   15  C14 UNL     1     -13.636  -0.728 -19.139  1.00  0.00     0.020 A 
ENDROOT
BRANCH   1  16
HETATM   16  N2  UNL     1     -13.998   0.652 -17.380  1.00  0.00    -0.285 N 
ATOM     17  H2  UNL     1     -14.475  -0.042 -16.805  1.00  0.00     0.188 HD
BRANCH  16  18
HETATM   18  N1  UNL     1     -14.201   2.007 -17.171  1.00  0.00    -0.309 N 
HETATM   19  C1  UNL     1     -13.706   2.673 -16.205  1.00  0.00     0.118 C 
ATOM     20  H1  UNL     1     -14.789   2.506 -17.838  1.00  0.00     0.186 HD
BRANCH  19  21
HETATM   21  C15 UNL     1     -13.987   4.100 -16.081  1.00  0.00    -0.019 A 
HETATM   22  C16 UNL     1     -14.857   4.551 -15.112  1.00  0.00     0.013 A 
HETATM   23  C17 UNL     1     -15.096   5.907 -15.028  1.00  0.00     0.001 A 
HETATM   24  C18 UNL     1     -14.478   6.785 -15.893  1.00  0.00     0.000 A 
HETATM   25  C19 UNL     1     -13.612   6.341 -16.858  1.00  0.00     0.001 A 
HETATM   26  C20 UNL     1     -13.362   4.994 -16.956  1.00  0.00     0.013 A 
ENDBRANCH  19  21
ENDBRANCH  16  18
ENDBRANCH   1  16
TORSDOF 3
ENDMDL
MODEL 5
REMARK VINA RESULT: -10.028305406      2.557      7.539
REMARK  3 active torsions:
REMARK  status: ('A' for Active; 'I' for Inactive)
REMARK    1  A    between atoms: C1_1  and  C15_21 
REMARK    2  A    between atoms: N1_2  and  N2_4 
REMARK    3  A    between atoms: N2_4  and  C2_6 
ROOT
HETATM    1  C2  UNL     1     -12.361   4.643 -18.171  1.00  0.00     0.131 A 
HETATM    2  N3  UNL     1     -12.240   5.246 -19.342  1.00  0.00    -0.340 N 
ATOM      3  H3  UNL     1     -11.397   5.125 -19.901  1.00  0.00     0.167 HD
HETATM    4  C3  UNL     1     -13.245   6.019 -19.782  1.00  0.00     0.044 A 
HETATM    5  C4  UNL     1     -13.145   6.666 -21.014  1.00  0.00     0.030 A 
HETATM    6  C5  UNL     1     -14.172   7.459 -21.469  1.00  0.00     0.002 A 
HETATM    7  C6  UNL     1     -15.300   7.610 -20.702  1.00  0.00     0.001 A 
HETATM    8  C7  UNL     1     -15.424   6.976 -19.474  1.00  0.00     0.014 A 
HETATM    9  C8  UNL     1     -14.396   6.189 -19.028  1.00  0.00     0.002 A 
HETATM   10  C9  UNL     1     -14.531   5.555 -17.787  1.00  0.00    -0.010 A 
HETATM   11  C10 UNL     1     -15.662   5.701 -17.009  1.00  0.00     0.013 A 
HETATM   12  C11 UNL     1     -15.699   5.036 -15.803  1.00  0.00     0.001 A 
HETATM   13  C12 UNL     1     -14.650   4.244 -15.370  1.00  0.00     0.001 A 
HETATM   14  C13 UNL     1     -13.539   4.107 -16.146  1.00  0.00     0.016 A 
HETATM   15  C14 UNL     1     -13.473   4.766 -17.368  1.00  0.00     0.020 A 
ENDROOT
BRANCH   1  16
HETATM   16  N2  UNL     1     -11.413   3.890 -17.712  1.00  0.00    -0.285 N 
ATOM     17  H2  UNL     1     -11.002   4.069 -16.796  1.00  0.00     0.188 HD
BRANCH  16  18
HETATM   18  N1  UNL     1     -10.969   2.834 -18.494  1.00  0.00    -0.309 N 
HETATM   19  C1  UNL     1     -11.056   1.606 -18.170  1.00  0.00     0.118 C 
ATOM     20  H1  UNL     1     -10.542   3.058 -19.392  1.00  0.00     0.186 HD
BRANCH  19  21
HETATM   21  C15 UNL     1     -10.555   0.575 -19.072  1.00  0.00    -0.019 A 
HETATM   22  C16 UNL     1     -10.031  -0.594 -18.562  1.00  0.00     0.013 A 
HETATM   23  C17 UNL     1      -9.567  -1.544 -19.448  1.00  0.00     0.001 A 
HETATM   24  C18 UNL     1      -9.628  -1.326 -20.808  1.00  0.00     0.000 A 
HETATM   25  C19 UNL     1     -10.147  -0.166 -21.320  1.00  0.00     0.001 A 
HETATM   26  C20 UNL     1     -10.614   0.791 -20.453  1.00  0.00     0.013 A 
ENDBRANCH  19  21
ENDBRANCH  16  18
ENDBRANCH   1  16
TORSDOF 3
ENDMDL
