MODEL 1
REMARK VINA RESULT: -11.325048034      0.000      0.000
REMARK  2 active torsions:
REMARK  status: ('A' for Active; 'I' for Inactive)
REMARK    1  A    between atoms: C6_6  and  C7_7 
REMARK    2  A    between atoms: C7_7  and  C8_8 
ROOT
HETATM    1  C8  UNL     1     -12.895   2.036 -17.364  1.00  0.00    -0.025 A 
HETATM    2  C9  UNL     1     -14.093   1.562 -16.841  1.00  0.00     0.098 A 
HETATM    3  N1  UNL     1     -14.335   0.333 -17.331  1.00  0.00    -0.351 N 
ATOM      4  H1  UNL     1     -15.151  -0.235 -17.104  1.00  0.00     0.166 HD
HETATM    5  C10 UNL     1     -13.339  -0.042 -18.168  1.00  0.00     0.116 A 
HETATM    6  N2  UNL     1     -13.116  -1.155 -18.899  1.00  0.00    -0.341 N 
ATOM      7  H2  UNL     1     -13.798  -1.913 -18.856  1.00  0.00     0.167 HD
HETATM    8  C11 UNL     1     -12.032  -1.306 -19.682  1.00  0.00     0.044 A 
HETATM    9  C12 UNL     1     -11.822  -2.460 -20.427  1.00  0.00     0.030 A 
HETATM   10  C13 UNL     1     -10.713  -2.622 -21.233  1.00  0.00     0.002 A 
HETATM   11  C14 UNL     1      -9.798  -1.585 -21.279  1.00  0.00     0.001 A 
HETATM   12  C15 UNL     1     -10.013  -0.445 -20.538  1.00  0.00     0.014 A 
HETATM   13  C16 UNL     1     -11.119  -0.276 -19.731  1.00  0.00    -0.009 A 
HETATM   14  C17 UNL     1     -11.338   0.872 -18.983  1.00  0.00     0.029 A 
HETATM   15  C18 UNL     1     -12.452   1.019 -18.182  1.00  0.00     0.017 A 
ENDROOT
BRANCH   1  16
HETATM   16  C7  UNL     1     -12.278   3.349 -17.052  1.00  0.00     0.079 C 
BRANCH  16  17
HETATM   17  C6  UNL     1     -12.316   4.320 -18.154  1.00  0.00    -0.053 A 
HETATM   18  C5  UNL     1     -13.492   4.827 -18.633  1.00  0.00     0.019 A 
HETATM   19  C4  UNL     1     -13.524   5.750 -19.681  1.00  0.00    -0.025 A 
HETATM   20  C3  UNL     1     -14.698   6.275 -20.177  1.00  0.00     0.012 A 
HETATM   21  C21 UNL     1     -12.331   6.159 -20.248  1.00  0.00    -0.026 A 
HETATM   22  C2  UNL     1     -14.730   7.186 -21.211  1.00  0.00     0.001 A 
HETATM   23  C1  UNL     1     -13.529   7.576 -21.756  1.00  0.00     0.001 A 
HETATM   24  C22 UNL     1     -12.342   7.071 -21.283  1.00  0.00     0.012 A 
HETATM   25  C20 UNL     1     -11.159   5.653 -19.771  1.00  0.00     0.013 A 
HETATM   26  C19 UNL     1     -11.139   4.737 -18.728  1.00  0.00     0.008 A 
ENDBRANCH  16  17
ENDBRANCH   1  16
TORSDOF 2
ENDMDL
MODEL 2
REMARK VINA RESULT: -11.172196248      2.788      7.495
REMARK  2 active torsions:
REMARK  status: ('A' for Active; 'I' for Inactive)
REMARK    1  A    between atoms: C6_6  and  C7_7 
REMARK    2  A    between atoms: C7_7  and  C8_8 
ROOT
HETATM    1  C8  UNL     1     -12.055   4.328 -18.956  1.00  0.00    -0.025 A 
HETATM    2  C9  UNL     1     -11.925   5.169 -20.056  1.00  0.00     0.098 A 
HETATM    3  N1  UNL     1     -12.983   5.997 -20.108  1.00  0.00    -0.351 N 
ATOM      4  H1  UNL     1     -13.129   6.712 -20.820  1.00  0.00     0.166 HD
HETATM    5  C10 UNL     1     -13.826   5.745 -19.079  1.00  0.00     0.116 A 
HETATM    6  N2  UNL     1     -15.003   6.285 -18.695  1.00  0.00    -0.341 N 
ATOM      7  H2  UNL     1     -15.394   7.048 -19.247  1.00  0.00     0.167 HD
HETATM    8  C11 UNL     1     -15.680   5.858 -17.613  1.00  0.00     0.044 A 
HETATM    9  C12 UNL     1     -16.890   6.428 -17.235  1.00  0.00     0.030 A 
HETATM   10  C13 UNL     1     -17.591   5.995 -16.128  1.00  0.00     0.002 A 
HETATM   11  C14 UNL     1     -17.045   4.960 -15.389  1.00  0.00     0.001 A 
HETATM   12  C15 UNL     1     -15.847   4.401 -15.769  1.00  0.00     0.014 A 
HETATM   13  C16 UNL     1     -15.140   4.828 -16.875  1.00  0.00    -0.009 A 
HETATM   14  C17 UNL     1     -13.932   4.266 -17.261  1.00  0.00     0.029 A 
HETATM   15  C18 UNL     1     -13.243   4.710 -18.371  1.00  0.00     0.017 A 
ENDROOT
BRANCH   1  16
HETATM   16  C7  UNL     1     -11.082   3.284 -18.550  1.00  0.00     0.079 C 
BRANCH  16  17
HETATM   17  C6  UNL     1     -11.177   2.030 -19.310  1.00  0.00    -0.053 A 
HETATM   18  C5  UNL     1     -10.173   1.102 -19.308  1.00  0.00     0.019 A 
HETATM   19  C4  UNL     1     -10.268  -0.088 -20.032  1.00  0.00    -0.025 A 
HETATM   20  C3  UNL     1      -9.268  -1.037 -20.042  1.00  0.00     0.012 A 
HETATM   21  C21 UNL     1     -11.411  -0.332 -20.772  1.00  0.00    -0.026 A 
HETATM   22  C2  UNL     1      -9.361  -2.213 -20.755  1.00  0.00     0.001 A 
HETATM   23  C1  UNL     1     -10.509  -2.430 -21.482  1.00  0.00     0.001 A 
HETATM   24  C22 UNL     1     -11.523  -1.502 -21.492  1.00  0.00     0.012 A 
HETATM   25  C20 UNL     1     -12.411   0.593 -20.774  1.00  0.00     0.013 A 
HETATM   26  C19 UNL     1     -12.307   1.773 -20.050  1.00  0.00     0.008 A 
ENDBRANCH  16  17
ENDBRANCH   1  16
TORSDOF 2
ENDMDL
MODEL 3
REMARK VINA RESULT: -11.034916938      2.870      7.684
REMARK  2 active torsions:
REMARK  status: ('A' for Active; 'I' for Inactive)
REMARK    1  A    between atoms: C6_6  and  C7_7 
REMARK    2  A    between atoms: C7_7  and  C8_8 
ROOT
HETATM    1  C8  UNL     1     -12.194   4.261 -19.318  1.00  0.00    -0.025 A 
HETATM    2  C9  UNL     1     -11.074   5.014 -18.982  1.00  0.00     0.098 A 
HETATM    3  N1  UNL     1     -11.415   5.922 -18.051  1.00  0.00    -0.351 N 
ATOM      4  H1  UNL     1     -10.775   6.599 -17.635  1.00  0.00     0.166 HD
HETATM    5  C10 UNL     1     -12.729   5.809 -17.744  1.00  0.00     0.116 A 
HETATM    6  N2  UNL     1     -13.539   6.473 -16.892  1.00  0.00    -0.341 N 
ATOM      7  H2  UNL     1     -13.145   7.226 -16.328  1.00  0.00     0.167 HD
HETATM    8  C11 UNL     1     -14.846   6.182 -16.756  1.00  0.00     0.044 A 
HETATM    9  C12 UNL     1     -15.663   6.878 -15.873  1.00  0.00     0.030 A 
HETATM   10  C13 UNL     1     -17.004   6.586 -15.729  1.00  0.00     0.002 A 
HETATM   11  C14 UNL     1     -17.523   5.560 -16.501  1.00  0.00     0.001 A 
HETATM   12  C15 UNL     1     -16.708   4.876 -17.372  1.00  0.00     0.014 A 
HETATM   13  C16 UNL     1     -15.366   5.162 -17.523  1.00  0.00    -0.009 A 
HETATM   14  C17 UNL     1     -14.542   4.474 -18.401  1.00  0.00     0.029 A 
HETATM   15  C18 UNL     1     -13.203   4.778 -18.534  1.00  0.00     0.017 A 
ENDROOT
BRANCH   1  16
HETATM   16  C7  UNL     1     -12.221   3.149 -20.300  1.00  0.00     0.079 C 
BRANCH  16  17
HETATM   17  C6  UNL     1     -11.509   1.938 -19.872  1.00  0.00    -0.053 A 
HETATM   18  C5  UNL     1     -11.023   1.027 -20.767  1.00  0.00     0.019 A 
HETATM   19  C4  UNL     1     -10.346  -0.123 -20.356  1.00  0.00    -0.025 A 
HETATM   20  C3  UNL     1      -9.846  -1.053 -21.243  1.00  0.00     0.012 A 
HETATM   21  C21 UNL     1     -10.166  -0.345 -19.003  1.00  0.00    -0.026 A 
HETATM   22  C2  UNL     1      -9.177  -2.188 -20.838  1.00  0.00     0.001 A 
HETATM   23  C1  UNL     1      -9.012  -2.383 -19.485  1.00  0.00     0.001 A 
HETATM   24  C22 UNL     1      -9.500  -1.474 -18.577  1.00  0.00     0.012 A 
HETATM   25  C20 UNL     1     -10.652   0.562 -18.110  1.00  0.00     0.013 A 
HETATM   26  C19 UNL     1     -11.322   1.703 -18.531  1.00  0.00     0.008 A 
ENDBRANCH  16  17
ENDBRANCH   1  16
TORSDOF 2
ENDMDL
MODEL 4
REMARK VINA RESULT: -11.012521337      2.812      7.253
REMARK  2 active torsions:
REMARK  status: ('A' for Active; 'I' for Inactive)
REMARK    1  A    between atoms: C6_6  and  C7_7 
REMARK    2  A    between atoms: C7_7  and  C8_8 
ROOT
HETATM    1  C8  UNL     1     -12.100   4.154 -18.696  1.00  0.00    -0.025 A 
HETATM    2  C9  UNL     1     -11.891   4.946 -19.820  1.00  0.00     0.098 A 
HETATM    3  N1  UNL     1     -12.917   5.805 -19.952  1.00  0.00    -0.351 N 
ATOM      4  H1  UNL     1     -13.006   6.496 -20.697  1.00  0.00     0.166 HD
HETATM    5  C10 UNL     1     -13.814   5.622 -18.954  1.00  0.00     0.116 A 
HETATM    6  N2  UNL     1     -14.987   6.215 -18.646  1.00  0.00    -0.341 N 
ATOM      7  H2  UNL     1     -15.327   6.968 -19.244  1.00  0.00     0.167 HD
HETATM    8  C11 UNL     1     -15.726   5.853 -17.581  1.00  0.00     0.044 A 
HETATM    9  C12 UNL     1     -16.932   6.478 -17.281  1.00  0.00     0.030 A 
HETATM   10  C13 UNL     1     -17.696   6.112 -16.192  1.00  0.00     0.002 A 
HETATM   11  C14 UNL     1     -17.220   5.089 -15.389  1.00  0.00     0.001 A 
HETATM   12  C15 UNL     1     -16.025   4.477 -15.692  1.00  0.00     0.014 A 
HETATM   13  C16 UNL     1     -15.256   4.836 -16.780  1.00  0.00    -0.009 A 
HETATM   14  C17 UNL     1     -14.052   4.221 -17.088  1.00  0.00     0.029 A 
HETATM   15  C18 UNL     1     -13.299   4.597 -18.182  1.00  0.00     0.017 A 
ENDROOT
BRANCH   1  16
HETATM   16  C7  UNL     1     -11.182   3.095 -18.206  1.00  0.00     0.079 C 
BRANCH  16  17
HETATM   17  C6  UNL     1     -11.157   1.879 -19.029  1.00  0.00    -0.053 A 
HETATM   18  C5  UNL     1     -12.289   1.162 -19.298  1.00  0.00     0.019 A 
HETATM   19  C4  UNL     1     -12.261   0.006 -20.081  1.00  0.00    -0.025 A 
HETATM   20  C3  UNL     1     -13.392  -0.730 -20.366  1.00  0.00     0.012 A 
HETATM   21  C21 UNL     1     -11.052  -0.424 -20.596  1.00  0.00    -0.026 A 
HETATM   22  C2  UNL     1     -13.365  -1.871 -21.140  1.00  0.00     0.001 A 
HETATM   23  C1  UNL     1     -12.148  -2.275 -21.639  1.00  0.00     0.001 A 
HETATM   24  C22 UNL     1     -11.004  -1.562 -21.373  1.00  0.00     0.012 A 
HETATM   25  C20 UNL     1      -9.923   0.291 -20.328  1.00  0.00     0.013 A 
HETATM   26  C19 UNL     1      -9.963   1.439 -19.548  1.00  0.00     0.008 A 
ENDBRANCH  16  17
ENDBRANCH   1  16
TORSDOF 2
ENDMDL
MODEL 5
REMARK VINA RESULT: -11.002087772      1.566      6.765
REMARK  2 active torsions:
REMARK  status: ('A' for Active; 'I' for Inactive)
REMARK    1  A    between atoms: C6_6  and  C7_7 
REMARK    2  A    between atoms: C7_7  and  C8_8 
ROOT
HETATM    1  C8  UNL     1     -13.063   3.019 -17.498  1.00  0.00    -0.025 A 
HETATM    2  C9  UNL     1     -14.299   2.777 -16.908  1.00  0.00     0.098 A 
HETATM    3  N1  UNL     1     -15.212   3.613 -17.433  1.00  0.00    -0.351 N 
ATOM      4  H1  UNL     1     -16.197   3.639 -17.170  1.00  0.00     0.166 HD
HETATM    5  C10 UNL     1     -14.636   4.413 -18.361  1.00  0.00     0.116 A 
HETATM    6  N2  UNL     1     -15.110   5.398 -19.154  1.00  0.00    -0.341 N 
ATOM      7  H2  UNL     1     -16.099   5.640 -19.096  1.00  0.00     0.167 HD
HETATM    8  C11 UNL     1     -14.330   6.075 -20.017  1.00  0.00     0.044 A 
HETATM    9  C12 UNL     1     -14.838   7.087 -20.824  1.00  0.00     0.030 A 
HETATM   10  C13 UNL     1     -14.045   7.785 -21.711  1.00  0.00     0.002 A 
HETATM   11  C14 UNL     1     -12.705   7.444 -21.778  1.00  0.00     0.001 A 
HETATM   12  C15 UNL     1     -12.210   6.442 -20.977  1.00  0.00     0.014 A 
HETATM   13  C16 UNL     1     -12.996   5.739 -20.087  1.00  0.00    -0.009 A 
HETATM   14  C17 UNL     1     -12.499   4.728 -19.277  1.00  0.00     0.029 A 
HETATM   15  C18 UNL     1     -13.306   4.038 -18.395  1.00  0.00     0.017 A 
ENDROOT
BRANCH   1  16
HETATM   16  C7  UNL     1     -11.806   2.291 -17.196  1.00  0.00     0.079 C 
BRANCH  16  17
HETATM   17  C6  UNL     1     -11.373   1.358 -18.245  1.00  0.00    -0.053 A 
HETATM   18  C5  UNL     1     -11.995   0.158 -18.451  1.00  0.00     0.019 A 
HETATM   19  C4  UNL     1     -11.580  -0.726 -19.449  1.00  0.00    -0.025 A 
HETATM   20  C3  UNL     1     -12.195  -1.939 -19.675  1.00  0.00     0.012 A 
HETATM   21  C21 UNL     1     -10.509  -0.375 -20.250  1.00  0.00    -0.026 A 
HETATM   22  C2  UNL     1     -11.787  -2.812 -20.660  1.00  0.00     0.001 A 
HETATM   23  C1  UNL     1     -10.718  -2.437 -21.442  1.00  0.00     0.001 A 
HETATM   24  C22 UNL     1     -10.085  -1.234 -21.242  1.00  0.00     0.012 A 
HETATM   25  C20 UNL     1      -9.889   0.821 -20.045  1.00  0.00     0.013 A 
HETATM   26  C19 UNL     1     -10.310   1.692 -19.050  1.00  0.00     0.008 A 
ENDBRANCH  16  17
ENDBRANCH   1  16
TORSDOF 2
ENDMDL
