MODEL 1
REMARK VINA RESULT: -7.254700846      0.000      0.000
REMARK  8 active torsions:
REMARK  status: ('A' for Active; 'I' for Inactive)
REMARK    1  A    between atoms: O1_2  and  C2_3 
REMARK    2  A    between atoms: C2_3  and  C3_5 
REMARK    3  A    between atoms: C7_10  and  N1_11 
REMARK    4  A    between atoms: C8_12  and  C9_13 
REMARK    5  A    between atoms: C9_13  and  C10_14 
REMARK    6  A    between atoms: C10_14  and  N2_15 
REMARK    7  A    between atoms: C18_25  and  C19_26 
REMARK    8  A    between atoms: C21_30  and  N4_31 
ROOT
HETATM    1  N1  UNL     1      14.545 -16.017  14.383  1.00  0.00    -0.350 N 
HETATM    2  C8  UNL     1      15.352 -17.203  14.354  1.00  0.00    -0.009 C 
HETATM    3  C16 UNL     1      14.343 -18.327  14.392  1.00  0.00     0.055 C 
HETATM    4  C17 UNL     1      13.320 -17.787  15.328  1.00  0.00     0.037 C 
HETATM    5  C18 UNL     1      13.795 -16.315  15.496  1.00  0.00     0.131 C 
ENDROOT
BRANCH   1   6
HETATM    6  C7  UNL     1      14.164 -15.460  13.176  1.00  0.00     0.007 C 
HETATM    7  C3  UNL     1      14.451 -14.009  12.951  1.00  0.00     0.155 C 
HETATM    8  C4  UNL     1      13.516 -13.227  12.116  1.00  0.00     0.188 C 
HETATM    9  O3  UNL     1      12.226 -13.702  12.199  1.00  0.00    -0.390 OA
HETATM   10  C5  UNL     1      12.288 -14.970  11.577  1.00  0.00     0.173 C 
HETATM   11  C6  UNL     1      12.848 -15.945  12.605  1.00  0.00     0.079 C 
BRANCH   7  12
HETATM   12  C2  UNL     1      15.802 -13.779  12.268  1.00  0.00     0.270 C 
HETATM   13  O2  UNL     1      16.869 -13.984  12.855  1.00  0.00    -0.264 OA
BRANCH  12  14
HETATM   14  O1  UNL     1      15.828 -13.331  10.948  1.00  0.00    -0.326 OA
HETATM   15  C1  UNL     1      16.116 -14.208   9.878  1.00  0.00     0.213 C 
ENDBRANCH  12  14
ENDBRANCH   7  12
ENDBRANCH   1   6
BRANCH   2  16
HETATM   16  C9  UNL     1      16.534 -17.366  13.562  1.00  0.00     0.083 C 
BRANCH  16  17
HETATM   17  C10 UNL     1      16.954 -18.828  13.462  1.00  0.00     0.278 C 
BRANCH  17  18
HETATM   18  N2  UNL     1      18.106 -19.009  12.619  1.00  0.00     0.093 N 
HETATM   19  C11 UNL     1      17.792 -19.691  11.413  1.00  0.00     0.298 C 
HETATM   20  C12 UNL     1      17.023 -18.886  10.392  1.00  0.00     0.198 C 
HETATM   21  O4  UNL     1      17.882 -18.267   9.468  1.00  0.00    -0.387 OA
HETATM   22  C13 UNL     1      18.363 -17.117  10.090  1.00  0.00     0.206 C 
HETATM   23  C14 UNL     1      19.410 -17.547  11.111  1.00  0.00     0.222 C 
HETATM   24  F1  UNL     1      20.402 -16.561  11.196  1.00  0.00    -0.245 F 
HETATM   25  C15 UNL     1      18.727 -17.726  12.430  1.00  0.00     0.311 C 
ENDBRANCH  17  18
ENDBRANCH  16  17
ENDBRANCH   2  16
BRANCH   5  26
HETATM   26  C19 UNL     1      12.706 -15.492  16.011  1.00  0.00     0.025 A 
HETATM   27  C20 UNL     1      11.451 -15.893  16.424  1.00  0.00     0.107 A 
HETATM   28  N3  UNL     1      10.612 -14.988  16.813  1.00  0.00    -0.346 N 
HETATM   29  C21 UNL     1      10.970 -13.711  16.807  1.00  0.00     0.142 A 
ATOM     30  H3  UNL     1       9.677 -15.257  17.123  1.00  0.00     0.167 HD
HETATM   31  S1  UNL     1      12.565 -13.780  16.226  1.00  0.00    -0.056 SA
BRANCH  29  32
HETATM   32  N4  UNL     1      10.273 -12.659  17.159  1.00  0.00    -0.380 N 
ATOM     33  H42 UNL     1       9.353 -12.624  17.598  1.00  0.00     0.158 HD
ATOM     34  H41 UNL     1      10.511 -11.672  17.064  1.00  0.00     0.158 HD
ENDBRANCH  29  32
ENDBRANCH   5  26
TORSDOF 8
ENDMDL
MODEL 2
REMARK VINA RESULT: -7.145021516      3.212      6.879
REMARK  8 active torsions:
REMARK  status: ('A' for Active; 'I' for Inactive)
REMARK    1  A    between atoms: O1_2  and  C2_3 
REMARK    2  A    between atoms: C2_3  and  C3_5 
REMARK    3  A    between atoms: C7_10  and  N1_11 
REMARK    4  A    between atoms: C8_12  and  C9_13 
REMARK    5  A    between atoms: C9_13  and  C10_14 
REMARK    6  A    between atoms: C10_14  and  N2_15 
REMARK    7  A    between atoms: C18_25  and  C19_26 
REMARK    8  A    between atoms: C21_30  and  N4_31 
ROOT
HETATM    1  N1  UNL     1      15.049 -17.262  12.630  1.00  0.00    -0.350 N 
HETATM    2  C8  UNL     1      14.314 -18.084  13.547  1.00  0.00    -0.009 C 
HETATM    3  C16 UNL     1      15.262 -18.267  14.709  1.00  0.00     0.055 C 
HETATM    4  C17 UNL     1      16.572 -18.396  14.016  1.00  0.00     0.037 C 
HETATM    5  C18 UNL     1      16.192 -18.023  12.554  1.00  0.00     0.131 C 
ENDROOT
BRANCH   1   6
HETATM    6  C7  UNL     1      14.899 -15.889  12.722  1.00  0.00     0.007 C 
HETATM    7  C3  UNL     1      14.956 -15.092  11.458  1.00  0.00     0.155 C 
HETATM    8  C4  UNL     1      15.510 -13.723  11.513  1.00  0.00     0.188 C 
HETATM    9  O3  UNL     1      16.468 -13.591  12.494  1.00  0.00    -0.390 OA
HETATM   10  C5  UNL     1      15.745 -13.735  13.699  1.00  0.00     0.173 C 
HETATM   11  C6  UNL     1      15.542 -15.229  13.923  1.00  0.00     0.079 C 
BRANCH   7  12
HETATM   12  C2  UNL     1      13.574 -14.883  10.834  1.00  0.00     0.270 C 
HETATM   13  O2  UNL     1      12.576 -15.479  11.253  1.00  0.00    -0.264 OA
BRANCH  12  14
HETATM   14  O1  UNL     1      13.436 -13.994   9.769  1.00  0.00    -0.326 OA
HETATM   15  C1  UNL     1      12.167 -13.679   9.233  1.00  0.00     0.213 C 
ENDBRANCH  12  14
ENDBRANCH   7  12
ENDBRANCH   1   6
BRANCH   2  16
HETATM   16  C9  UNL     1      12.913 -17.953  13.816  1.00  0.00     0.083 C 
BRANCH  16  17
HETATM   17  C10 UNL     1      12.640 -17.694  15.294  1.00  0.00     0.278 C 
BRANCH  17  18
HETATM   18  N2  UNL     1      11.527 -16.806  15.497  1.00  0.00     0.093 N 
HETATM   19  C11 UNL     1      11.500 -16.262  16.809  1.00  0.00     0.298 C 
HETATM   20  C12 UNL     1      12.545 -15.211  17.099  1.00  0.00     0.198 C 
HETATM   21  O4  UNL     1      12.051 -13.915  16.874  1.00  0.00    -0.387 OA
HETATM   22  C13 UNL     1      12.135 -13.696  15.501  1.00  0.00     0.206 C 
HETATM   23  C14 UNL     1      11.009 -14.480  14.837  1.00  0.00     0.222 C 
HETATM   24  F1  UNL     1      10.563 -13.778  13.709  1.00  0.00    -0.245 F 
HETATM   25  C15 UNL     1      11.544 -15.822  14.448  1.00  0.00     0.311 C 
ENDBRANCH  17  18
ENDBRANCH  16  17
ENDBRANCH   2  16
BRANCH   5  26
HETATM   26  C19 UNL     1      17.387 -17.658  11.802  1.00  0.00     0.025 A 
HETATM   27  C20 UNL     1      18.316 -16.679  12.092  1.00  0.00     0.107 A 
HETATM   28  N3  UNL     1      19.292 -16.489  11.264  1.00  0.00    -0.346 N 
HETATM   29  C21 UNL     1      19.378 -17.230  10.167  1.00  0.00     0.142 A 
ATOM     30  H3  UNL     1      19.992 -15.772  11.454  1.00  0.00     0.167 HD
HETATM   31  S1  UNL     1      18.022 -18.245  10.302  1.00  0.00    -0.056 SA
BRANCH  29  32
HETATM   32  N4  UNL     1      20.279 -17.192   9.217  1.00  0.00    -0.380 N 
ATOM     33  H42 UNL     1      20.145 -17.024   8.220  1.00  0.00     0.158 HD
ATOM     34  H41 UNL     1      21.288 -17.321   9.286  1.00  0.00     0.158 HD
ENDBRANCH  29  32
ENDBRANCH   5  26
TORSDOF 8
ENDMDL
MODEL 3
REMARK VINA RESULT: -7.038552575      1.571      1.841
REMARK  8 active torsions:
REMARK  status: ('A' for Active; 'I' for Inactive)
REMARK    1  A    between atoms: O1_2  and  C2_3 
REMARK    2  A    between atoms: C2_3  and  C3_5 
REMARK    3  A    between atoms: C7_10  and  N1_11 
REMARK    4  A    between atoms: C8_12  and  C9_13 
REMARK    5  A    between atoms: C9_13  and  C10_14 
REMARK    6  A    between atoms: C10_14  and  N2_15 
REMARK    7  A    between atoms: C18_25  and  C19_26 
REMARK    8  A    between atoms: C21_30  and  N4_31 
ROOT
HETATM    1  N1  UNL     1      13.371 -15.316  14.930  1.00  0.00    -0.350 N 
HETATM    2  C8  UNL     1      14.151 -16.498  14.705  1.00  0.00    -0.009 C 
HETATM    3  C16 UNL     1      13.120 -17.560  14.400  1.00  0.00     0.055 C 
HETATM    4  C17 UNL     1      12.024 -17.198  15.339  1.00  0.00     0.037 C 
HETATM    5  C18 UNL     1      12.512 -15.822  15.876  1.00  0.00     0.131 C 
ENDROOT
BRANCH   1   6
HETATM    6  C7  UNL     1      13.118 -14.488  13.850  1.00  0.00     0.007 C 
HETATM    7  C3  UNL     1      13.595 -13.073  13.926  1.00  0.00     0.155 C 
HETATM    8  C4  UNL     1      12.804 -12.026  13.245  1.00  0.00     0.188 C 
HETATM    9  O3  UNL     1      11.462 -12.335  13.205  1.00  0.00    -0.390 OA
HETATM   10  C5  UNL     1      11.395 -13.453  12.343  1.00  0.00     0.173 C 
HETATM   11  C6  UNL     1      11.780 -14.676  13.168  1.00  0.00     0.079 C 
BRANCH   7  12
HETATM   12  C2  UNL     1      14.993 -12.893  13.331  1.00  0.00     0.270 C 
HETATM   13  O2  UNL     1      16.008 -12.925  14.035  1.00  0.00    -0.264 OA
BRANCH  12  14
HETATM   14  O1  UNL     1      15.128 -12.693  11.957  1.00  0.00    -0.326 OA
HETATM   15  C1  UNL     1      15.667 -13.692  11.116  1.00  0.00     0.213 C 
ENDBRANCH  12  14
ENDBRANCH   7  12
ENDBRANCH   1   6
BRANCH   2  16
HETATM   16  C9  UNL     1      15.400 -16.531  14.004  1.00  0.00     0.083 C 
BRANCH  16  17
HETATM   17  C10 UNL     1      15.257 -17.151  12.618  1.00  0.00     0.278 C 
BRANCH  17  18
HETATM   18  N2  UNL     1      16.284 -18.122  12.346  1.00  0.00     0.093 N 
HETATM   19  C11 UNL     1      16.451 -18.357  10.956  1.00  0.00     0.298 C 
HETATM   20  C12 UNL     1      17.129 -17.248  10.186  1.00  0.00     0.198 C 
HETATM   21  O4  UNL     1      18.515 -17.462  10.085  1.00  0.00    -0.387 OA
HETATM   22  C13 UNL     1      19.066 -17.034  11.291  1.00  0.00     0.206 C 
HETATM   23  C14 UNL     1      18.756 -18.092  12.343  1.00  0.00     0.222 C 
HETATM   24  F1  UNL     1      19.813 -18.151  13.261  1.00  0.00    -0.245 F 
HETATM   25  C15 UNL     1      17.481 -17.708  13.026  1.00  0.00     0.311 C 
ENDBRANCH  17  18
ENDBRANCH  16  17
ENDBRANCH   2  16
BRANCH   5  26
HETATM   26  C19 UNL     1      11.397 -15.089  16.465  1.00  0.00     0.025 A 
HETATM   27  C20 UNL     1      11.329 -13.749  16.790  1.00  0.00     0.107 A 
HETATM   28  N3  UNL     1      10.250 -13.303  17.347  1.00  0.00    -0.346 N 
HETATM   29  C21 UNL     1       9.243 -14.132  17.591  1.00  0.00     0.142 A 
ATOM     30  H3  UNL     1      10.173 -12.317  17.597  1.00  0.00     0.167 HD
HETATM   31  S1  UNL     1       9.839 -15.614  17.011  1.00  0.00    -0.056 SA
BRANCH  29  32
HETATM   32  N4  UNL     1       8.082 -13.878  18.140  1.00  0.00    -0.380 N 
ATOM     33  H42 UNL     1       7.816 -13.088  18.729  1.00  0.00     0.158 HD
ATOM     34  H41 UNL     1       7.217 -14.416  18.089  1.00  0.00     0.158 HD
ENDBRANCH  29  32
ENDBRANCH   5  26
TORSDOF 8
ENDMDL
MODEL 4
REMARK VINA RESULT: -7.035575373      0.871      2.072
REMARK  8 active torsions:
REMARK  status: ('A' for Active; 'I' for Inactive)
REMARK    1  A    between atoms: O1_2  and  C2_3 
REMARK    2  A    between atoms: C2_3  and  C3_5 
REMARK    3  A    between atoms: C7_10  and  N1_11 
REMARK    4  A    between atoms: C8_12  and  C9_13 
REMARK    5  A    between atoms: C9_13  and  C10_14 
REMARK    6  A    between atoms: C10_14  and  N2_15 
REMARK    7  A    between atoms: C18_25  and  C19_26 
REMARK    8  A    between atoms: C21_30  and  N4_31 
ROOT
HETATM    1  N1  UNL     1      14.545 -16.069  14.541  1.00  0.00    -0.350 N 
HETATM    2  C8  UNL     1      15.188 -17.283  14.129  1.00  0.00    -0.009 C 
HETATM    3  C16 UNL     1      14.097 -18.045  13.414  1.00  0.00     0.055 C 
HETATM    4  C17 UNL     1      12.907 -17.729  14.250  1.00  0.00     0.037 C 
HETATM    5  C18 UNL     1      13.469 -16.624  15.191  1.00  0.00     0.131 C 
ENDROOT
BRANCH   1   6
HETATM    6  C7  UNL     1      14.606 -14.979  13.690  1.00  0.00     0.007 C 
HETATM    7  C3  UNL     1      14.266 -15.196  12.250  1.00  0.00     0.155 C 
HETATM    8  C4  UNL     1      14.957 -14.375  11.232  1.00  0.00     0.188 C 
HETATM    9  O3  UNL     1      16.227 -14.019  11.629  1.00  0.00    -0.390 OA
HETATM   10  C5  UNL     1      16.012 -13.140  12.714  1.00  0.00     0.173 C 
HETATM   11  C6  UNL     1      15.735 -14.002  13.940  1.00  0.00     0.079 C 
BRANCH   7  12
HETATM   12  C2  UNL     1      12.786 -14.943  11.952  1.00  0.00     0.270 C 
HETATM   13  O2  UNL     1      12.018 -14.502  12.813  1.00  0.00    -0.264 OA
BRANCH  12  14
HETATM   14  O1  UNL     1      12.292 -15.214  10.677  1.00  0.00    -0.326 OA
HETATM   15  C1  UNL     1      11.505 -14.273   9.977  1.00  0.00     0.213 C 
ENDBRANCH  12  14
ENDBRANCH   7  12
ENDBRANCH   1   6
BRANCH   2  16
HETATM   16  C9  UNL     1      16.527 -17.368  13.629  1.00  0.00     0.083 C 
BRANCH  16  17
HETATM   17  C10 UNL     1      17.018 -18.810  13.561  1.00  0.00     0.278 C 
BRANCH  17  18
HETATM   18  N2  UNL     1      18.117 -18.970  12.645  1.00  0.00     0.093 N 
HETATM   19  C11 UNL     1      17.727 -19.607  11.438  1.00  0.00     0.298 C 
HETATM   20  C12 UNL     1      16.906 -18.762  10.492  1.00  0.00     0.198 C 
HETATM   21  O4  UNL     1      17.715 -18.118   9.541  1.00  0.00    -0.387 OA
HETATM   22  C13 UNL     1      18.243 -16.994  10.172  1.00  0.00     0.206 C 
HETATM   23  C14 UNL     1      19.344 -17.466  11.114  1.00  0.00     0.222 C 
HETATM   24  F1  UNL     1      20.348 -16.490  11.173  1.00  0.00    -0.245 F 
HETATM   25  C15 UNL     1      18.737 -17.685  12.464  1.00  0.00     0.311 C 
ENDBRANCH  17  18
ENDBRANCH  16  17
ENDBRANCH   2  16
BRANCH   5  26
HETATM   26  C19 UNL     1      12.374 -15.867  15.786  1.00  0.00     0.025 A 
HETATM   27  C20 UNL     1      11.035 -16.201  15.848  1.00  0.00     0.107 A 
HETATM   28  N3  UNL     1      10.214 -15.362  16.391  1.00  0.00    -0.346 N 
HETATM   29  C21 UNL     1      10.670 -14.212  16.871  1.00  0.00     0.142 A 
ATOM     30  H3  UNL     1       9.220 -15.583  16.450  1.00  0.00     0.167 HD
HETATM   31  S1  UNL     1      12.334 -14.311  16.545  1.00  0.00    -0.056 SA
BRANCH  29  32
HETATM   32  N4  UNL     1      10.007 -13.242  17.450  1.00  0.00    -0.380 N 
ATOM     33  H42 UNL     1      10.331 -12.585  18.160  1.00  0.00     0.158 HD
ATOM     34  H41 UNL     1       9.039 -12.953  17.307  1.00  0.00     0.158 HD
ENDBRANCH  29  32
ENDBRANCH   5  26
TORSDOF 8
ENDMDL
MODEL 5
REMARK VINA RESULT: -7.030213923      3.011      4.615
REMARK  8 active torsions:
REMARK  status: ('A' for Active; 'I' for Inactive)
REMARK    1  A    between atoms: O1_2  and  C2_3 
REMARK    2  A    between atoms: C2_3  and  C3_5 
REMARK    3  A    between atoms: C7_10  and  N1_11 
REMARK    4  A    between atoms: C8_12  and  C9_13 
REMARK    5  A    between atoms: C9_13  and  C10_14 
REMARK    6  A    between atoms: C10_14  and  N2_15 
REMARK    7  A    between atoms: C18_25  and  C19_26 
REMARK    8  A    between atoms: C21_30  and  N4_31 
ROOT
HETATM    1  N1  UNL     1      14.601 -15.350  12.528  1.00  0.00    -0.350 N 
HETATM    2  C8  UNL     1      16.030 -15.337  12.648  1.00  0.00    -0.009 C 
HETATM    3  C16 UNL     1      16.366 -13.871  12.797  1.00  0.00     0.055 C 
HETATM    4  C17 UNL     1      15.393 -13.239  11.866  1.00  0.00     0.037 C 
HETATM    5  C18 UNL     1      14.479 -14.444  11.502  1.00  0.00     0.131 C 
ENDROOT
BRANCH   1   6
HETATM    6  C7  UNL     1      13.852 -15.493  13.684  1.00  0.00     0.007 C 
HETATM    7  C3  UNL     1      12.783 -16.538  13.701  1.00  0.00     0.155 C 
HETATM    8  C4  UNL     1      11.567 -16.289  14.504  1.00  0.00     0.188 C 
HETATM    9  O3  UNL     1      11.266 -14.947  14.585  1.00  0.00    -0.390 OA
HETATM   10  C5  UNL     1      12.322 -14.406  15.353  1.00  0.00     0.173 C 
HETATM   11  C6  UNL     1      13.506 -14.212  14.413  1.00  0.00     0.079 C 
BRANCH   7  12
HETATM   12  C2  UNL     1      13.285 -17.880  14.240  1.00  0.00     0.270 C 
HETATM   13  O2  UNL     1      12.984 -18.950  13.699  1.00  0.00    -0.264 OA
BRANCH  12  14
HETATM   14  O1  UNL     1      14.106 -17.897  15.367  1.00  0.00    -0.326 OA
HETATM   15  C1  UNL     1      15.090 -18.895  15.546  1.00  0.00     0.213 C 
ENDBRANCH  12  14
ENDBRANCH   7  12
ENDBRANCH   1   6
BRANCH   2  16
HETATM   16  C9  UNL     1      16.796 -16.297  13.385  1.00  0.00     0.083 C 
BRANCH  16  17
HETATM   17  C10 UNL     1      17.824 -17.000  12.505  1.00  0.00     0.278 C 
BRANCH  17  18
HETATM   18  N2  UNL     1      17.410 -17.066  11.128  1.00  0.00     0.093 N 
HETATM   19  C11 UNL     1      18.456 -16.721  10.232  1.00  0.00     0.298 C 
HETATM   20  C12 UNL     1      19.548 -17.754  10.078  1.00  0.00     0.198 C 
HETATM   21  O4  UNL     1      19.301 -18.608   8.990  1.00  0.00    -0.387 OA
HETATM   22  C13 UNL     1      18.390 -19.561   9.439  1.00  0.00     0.206 C 
HETATM   23  C14 UNL     1      17.021 -18.895   9.510  1.00  0.00     0.222 C 
HETATM   24  F1  UNL     1      16.033 -19.839   9.204  1.00  0.00    -0.245 F 
HETATM   25  C15 UNL     1      16.835 -18.364  10.897  1.00  0.00     0.311 C 
ENDBRANCH  17  18
ENDBRANCH  16  17
ENDBRANCH   2  16
BRANCH   5  26
HETATM   26  C19 UNL     1      13.212 -13.967  10.959  1.00  0.00     0.025 A 
HETATM   27  C20 UNL     1      12.175 -14.707  10.428  1.00  0.00     0.107 A 
HETATM   28  N3  UNL     1      11.145 -14.079   9.959  1.00  0.00    -0.346 N 
HETATM   29  C21 UNL     1      11.109 -12.754   9.998  1.00  0.00     0.142 A 
ATOM     30  H3  UNL     1      10.364 -14.602   9.561  1.00  0.00     0.167 HD
HETATM   31  S1  UNL     1      12.592 -12.366  10.728  1.00  0.00    -0.056 SA
BRANCH  29  32
HETATM   32  N4  UNL     1      10.168 -11.944   9.579  1.00  0.00    -0.380 N 
ATOM     33  H42 UNL     1       9.697 -11.931   8.674  1.00  0.00     0.158 HD
ATOM     34  H41 UNL     1       9.722 -11.171  10.073  1.00  0.00     0.158 HD
ENDBRANCH  29  32
ENDBRANCH   5  26
TORSDOF 8
ENDMDL
