MODEL 1
REMARK VINA RESULT: -7.035762602      0.000      0.000
REMARK  9 active torsions:
REMARK  status: ('A' for Active; 'I' for Inactive)
REMARK    1  A    between atoms: C2_2  and  O1_3 
REMARK    2  A    between atoms: O1_3  and  C3_4 
REMARK       I    between atoms: C3_4  and  N1_6 
REMARK    3  A    between atoms: N1_6  and  C4_8 
REMARK    4  A    between atoms: C4_8  and  C5_9 
REMARK    5  A    between atoms: C8_12  and  O3_13 
REMARK    6  A    between atoms: O3_13  and  C9_14 
REMARK    7  A    between atoms: C11_18  and  O6_19 
REMARK    8  A    between atoms: C12_21  and  O7_22 
REMARK    9  A    between atoms: O7_22  and  C13_23 
ROOT
HETATM    1  C5  UNL     1      14.996 -17.026  12.276  1.00  0.00     0.009 C 
HETATM    2  C6  UNL     1      15.269 -15.902  11.348  1.00  0.00    -0.013 C 
HETATM    3  C7  UNL     1      15.085 -14.620  11.676  1.00  0.00     0.039 C 
HETATM    4  C8  UNL     1      14.584 -14.331  13.035  1.00  0.00     0.202 C 
HETATM    5  O5  UNL     1      13.266 -13.887  12.867  1.00  0.00    -0.318 OA
HETATM    6  C11 UNL     1      12.460 -15.010  12.883  1.00  0.00     0.297 C 
HETATM    7  C12 UNL     1      13.190 -16.113  13.577  1.00  0.00     0.134 C 
HETATM    8  C15 UNL     1      13.543 -17.227  12.583  1.00  0.00     0.041 C 
HETATM    9  C16 UNL     1      13.411 -18.516  13.344  1.00  0.00     0.010 C 
HETATM   10  C17 UNL     1      14.271 -18.626  14.551  1.00  0.00     0.021 C 
HETATM   11  C18 UNL     1      15.371 -17.661  14.687  1.00  0.00     0.092 C 
HETATM   12 CL1  UNL     1      16.926 -18.543  14.917  1.00  0.00    -0.124 Cl
HETATM   13  C19 UNL     1      15.503 -16.614  13.636  1.00  0.00    -0.002 C 
HETATM   14  C20 UNL     1      16.879 -16.017  13.581  1.00  0.00     0.018 C 
HETATM   15  C21 UNL     1      14.518 -15.509  13.948  1.00  0.00     0.104 C 
ENDROOT
BRANCH   1  16
HETATM   16  C4  UNL     1      15.672 -18.239  11.723  1.00  0.00     0.139 C 
BRANCH  16  17
HETATM   17  N1  UNL     1      16.543 -17.807  10.646  1.00  0.00    -0.336 N 
HETATM   18  C3  UNL     1      17.846 -18.391  10.467  1.00  0.00     0.360 C 
HETATM   19  O2  UNL     1      18.230 -19.288  11.256  1.00  0.00    -0.239 OA
ATOM     20  H1  UNL     1      16.227 -17.077  10.007  1.00  0.00     0.164 HD
BRANCH  18  21
HETATM   21  O1  UNL     1      18.689 -17.998   9.454  1.00  0.00    -0.304 OA
BRANCH  21  22
HETATM   22  C2  UNL     1      19.319 -19.000   8.656  1.00  0.00     0.176 C 
HETATM   23  C1  UNL     1      20.386 -18.314   7.833  1.00  0.00     0.034 C 
ENDBRANCH  21  22
ENDBRANCH  18  21
ENDBRANCH  16  17
ENDBRANCH   1  16
BRANCH   7  24
HETATM   24  O7  UNL     1      12.455 -16.607  14.649  1.00  0.00    -0.304 OA
BRANCH  24  25
HETATM   25  C13 UNL     1      12.221 -15.889  15.782  1.00  0.00     0.255 C 
HETATM   26  C14 UNL     1      12.931 -16.226  17.041  1.00  0.00     0.126 C 
HETATM   27  O8  UNL     1      11.418 -14.948  15.788  1.00  0.00    -0.266 OA
ENDBRANCH  24  25
ENDBRANCH   7  24
BRANCH   4  28
HETATM   28  O3  UNL     1      15.288 -13.242  13.574  1.00  0.00    -0.279 OA
BRANCH  28  29
HETATM   29  C9  UNL     1      14.613 -12.111  13.983  1.00  0.00     0.257 C 
HETATM   30  C10 UNL     1      14.576 -10.909  13.072  1.00  0.00     0.126 C 
HETATM   31  O4  UNL     1      14.016 -12.029  15.090  1.00  0.00    -0.266 OA
ENDBRANCH  28  29
ENDBRANCH   4  28
BRANCH   6  32
HETATM   32  O6  UNL     1      12.053 -15.400  11.606  1.00  0.00    -0.368 OA
ATOM     33  H6  UNL     1      11.230 -15.875  11.612  1.00  0.00     0.212 HD
ENDBRANCH   6  32
TORSDOF 9
ENDMDL
MODEL 2
REMARK VINA RESULT: -6.669174090      2.965      5.554
REMARK  9 active torsions:
REMARK  status: ('A' for Active; 'I' for Inactive)
REMARK    1  A    between atoms: C2_2  and  O1_3 
REMARK    2  A    between atoms: O1_3  and  C3_4 
REMARK       I    between atoms: C3_4  and  N1_6 
REMARK    3  A    between atoms: N1_6  and  C4_8 
REMARK    4  A    between atoms: C4_8  and  C5_9 
REMARK    5  A    between atoms: C8_12  and  O3_13 
REMARK    6  A    between atoms: O3_13  and  C9_14 
REMARK    7  A    between atoms: C11_18  and  O6_19 
REMARK    8  A    between atoms: C12_21  and  O7_22 
REMARK    9  A    between atoms: O7_22  and  C13_23 
ROOT
HETATM    1  C5  UNL     1      13.981 -15.210  12.196  1.00  0.00     0.009 C 
HETATM    2  C6  UNL     1      12.518 -15.453  12.211  1.00  0.00    -0.013 C 
HETATM    3  C7  UNL     1      11.863 -15.911  13.282  1.00  0.00     0.039 C 
HETATM    4  C8  UNL     1      12.655 -16.183  14.499  1.00  0.00     0.202 C 
HETATM    5  O5  UNL     1      12.685 -17.577  14.628  1.00  0.00    -0.318 OA
HETATM    6  C11 UNL     1      13.775 -18.023  13.903  1.00  0.00     0.297 C 
HETATM    7  C12 UNL     1      14.738 -16.892  13.742  1.00  0.00     0.134 C 
HETATM    8  C15 UNL     1      14.809 -16.457  12.272  1.00  0.00     0.041 C 
HETATM    9  C16 UNL     1      16.240 -16.070  12.025  1.00  0.00     0.010 C 
HETATM   10  C17 UNL     1      16.759 -14.985  12.898  1.00  0.00     0.021 C 
HETATM   11  C18 UNL     1      15.775 -14.190  13.644  1.00  0.00     0.092 C 
HETATM   12 CL1  UNL     1      16.015 -12.439  13.287  1.00  0.00    -0.124 Cl
HETATM   13  C19 UNL     1      14.341 -14.569  13.514  1.00  0.00    -0.002 C 
HETATM   14  C20 UNL     1      13.409 -13.451  13.884  1.00  0.00     0.018 C 
HETATM   15  C21 UNL     1      14.076 -15.734  14.442  1.00  0.00     0.104 C 
ENDROOT
BRANCH   1  16
HETATM   16  C4  UNL     1      14.282 -14.354  11.007  1.00  0.00     0.139 C 
BRANCH  16  17
HETATM   17  N1  UNL     1      13.017 -13.970  10.409  1.00  0.00    -0.336 N 
HETATM   18  C3  UNL     1      12.975 -13.250   9.164  1.00  0.00     0.360 C 
HETATM   19  O2  UNL     1      14.051 -12.951   8.592  1.00  0.00    -0.239 OA
ATOM     20  H1  UNL     1      12.145 -14.214  10.879  1.00  0.00     0.164 HD
BRANCH  18  21
HETATM   21  O1  UNL     1      11.789 -12.875   8.577  1.00  0.00    -0.304 OA
BRANCH  21  22
HETATM   22  C2  UNL     1      11.117 -11.714   9.064  1.00  0.00     0.176 C 
HETATM   23  C1  UNL     1      11.342 -10.609   8.058  1.00  0.00     0.034 C 
ENDBRANCH  21  22
ENDBRANCH  18  21
ENDBRANCH  16  17
ENDBRANCH   1  16
BRANCH   7  24
HETATM   24  O7  UNL     1      15.995 -17.227  14.231  1.00  0.00    -0.304 OA
BRANCH  24  25
HETATM   25  C13 UNL     1      16.343 -18.498  14.574  1.00  0.00     0.255 C 
HETATM   26  C14 UNL     1      15.889 -19.076  15.864  1.00  0.00     0.126 C 
HETATM   27  O8  UNL     1      17.039 -19.195  13.825  1.00  0.00    -0.266 OA
ENDBRANCH  24  25
ENDBRANCH   7  24
BRANCH   4  28
HETATM   28  O3  UNL     1      11.962 -15.710  15.626  1.00  0.00    -0.279 OA
BRANCH  28  29
HETATM   29  C9  UNL     1      12.139 -16.314  16.853  1.00  0.00     0.257 C 
HETATM   30  C10 UNL     1      10.992 -17.082  17.464  1.00  0.00     0.126 C 
HETATM   31  O4  UNL     1      13.220 -16.258  17.498  1.00  0.00    -0.266 OA
ENDBRANCH  28  29
ENDBRANCH   4  28
BRANCH   6  32
HETATM   32  O6  UNL     1      13.416 -18.558  12.665  1.00  0.00    -0.368 OA
ATOM     33  H6  UNL     1      12.811 -19.288  12.742  1.00  0.00     0.212 HD
ENDBRANCH   6  32
TORSDOF 9
ENDMDL
MODEL 3
REMARK VINA RESULT: -6.658066432      2.440      6.302
REMARK  9 active torsions:
REMARK  status: ('A' for Active; 'I' for Inactive)
REMARK    1  A    between atoms: C2_2  and  O1_3 
REMARK    2  A    between atoms: O1_3  and  C3_4 
REMARK       I    between atoms: C3_4  and  N1_6 
REMARK    3  A    between atoms: N1_6  and  C4_8 
REMARK    4  A    between atoms: C4_8  and  C5_9 
REMARK    5  A    between atoms: C8_12  and  O3_13 
REMARK    6  A    between atoms: O3_13  and  C9_14 
REMARK    7  A    between atoms: C11_18  and  O6_19 
REMARK    8  A    between atoms: C12_21  and  O7_22 
REMARK    9  A    between atoms: O7_22  and  C13_23 
ROOT
HETATM    1  C5  UNL     1      14.267 -15.486  13.793  1.00  0.00     0.009 C 
HETATM    2  C6  UNL     1      13.704 -14.158  13.450  1.00  0.00    -0.013 C 
HETATM    3  C7  UNL     1      13.692 -13.667  12.207  1.00  0.00     0.039 C 
HETATM    4  C8  UNL     1      14.272 -14.504  11.138  1.00  0.00     0.202 C 
HETATM    5  O5  UNL     1      15.465 -13.872  10.767  1.00  0.00    -0.318 OA
HETATM    6  C11 UNL     1      16.455 -14.366  11.597  1.00  0.00     0.297 C 
HETATM    7  C12 UNL     1      16.009 -15.682  12.145  1.00  0.00     0.134 C 
HETATM    8  C15 UNL     1      15.756 -15.574  13.654  1.00  0.00     0.041 C 
HETATM    9  C16 UNL     1      16.192 -16.887  14.240  1.00  0.00     0.010 C 
HETATM   10  C17 UNL     1      15.496 -18.082  13.696  1.00  0.00     0.021 C 
HETATM   11  C18 UNL     1      14.263 -17.855  12.930  1.00  0.00     0.092 C 
HETATM   12 CL1  UNL     1      12.922 -18.829  13.638  1.00  0.00    -0.124 Cl
HETATM   13  C19 UNL     1      13.839 -16.445  12.708  1.00  0.00    -0.002 C 
HETATM   14  C20 UNL     1      12.381 -16.323  12.374  1.00  0.00     0.018 C 
HETATM   15  C21 UNL     1      14.640 -15.890  11.551  1.00  0.00     0.104 C 
ENDROOT
BRANCH   1  16
HETATM   16  C4  UNL     1      13.762 -15.850  15.152  1.00  0.00     0.139 C 
BRANCH  16  17
HETATM   17  N1  UNL     1      13.061 -14.698  15.685  1.00  0.00    -0.336 N 
HETATM   18  C3  UNL     1      12.017 -14.852  16.664  1.00  0.00     0.360 C 
HETATM   19  O2  UNL     1      11.713 -16.004  17.059  1.00  0.00    -0.239 OA
ATOM     20  H1  UNL     1      13.311 -13.764  15.361  1.00  0.00     0.164 HD
BRANCH  18  21
HETATM   21  O1  UNL     1      11.338 -13.776  17.185  1.00  0.00    -0.304 OA
BRANCH  21  22
HETATM   22  C2  UNL     1      10.888 -12.752  16.299  1.00  0.00     0.176 C 
HETATM   23  C1  UNL     1       9.802 -13.350  15.435  1.00  0.00     0.034 C 
ENDBRANCH  21  22
ENDBRANCH  18  21
ENDBRANCH  16  17
ENDBRANCH   1  16
BRANCH   7  24
HETATM   24  O7  UNL     1      16.927 -16.685  11.857  1.00  0.00    -0.304 OA
BRANCH  24  25
HETATM   25  C13 UNL     1      17.306 -17.002  10.587  1.00  0.00     0.255 C 
HETATM   26  C14 UNL     1      16.766 -18.218   9.927  1.00  0.00     0.126 C 
HETATM   27  O8  UNL     1      18.100 -16.291   9.960  1.00  0.00    -0.266 OA
ENDBRANCH  24  25
ENDBRANCH   7  24
BRANCH   4  28
HETATM   28  O3  UNL     1      13.446 -14.458  10.003  1.00  0.00    -0.279 OA
BRANCH  28  29
HETATM   29  C9  UNL     1      12.586 -13.397   9.812  1.00  0.00     0.257 C 
HETATM   30  C10 UNL     1      11.127 -13.565  10.158  1.00  0.00     0.126 C 
HETATM   31  O4  UNL     1      12.960 -12.281   9.361  1.00  0.00    -0.266 OA
ENDBRANCH  28  29
ENDBRANCH   4  28
BRANCH   6  32
HETATM   32  O6  UNL     1      16.789 -13.481  12.624  1.00  0.00    -0.368 OA
ATOM     33  H6  UNL     1      16.178 -13.516  13.351  1.00  0.00     0.212 HD
ENDBRANCH   6  32
TORSDOF 9
ENDMDL
MODEL 4
REMARK VINA RESULT: -6.619660759      2.899      6.407
REMARK  9 active torsions:
REMARK  status: ('A' for Active; 'I' for Inactive)
REMARK    1  A    between atoms: C2_2  and  O1_3 
REMARK    2  A    between atoms: O1_3  and  C3_4 
REMARK       I    between atoms: C3_4  and  N1_6 
REMARK    3  A    between atoms: N1_6  and  C4_8 
REMARK    4  A    between atoms: C4_8  and  C5_9 
REMARK    5  A    between atoms: C8_12  and  O3_13 
REMARK    6  A    between atoms: O3_13  and  C9_14 
REMARK    7  A    between atoms: C11_18  and  O6_19 
REMARK    8  A    between atoms: C12_21  and  O7_22 
REMARK    9  A    between atoms: O7_22  and  C13_23 
ROOT
HETATM    1  C5  UNL     1      14.623 -14.595  13.484  1.00  0.00     0.009 C 
HETATM    2  C6  UNL     1      15.215 -13.360  12.914  1.00  0.00    -0.013 C 
HETATM    3  C7  UNL     1      15.594 -13.252  11.638  1.00  0.00     0.039 C 
HETATM    4  C8  UNL     1      15.406 -14.431  10.769  1.00  0.00     0.202 C 
HETATM    5  O5  UNL     1      16.692 -14.925  10.516  1.00  0.00    -0.318 OA
HETATM    6  C11 UNL     1      16.989 -15.810  11.536  1.00  0.00     0.297 C 
HETATM    7  C12 UNL     1      15.711 -16.278  12.152  1.00  0.00     0.134 C 
HETATM    8  C15 UNL     1      15.582 -15.743  13.584  1.00  0.00     0.041 C 
HETATM    9  C16 UNL     1      14.909 -16.831  14.372  1.00  0.00     0.010 C 
HETATM   10  C17 UNL     1      13.574 -17.243  13.864  1.00  0.00     0.021 C 
HETATM   11  C18 UNL     1      12.914 -16.353  12.899  1.00  0.00     0.092 C 
HETATM   12 CL1  UNL     1      11.270 -15.922  13.498  1.00  0.00    -0.124 Cl
HETATM   13  C19 UNL     1      13.658 -15.140  12.460  1.00  0.00    -0.002 C 
HETATM   14  C20 UNL     1      12.757 -14.080  11.896  1.00  0.00     0.018 C 
HETATM   15  C21 UNL     1      14.638 -15.553  11.384  1.00  0.00     0.104 C 
ENDROOT
BRANCH   1  16
HETATM   16  C4  UNL     1      13.980 -14.227  14.782  1.00  0.00     0.139 C 
BRANCH  16  17
HETATM   17  N1  UNL     1      13.663 -12.812  14.732  1.00  0.00    -0.336 N 
HETATM   18  C3  UNL     1      12.417 -12.313  15.250  1.00  0.00     0.360 C 
HETATM   19  O2  UNL     1      11.595 -13.118  15.751  1.00  0.00    -0.239 OA
ATOM     20  H1  UNL     1      14.334 -12.161  14.323  1.00  0.00     0.164 HD
BRANCH  18  21
HETATM   21  O1  UNL     1      12.093 -10.977  15.214  1.00  0.00    -0.304 OA
BRANCH  21  22
HETATM   22  C2  UNL     1      13.083 -10.040  14.794  1.00  0.00     0.176 C 
HETATM   23  C1  UNL     1      12.585  -8.662  15.167  1.00  0.00     0.034 C 
ENDBRANCH  21  22
ENDBRANCH  18  21
ENDBRANCH  16  17
ENDBRANCH   1  16
BRANCH   7  24
HETATM   24  O7  UNL     1      15.615 -17.664  12.120  1.00  0.00    -0.304 OA
BRANCH  24  25
HETATM   25  C13 UNL     1      16.605 -18.466  11.639  1.00  0.00     0.255 C 
HETATM   26  C14 UNL     1      17.682 -18.948  12.540  1.00  0.00     0.126 C 
HETATM   27  O8  UNL     1      16.631 -18.807  10.450  1.00  0.00    -0.266 OA
ENDBRANCH  24  25
ENDBRANCH   7  24
BRANCH   4  28
HETATM   28  O3  UNL     1      14.902 -14.023   9.523  1.00  0.00    -0.279 OA
BRANCH  28  29
HETATM   29  C9  UNL     1      15.460 -12.946   8.867  1.00  0.00     0.257 C 
HETATM   30  C10 UNL     1      14.675 -11.661   8.767  1.00  0.00     0.126 C 
HETATM   31  O4  UNL     1      16.605 -12.979   8.341  1.00  0.00    -0.266 OA
ENDBRANCH  28  29
ENDBRANCH   4  28
BRANCH   6  32
HETATM   32  O6  UNL     1      17.838 -15.258  12.497  1.00  0.00    -0.368 OA
ATOM     33  H6  UNL     1      17.427 -15.183  13.351  1.00  0.00     0.212 HD
ENDBRANCH   6  32
TORSDOF 9
ENDMDL
MODEL 5
REMARK VINA RESULT: -6.448885456      2.966      4.940
REMARK  9 active torsions:
REMARK  status: ('A' for Active; 'I' for Inactive)
REMARK    1  A    between atoms: C2_2  and  O1_3 
REMARK    2  A    between atoms: O1_3  and  C3_4 
REMARK       I    between atoms: C3_4  and  N1_6 
REMARK    3  A    between atoms: N1_6  and  C4_8 
REMARK    4  A    between atoms: C4_8  and  C5_9 
REMARK    5  A    between atoms: C8_12  and  O3_13 
REMARK    6  A    between atoms: O3_13  and  C9_14 
REMARK    7  A    between atoms: C11_18  and  O6_19 
REMARK    8  A    between atoms: C12_21  and  O7_22 
REMARK    9  A    between atoms: O7_22  and  C13_23 
ROOT
HETATM    1  C5  UNL     1      13.758 -15.407  12.950  1.00  0.00     0.009 C 
HETATM    2  C6  UNL     1      12.578 -16.244  13.275  1.00  0.00    -0.013 C 
HETATM    3  C7  UNL     1      11.379 -15.736  13.574  1.00  0.00     0.039 C 
HETATM    4  C8  UNL     1      11.245 -14.265  13.578  1.00  0.00     0.202 C 
HETATM    5  O5  UNL     1      11.105 -13.900  14.922  1.00  0.00    -0.318 OA
HETATM    6  C11 UNL     1      12.381 -13.716  15.423  1.00  0.00     0.297 C 
HETATM    7  C12 UNL     1      13.309 -13.454  14.282  1.00  0.00     0.134 C 
HETATM    8  C15 UNL     1      14.288 -14.622  14.112  1.00  0.00     0.041 C 
HETATM    9  C16 UNL     1      15.593 -14.008  13.689  1.00  0.00     0.010 C 
HETATM   10  C17 UNL     1      15.538 -13.209  12.437  1.00  0.00     0.021 C 
HETATM   11  C18 UNL     1      14.354 -13.375  11.582  1.00  0.00     0.092 C 
HETATM   12 CL1  UNL     1      14.869 -13.814   9.912  1.00  0.00    -0.124 Cl
HETATM   13  C19 UNL     1      13.277 -14.283  12.065  1.00  0.00    -0.002 C 
HETATM   14  C20 UNL     1      12.385 -14.764  10.958  1.00  0.00     0.018 C 
HETATM   15  C21 UNL     1      12.431 -13.521  13.061  1.00  0.00     0.104 C 
ENDROOT
BRANCH   1  16
HETATM   16  C4  UNL     1      14.773 -16.293  12.302  1.00  0.00     0.139 C 
BRANCH  16  17
HETATM   17  N1  UNL     1      14.884 -17.496  13.105  1.00  0.00    -0.336 N 
HETATM   18  C3  UNL     1      16.114 -17.829  13.774  1.00  0.00     0.360 C 
HETATM   19  O2  UNL     1      17.102 -17.064  13.658  1.00  0.00    -0.239 OA
ATOM     20  H1  UNL     1      14.079 -18.115  13.196  1.00  0.00     0.164 HD
BRANCH  18  21
HETATM   21  O1  UNL     1      16.245 -18.963  14.540  1.00  0.00    -0.304 OA
BRANCH  21  22
HETATM   22  C2  UNL     1      15.151 -19.370  15.362  1.00  0.00     0.176 C 
HETATM   23  C1  UNL     1      14.862 -18.236  16.319  1.00  0.00     0.034 C 
ENDBRANCH  21  22
ENDBRANCH  18  21
ENDBRANCH  16  17
ENDBRANCH   1  16
BRANCH   7  24
HETATM   24  O7  UNL     1      13.984 -12.249  14.448  1.00  0.00    -0.304 OA
BRANCH  24  25
HETATM   25  C13 UNL     1      13.367 -11.037  14.372  1.00  0.00     0.255 C 
HETATM   26  C14 UNL     1      13.690 -10.102  13.265  1.00  0.00     0.126 C 
HETATM   27  O8  UNL     1      12.532 -10.690  15.216  1.00  0.00    -0.266 OA
ENDBRANCH  24  25
ENDBRANCH   7  24
BRANCH   4  28
HETATM   28  O3  UNL     1      10.040 -13.901  12.955  1.00  0.00    -0.279 OA
BRANCH  28  29
HETATM   29  C9  UNL     1       9.814 -12.590  12.591  1.00  0.00     0.257 C 
HETATM   30  C10 UNL     1       9.680 -12.249  11.127  1.00  0.00     0.126 C 
HETATM   31  O4  UNL     1       9.713 -11.651  13.425  1.00  0.00    -0.266 OA
ENDBRANCH  28  29
ENDBRANCH   4  28
BRANCH   6  32
HETATM   32  O6  UNL     1      12.820 -14.796  16.190  1.00  0.00    -0.368 OA
ATOM     33  H6  UNL     1      12.279 -14.945  16.958  1.00  0.00     0.212 HD
ENDBRANCH   6  32
TORSDOF 9
ENDMDL
