MODEL 1
REMARK VINA RESULT: -8.139998858      0.000      0.000
REMARK  7 active torsions:
REMARK  status: ('A' for Active; 'I' for Inactive)
REMARK    1  A    between atoms: C2_2  and  N1_4 
REMARK       I    between atoms: N1_4  and  C4_6 
REMARK    2  A    between atoms: C4_6  and  C5_8 
REMARK    3  A    between atoms: N4_14  and  C8_15 
REMARK    4  A    between atoms: C8_15  and  C10_17 
REMARK    5  A    between atoms: C10_17  and  O2_18 
REMARK    6  A    between atoms: N5_24  and  C14_25 
REMARK    7  A    between atoms: C14_25  and  C16_27 
ROOT
HETATM    1  C5  UNL     1      16.098 -18.054  14.281  1.00  0.00     0.096 A 
HETATM    2  C6  UNL     1      15.744 -18.948  15.331  1.00  0.00     0.130 A 
HETATM    3  N2  UNL     1      14.516 -18.577  15.681  1.00  0.00    -0.288 N 
ATOM      4  H2  UNL     1      13.974 -19.026  16.418  1.00  0.00     0.188 HD
HETATM    5  N3  UNL     1      14.081 -17.559  14.964  1.00  0.00    -0.181 N 
HETATM    6  C7  UNL     1      15.076 -17.212  14.073  1.00  0.00     0.161 A 
HETATM    7  N4  UNL     1      15.066 -16.106  13.169  1.00  0.00    -0.354 N 
HETATM    8  C11 UNL     1      13.861 -15.684  12.433  1.00  0.00     0.164 C 
HETATM    9  C12 UNL     1      12.689 -16.564  12.692  1.00  0.00     0.207 C 
HETATM   10  F1  UNL     1      12.975 -17.904  12.436  1.00  0.00    -0.246 F 
HETATM   11  C13 UNL     1      12.027 -16.389  14.034  1.00  0.00     0.184 C 
HETATM   12  N5  UNL     1      12.805 -16.971  15.102  1.00  0.00    -0.298 N 
ENDROOT
BRANCH  12  13
HETATM   13  C14 UNL     1      12.272 -16.988  16.438  1.00  0.00     0.106 C 
HETATM   14  C15 UNL     1      13.181 -16.177  17.326  1.00  0.00     0.034 C 
BRANCH  13  15
HETATM   15  C16 UNL     1      10.847 -16.686  16.607  1.00  0.00     0.039 C 
HETATM   16  C17 UNL     1      10.298 -17.045  17.972  1.00  0.00     0.178 C 
HETATM   17  O3  UNL     1       9.076 -16.386  18.077  1.00  0.00    -0.355 OA
HETATM   18  C18 UNL     1       9.100 -15.294  17.233  1.00  0.00     0.164 C 
HETATM   19  C19 UNL     1       7.946 -15.306  16.253  1.00  0.00     0.071 C 
HETATM   20  O4  UNL     1       8.832 -14.166  17.972  1.00  0.00    -0.355 OA
HETATM   21  C22 UNL     1      10.423 -15.247  16.518  1.00  0.00     0.077 C 
HETATM   22  C20 UNL     1       6.787 -14.944  17.154  1.00  0.00     0.032 C 
HETATM   23  C21 UNL     1       7.500 -14.404  18.390  1.00  0.00     0.171 C 
ENDBRANCH  13  15
ENDBRANCH  12  13
BRANCH   1  24
HETATM   24  C4  UNL     1      17.305 -18.167  13.510  1.00  0.00     0.257 C 
HETATM   25  N1  UNL     1      17.268 -18.607  12.173  1.00  0.00    -0.353 N 
ATOM     26  H1  UNL     1      16.364 -18.820  11.752  1.00  0.00     0.163 HD
HETATM   27  O1  UNL     1      18.383 -17.887  14.043  1.00  0.00    -0.267 OA
BRANCH  25  28
HETATM   28  C2  UNL     1      18.482 -18.769  11.364  1.00  0.00     0.076 C 
HETATM   29  C1  UNL     1      19.054 -17.500  10.849  1.00  0.00     0.032 C 
HETATM   30  C3  UNL     1      18.226 -19.783  10.253  1.00  0.00     0.032 C 
ENDBRANCH  25  28
ENDBRANCH   1  24
BRANCH   7  31
HETATM   31  C8  UNL     1      16.269 -15.377  13.102  1.00  0.00     0.105 C 
HETATM   32  C9  UNL     1      16.069 -13.940  13.645  1.00  0.00     0.034 C 
BRANCH  31  33
HETATM   33  C10 UNL     1      16.331 -15.030  11.561  1.00  0.00     0.189 C 
BRANCH  33  34
HETATM   34  O2  UNL     1      16.470 -13.657  11.411  1.00  0.00    -0.399 OA
ATOM     35  H2  UNL     1      16.391 -13.436  10.491  1.00  0.00     0.209 HD
ENDBRANCH  33  34
ENDBRANCH  31  33
ENDBRANCH   7  31
TORSDOF 7
ENDMDL
MODEL 2
REMARK VINA RESULT: -7.899286098      2.390      8.776
REMARK  7 active torsions:
REMARK  status: ('A' for Active; 'I' for Inactive)
REMARK    1  A    between atoms: C2_2  and  N1_4 
REMARK       I    between atoms: N1_4  and  C4_6 
REMARK    2  A    between atoms: C4_6  and  C5_8 
REMARK    3  A    between atoms: N4_14  and  C8_15 
REMARK    4  A    between atoms: C8_15  and  C10_17 
REMARK    5  A    between atoms: C10_17  and  O2_18 
REMARK    6  A    between atoms: N5_24  and  C14_25 
REMARK    7  A    between atoms: C14_25  and  C16_27 
ROOT
HETATM    1  C5  UNL     1      13.840 -14.078  14.348  1.00  0.00     0.096 A 
HETATM    2  C6  UNL     1      14.933 -13.556  13.599  1.00  0.00     0.130 A 
HETATM    3  N2  UNL     1      15.579 -14.633  13.164  1.00  0.00    -0.288 N 
ATOM      4  H2  UNL     1      16.421 -14.599  12.591  1.00  0.00     0.188 HD
HETATM    5  N3  UNL     1      15.005 -15.752  13.561  1.00  0.00    -0.181 N 
HETATM    6  C7  UNL     1      13.901 -15.416  14.318  1.00  0.00     0.161 A 
HETATM    7  N4  UNL     1      13.041 -16.315  15.022  1.00  0.00    -0.354 N 
HETATM    8  C11 UNL     1      12.630 -17.620  14.477  1.00  0.00     0.164 C 
HETATM    9  C12 UNL     1      13.158 -17.867  13.108  1.00  0.00     0.207 C 
HETATM   10  F1  UNL     1      12.822 -16.841  12.226  1.00  0.00    -0.246 F 
HETATM   11  C13 UNL     1      14.623 -18.206  13.025  1.00  0.00     0.184 C 
HETATM   12  N5  UNL     1      15.460 -17.047  13.229  1.00  0.00    -0.298 N 
ENDROOT
BRANCH  12  13
HETATM   13  C14 UNL     1      16.885 -17.167  13.080  1.00  0.00     0.106 C 
HETATM   14  C15 UNL     1      17.412 -18.033  14.197  1.00  0.00     0.034 C 
BRANCH  13  15
HETATM   15  C16 UNL     1      17.405 -17.521  11.755  1.00  0.00     0.039 C 
HETATM   16  C17 UNL     1      17.549 -16.342  10.814  1.00  0.00     0.178 C 
HETATM   17  O3  UNL     1      18.360 -16.784   9.773  1.00  0.00    -0.355 OA
HETATM   18  C18 UNL     1      19.132 -17.828  10.239  1.00  0.00     0.164 C 
HETATM   19  C19 UNL     1      18.973 -19.075   9.395  1.00  0.00     0.071 C 
HETATM   20  O4  UNL     1      20.456 -17.516  10.034  1.00  0.00    -0.355 OA
HETATM   21  C22 UNL     1      18.791 -18.095  11.680  1.00  0.00     0.077 C 
HETATM   22  C20 UNL     1      19.736 -18.691   8.148  1.00  0.00     0.032 C 
HETATM   23  C21 UNL     1      20.528 -17.476   8.621  1.00  0.00     0.171 C 
ENDBRANCH  13  15
ENDBRANCH  12  13
BRANCH   1  24
HETATM   24  C4  UNL     1      12.795 -13.264  14.905  1.00  0.00     0.257 C 
HETATM   25  N1  UNL     1      11.499 -13.278  14.354  1.00  0.00    -0.353 N 
ATOM     26  H1  UNL     1      11.308 -13.896  13.565  1.00  0.00     0.163 HD
HETATM   27  O1  UNL     1      13.053 -12.537  15.868  1.00  0.00    -0.267 OA
BRANCH  25  28
HETATM   28  C2  UNL     1      10.414 -12.436  14.872  1.00  0.00     0.076 C 
HETATM   29  C1  UNL     1       9.538 -13.103  15.866  1.00  0.00     0.032 C 
HETATM   30  C3  UNL     1       9.625 -11.844  13.708  1.00  0.00     0.032 C 
ENDBRANCH  25  28
ENDBRANCH   1  24
BRANCH   7  31
HETATM   31  C8  UNL     1      12.690 -15.910  16.324  1.00  0.00     0.105 C 
HETATM   32  C9  UNL     1      13.614 -16.578  17.373  1.00  0.00     0.034 C 
BRANCH  31  33
HETATM   33  C10 UNL     1      11.395 -16.781  16.576  1.00  0.00     0.189 C 
BRANCH  33  34
HETATM   34  O2  UNL     1      11.506 -17.412  17.808  1.00  0.00    -0.399 OA
ATOM     35  H2  UNL     1      10.697 -17.872  17.994  1.00  0.00     0.209 HD
ENDBRANCH  33  34
ENDBRANCH  31  33
ENDBRANCH   7  31
TORSDOF 7
ENDMDL
MODEL 3
REMARK VINA RESULT: -7.866977467      2.767      8.194
REMARK  7 active torsions:
REMARK  status: ('A' for Active; 'I' for Inactive)
REMARK    1  A    between atoms: C2_2  and  N1_4 
REMARK       I    between atoms: N1_4  and  C4_6 
REMARK    2  A    between atoms: C4_6  and  C5_8 
REMARK    3  A    between atoms: N4_14  and  C8_15 
REMARK    4  A    between atoms: C8_15  and  C10_17 
REMARK    5  A    between atoms: C10_17  and  O2_18 
REMARK    6  A    between atoms: N5_24  and  C14_25 
REMARK    7  A    between atoms: C14_25  and  C16_27 
ROOT
HETATM    1  C5  UNL     1      14.509 -13.437  13.975  1.00  0.00     0.096 A 
HETATM    2  C6  UNL     1      15.873 -13.481  13.570  1.00  0.00     0.130 A 
HETATM    3  N2  UNL     1      16.129 -14.776  13.413  1.00  0.00    -0.288 N 
ATOM      4  H2  UNL     1      17.033 -15.147  13.124  1.00  0.00     0.188 HD
HETATM    5  N3  UNL     1      15.077 -15.526  13.676  1.00  0.00    -0.181 N 
HETATM    6  C7  UNL     1      14.041 -14.691  14.039  1.00  0.00     0.161 A 
HETATM    7  N4  UNL     1      12.744 -15.084  14.493  1.00  0.00    -0.354 N 
HETATM    8  C11 UNL     1      12.007 -16.224  13.921  1.00  0.00     0.164 C 
HETATM    9  C12 UNL     1      12.732 -16.873  12.794  1.00  0.00     0.207 C 
HETATM   10  F1  UNL     1      13.072 -15.961  11.798  1.00  0.00    -0.246 F 
HETATM   11  C13 UNL     1      13.909 -17.728  13.183  1.00  0.00     0.184 C 
HETATM   12  N5  UNL     1      15.052 -16.934  13.569  1.00  0.00    -0.298 N 
ENDROOT
BRANCH  12  13
HETATM   13  C14 UNL     1      16.297 -17.586  13.871  1.00  0.00     0.106 C 
HETATM   14  C15 UNL     1      16.014 -18.775  14.755  1.00  0.00     0.034 C 
BRANCH  13  15
HETATM   15  C16 UNL     1      17.204 -17.874  12.755  1.00  0.00     0.039 C 
HETATM   16  C17 UNL     1      17.843 -19.247  12.818  1.00  0.00     0.178 C 
HETATM   17  O3  UNL     1      18.366 -19.481  11.549  1.00  0.00    -0.355 OA
HETATM   18  C18 UNL     1      17.661 -18.715  10.643  1.00  0.00     0.164 C 
HETATM   19  C19 UNL     1      18.570 -17.820   9.826  1.00  0.00     0.071 C 
HETATM   20  O4  UNL     1      17.144 -19.548   9.678  1.00  0.00    -0.355 OA
HETATM   21  C22 UNL     1      16.617 -17.915  11.372  1.00  0.00     0.077 C 
HETATM   22  C20 UNL     1      19.225 -18.823   8.904  1.00  0.00     0.032 C 
HETATM   23  C21 UNL     1      18.319 -20.040   9.060  1.00  0.00     0.171 C 
ENDBRANCH  13  15
ENDBRANCH  12  13
BRANCH   1  24
HETATM   24  C4  UNL     1      13.766 -12.218  14.141  1.00  0.00     0.257 C 
HETATM   25  N1  UNL     1      12.935 -11.736  13.112  1.00  0.00    -0.353 N 
ATOM     26  H1  UNL     1      12.849 -12.281  12.254  1.00  0.00     0.163 HD
HETATM   27  O1  UNL     1      13.878 -11.588  15.196  1.00  0.00    -0.267 OA
BRANCH  25  28
HETATM   28  C2  UNL     1      12.187 -10.478  13.228  1.00  0.00     0.076 C 
HETATM   29  C1  UNL     1      10.885 -10.468  12.516  1.00  0.00     0.032 C 
HETATM   30  C3  UNL     1      13.080  -9.311  12.821  1.00  0.00     0.032 C 
ENDBRANCH  25  28
ENDBRANCH   1  24
BRANCH   7  31
HETATM   31  C8  UNL     1      12.256 -14.365  15.602  1.00  0.00     0.105 C 
HETATM   32  C9  UNL     1      12.214 -15.265  16.862  1.00  0.00     0.034 C 
BRANCH  31  33
HETATM   33  C10 UNL     1      10.705 -14.341  15.291  1.00  0.00     0.189 C 
BRANCH  33  34
HETATM   34  O2  UNL     1      10.392 -13.154  14.642  1.00  0.00    -0.399 OA
ATOM     35  H2  UNL     1       9.870 -12.613  15.222  1.00  0.00     0.209 HD
ENDBRANCH  33  34
ENDBRANCH  31  33
ENDBRANCH   7  31
TORSDOF 7
ENDMDL
MODEL 4
REMARK VINA RESULT: -7.794441379      2.645      8.725
REMARK  7 active torsions:
REMARK  status: ('A' for Active; 'I' for Inactive)
REMARK    1  A    between atoms: C2_2  and  N1_4 
REMARK       I    between atoms: N1_4  and  C4_6 
REMARK    2  A    between atoms: C4_6  and  C5_8 
REMARK    3  A    between atoms: N4_14  and  C8_15 
REMARK    4  A    between atoms: C8_15  and  C10_17 
REMARK    5  A    between atoms: C10_17  and  O2_18 
REMARK    6  A    between atoms: N5_24  and  C14_25 
REMARK    7  A    between atoms: C14_25  and  C16_27 
ROOT
HETATM    1  C5  UNL     1      14.341 -13.610  14.085  1.00  0.00     0.096 A 
HETATM    2  C6  UNL     1      15.547 -13.330  13.383  1.00  0.00     0.130 A 
HETATM    3  N2  UNL     1      15.993 -14.524  13.004  1.00  0.00    -0.288 N 
ATOM      4  H2  UNL     1      16.852 -14.668  12.474  1.00  0.00     0.188 HD
HETATM    5  N3  UNL     1      15.197 -15.499  13.394  1.00  0.00    -0.181 N 
HETATM    6  C7  UNL     1      14.145 -14.935  14.086  1.00  0.00     0.161 A 
HETATM    7  N4  UNL     1      13.096 -15.632  14.764  1.00  0.00    -0.354 N 
HETATM    8  C11 UNL     1      12.466 -16.850  14.226  1.00  0.00     0.164 C 
HETATM    9  C12 UNL     1      13.000 -17.234  12.891  1.00  0.00     0.207 C 
HETATM   10  F1  UNL     1      12.910 -16.191  11.972  1.00  0.00    -0.246 F 
HETATM   11  C13 UNL     1      14.376 -17.850  12.891  1.00  0.00     0.184 C 
HETATM   12  N5  UNL     1      15.409 -16.866  13.113  1.00  0.00    -0.298 N 
ENDROOT
BRANCH  12  13
HETATM   13  C14 UNL     1      16.790 -17.262  13.041  1.00  0.00     0.106 C 
HETATM   14  C15 UNL     1      17.048 -18.296  14.106  1.00  0.00     0.034 C 
BRANCH  13  15
HETATM   15  C16 UNL     1      17.329 -17.614  11.723  1.00  0.00     0.039 C 
HETATM   16  C17 UNL     1      17.473 -16.437  10.780  1.00  0.00     0.178 C 
HETATM   17  O3  UNL     1      18.301 -16.874   9.750  1.00  0.00    -0.355 OA
HETATM   18  C18 UNL     1      19.079 -17.908  10.229  1.00  0.00     0.164 C 
HETATM   19  C19 UNL     1      18.943 -19.159   9.388  1.00  0.00     0.071 C 
HETATM   20  O4  UNL     1      20.402 -17.583  10.040  1.00  0.00    -0.355 OA
HETATM   21  C22 UNL     1      18.722 -18.174  11.666  1.00  0.00     0.077 C 
HETATM   22  C20 UNL     1      19.717 -18.771   8.149  1.00  0.00     0.032 C 
HETATM   23  C21 UNL     1      20.491 -17.547   8.628  1.00  0.00     0.171 C 
ENDBRANCH  13  15
ENDBRANCH  12  13
BRANCH   1  24
HETATM   24  C4  UNL     1      13.447 -12.595  14.570  1.00  0.00     0.257 C 
HETATM   25  N1  UNL     1      12.202 -12.375  13.951  1.00  0.00    -0.353 N 
ATOM     26  H1  UNL     1      11.934 -12.966  13.165  1.00  0.00     0.163 HD
HETATM   27  O1  UNL     1      13.793 -11.904  15.533  1.00  0.00    -0.267 OA
BRANCH  25  28
HETATM   28  C2  UNL     1      11.276 -11.325  14.394  1.00  0.00     0.076 C 
HETATM   29  C1  UNL     1       9.868 -11.768  14.543  1.00  0.00     0.032 C 
HETATM   30  C3  UNL     1      11.409 -10.107  13.486  1.00  0.00     0.032 C 
ENDBRANCH  25  28
ENDBRANCH   1  24
BRANCH   7  31
HETATM   31  C8  UNL     1      12.769 -15.127  16.037  1.00  0.00     0.105 C 
HETATM   32  C9  UNL     1      12.997 -16.205  17.127  1.00  0.00     0.034 C 
BRANCH  31  33
HETATM   33  C10 UNL     1      11.190 -15.182  15.992  1.00  0.00     0.189 C 
BRANCH  33  34
HETATM   34  O2  UNL     1      10.678 -14.292  16.925  1.00  0.00    -0.399 OA
ATOM     35  H2  UNL     1      11.265 -14.253  17.671  1.00  0.00     0.209 HD
ENDBRANCH  33  34
ENDBRANCH  31  33
ENDBRANCH   7  31
TORSDOF 7
ENDMDL
MODEL 5
REMARK VINA RESULT: -7.731148096      1.278      1.373
REMARK  7 active torsions:
REMARK  status: ('A' for Active; 'I' for Inactive)
REMARK    1  A    between atoms: C2_2  and  N1_4 
REMARK       I    between atoms: N1_4  and  C4_6 
REMARK    2  A    between atoms: C4_6  and  C5_8 
REMARK    3  A    between atoms: N4_14  and  C8_15 
REMARK    4  A    between atoms: C8_15  and  C10_17 
REMARK    5  A    between atoms: C10_17  and  O2_18 
REMARK    6  A    between atoms: N5_24  and  C14_25 
REMARK    7  A    between atoms: C14_25  and  C16_27 
ROOT
HETATM    1  C5  UNL     1      15.102 -17.580  13.634  1.00  0.00     0.096 A 
HETATM    2  C6  UNL     1      14.521 -18.437  14.611  1.00  0.00     0.130 A 
HETATM    3  N2  UNL     1      13.407 -17.811  14.978  1.00  0.00    -0.288 N 
ATOM      4  H2  UNL     1      12.755 -18.171  15.675  1.00  0.00     0.188 HD
HETATM    5  N3  UNL     1      13.242 -16.672  14.337  1.00  0.00    -0.181 N 
HETATM    6  C7  UNL     1      14.313 -16.508  13.482  1.00  0.00     0.161 A 
HETATM    7  N4  UNL     1      14.587 -15.369  12.664  1.00  0.00    -0.354 N 
HETATM    8  C11 UNL     1      13.535 -14.623  11.951  1.00  0.00     0.164 C 
HETATM    9  C12 UNL     1      12.182 -15.217  12.134  1.00  0.00     0.207 C 
HETATM   10  F1  UNL     1      12.151 -16.564  11.781  1.00  0.00    -0.246 F 
HETATM   11  C13 UNL     1      11.545 -14.986  13.480  1.00  0.00     0.184 C 
HETATM   12  N5  UNL     1      12.136 -15.810  14.507  1.00  0.00    -0.298 N 
ENDROOT
BRANCH  12  13
HETATM   13  C14 UNL     1      11.580 -15.795  15.834  1.00  0.00     0.106 C 
HETATM   14  C15 UNL     1      12.570 -15.136  16.761  1.00  0.00     0.034 C 
BRANCH  13  15
HETATM   15  C16 UNL     1      10.204 -15.313  15.990  1.00  0.00     0.039 C 
HETATM   16  C17 UNL     1       9.205 -16.400  16.332  1.00  0.00     0.178 C 
HETATM   17  O3  UNL     1       8.065 -15.740  16.781  1.00  0.00    -0.355 OA
HETATM   18  C18 UNL     1       8.441 -14.502  17.260  1.00  0.00     0.164 C 
HETATM   19  C19 UNL     1       7.686 -13.377  16.585  1.00  0.00     0.071 C 
HETATM   20  O4  UNL     1       8.012 -14.389  18.562  1.00  0.00    -0.355 OA
HETATM   21  C22 UNL     1       9.928 -14.337  17.098  1.00  0.00     0.077 C 
HETATM   22  C20 UNL     1       6.317 -13.520  17.210  1.00  0.00     0.032 C 
HETATM   23  C21 UNL     1       6.605 -14.421  18.406  1.00  0.00     0.171 C 
ENDBRANCH  13  15
ENDBRANCH  12  13
BRANCH   1  24
HETATM   24  C4  UNL     1      16.269 -17.920  12.867  1.00  0.00     0.257 C 
HETATM   25  N1  UNL     1      16.169 -18.206  11.492  1.00  0.00    -0.353 N 
ATOM     26  H1  UNL     1      15.256 -18.143  11.043  1.00  0.00     0.163 HD
HETATM   27  O1  UNL     1      17.363 -17.975  13.436  1.00  0.00    -0.267 OA
BRANCH  25  28
HETATM   28  C2  UNL     1      17.331 -18.592  10.682  1.00  0.00     0.076 C 
HETATM   29  C1  UNL     1      18.131 -17.452  10.170  1.00  0.00     0.032 C 
HETATM   30  C3  UNL     1      16.889 -19.537   9.570  1.00  0.00     0.032 C 
ENDBRANCH  25  28
ENDBRANCH   1  24
BRANCH   7  31
HETATM   31  C8  UNL     1      15.929 -14.943  12.661  1.00  0.00     0.105 C 
HETATM   32  C9  UNL     1      16.201 -13.984  13.848  1.00  0.00     0.034 C 
BRANCH  31  33
HETATM   33  C10 UNL     1      15.907 -13.867  11.502  1.00  0.00     0.189 C 
BRANCH  33  34
HETATM   34  O2  UNL     1      16.708 -14.309  10.459  1.00  0.00    -0.399 OA
ATOM     35  H2  UNL     1      17.498 -14.695  10.816  1.00  0.00     0.209 HD
ENDBRANCH  33  34
ENDBRANCH  31  33
ENDBRANCH   7  31
TORSDOF 7
ENDMDL
