MODEL 1
REMARK VINA RESULT: -7.829231267      0.000      0.000
REMARK  8 active torsions:
REMARK  status: ('A' for Active; 'I' for Inactive)
REMARK    1  A    between atoms: N1_2  and  C2_3 
REMARK    2  A    between atoms: N1_2  and  S1_23 
REMARK    3  A    between atoms: C2_3  and  C3_4 
REMARK    4  A    between atoms: C5_6  and  C6_7 
REMARK    5  A    between atoms: C6_7  and  O1_8 
REMARK    6  A    between atoms: N2_10  and  O2_12 
REMARK    7  A    between atoms: C7_14  and  N3_15 
REMARK    8  A    between atoms: S1_23  and  C13_26 
ROOT
HETATM    1  C3  UNL     1      15.104 -16.627  12.531  1.00  0.00     0.136 C 
HETATM    2  C4  UNL     1      15.618 -17.020  13.908  1.00  0.00     0.048 C 
HETATM    3  C5  UNL     1      14.775 -18.103  14.480  1.00  0.00     0.100 C 
HETATM    4  C7  UNL     1      13.338 -17.675  14.497  1.00  0.00     0.258 C 
HETATM    5  C12 UNL     1      13.015 -17.502  12.994  1.00  0.00     0.204 C 
HETATM    6  O4  UNL     1      13.755 -16.442  12.527  1.00  0.00    -0.382 OA
ENDROOT
BRANCH   1   7
HETATM    7  C2  UNL     1      15.568 -17.583  11.458  1.00  0.00     0.139 C 
BRANCH   7   8
HETATM    8  N1  UNL     1      16.638 -17.030  10.657  1.00  0.00    -0.208 NA
HETATM    9  C1  UNL     1      16.599 -15.574  10.874  1.00  0.00     0.129 C 
BRANCH   8  10
HETATM   10  S1  UNL     1      18.188 -17.528  11.242  1.00  0.00     0.250 S 
HETATM   11  O5  UNL     1      18.903 -16.454  11.973  1.00  0.00    -0.205 OA
HETATM   12  O6  UNL     1      18.115 -18.768  12.059  1.00  0.00    -0.205 OA
BRANCH  10  13
HETATM   13  C13 UNL     1      19.146 -17.920   9.802  1.00  0.00     0.116 A 
HETATM   14  C14 UNL     1      18.845 -18.796   8.798  1.00  0.00     0.034 A 
HETATM   15  C15 UNL     1      19.734 -18.928   7.805  1.00  0.00     0.033 A 
HETATM   16  C16 UNL     1      20.872 -18.175   7.877  1.00  0.00     0.075 A 
HETATM   17 CL1  UNL     1      22.219 -18.130   6.731  1.00  0.00    -0.076 Cl
HETATM   18  S2  UNL     1      20.669 -17.305   9.325  1.00  0.00    -0.065 SA
ENDBRANCH  10  13
ENDBRANCH   8  10
ENDBRANCH   7   8
ENDBRANCH   1   7
BRANCH   3  19
HETATM   19  C6  UNL     1      15.248 -18.763  15.676  1.00  0.00     0.141 C 
HETATM   20  N2  UNL     1      16.390 -19.276  15.802  1.00  0.00    -0.251 N 
ATOM     21  H2  UNL     1      16.543 -19.698  16.718  1.00  0.00     0.196 HD
BRANCH  19  22
HETATM   22  O1  UNL     1      14.398 -18.851  16.778  1.00  0.00    -0.348 OA
ATOM     23  H1  UNL     1      14.555 -18.285  17.524  1.00  0.00     0.219 HD
ENDBRANCH  19  22
BRANCH  20  24
HETATM   24  O2  UNL     1      17.441 -19.382  14.991  1.00  0.00    -0.288 OA
ATOM     25  H2  UNL     1      18.152 -20.008  14.922  1.00  0.00     0.244 HD
ENDBRANCH  20  24
ENDBRANCH   3  19
BRANCH   4  26
HETATM   26  N3  UNL     1      12.986 -16.474  15.104  1.00  0.00     0.100 N 
HETATM   27  C8  UNL     1      13.100 -16.253  16.483  1.00  0.00     0.299 C 
HETATM   28  C9  UNL     1      11.793 -16.492  17.232  1.00  0.00     0.198 C 
HETATM   29  O3  UNL     1      10.939 -15.485  16.881  1.00  0.00    -0.388 OA
HETATM   30  C10 UNL     1      11.053 -15.031  15.594  1.00  0.00     0.198 C 
HETATM   31  C11 UNL     1      11.685 -16.041  14.642  1.00  0.00     0.299 C 
ENDBRANCH   4  26
TORSDOF 8
ENDMDL
MODEL 2
REMARK VINA RESULT: -7.355209628      1.710      2.595
REMARK  8 active torsions:
REMARK  status: ('A' for Active; 'I' for Inactive)
REMARK    1  A    between atoms: N1_2  and  C2_3 
REMARK    2  A    between atoms: N1_2  and  S1_23 
REMARK    3  A    between atoms: C2_3  and  C3_4 
REMARK    4  A    between atoms: C5_6  and  C6_7 
REMARK    5  A    between atoms: C6_7  and  O1_8 
REMARK    6  A    between atoms: N2_10  and  O2_12 
REMARK    7  A    between atoms: C7_14  and  N3_15 
REMARK    8  A    between atoms: S1_23  and  C13_26 
ROOT
HETATM    1  C3  UNL     1      14.567 -16.341  13.491  1.00  0.00     0.136 C 
HETATM    2  C4  UNL     1      14.454 -16.263  15.006  1.00  0.00     0.048 C 
HETATM    3  C5  UNL     1      13.107 -16.715  15.444  1.00  0.00     0.100 C 
HETATM    4  C7  UNL     1      12.049 -15.919  14.741  1.00  0.00     0.258 C 
HETATM    5  C12 UNL     1      12.268 -16.295  13.256  1.00  0.00     0.204 C 
HETATM    6  O4  UNL     1      13.486 -15.789  12.872  1.00  0.00    -0.382 OA
ENDROOT
BRANCH   1   7
HETATM    7  C2  UNL     1      14.861 -17.744  13.015  1.00  0.00     0.139 C 
BRANCH   7   8
HETATM    8  N1  UNL     1      15.753 -17.761  11.877  1.00  0.00    -0.208 NA
HETATM    9  C1  UNL     1      15.786 -16.381  11.364  1.00  0.00     0.129 C 
BRANCH   8  10
HETATM   10  S1  UNL     1      17.381 -18.099  12.354  1.00  0.00     0.250 S 
HETATM   11  O5  UNL     1      18.033 -16.957  13.039  1.00  0.00    -0.205 OA
HETATM   12  O6  UNL     1      17.487 -19.338  13.170  1.00  0.00    -0.205 OA
BRANCH  10  13
HETATM   13  C13 UNL     1      18.273 -18.399  10.851  1.00  0.00     0.116 A 
HETATM   14  C14 UNL     1      18.264 -19.518  10.069  1.00  0.00     0.034 A 
HETATM   15  C15 UNL     1      19.030 -19.513   8.971  1.00  0.00     0.033 A 
HETATM   16  C16 UNL     1      19.761 -18.386   8.722  1.00  0.00     0.075 A 
HETATM   17 CL1  UNL     1      20.856 -18.081   7.367  1.00  0.00    -0.076 Cl
HETATM   18  S2  UNL     1      19.359 -17.368  10.024  1.00  0.00    -0.065 SA
ENDBRANCH  10  13
ENDBRANCH   8  10
ENDBRANCH   7   8
ENDBRANCH   1   7
BRANCH   3  19
HETATM   19  C6  UNL     1      12.897 -16.931  16.858  1.00  0.00     0.141 C 
HETATM   20  N2  UNL     1      11.787 -17.214  17.378  1.00  0.00    -0.251 N 
ATOM     21  H2  UNL     1      11.834 -17.328  18.391  1.00  0.00     0.196 HD
BRANCH  19  22
HETATM   22  O1  UNL     1      13.984 -16.822  17.724  1.00  0.00    -0.348 OA
ATOM     23  H1  UNL     1      14.377 -15.968  17.862  1.00  0.00     0.219 HD
ENDBRANCH  19  22
BRANCH  20  24
HETATM   24  O2  UNL     1      10.564 -17.397  16.884  1.00  0.00    -0.288 OA
ATOM     25  H2  UNL     1       9.809 -17.894  17.176  1.00  0.00     0.244 HD
ENDBRANCH  20  24
ENDBRANCH   3  19
BRANCH   4  26
HETATM   26  N3  UNL     1      12.087 -14.529  14.793  1.00  0.00     0.100 N 
HETATM   27  C8  UNL     1      12.313 -13.815  15.977  1.00  0.00     0.299 C 
HETATM   28  C9  UNL     1      11.023 -13.354  16.648  1.00  0.00     0.198 C 
HETATM   29  O3  UNL     1      10.488 -12.376  15.857  1.00  0.00    -0.388 OA
HETATM   30  C10 UNL     1      10.680 -12.530  14.511  1.00  0.00     0.198 C 
HETATM   31  C11 UNL     1      10.951 -13.971  14.090  1.00  0.00     0.299 C 
ENDBRANCH   4  26
TORSDOF 8
ENDMDL
MODEL 3
REMARK VINA RESULT: -7.334461356      1.599      1.961
REMARK  8 active torsions:
REMARK  status: ('A' for Active; 'I' for Inactive)
REMARK    1  A    between atoms: N1_2  and  C2_3 
REMARK    2  A    between atoms: N1_2  and  S1_23 
REMARK    3  A    between atoms: C2_3  and  C3_4 
REMARK    4  A    between atoms: C5_6  and  C6_7 
REMARK    5  A    between atoms: C6_7  and  O1_8 
REMARK    6  A    between atoms: N2_10  and  O2_12 
REMARK    7  A    between atoms: C7_14  and  N3_15 
REMARK    8  A    between atoms: S1_23  and  C13_26 
ROOT
HETATM    1  C3  UNL     1      14.704 -15.756  13.208  1.00  0.00     0.136 C 
HETATM    2  C4  UNL     1      14.703 -16.228  14.654  1.00  0.00     0.048 C 
HETATM    3  C5  UNL     1      13.354 -16.731  15.028  1.00  0.00     0.100 C 
HETATM    4  C7  UNL     1      12.324 -15.676  14.760  1.00  0.00     0.258 C 
HETATM    5  C12 UNL     1      12.407 -15.498  13.225  1.00  0.00     0.204 C 
HETATM    6  O4  UNL     1      13.636 -14.957  12.933  1.00  0.00    -0.382 OA
ENDROOT
BRANCH   1   7
HETATM    7  C2  UNL     1      14.842 -16.905  12.237  1.00  0.00     0.139 C 
BRANCH   7   8
HETATM    8  N1  UNL     1      15.977 -16.745  11.356  1.00  0.00    -0.208 NA
HETATM    9  C1  UNL     1      16.293 -15.306  11.356  1.00  0.00     0.129 C 
BRANCH   8  10
HETATM   10  S1  UNL     1      17.389 -17.512  11.997  1.00  0.00     0.250 S 
HETATM   11  O5  UNL     1      18.217 -16.602  12.824  1.00  0.00    -0.205 OA
HETATM   12  O6  UNL     1      17.069 -18.760  12.740  1.00  0.00    -0.205 OA
BRANCH  10  13
HETATM   13  C13 UNL     1      18.361 -17.988  10.593  1.00  0.00     0.116 A 
HETATM   14  C14 UNL     1      18.258 -19.120   9.836  1.00  0.00     0.034 A 
HETATM   15  C15 UNL     1      19.115 -19.262   8.816  1.00  0.00     0.033 A 
HETATM   16  C16 UNL     1      20.024 -18.263   8.615  1.00  0.00     0.075 A 
HETATM   17 CL1  UNL     1      21.272 -18.165   7.366  1.00  0.00    -0.076 Cl
HETATM   18  S2  UNL     1      19.659 -17.154   9.853  1.00  0.00    -0.065 SA
ENDBRANCH  10  13
ENDBRANCH   8  10
ENDBRANCH   7   8
ENDBRANCH   1   7
BRANCH   3  19
HETATM   19  C6  UNL     1      13.223 -17.433  16.285  1.00  0.00     0.141 C 
HETATM   20  N2  UNL     1      14.061 -18.258  16.731  1.00  0.00    -0.251 N 
ATOM     21  H2  UNL     1      13.797 -18.654  17.634  1.00  0.00     0.196 HD
BRANCH  19  22
HETATM   22  O1  UNL     1      12.097 -17.197  17.073  1.00  0.00    -0.348 OA
ATOM     23  H1  UNL     1      11.896 -17.802  17.777  1.00  0.00     0.219 HD
ENDBRANCH  19  22
BRANCH  20  24
HETATM   24  O2  UNL     1      15.222 -18.723  16.273  1.00  0.00    -0.288 OA
ATOM     25  H2  UNL     1      15.906 -19.261  16.654  1.00  0.00     0.244 HD
ENDBRANCH  20  24
ENDBRANCH   3  19
BRANCH   4  26
HETATM   26  N3  UNL     1      12.486 -14.404  15.301  1.00  0.00     0.100 N 
HETATM   27  C8  UNL     1      12.328 -14.129  16.666  1.00  0.00     0.299 C 
HETATM   28  C9  UNL     1      10.937 -13.604  17.008  1.00  0.00     0.198 C 
HETATM   29  O3  UNL     1      10.843 -12.346  16.480  1.00  0.00    -0.388 OA
HETATM   30  C10 UNL     1      11.507 -12.147  15.300  1.00  0.00     0.198 C 
HETATM   31  C11 UNL     1      11.762 -13.429  14.515  1.00  0.00     0.299 C 
ENDBRANCH   4  26
TORSDOF 8
ENDMDL
MODEL 4
REMARK VINA RESULT: -7.226572560      3.516      7.495
REMARK  8 active torsions:
REMARK  status: ('A' for Active; 'I' for Inactive)
REMARK    1  A    between atoms: N1_2  and  C2_3 
REMARK    2  A    between atoms: N1_2  and  S1_23 
REMARK    3  A    between atoms: C2_3  and  C3_4 
REMARK    4  A    between atoms: C5_6  and  C6_7 
REMARK    5  A    between atoms: C6_7  and  O1_8 
REMARK    6  A    between atoms: N2_10  and  O2_12 
REMARK    7  A    between atoms: C7_14  and  N3_15 
REMARK    8  A    between atoms: S1_23  and  C13_26 
ROOT
HETATM    1  C3  UNL     1      16.499 -17.036  12.629  1.00  0.00     0.136 C 
HETATM    2  C4  UNL     1      16.401 -17.461  11.172  1.00  0.00     0.048 C 
HETATM    3  C5  UNL     1      17.176 -18.710  10.949  1.00  0.00     0.100 C 
HETATM    4  C7  UNL     1      18.592 -18.519  11.403  1.00  0.00     0.258 C 
HETATM    5  C12 UNL     1      18.433 -18.268  12.922  1.00  0.00     0.204 C 
HETATM    6  O4  UNL     1      17.784 -17.067  13.081  1.00  0.00    -0.382 OA
ENDROOT
BRANCH   1   7
HETATM    7  C2  UNL     1      15.548 -17.808  13.512  1.00  0.00     0.139 C 
BRANCH   7   8
HETATM    8  N1  UNL     1      14.169 -17.643  13.108  1.00  0.00    -0.208 NA
HETATM    9  C1  UNL     1      13.393 -18.611  13.902  1.00  0.00     0.129 C 
BRANCH   8  10
HETATM   10  S1  UNL     1      13.556 -16.093  13.572  1.00  0.00     0.250 S 
HETATM   11  O5  UNL     1      12.227 -16.169  14.226  1.00  0.00    -0.205 OA
HETATM   12  O6  UNL     1      14.518 -15.329  14.410  1.00  0.00    -0.205 OA
BRANCH  10  13
HETATM   13  C13 UNL     1      13.355 -15.181  12.064  1.00  0.00     0.116 A 
HETATM   14  C14 UNL     1      12.284 -15.171  11.217  1.00  0.00     0.034 A 
HETATM   15  C15 UNL     1      12.364 -14.397  10.127  1.00  0.00     0.033 A 
HETATM   16  C16 UNL     1      13.513 -13.680   9.950  1.00  0.00     0.075 A 
HETATM   17 CL1  UNL     1      13.914 -12.581   8.623  1.00  0.00    -0.076 Cl
HETATM   18  S2  UNL     1      14.447 -14.104  11.308  1.00  0.00    -0.065 SA
ENDBRANCH  10  13
ENDBRANCH   8  10
ENDBRANCH   7   8
ENDBRANCH   1   7
BRANCH   3  19
HETATM   19  C6  UNL     1      17.008 -19.390   9.684  1.00  0.00     0.141 C 
HETATM   20  N2  UNL     1      17.671 -20.396   9.322  1.00  0.00    -0.251 N 
ATOM     21  H2  UNL     1      17.413 -20.737   8.396  1.00  0.00     0.196 HD
BRANCH  19  22
HETATM   22  O1  UNL     1      16.053 -18.915   8.787  1.00  0.00    -0.348 OA
ATOM     23  H1  UNL     1      15.133 -19.048   8.983  1.00  0.00     0.219 HD
ENDBRANCH  19  22
BRANCH  20  24
HETATM   24  O2  UNL     1      18.639 -21.110   9.895  1.00  0.00    -0.288 OA
ATOM     25  H2  UNL     1      18.658 -21.715  10.626  1.00  0.00     0.244 HD
ENDBRANCH  20  24
ENDBRANCH   3  19
BRANCH   4  26
HETATM   26  N3  UNL     1      19.331 -17.446  10.914  1.00  0.00     0.100 N 
HETATM   27  C8  UNL     1      19.574 -17.246   9.549  1.00  0.00     0.299 C 
HETATM   28  C9  UNL     1      20.924 -17.796   9.099  1.00  0.00     0.198 C 
HETATM   29  O3  UNL     1      21.886 -16.998   9.650  1.00  0.00    -0.388 OA
HETATM   30  C10 UNL     1      21.600 -16.493  10.890  1.00  0.00     0.198 C 
HETATM   31  C11 UNL     1      20.564 -17.306  11.659  1.00  0.00     0.299 C 
ENDBRANCH   4  26
TORSDOF 8
ENDMDL
MODEL 5
REMARK VINA RESULT: -7.178883322      4.370      8.702
REMARK  8 active torsions:
REMARK  status: ('A' for Active; 'I' for Inactive)
REMARK    1  A    between atoms: N1_2  and  C2_3 
REMARK    2  A    between atoms: N1_2  and  S1_23 
REMARK    3  A    between atoms: C2_3  and  C3_4 
REMARK    4  A    between atoms: C5_6  and  C6_7 
REMARK    5  A    between atoms: C6_7  and  O1_8 
REMARK    6  A    between atoms: N2_10  and  O2_12 
REMARK    7  A    between atoms: C7_14  and  N3_15 
REMARK    8  A    between atoms: S1_23  and  C13_26 
ROOT
HETATM    1  C3  UNL     1      16.634 -17.165  12.730  1.00  0.00     0.136 C 
HETATM    2  C4  UNL     1      16.460 -17.575  11.275  1.00  0.00     0.048 C 
HETATM    3  C5  UNL     1      17.245 -18.806  10.992  1.00  0.00     0.100 C 
HETATM    4  C7  UNL     1      18.680 -18.593  11.369  1.00  0.00     0.258 C 
HETATM    5  C12 UNL     1      18.603 -18.363  12.897  1.00  0.00     0.204 C 
HETATM    6  O4  UNL     1      17.942 -17.177  13.108  1.00  0.00    -0.382 OA
ENDROOT
BRANCH   1   7
HETATM    7  C2  UNL     1      15.748 -17.966  13.655  1.00  0.00     0.139 C 
BRANCH   7   8
HETATM    8  N1  UNL     1      14.787 -17.137  14.347  1.00  0.00    -0.208 NA
HETATM    9  C1  UNL     1      15.039 -15.757  13.897  1.00  0.00     0.129 C 
BRANCH   8  10
HETATM   10  S1  UNL     1      13.170 -17.484  13.838  1.00  0.00     0.250 S 
HETATM   11  O5  UNL     1      12.772 -16.734  12.622  1.00  0.00    -0.205 OA
HETATM   12  O6  UNL     1      12.930 -18.941  13.665  1.00  0.00    -0.205 OA
BRANCH  10  13
HETATM   13  C13 UNL     1      12.120 -16.946  15.162  1.00  0.00     0.116 A 
HETATM   14  C14 UNL     1      12.150 -17.323  16.474  1.00  0.00     0.034 A 
HETATM   15  C15 UNL     1      11.245 -16.778  17.296  1.00  0.00     0.033 A 
HETATM   16  C16 UNL     1      10.362 -15.887  16.755  1.00  0.00     0.075 A 
HETATM   17 CL1  UNL     1       9.064 -15.011  17.576  1.00  0.00    -0.076 Cl
HETATM   18  S2  UNL     1      10.820 -15.835  15.117  1.00  0.00    -0.065 SA
ENDBRANCH  10  13
ENDBRANCH   8  10
ENDBRANCH   7   8
ENDBRANCH   1   7
BRANCH   3  19
HETATM   19  C6  UNL     1      17.018 -19.474   9.731  1.00  0.00     0.141 C 
HETATM   20  N2  UNL     1      17.706 -20.435   9.299  1.00  0.00    -0.251 N 
ATOM     21  H2  UNL     1      17.396 -20.775   8.388  1.00  0.00     0.196 HD
BRANCH  19  22
HETATM   22  O1  UNL     1      15.972 -19.039   8.918  1.00  0.00    -0.348 OA
ATOM     23  H1  UNL     1      16.176 -18.652   8.075  1.00  0.00     0.219 HD
ENDBRANCH  19  22
BRANCH  20  24
HETATM   24  O2  UNL     1      18.752 -21.102   9.782  1.00  0.00    -0.288 OA
ATOM     25  H2  UNL     1      19.256 -21.844   9.468  1.00  0.00     0.244 HD
ENDBRANCH  20  24
ENDBRANCH   3  19
BRANCH   4  26
HETATM   26  N3  UNL     1      19.371 -17.500  10.852  1.00  0.00     0.100 N 
HETATM   27  C8  UNL     1      19.587 -17.313   9.481  1.00  0.00     0.299 C 
HETATM   28  C9  UNL     1      20.950 -17.818   9.020  1.00  0.00     0.198 C 
HETATM   29  O3  UNL     1      21.889 -16.975   9.545  1.00  0.00    -0.388 OA
HETATM   30  C10 UNL     1      21.601 -16.461  10.781  1.00  0.00     0.198 C 
HETATM   31  C11 UNL     1      20.607 -17.301  11.578  1.00  0.00     0.299 C 
ENDBRANCH   4  26
TORSDOF 8
ENDMDL
