MODEL 1
REMARK VINA RESULT: -9.765360518      0.000      0.000
REMARK  9 active torsions:
REMARK  status: ('A' for Active; 'I' for Inactive)
REMARK    1  A    between atoms: O1_2  and  C2_3 
REMARK    2  A    between atoms: C4_5  and  C5_6 
REMARK       I    between atoms: C5_6  and  N1_8 
REMARK    3  A    between atoms: N1_8  and  N2_10 
REMARK    4  A    between atoms: N2_10  and  C6_12 
REMARK    5  A    between atoms: C7_17  and  C8_18 
REMARK    6  A    between atoms: C8_18  and  N5_19 
REMARK    7  A    between atoms: N5_19  and  C9_21 
REMARK    8  A    between atoms: C10_23  and  C11_24 
REMARK    9  A    between atoms: N9_31  and  N10_32 
ROOT
HETATM    1  C6  UNL     1     -54.981  15.707  16.551  1.00  0.00     0.734 A 
HETATM    2  N3  UNL     1     -55.657  14.893  15.735  1.00  0.00    -0.127 N 
ATOM      3  H3  UNL     1     -55.675  14.964  14.717  1.00  0.00     0.205 HD
HETATM    4  N4  UNL     1     -56.297  13.983  16.447  1.00  0.00    -0.271 N 
ATOM      5  H4  UNL     1     -56.885  13.243  16.067  1.00  0.00     0.189 HD
HETATM    6  C7  UNL     1     -56.052  14.186  17.742  1.00  0.00     0.154 A 
HETATM    7  N9  UNL     1     -55.233  15.259  17.807  1.00  0.00    -0.075 N 
ENDROOT
BRANCH   1   8
HETATM    8  N2  UNL     1     -54.229  16.726  16.244  1.00  0.00    -0.126 N 
ATOM      9  H2  UNL     1     -54.606  17.664  16.379  1.00  0.00     0.206 HD
BRANCH   8  10
HETATM   10  N1  UNL     1     -52.952  16.600  15.747  1.00  0.00    -0.251 N 
HETATM   11  C5  UNL     1     -51.857  16.409  16.620  1.00  0.00     0.274 C 
HETATM   12  O2  UNL     1     -52.024  16.351  17.847  1.00  0.00    -0.266 OA
ATOM     13  H1  UNL     1     -52.795  16.644  14.740  1.00  0.00     0.191 HD
BRANCH  11  14
HETATM   14  C4  UNL     1     -50.506  16.275  16.089  1.00  0.00     0.079 A 
HETATM   15  C3  UNL     1     -49.323  16.444  16.771  1.00  0.00     0.076 A 
HETATM   16  C2  UNL     1     -48.275  16.226  15.905  1.00  0.00     0.143 A 
HETATM   17  N12 UNL     1     -48.803  15.928  14.719  1.00  0.00    -0.325 N 
HETATM   18  C14 UNL     1     -50.133  15.952  14.806  1.00  0.00     0.134 A 
ATOM     19  H12 UNL     1     -48.272  15.714  13.874  1.00  0.00     0.169 HD
HETATM   20  N11 UNL     1     -51.077  15.687  13.750  1.00  0.00    -0.082 NA
BRANCH  16  21
HETATM   21  O1  UNL     1     -46.904  16.306  16.230  1.00  0.00    -0.341 OA
HETATM   22  C1  UNL     1     -46.460  16.669  17.502  1.00  0.00     0.211 C 
ENDBRANCH  16  21
ENDBRANCH  11  14
ENDBRANCH   8  10
ENDBRANCH   1   8
BRANCH   7  23
HETATM   23  N10 UNL     1     -54.748  15.788  18.997  1.00  0.00    -0.323 N 
ATOM     24 2H10 UNL     1     -55.016  16.702  19.362  1.00  0.00     0.178 HD
ATOM     25 1H10 UNL     1     -54.085  15.351  19.638  1.00  0.00     0.178 HD
ENDBRANCH   7  23
BRANCH   6  26
HETATM   26  C8  UNL     1     -56.552  13.416  18.929  1.00  0.00     0.202 C 
BRANCH  26  27
HETATM   27  N5  UNL     1     -57.951  13.045  18.737  1.00  0.00    -0.363 N 
ATOM     28  H5  UNL     1     -58.228  12.411  17.986  1.00  0.00     0.162 HD
BRANCH  27  29
HETATM   29  C9  UNL     1     -58.841  13.549  19.556  1.00  0.00     0.148 A 
HETATM   30  S1  UNL     1     -58.946  13.340  21.242  1.00  0.00    -0.045 SA
HETATM   31  C10 UNL     1     -60.333  14.295  21.522  1.00  0.00     0.114 A 
HETATM   32  C12 UNL     1     -60.639  14.730  20.263  1.00  0.00     0.142 A 
HETATM   33  N7  UNL     1     -61.798  15.594  20.103  1.00  0.00    -0.081 NA
HETATM   34  N8  UNL     1     -59.876  14.343  19.281  1.00  0.00    -0.319 N 
HETATM   35  C13 UNL     1     -60.110  14.752  17.869  1.00  0.00     0.159 C 
BRANCH  31  36
HETATM   36  C11 UNL     1     -61.007  14.564  22.809  1.00  0.00     0.275 C 
HETATM   37  N6  UNL     1     -60.596  15.652  23.591  1.00  0.00    -0.057 NA
HETATM   38  O3  UNL     1     -61.939  13.805  23.174  1.00  0.00    -0.270 OA
ENDBRANCH  31  36
ENDBRANCH  27  29
ENDBRANCH  26  27
ENDBRANCH   6  26
TORSDOF 9
ENDMDL
MODEL 2
REMARK VINA RESULT: -9.752221569      1.286      1.286
REMARK  9 active torsions:
REMARK  status: ('A' for Active; 'I' for Inactive)
REMARK    1  A    between atoms: O1_2  and  C2_3 
REMARK    2  A    between atoms: C4_5  and  C5_6 
REMARK       I    between atoms: C5_6  and  N1_8 
REMARK    3  A    between atoms: N1_8  and  N2_10 
REMARK    4  A    between atoms: N2_10  and  C6_12 
REMARK    5  A    between atoms: C7_17  and  C8_18 
REMARK    6  A    between atoms: C8_18  and  N5_19 
REMARK    7  A    between atoms: N5_19  and  C9_21 
REMARK    8  A    between atoms: C10_23  and  C11_24 
REMARK    9  A    between atoms: N9_31  and  N10_32 
ROOT
HETATM    1  C6  UNL     1     -55.129  15.626  16.589  1.00  0.00     0.734 A 
HETATM    2  N3  UNL     1     -55.934  14.904  15.805  1.00  0.00    -0.127 N 
ATOM      3  H3  UNL     1     -56.048  15.034  14.799  1.00  0.00     0.205 HD
HETATM    4  N4  UNL     1     -56.561  13.996  16.531  1.00  0.00    -0.271 N 
ATOM      5  H4  UNL     1     -57.232  13.316  16.175  1.00  0.00     0.189 HD
HETATM    6  C7  UNL     1     -56.178  14.109  17.803  1.00  0.00     0.154 A 
HETATM    7  N9  UNL     1     -55.286  15.124  17.840  1.00  0.00    -0.075 N 
ENDROOT
BRANCH   1   8
HETATM    8  N2  UNL     1     -54.344  16.614  16.260  1.00  0.00    -0.126 N 
ATOM      9  H2  UNL     1     -54.720  17.562  16.287  1.00  0.00     0.206 HD
BRANCH   8  10
HETATM   10  N1  UNL     1     -53.033  16.441  15.877  1.00  0.00    -0.251 N 
HETATM   11  C5  UNL     1     -52.353  17.456  15.167  1.00  0.00     0.274 C 
HETATM   12  O2  UNL     1     -52.921  18.518  14.875  1.00  0.00    -0.266 OA
ATOM     13  H1  UNL     1     -52.550  15.573  16.108  1.00  0.00     0.191 HD
BRANCH  11  14
HETATM   14  C4  UNL     1     -50.965  17.269  14.763  1.00  0.00     0.079 A 
HETATM   15  C3  UNL     1     -49.875  18.010  15.160  1.00  0.00     0.076 A 
HETATM   16  C2  UNL     1     -48.749  17.506  14.551  1.00  0.00     0.143 A 
HETATM   17  N12 UNL     1     -49.138  16.478  13.798  1.00  0.00    -0.325 N 
HETATM   18  C14 UNL     1     -50.456  16.319  13.909  1.00  0.00     0.134 A 
ATOM     19  H12 UNL     1     -48.522  15.901  13.224  1.00  0.00     0.169 HD
HETATM   20  N11 UNL     1     -51.268  15.322  13.259  1.00  0.00    -0.082 NA
BRANCH  16  21
HETATM   21  O1  UNL     1     -47.435  17.998  14.706  1.00  0.00    -0.341 OA
HETATM   22  C1  UNL     1     -47.155  19.162  15.422  1.00  0.00     0.211 C 
ENDBRANCH  16  21
ENDBRANCH  11  14
ENDBRANCH   8  10
ENDBRANCH   1   8
BRANCH   7  23
HETATM   23  N10 UNL     1     -54.653  15.553  18.999  1.00  0.00    -0.323 N 
ATOM     24 2H10 UNL     1     -55.122  16.069  19.744  1.00  0.00     0.178 HD
ATOM     25 1H10 UNL     1     -53.674  15.415  19.252  1.00  0.00     0.178 HD
ENDBRANCH   7  23
BRANCH   6  26
HETATM   26  C8  UNL     1     -56.610  13.305  18.994  1.00  0.00     0.202 C 
BRANCH  26  27
HETATM   27  N5  UNL     1     -58.007  12.905  18.854  1.00  0.00    -0.363 N 
ATOM     28  H5  UNL     1     -58.290  12.227  18.145  1.00  0.00     0.162 HD
BRANCH  27  29
HETATM   29  C9  UNL     1     -58.886  13.441  19.663  1.00  0.00     0.148 A 
HETATM   30  S1  UNL     1     -59.037  13.209  21.343  1.00  0.00    -0.045 SA
HETATM   31  C10 UNL     1     -60.378  14.230  21.613  1.00  0.00     0.114 A 
HETATM   32  C12 UNL     1     -60.636  14.702  20.355  1.00  0.00     0.142 A 
HETATM   33  N7  UNL     1     -61.744  15.627  20.188  1.00  0.00    -0.081 NA
HETATM   34  N8  UNL     1     -59.872  14.292  19.382  1.00  0.00    -0.319 N 
HETATM   35  C13 UNL     1     -60.056  14.737  17.973  1.00  0.00     0.159 C 
BRANCH  31  36
HETATM   36  C11 UNL     1     -61.064  14.513  22.891  1.00  0.00     0.275 C 
HETATM   37  N6  UNL     1     -60.632  15.582  23.687  1.00  0.00    -0.057 NA
HETATM   38  O3  UNL     1     -62.026  13.781  23.236  1.00  0.00    -0.270 OA
ENDBRANCH  31  36
ENDBRANCH  27  29
ENDBRANCH  26  27
ENDBRANCH   6  26
TORSDOF 9
ENDMDL
MODEL 3
REMARK VINA RESULT: -9.686472753      1.317      1.471
REMARK  9 active torsions:
REMARK  status: ('A' for Active; 'I' for Inactive)
REMARK    1  A    between atoms: O1_2  and  C2_3 
REMARK    2  A    between atoms: C4_5  and  C5_6 
REMARK       I    between atoms: C5_6  and  N1_8 
REMARK    3  A    between atoms: N1_8  and  N2_10 
REMARK    4  A    between atoms: N2_10  and  C6_12 
REMARK    5  A    between atoms: C7_17  and  C8_18 
REMARK    6  A    between atoms: C8_18  and  N5_19 
REMARK    7  A    between atoms: N5_19  and  C9_21 
REMARK    8  A    between atoms: C10_23  and  C11_24 
REMARK    9  A    between atoms: N9_31  and  N10_32 
ROOT
HETATM    1  C6  UNL     1     -55.060  15.778  16.497  1.00  0.00     0.734 A 
HETATM    2  N3  UNL     1     -55.641  14.866  15.711  1.00  0.00    -0.127 N 
ATOM      3  H3  UNL     1     -55.668  14.900  14.692  1.00  0.00     0.205 HD
HETATM    4  N4  UNL     1     -56.174  13.915  16.456  1.00  0.00    -0.271 N 
ATOM      5  H4  UNL     1     -56.675  13.100  16.104  1.00  0.00     0.189 HD
HETATM    6  C7  UNL     1     -55.953  14.187  17.742  1.00  0.00     0.154 A 
HETATM    7  N9  UNL     1     -55.259  15.348  17.768  1.00  0.00    -0.075 N 
ENDROOT
BRANCH   1   8
HETATM    8  N2  UNL     1     -54.429  16.864  16.152  1.00  0.00    -0.126 N 
ATOM      9  H2  UNL     1     -54.956  17.606  15.690  1.00  0.00     0.206 HD
BRANCH   8  10
HETATM   10  N1  UNL     1     -53.086  17.062  16.381  1.00  0.00    -0.251 N 
HETATM   11  C5  UNL     1     -52.124  16.587  15.461  1.00  0.00     0.274 C 
HETATM   12  O2  UNL     1     -52.468  15.986  14.433  1.00  0.00    -0.266 OA
ATOM     13  H1  UNL     1     -52.783  17.553  17.221  1.00  0.00     0.191 HD
BRANCH  11  14
HETATM   14  C4  UNL     1     -50.702  16.798  15.706  1.00  0.00     0.079 A 
HETATM   15  C3  UNL     1     -49.809  17.471  14.905  1.00  0.00     0.076 A 
HETATM   16  C2  UNL     1     -48.568  17.442  15.498  1.00  0.00     0.143 A 
HETATM   17  N12 UNL     1     -48.696  16.767  16.640  1.00  0.00    -0.325 N 
HETATM   18  C14 UNL     1     -49.961  16.374  16.784  1.00  0.00     0.134 A 
ATOM     19  H12 UNL     1     -47.943  16.581  17.303  1.00  0.00     0.169 HD
HETATM   20  N11 UNL     1     -50.517  15.621  17.880  1.00  0.00    -0.082 NA
BRANCH  16  21
HETATM   21  O1  UNL     1     -47.390  18.022  14.981  1.00  0.00    -0.341 OA
HETATM   22  C1  UNL     1     -47.029  19.343  15.252  1.00  0.00     0.211 C 
ENDBRANCH  16  21
ENDBRANCH  11  14
ENDBRANCH   8  10
ENDBRANCH   1   8
BRANCH   7  23
HETATM   23  N10 UNL     1     -54.836  15.967  18.937  1.00  0.00    -0.323 N 
ATOM     24 2H10 UNL     1     -55.470  16.293  19.667  1.00  0.00     0.178 HD
ATOM     25 1H10 UNL     1     -53.875  16.171  19.211  1.00  0.00     0.178 HD
ENDBRANCH   7  23
BRANCH   6  26
HETATM   26  C8  UNL     1     -56.362  13.406  18.957  1.00  0.00     0.202 C 
BRANCH  26  27
HETATM   27  N5  UNL     1     -57.730  12.920  18.807  1.00  0.00    -0.363 N 
ATOM     28  H5  UNL     1     -57.958  12.194  18.127  1.00  0.00     0.162 HD
BRANCH  27  29
HETATM   29  C9  UNL     1     -58.658  13.444  19.570  1.00  0.00     0.148 A 
HETATM   30  S1  UNL     1     -58.854  13.260  21.251  1.00  0.00    -0.045 SA
HETATM   31  C10 UNL     1     -60.245  14.231  21.444  1.00  0.00     0.114 A 
HETATM   32  C12 UNL     1     -60.481  14.650  20.163  1.00  0.00     0.142 A 
HETATM   33  N7  UNL     1     -61.621  15.521  19.930  1.00  0.00    -0.081 NA
HETATM   34  N8  UNL     1     -59.669  14.242  19.229  1.00  0.00    -0.319 N 
HETATM   35  C13 UNL     1     -59.825  14.632  17.801  1.00  0.00     0.159 C 
BRANCH  31  36
HETATM   36  C11 UNL     1     -60.984  14.525  22.689  1.00  0.00     0.275 C 
HETATM   37  N6  UNL     1     -60.613  15.627  23.470  1.00  0.00    -0.057 NA
HETATM   38  O3  UNL     1     -61.935  13.773  23.020  1.00  0.00    -0.270 OA
ENDBRANCH  31  36
ENDBRANCH  27  29
ENDBRANCH  26  27
ENDBRANCH   6  26
TORSDOF 9
ENDMDL
MODEL 4
REMARK VINA RESULT: -9.419524314      2.819      4.568
REMARK  9 active torsions:
REMARK  status: ('A' for Active; 'I' for Inactive)
REMARK    1  A    between atoms: O1_2  and  C2_3 
REMARK    2  A    between atoms: C4_5  and  C5_6 
REMARK       I    between atoms: C5_6  and  N1_8 
REMARK    3  A    between atoms: N1_8  and  N2_10 
REMARK    4  A    between atoms: N2_10  and  C6_12 
REMARK    5  A    between atoms: C7_17  and  C8_18 
REMARK    6  A    between atoms: C8_18  and  N5_19 
REMARK    7  A    between atoms: N5_19  and  C9_21 
REMARK    8  A    between atoms: C10_23  and  C11_24 
REMARK    9  A    between atoms: N9_31  and  N10_32 
ROOT
HETATM    1  C6  UNL     1     -57.985  13.772  19.031  1.00  0.00     0.734 A 
HETATM    2  N3  UNL     1     -58.546  14.601  18.146  1.00  0.00    -0.127 N 
ATOM      3  H3  UNL     1     -58.038  15.200  17.496  1.00  0.00     0.205 HD
HETATM    4  N4  UNL     1     -59.862  14.527  18.243  1.00  0.00    -0.271 N 
ATOM      5  H4  UNL     1     -60.526  15.057  17.681  1.00  0.00     0.189 HD
HETATM    6  C7  UNL     1     -60.184  13.648  19.193  1.00  0.00     0.154 A 
HETATM    7  N9  UNL     1     -59.015  13.178  19.684  1.00  0.00    -0.075 N 
ENDROOT
BRANCH   1   8
HETATM    8  N2  UNL     1     -56.719  13.553  19.250  1.00  0.00    -0.126 N 
ATOM      9  H2  UNL     1     -56.452  13.068  20.107  1.00  0.00     0.206 HD
BRANCH   8  10
HETATM   10  N1  UNL     1     -55.724  13.945  18.383  1.00  0.00    -0.251 N 
HETATM   11  C5  UNL     1     -55.222  15.265  18.415  1.00  0.00     0.274 C 
HETATM   12  O2  UNL     1     -55.666  16.096  19.222  1.00  0.00    -0.266 OA
ATOM     13  H1  UNL     1     -55.347  13.276  17.712  1.00  0.00     0.191 HD
BRANCH  11  14
HETATM   14  C4  UNL     1     -54.168  15.676  17.495  1.00  0.00     0.079 A 
HETATM   15  C3  UNL     1     -54.315  16.086  16.190  1.00  0.00     0.076 A 
HETATM   16  C2  UNL     1     -53.074  16.385  15.676  1.00  0.00     0.143 A 
HETATM   17  N12 UNL     1     -52.185  16.164  16.644  1.00  0.00    -0.325 N 
HETATM   18  C14 UNL     1     -52.816  15.741  17.738  1.00  0.00     0.134 A 
ATOM     19  H12 UNL     1     -51.177  16.299  16.560  1.00  0.00     0.169 HD
HETATM   20  N11 UNL     1     -52.221  15.393  19.004  1.00  0.00    -0.082 NA
BRANCH  16  21
HETATM   21  O1  UNL     1     -52.810  16.839  14.366  1.00  0.00    -0.341 OA
HETATM   22  C1  UNL     1     -51.628  16.527  13.693  1.00  0.00     0.211 C 
ENDBRANCH  16  21
ENDBRANCH  11  14
ENDBRANCH   8  10
ENDBRANCH   1   8
BRANCH   7  23
HETATM   23  N10 UNL     1     -58.929  12.234  20.699  1.00  0.00    -0.323 N 
ATOM     24 2H10 UNL     1     -58.934  11.226  20.538  1.00  0.00     0.178 HD
ATOM     25 1H10 UNL     1     -58.853  12.414  21.700  1.00  0.00     0.178 HD
ENDBRANCH   7  23
BRANCH   6  26
HETATM   26  C8  UNL     1     -61.544  13.225  19.666  1.00  0.00     0.202 C 
BRANCH  26  27
HETATM   27  N5  UNL     1     -62.028  14.140  20.695  1.00  0.00    -0.363 N 
ATOM     28  H5  UNL     1     -62.566  14.972  20.448  1.00  0.00     0.162 HD
BRANCH  27  29
HETATM   29  C9  UNL     1     -61.752  13.864  21.945  1.00  0.00     0.148 A 
HETATM   30  S1  UNL     1     -62.211  12.488  22.837  1.00  0.00    -0.045 SA
HETATM   31  C10 UNL     1     -61.471  12.898  24.320  1.00  0.00     0.114 A 
HETATM   32  C12 UNL     1     -60.898  14.105  24.029  1.00  0.00     0.142 A 
HETATM   33  N7  UNL     1     -60.158  14.780  25.083  1.00  0.00    -0.081 NA
HETATM   34  N8  UNL     1     -61.050  14.578  22.825  1.00  0.00    -0.319 N 
HETATM   35  C13 UNL     1     -60.472  15.880  22.392  1.00  0.00     0.159 C 
BRANCH  31  36
HETATM   36  C11 UNL     1     -61.467  12.126  25.579  1.00  0.00     0.275 C 
HETATM   37  N6  UNL     1     -62.679  11.861  26.232  1.00  0.00    -0.057 NA
HETATM   38  O3  UNL     1     -60.370  11.722  26.039  1.00  0.00    -0.270 OA
ENDBRANCH  31  36
ENDBRANCH  27  29
ENDBRANCH  26  27
ENDBRANCH   6  26
TORSDOF 9
ENDMDL
MODEL 5
REMARK VINA RESULT: -9.398063728      2.029      3.181
REMARK  9 active torsions:
REMARK  status: ('A' for Active; 'I' for Inactive)
REMARK    1  A    between atoms: O1_2  and  C2_3 
REMARK    2  A    between atoms: C4_5  and  C5_6 
REMARK       I    between atoms: C5_6  and  N1_8 
REMARK    3  A    between atoms: N1_8  and  N2_10 
REMARK    4  A    between atoms: N2_10  and  C6_12 
REMARK    5  A    between atoms: C7_17  and  C8_18 
REMARK    6  A    between atoms: C8_18  and  N5_19 
REMARK    7  A    between atoms: N5_19  and  C9_21 
REMARK    8  A    between atoms: C10_23  and  C11_24 
REMARK    9  A    between atoms: N9_31  and  N10_32 
ROOT
HETATM    1  C6  UNL     1     -56.693  14.205  17.541  1.00  0.00     0.734 A 
HETATM    2  N3  UNL     1     -56.113  13.408  18.443  1.00  0.00    -0.127 N 
ATOM      3  H3  UNL     1     -55.107  13.311  18.581  1.00  0.00     0.205 HD
HETATM    4  N4  UNL     1     -57.041  12.766  19.129  1.00  0.00    -0.271 N 
ATOM      5  H4  UNL     1     -56.865  12.098  19.878  1.00  0.00     0.189 HD
HETATM    6  C7  UNL     1     -58.245  13.130  18.687  1.00  0.00     0.154 A 
HETATM    7  N9  UNL     1     -58.029  14.026  17.698  1.00  0.00    -0.075 N 
ENDROOT
BRANCH   1   8
HETATM    8  N2  UNL     1     -56.129  14.998  16.675  1.00  0.00    -0.126 N 
ATOM      9  H2  UNL     1     -56.728  15.551  16.061  1.00  0.00     0.206 HD
BRANCH   8  10
HETATM   10  N1  UNL     1     -54.765  15.129  16.547  1.00  0.00    -0.251 N 
HETATM   11  C5  UNL     1     -54.182  16.397  16.326  1.00  0.00     0.274 C 
HETATM   12  O2  UNL     1     -54.886  17.415  16.243  1.00  0.00    -0.266 OA
ATOM     13  H1  UNL     1     -54.170  14.303  16.612  1.00  0.00     0.191 HD
BRANCH  11  14
HETATM   14  C4  UNL     1     -52.737  16.531  16.192  1.00  0.00     0.079 A 
HETATM   15  C3  UNL     1     -52.042  17.012  15.106  1.00  0.00     0.076 A 
HETATM   16  C2  UNL     1     -50.695  16.972  15.386  1.00  0.00     0.143 A 
HETATM   17  N12 UNL     1     -50.566  16.480  16.617  1.00  0.00    -0.325 N 
HETATM   18  C14 UNL     1     -51.771  16.209  17.116  1.00  0.00     0.134 A 
ATOM     19  H12 UNL     1     -49.681  16.332  17.103  1.00  0.00     0.169 HD
HETATM   20  N11 UNL     1     -52.070  15.665  18.417  1.00  0.00    -0.082 NA
BRANCH  16  21
HETATM   21  O1  UNL     1     -49.659  17.381  14.520  1.00  0.00    -0.341 OA
HETATM   22  C1  UNL     1     -48.504  18.012  14.985  1.00  0.00     0.211 C 
ENDBRANCH  16  21
ENDBRANCH  11  14
ENDBRANCH   8  10
ENDBRANCH   1   8
BRANCH   7  23
HETATM   23  N10 UNL     1     -59.046  14.643  16.981  1.00  0.00    -0.323 N 
ATOM     24 2H10 UNL     1     -58.976  14.884  15.991  1.00  0.00     0.178 HD
ATOM     25 1H10 UNL     1     -59.961  14.927  17.332  1.00  0.00     0.178 HD
ENDBRANCH   7  23
BRANCH   6  26
HETATM   26  C8  UNL     1     -59.598  12.676  19.151  1.00  0.00     0.202 C 
BRANCH  26  27
HETATM   27  N5  UNL     1     -60.289  13.764  19.837  1.00  0.00    -0.363 N 
ATOM     28  H5  UNL     1     -60.686  14.546  19.315  1.00  0.00     0.162 HD
BRANCH  27  29
HETATM   29  C9  UNL     1     -60.383  13.708  21.143  1.00  0.00     0.148 A 
HETATM   30  S1  UNL     1     -60.369  12.322  22.133  1.00  0.00    -0.045 SA
HETATM   31  C10 UNL     1     -60.531  13.099  23.644  1.00  0.00     0.114 A 
HETATM   32  C12 UNL     1     -60.588  14.417  23.284  1.00  0.00     0.142 A 
HETATM   33  N7  UNL     1     -60.731  15.407  24.339  1.00  0.00    -0.081 NA
HETATM   34  N8  UNL     1     -60.512  14.707  22.016  1.00  0.00    -0.319 N 
HETATM   35  C13 UNL     1     -60.563  16.104  21.505  1.00  0.00     0.159 C 
BRANCH  31  36
HETATM   36  C11 UNL     1     -60.593  12.479  24.984  1.00  0.00     0.275 C 
HETATM   37  N6  UNL     1     -61.838  12.236  25.578  1.00  0.00    -0.057 NA
HETATM   38  O3  UNL     1     -59.518  12.181  25.563  1.00  0.00    -0.270 OA
ENDBRANCH  31  36
ENDBRANCH  27  29
ENDBRANCH  26  27
ENDBRANCH   6  26
TORSDOF 9
ENDMDL
