MODEL 1
REMARK VINA RESULT: -8.221304406      0.000      0.000
REMARK  13 active torsions:
REMARK  status: ('A' for Active; 'I' for Inactive)
REMARK    1  A    between atoms: O1_2  and  C2_3 
REMARK    2  A    between atoms: C3_4  and  N1_5 
REMARK    3  A    between atoms: C4_10  and  O3_11 
REMARK    4  A    between atoms: O3_11  and  C5_12 
REMARK    5  A    between atoms: C6_13  and  N2_14 
REMARK    6  A    between atoms: C8_19  and  N3_20 
REMARK    7  A    between atoms: C9_24  and  O4_25 
REMARK    8  A    between atoms: O4_25  and  C10_26 
REMARK    9  A    between atoms: C14_30  and  N4_31 
REMARK   10  A    between atoms: C16_36  and  N5_37 
REMARK   11  A    between atoms: C17_41  and  O5_42 
REMARK   12  A    between atoms: C18_44  and  N6_45 
REMARK   13  A    between atoms: N6_45  and  C19_47 
ROOT
HETATM    1  C5  UNL     1     -51.972  16.164  15.106  1.00  0.00     0.186 C 
HETATM    2  C6  UNL     1     -51.298  15.775  13.821  1.00  0.00     0.217 C 
HETATM    3  C7  UNL     1     -50.349  16.878  13.416  1.00  0.00     0.071 C 
HETATM    4  C8  UNL     1     -49.259  17.099  14.411  1.00  0.00     0.217 C 
HETATM    5  C9  UNL     1     -49.594  16.359  15.729  1.00  0.00     0.183 C 
HETATM    6  C17 UNL     1     -51.000  16.770  16.063  1.00  0.00     0.180 C 
ENDROOT
BRANCH   1   7
HETATM    7  O3  UNL     1     -53.131  16.894  14.898  1.00  0.00    -0.349 OA
BRANCH   7   8
HETATM    8  C4  UNL     1     -54.107  16.735  15.857  1.00  0.00     0.288 C 
HETATM    9  O2  UNL     1     -53.558  17.211  17.081  1.00  0.00    -0.324 OA
HETATM   10  C3  UNL     1     -54.438  16.684  18.057  1.00  0.00     0.352 C 
HETATM   11  C2  UNL     1     -54.852  15.347  17.563  1.00  0.00     0.204 C 
HETATM   12  C18 UNL     1     -54.273  15.270  16.196  1.00  0.00     0.172 C 
BRANCH  10  13
HETATM   13  N1  UNL     1     -53.699  16.636  19.303  1.00  0.00    -0.050 N 
ATOM     14  H13 UNL     1     -54.080  17.302  19.974  1.00  0.00     0.277 HD
ATOM     15  H12 UNL     1     -53.888  15.766  19.801  1.00  0.00     0.277 HD
ATOM     16  H11 UNL     1     -52.696  16.775  19.186  1.00  0.00     0.277 HD
ENDBRANCH  10  13
BRANCH  11  17
HETATM   17  O1  UNL     1     -56.181  15.057  17.663  1.00  0.00    -0.384 OA
HETATM   18  C1  UNL     1     -56.542  14.371  18.804  1.00  0.00     0.202 C 
ENDBRANCH  11  17
BRANCH  12  19
HETATM   19  N6  UNL     1     -55.177  14.703  15.217  1.00  0.00    -0.356 N 
ATOM     20  H6  UNL     1     -56.126  15.069  15.152  1.00  0.00     0.162 HD
BRANCH  19  21
HETATM   21  C19 UNL     1     -54.823  13.754  14.427  1.00  0.00     0.349 C 
HETATM   22  O6  UNL     1     -54.449  13.326  13.310  1.00  0.00    -0.284 OA
ENDBRANCH  19  21
ENDBRANCH  12  19
ENDBRANCH   7   8
ENDBRANCH   1   7
BRANCH   2  23
HETATM   23  N2  UNL     1     -52.227  15.447  12.772  1.00  0.00    -0.072 N 
ATOM     24  H23 UNL     1     -53.184  15.432  13.124  1.00  0.00     0.274 HD
ATOM     25  H22 UNL     1     -52.306  16.215  12.105  1.00  0.00     0.274 HD
ATOM     26  H21 UNL     1     -52.002  14.574  12.295  1.00  0.00     0.274 HD
ENDBRANCH   2  23
BRANCH   6  27
HETATM   27  O5  UNL     1     -51.278  16.305  17.366  1.00  0.00    -0.390 OA
ATOM     28  H5  UNL     1     -51.636  17.016  17.883  1.00  0.00     0.210 HD
ENDBRANCH   6  27
BRANCH   5  29
HETATM   29  O4  UNL     1     -48.756  16.864  16.717  1.00  0.00    -0.374 OA
BRANCH  29  30
HETATM   30  C10 UNL     1     -48.404  15.962  17.685  1.00  0.00     0.152 C 
HETATM   31  C11 UNL     1     -47.926  14.725  16.911  1.00  0.00     0.034 C 
HETATM   32  C12 UNL     1     -47.281  13.701  17.770  1.00  0.00     0.004 C 
HETATM   33  C13 UNL     1     -47.749  13.650  19.186  1.00  0.00     0.033 C 
HETATM   34  C14 UNL     1     -46.814  14.538  20.010  1.00  0.00     0.185 C 
HETATM   35  C15 UNL     1     -47.398  15.927  19.978  1.00  0.00     0.068 C 
HETATM   36  C16 UNL     1     -47.347  16.500  18.573  1.00  0.00     0.214 C 
BRANCH  34  37
HETATM   37  N4  UNL     1     -46.746  14.049  21.351  1.00  0.00    -0.075 N 
ATOM     38  H43 UNL     1     -47.209  13.147  21.455  1.00  0.00     0.274 HD
ATOM     39  H42 UNL     1     -45.802  13.760  21.608  1.00  0.00     0.274 HD
ATOM     40  H41 UNL     1     -47.121  14.750  21.990  1.00  0.00     0.274 HD
ENDBRANCH  34  37
BRANCH  36  41
HETATM   41  N5  UNL     1     -46.003  16.333  18.006  1.00  0.00    -0.072 N 
ATOM     42  H53 UNL     1     -45.801  17.060  17.320  1.00  0.00     0.274 HD
ATOM     43  H52 UNL     1     -45.283  16.554  18.695  1.00  0.00     0.274 HD
ATOM     44  H51 UNL     1     -45.862  15.403  17.611  1.00  0.00     0.274 HD
ENDBRANCH  36  41
ENDBRANCH  29  30
ENDBRANCH   5  29
BRANCH   4  45
HETATM   45  N3  UNL     1     -48.997  18.482  14.700  1.00  0.00    -0.072 N 
ATOM     46  H33 UNL     1     -49.455  19.082  14.014  1.00  0.00     0.274 HD
ATOM     47  H32 UNL     1     -49.493  18.771  15.542  1.00  0.00     0.274 HD
ATOM     48  H31 UNL     1     -48.006  18.714  14.771  1.00  0.00     0.274 HD
ENDBRANCH   4  45
TORSDOF 13
ENDMDL
MODEL 2
REMARK VINA RESULT: -7.023475736      3.025      5.819
REMARK  13 active torsions:
REMARK  status: ('A' for Active; 'I' for Inactive)
REMARK    1  A    between atoms: O1_2  and  C2_3 
REMARK    2  A    between atoms: C3_4  and  N1_5 
REMARK    3  A    between atoms: C4_10  and  O3_11 
REMARK    4  A    between atoms: O3_11  and  C5_12 
REMARK    5  A    between atoms: C6_13  and  N2_14 
REMARK    6  A    between atoms: C8_19  and  N3_20 
REMARK    7  A    between atoms: C9_24  and  O4_25 
REMARK    8  A    between atoms: O4_25  and  C10_26 
REMARK    9  A    between atoms: C14_30  and  N4_31 
REMARK   10  A    between atoms: C16_36  and  N5_37 
REMARK   11  A    between atoms: C17_41  and  O5_42 
REMARK   12  A    between atoms: C18_44  and  N6_45 
REMARK   13  A    between atoms: N6_45  and  C19_47 
ROOT
HETATM    1  C5  UNL     1     -48.188  15.057  17.714  1.00  0.00     0.186 C 
HETATM    2  C6  UNL     1     -46.824  15.685  17.719  1.00  0.00     0.217 C 
HETATM    3  C7  UNL     1     -46.489  16.110  19.130  1.00  0.00     0.071 C 
HETATM    4  C8  UNL     1     -46.426  14.963  20.082  1.00  0.00     0.217 C 
HETATM    5  C9  UNL     1     -47.038  13.702  19.424  1.00  0.00     0.183 C 
HETATM    6  C17 UNL     1     -48.368  14.148  18.884  1.00  0.00     0.180 C 
ENDROOT
BRANCH   1   7
HETATM    7  O3  UNL     1     -49.199  15.985  17.524  1.00  0.00    -0.349 OA
BRANCH   7   8
HETATM    8  C4  UNL     1     -49.864  15.894  16.321  1.00  0.00     0.288 C 
HETATM    9  O2  UNL     1     -49.097  16.630  15.374  1.00  0.00    -0.324 OA
HETATM   10  C3  UNL     1     -49.999  16.810  14.298  1.00  0.00     0.352 C 
HETATM   11  C2  UNL     1     -51.339  16.996  14.907  1.00  0.00     0.204 C 
HETATM   12  C18 UNL     1     -51.119  16.738  16.354  1.00  0.00     0.172 C 
BRANCH  10  13
HETATM   13  N1  UNL     1     -49.536  17.966  13.555  1.00  0.00    -0.050 N 
ATOM     14  H13 UNL     1     -48.743  18.403  14.025  1.00  0.00     0.277 HD
ATOM     15  H12 UNL     1     -49.083  17.679  12.687  1.00  0.00     0.277 HD
ATOM     16  H11 UNL     1     -50.269  18.651  13.372  1.00  0.00     0.277 HD
ENDBRANCH  10  13
BRANCH  11  17
HETATM   17  O1  UNL     1     -52.361  16.303  14.327  1.00  0.00    -0.384 OA
HETATM   18  C1  UNL     1     -51.997  15.518  13.254  1.00  0.00     0.202 C 
ENDBRANCH  11  17
BRANCH  12  19
HETATM   19  N6  UNL     1     -52.160  15.934  16.962  1.00  0.00    -0.356 N 
ATOM     20  H6  UNL     1     -52.356  15.010  16.580  1.00  0.00     0.162 HD
BRANCH  19  21
HETATM   21  C19 UNL     1     -52.845  16.349  17.967  1.00  0.00     0.349 C 
HETATM   22  O6  UNL     1     -53.038  16.468  19.200  1.00  0.00    -0.284 OA
ENDBRANCH  19  21
ENDBRANCH  12  19
ENDBRANCH   7   8
ENDBRANCH   1   7
BRANCH   2  23
HETATM   23  N2  UNL     1     -46.696  16.770  16.782  1.00  0.00    -0.072 N 
ATOM     24  H23 UNL     1     -47.526  17.362  16.796  1.00  0.00     0.274 HD
ATOM     25  H22 UNL     1     -46.002  17.446  17.102  1.00  0.00     0.274 HD
ATOM     26  H21 UNL     1     -46.489  16.459  15.833  1.00  0.00     0.274 HD
ENDBRANCH   2  23
BRANCH   6  27
HETATM   27  O5  UNL     1     -49.066  12.993  18.472  1.00  0.00    -0.390 OA
ATOM     28  H5  UNL     1     -49.552  13.187  17.679  1.00  0.00     0.210 HD
ENDBRANCH   6  27
BRANCH   5  29
HETATM   29  O4  UNL     1     -47.278  12.777  20.435  1.00  0.00    -0.374 OA
BRANCH  29  30
HETATM   30  C10 UNL     1     -46.226  11.945  20.709  1.00  0.00     0.152 C 
HETATM   31  C11 UNL     1     -46.237  11.791  22.236  1.00  0.00     0.034 C 
HETATM   32  C12 UNL     1     -45.311  10.741  22.732  1.00  0.00     0.004 C 
HETATM   33  C13 UNL     1     -44.105  10.486  21.892  1.00  0.00     0.033 C 
HETATM   34  C14 UNL     1     -44.448   9.346  20.931  1.00  0.00     0.185 C 
HETATM   35  C15 UNL     1     -45.041   9.983  19.700  1.00  0.00     0.068 C 
HETATM   36  C16 UNL     1     -46.371  10.640  20.021  1.00  0.00     0.214 C 
BRANCH  34  37
HETATM   37  N4  UNL     1     -43.261   8.621  20.603  1.00  0.00    -0.075 N 
ATOM     38  H43 UNL     1     -42.721   9.079  19.870  1.00  0.00     0.274 HD
ATOM     39  H42 UNL     1     -42.566   8.665  21.349  1.00  0.00     0.274 HD
ATOM     40  H41 UNL     1     -43.503   7.661  20.360  1.00  0.00     0.274 HD
ENDBRANCH  34  37
BRANCH  36  41
HETATM   41  N5  UNL     1     -47.229   9.710  20.764  1.00  0.00    -0.072 N 
ATOM     42  H53 UNL     1     -46.722   9.281  21.539  1.00  0.00     0.274 HD
ATOM     43  H52 UNL     1     -47.943  10.211  21.294  1.00  0.00     0.274 HD
ATOM     44  H51 UNL     1     -47.647   9.002  20.161  1.00  0.00     0.274 HD
ENDBRANCH  36  41
ENDBRANCH  29  30
ENDBRANCH   5  29
BRANCH   4  45
HETATM   45  N3  UNL     1     -47.079  15.204  21.339  1.00  0.00    -0.072 N 
ATOM     46  H33 UNL     1     -46.406  15.527  22.033  1.00  0.00     0.274 HD
ATOM     47  H32 UNL     1     -47.676  16.029  21.278  1.00  0.00     0.274 HD
ATOM     48  H31 UNL     1     -47.606  14.407  21.696  1.00  0.00     0.274 HD
ENDBRANCH   4  45
TORSDOF 13
ENDMDL
MODEL 3
REMARK VINA RESULT: -7.017682765      1.076      2.110
REMARK  13 active torsions:
REMARK  status: ('A' for Active; 'I' for Inactive)
REMARK    1  A    between atoms: O1_2  and  C2_3 
REMARK    2  A    between atoms: C3_4  and  N1_5 
REMARK    3  A    between atoms: C4_10  and  O3_11 
REMARK    4  A    between atoms: O3_11  and  C5_12 
REMARK    5  A    between atoms: C6_13  and  N2_14 
REMARK    6  A    between atoms: C8_19  and  N3_20 
REMARK    7  A    between atoms: C9_24  and  O4_25 
REMARK    8  A    between atoms: O4_25  and  C10_26 
REMARK    9  A    between atoms: C14_30  and  N4_31 
REMARK   10  A    between atoms: C16_36  and  N5_37 
REMARK   11  A    between atoms: C17_41  and  O5_42 
REMARK   12  A    between atoms: C18_44  and  N6_45 
REMARK   13  A    between atoms: N6_45  and  C19_47 
ROOT
HETATM    1  C5  UNL     1     -51.478  15.989  15.213  1.00  0.00     0.186 C 
HETATM    2  C6  UNL     1     -50.982  15.928  13.797  1.00  0.00     0.217 C 
HETATM    3  C7  UNL     1     -50.286  17.229  13.469  1.00  0.00     0.071 C 
HETATM    4  C8  UNL     1     -49.089  17.478  14.324  1.00  0.00     0.217 C 
HETATM    5  C9  UNL     1     -49.084  16.494  15.519  1.00  0.00     0.183 C 
HETATM    6  C17 UNL     1     -50.459  16.597  16.118  1.00  0.00     0.180 C 
ENDROOT
BRANCH   1   7
HETATM    7  O3  UNL     1     -52.750  16.530  15.307  1.00  0.00    -0.349 OA
BRANCH   7   8
HETATM    8  C4  UNL     1     -53.641  15.812  16.075  1.00  0.00     0.288 C 
HETATM    9  O2  UNL     1     -54.813  15.639  15.285  1.00  0.00    -0.324 OA
HETATM   10  C3  UNL     1     -55.787  15.246  16.235  1.00  0.00     0.352 C 
HETATM   11  C2  UNL     1     -55.481  15.997  17.477  1.00  0.00     0.204 C 
HETATM   12  C18 UNL     1     -54.195  16.681  17.182  1.00  0.00     0.172 C 
BRANCH  10  13
HETATM   13  N1  UNL     1     -57.080  15.572  15.665  1.00  0.00    -0.050 N 
ATOM     14  H13 UNL     1     -56.971  16.028  14.760  1.00  0.00     0.277 HD
ATOM     15  H12 UNL     1     -57.568  14.726  15.372  1.00  0.00     0.277 HD
ATOM     16  H11 UNL     1     -57.666  16.133  16.283  1.00  0.00     0.277 HD
ENDBRANCH  10  13
BRANCH  11  17
HETATM   17  O1  UNL     1     -55.521  15.279  18.636  1.00  0.00    -0.384 OA
HETATM   18  C1  UNL     1     -56.408  14.223  18.636  1.00  0.00     0.202 C 
ENDBRANCH  11  17
BRANCH  12  19
HETATM   19  N6  UNL     1     -53.250  16.633  18.278  1.00  0.00    -0.356 N 
ATOM     20  H6  UNL     1     -52.847  17.505  18.620  1.00  0.00     0.162 HD
BRANCH  19  21
HETATM   21  C19 UNL     1     -52.903  15.529  18.835  1.00  0.00     0.349 C 
HETATM   22  O6  UNL     1     -52.036  14.730  19.260  1.00  0.00    -0.284 OA
ENDBRANCH  19  21
ENDBRANCH  12  19
ENDBRANCH   7   8
ENDBRANCH   1   7
BRANCH   2  23
HETATM   23  N2  UNL     1     -52.016  15.613  12.847  1.00  0.00    -0.072 N 
ATOM     24  H23 UNL     1     -51.785  14.766  12.327  1.00  0.00     0.274 HD
ATOM     25  H22 UNL     1     -52.860  15.293  13.322  1.00  0.00     0.274 HD
ATOM     26  H21 UNL     1     -52.226  16.383  12.212  1.00  0.00     0.274 HD
ENDBRANCH   2  23
BRANCH   6  27
HETATM   27  O5  UNL     1     -50.442  15.893  17.340  1.00  0.00    -0.390 OA
ATOM     28  H5  UNL     1     -50.126  16.467  18.027  1.00  0.00     0.210 HD
ENDBRANCH   6  27
BRANCH   5  29
HETATM   29  O4  UNL     1     -48.175  16.976  16.455  1.00  0.00    -0.374 OA
BRANCH  29  30
HETATM   30  C10 UNL     1     -47.966  16.151  17.527  1.00  0.00     0.152 C 
HETATM   31  C11 UNL     1     -47.464  14.836  16.916  1.00  0.00     0.034 C 
HETATM   32  C12 UNL     1     -46.958  13.869  17.923  1.00  0.00     0.004 C 
HETATM   33  C13 UNL     1     -47.573  13.960  19.279  1.00  0.00     0.033 C 
HETATM   34  C14 UNL     1     -46.692  14.884  20.122  1.00  0.00     0.185 C 
HETATM   35  C15 UNL     1     -47.209  16.285  19.910  1.00  0.00     0.068 C 
HETATM   36  C16 UNL     1     -46.986  16.729  18.476  1.00  0.00     0.214 C 
BRANCH  34  37
HETATM   37  N4  UNL     1     -46.787  14.514  21.499  1.00  0.00    -0.075 N 
ATOM     38  H43 UNL     1     -46.407  13.584  21.674  1.00  0.00     0.274 HD
ATOM     39  H42 UNL     1     -46.144  15.047  22.085  1.00  0.00     0.274 HD
ATOM     40  H41 UNL     1     -47.754  14.600  21.811  1.00  0.00     0.274 HD
ENDBRANCH  34  37
BRANCH  36  41
HETATM   41  N5  UNL     1     -45.599  16.466  18.074  1.00  0.00    -0.072 N 
ATOM     42  H53 UNL     1     -45.339  15.497  18.260  1.00  0.00     0.274 HD
ATOM     43  H52 UNL     1     -45.503  16.469  17.058  1.00  0.00     0.274 HD
ATOM     44  H51 UNL     1     -44.940  17.113  18.508  1.00  0.00     0.274 HD
ENDBRANCH  36  41
ENDBRANCH  29  30
ENDBRANCH   5  29
BRANCH   4  45
HETATM   45  N3  UNL     1     -48.988  18.823  14.819  1.00  0.00    -0.072 N 
ATOM     46  H33 UNL     1     -49.220  19.492  14.085  1.00  0.00     0.274 HD
ATOM     47  H32 UNL     1     -49.743  19.019  15.477  1.00  0.00     0.274 HD
ATOM     48  H31 UNL     1     -48.084  19.049  15.235  1.00  0.00     0.274 HD
ENDBRANCH   4  45
TORSDOF 13
ENDMDL
MODEL 4
REMARK VINA RESULT: -6.986060709      3.578      6.577
REMARK  13 active torsions:
REMARK  status: ('A' for Active; 'I' for Inactive)
REMARK    1  A    between atoms: O1_2  and  C2_3 
REMARK    2  A    between atoms: C3_4  and  N1_5 
REMARK    3  A    between atoms: C4_10  and  O3_11 
REMARK    4  A    between atoms: O3_11  and  C5_12 
REMARK    5  A    between atoms: C6_13  and  N2_14 
REMARK    6  A    between atoms: C8_19  and  N3_20 
REMARK    7  A    between atoms: C9_24  and  O4_25 
REMARK    8  A    between atoms: O4_25  and  C10_26 
REMARK    9  A    between atoms: C14_30  and  N4_31 
REMARK   10  A    between atoms: C16_36  and  N5_37 
REMARK   11  A    between atoms: C17_41  and  O5_42 
REMARK   12  A    between atoms: C18_44  and  N6_45 
REMARK   13  A    between atoms: N6_45  and  C19_47 
ROOT
HETATM    1  C5  UNL     1     -47.591  14.593  17.857  1.00  0.00     0.186 C 
HETATM    2  C6  UNL     1     -46.611  15.277  18.766  1.00  0.00     0.217 C 
HETATM    3  C7  UNL     1     -46.864  14.823  20.185  1.00  0.00     0.071 C 
HETATM    4  C8  UNL     1     -46.657  13.357  20.371  1.00  0.00     0.217 C 
HETATM    5  C9  UNL     1     -46.555  12.663  18.991  1.00  0.00     0.183 C 
HETATM    6  C17 UNL     1     -47.748  13.153  18.217  1.00  0.00     0.180 C 
ENDROOT
BRANCH   1   7
HETATM    7  O3  UNL     1     -48.775  15.300  17.723  1.00  0.00    -0.349 OA
BRANCH   7   8
HETATM    8  C4  UNL     1     -49.018  15.810  16.466  1.00  0.00     0.288 C 
HETATM    9  O2  UNL     1     -47.911  16.646  16.144  1.00  0.00    -0.324 OA
HETATM   10  C3  UNL     1     -48.389  17.408  15.051  1.00  0.00     0.352 C 
HETATM   11  C2  UNL     1     -49.827  17.658  15.317  1.00  0.00     0.204 C 
HETATM   12  C18 UNL     1     -50.119  16.845  16.527  1.00  0.00     0.172 C 
BRANCH  10  13
HETATM   13  N1  UNL     1     -47.591  18.617  15.005  1.00  0.00    -0.050 N 
ATOM     14  H13 UNL     1     -47.523  18.969  14.050  1.00  0.00     0.277 HD
ATOM     15  H12 UNL     1     -48.090  19.395  15.437  1.00  0.00     0.277 HD
ATOM     16  H11 UNL     1     -46.665  18.509  15.417  1.00  0.00     0.277 HD
ENDBRANCH  10  13
BRANCH  11  17
HETATM   17  O1  UNL     1     -50.671  17.477  14.261  1.00  0.00    -0.384 OA
HETATM   18  C1  UNL     1     -50.096  16.899  13.149  1.00  0.00     0.202 C 
ENDBRANCH  11  17
BRANCH  12  19
HETATM   19  N6  UNL     1     -51.379  16.135  16.455  1.00  0.00    -0.356 N 
ATOM     20  H6  UNL     1     -51.585  15.577  15.626  1.00  0.00     0.162 HD
BRANCH  19  21
HETATM   21  C19 UNL     1     -52.247  16.183  17.401  1.00  0.00     0.349 C 
HETATM   22  O6  UNL     1     -52.560  16.216  18.614  1.00  0.00    -0.284 OA
ENDBRANCH  19  21
ENDBRANCH  12  19
ENDBRANCH   7   8
ENDBRANCH   1   7
BRANCH   2  23
HETATM   23  N2  UNL     1     -46.632  16.711  18.645  1.00  0.00    -0.072 N 
ATOM     24  H23 UNL     1     -45.692  17.077  18.493  1.00  0.00     0.274 HD
ATOM     25  H22 UNL     1     -47.066  16.995  17.766  1.00  0.00     0.274 HD
ATOM     26  H21 UNL     1     -47.078  17.175  19.436  1.00  0.00     0.274 HD
ENDBRANCH   2  23
BRANCH   6  27
HETATM   27  O5  UNL     1     -47.829  12.385  17.036  1.00  0.00    -0.390 OA
ATOM     28  H5  UNL     1     -48.687  12.502  16.646  1.00  0.00     0.210 HD
ENDBRANCH   6  27
BRANCH   5  29
HETATM   29  O4  UNL     1     -46.713  11.297  19.197  1.00  0.00    -0.374 OA
BRANCH  29  30
HETATM   30  C10 UNL     1     -45.821  10.745  20.076  1.00  0.00     0.152 C 
HETATM   31  C11 UNL     1     -46.670   9.834  20.974  1.00  0.00     0.034 C 
HETATM   32  C12 UNL     1     -45.863   8.957  21.861  1.00  0.00     0.004 C 
HETATM   33  C13 UNL     1     -44.528   9.488  22.262  1.00  0.00     0.033 C 
HETATM   34  C14 UNL     1     -43.502   8.958  21.258  1.00  0.00     0.185 C 
HETATM   35  C15 UNL     1     -43.444   9.958  20.131  1.00  0.00     0.068 C 
HETATM   36  C16 UNL     1     -44.758   9.990  19.372  1.00  0.00     0.214 C 
BRANCH  34  37
HETATM   37  N4  UNL     1     -42.228   8.836  21.892  1.00  0.00    -0.075 N 
ATOM     38  H43 UNL     1     -41.876   7.879  21.867  1.00  0.00     0.274 HD
ATOM     39  H42 UNL     1     -41.486   9.280  21.351  1.00  0.00     0.274 HD
ATOM     40  H41 UNL     1     -42.283   9.201  22.843  1.00  0.00     0.274 HD
ENDBRANCH  34  37
BRANCH  36  41
HETATM   41  N5  UNL     1     -45.177   8.627  19.026  1.00  0.00    -0.072 N 
ATOM     42  H53 UNL     1     -44.707   7.937  19.614  1.00  0.00     0.274 HD
ATOM     43  H52 UNL     1     -46.141   8.454  19.311  1.00  0.00     0.274 HD
ATOM     44  H51 UNL     1     -45.043   8.418  18.037  1.00  0.00     0.274 HD
ENDBRANCH  36  41
ENDBRANCH  29  30
ENDBRANCH   5  29
BRANCH   4  45
HETATM   45  N3  UNL     1     -47.676  12.712  21.150  1.00  0.00    -0.072 N 
ATOM     46  H33 UNL     1     -47.716  11.717  20.931  1.00  0.00     0.274 HD
ATOM     47  H32 UNL     1     -47.398  12.662  22.130  1.00  0.00     0.274 HD
ATOM     48  H31 UNL     1     -48.600  13.135  21.062  1.00  0.00     0.274 HD
ENDBRANCH   4  45
TORSDOF 13
ENDMDL
MODEL 5
REMARK VINA RESULT: -6.878703658      1.563      2.166
REMARK  13 active torsions:
REMARK  status: ('A' for Active; 'I' for Inactive)
REMARK    1  A    between atoms: O1_2  and  C2_3 
REMARK    2  A    between atoms: C3_4  and  N1_5 
REMARK    3  A    between atoms: C4_10  and  O3_11 
REMARK    4  A    between atoms: O3_11  and  C5_12 
REMARK    5  A    between atoms: C6_13  and  N2_14 
REMARK    6  A    between atoms: C8_19  and  N3_20 
REMARK    7  A    between atoms: C9_24  and  O4_25 
REMARK    8  A    between atoms: O4_25  and  C10_26 
REMARK    9  A    between atoms: C14_30  and  N4_31 
REMARK   10  A    between atoms: C16_36  and  N5_37 
REMARK   11  A    between atoms: C17_41  and  O5_42 
REMARK   12  A    between atoms: C18_44  and  N6_45 
REMARK   13  A    between atoms: N6_45  and  C19_47 
ROOT
HETATM    1  C5  UNL     1     -51.444  15.801  15.162  1.00  0.00     0.186 C 
HETATM    2  C6  UNL     1     -50.896  15.789  13.764  1.00  0.00     0.217 C 
HETATM    3  C7  UNL     1     -50.259  17.129  13.478  1.00  0.00     0.071 C 
HETATM    4  C8  UNL     1     -49.106  17.426  14.378  1.00  0.00     0.217 C 
HETATM    5  C9  UNL     1     -49.091  16.425  15.559  1.00  0.00     0.183 C 
HETATM    6  C17 UNL     1     -50.489  16.448  16.110  1.00  0.00     0.180 C 
ENDROOT
BRANCH   1   7
HETATM    7  O3  UNL     1     -52.745  16.274  15.219  1.00  0.00    -0.349 OA
BRANCH   7   8
HETATM    8  C4  UNL     1     -53.172  16.677  16.465  1.00  0.00     0.288 C 
HETATM    9  O2  UNL     1     -53.714  15.525  17.102  1.00  0.00    -0.324 OA
HETATM   10  C3  UNL     1     -54.452  16.069  18.181  1.00  0.00     0.352 C 
HETATM   11  C2  UNL     1     -55.031  17.343  17.686  1.00  0.00     0.204 C 
HETATM   12  C18 UNL     1     -54.421  17.521  16.342  1.00  0.00     0.172 C 
BRANCH  10  13
HETATM   13  N1  UNL     1     -55.451  15.083  18.542  1.00  0.00    -0.050 N 
ATOM     14  H13 UNL     1     -56.372  15.514  18.625  1.00  0.00     0.277 HD
ATOM     15  H12 UNL     1     -55.630  14.448  17.764  1.00  0.00     0.277 HD
ATOM     16  H11 UNL     1     -55.220  14.562  19.388  1.00  0.00     0.277 HD
ENDBRANCH  10  13
BRANCH  11  17
HETATM   17  O1  UNL     1     -54.936  18.411  18.529  1.00  0.00    -0.384 OA
HETATM   18  C1  UNL     1     -54.507  18.109  19.804  1.00  0.00     0.202 C 
ENDBRANCH  11  17
BRANCH  12  19
HETATM   19  N6  UNL     1     -53.995  18.880  16.077  1.00  0.00    -0.356 N 
ATOM     20  H6  UNL     1     -54.281  19.620  16.717  1.00  0.00     0.162 HD
BRANCH  19  21
HETATM   21  C19 UNL     1     -53.270  19.183  15.061  1.00  0.00     0.349 C 
HETATM   22  O6  UNL     1     -53.022  19.160  13.832  1.00  0.00    -0.284 OA
ENDBRANCH  19  21
ENDBRANCH  12  19
ENDBRANCH   7   8
ENDBRANCH   1   7
BRANCH   2  23
HETATM   23  N2  UNL     1     -51.879  15.435  12.774  1.00  0.00    -0.072 N 
ATOM     24  H23 UNL     1     -52.822  15.617  13.117  1.00  0.00     0.274 HD
ATOM     25  H22 UNL     1     -51.857  16.088  11.990  1.00  0.00     0.274 HD
ATOM     26  H21 UNL     1     -51.792  14.472  12.447  1.00  0.00     0.274 HD
ENDBRANCH   2  23
BRANCH   6  27
HETATM   27  O5  UNL     1     -50.477  15.726  17.322  1.00  0.00    -0.390 OA
ATOM     28  H5  UNL     1     -50.514  16.336  18.050  1.00  0.00     0.210 HD
ENDBRANCH   6  27
BRANCH   5  29
HETATM   29  O4  UNL     1     -48.241  16.939  16.532  1.00  0.00    -0.374 OA
BRANCH  29  30
HETATM   30  C10 UNL     1     -48.011  16.102  17.590  1.00  0.00     0.152 C 
HETATM   31  C11 UNL     1     -47.496  14.802  16.956  1.00  0.00     0.034 C 
HETATM   32  C12 UNL     1     -46.967  13.829  17.945  1.00  0.00     0.004 C 
HETATM   33  C13 UNL     1     -47.571  13.891  19.307  1.00  0.00     0.033 C 
HETATM   34  C14 UNL     1     -46.696  14.816  20.156  1.00  0.00     0.185 C 
HETATM   35  C15 UNL     1     -47.234  16.212  19.968  1.00  0.00     0.068 C 
HETATM   36  C16 UNL     1     -47.030  16.680  18.539  1.00  0.00     0.214 C 
BRANCH  34  37
HETATM   37  N4  UNL     1     -46.773  14.424  21.527  1.00  0.00    -0.075 N 
ATOM     38  H43 UNL     1     -47.736  14.348  21.852  1.00  0.00     0.274 HD
ATOM     39  H42 UNL     1     -46.493  13.453  21.666  1.00  0.00     0.274 HD
ATOM     40  H41 UNL     1     -46.224  15.067  22.098  1.00  0.00     0.274 HD
ENDBRANCH  34  37
BRANCH  36  41
HETATM   41  N5  UNL     1     -45.643  16.443  18.121  1.00  0.00    -0.072 N 
ATOM     42  H53 UNL     1     -45.251  17.265  17.662  1.00  0.00     0.274 HD
ATOM     43  H52 UNL     1     -45.019  16.393  18.927  1.00  0.00     0.274 HD
ATOM     44  H51 UNL     1     -45.551  15.615  17.532  1.00  0.00     0.274 HD
ENDBRANCH  36  41
ENDBRANCH  29  30
ENDBRANCH   5  29
BRANCH   4  45
HETATM   45  N3  UNL     1     -49.093  18.767  14.895  1.00  0.00    -0.072 N 
ATOM     46  H33 UNL     1     -49.370  18.773  15.876  1.00  0.00     0.274 HD
ATOM     47  H32 UNL     1     -48.135  19.106  14.982  1.00  0.00     0.274 HD
ATOM     48  H31 UNL     1     -49.658  19.426  14.360  1.00  0.00     0.274 HD
ENDBRANCH   4  45
TORSDOF 13
ENDMDL
