MODEL 1
REMARK VINA RESULT: -8.182254390      0.000      0.000
REMARK  10 active torsions:
REMARK  status: ('A' for Active; 'I' for Inactive)
REMARK    1  A    between atoms: C2_4  and  S1_6 
REMARK    2  A    between atoms: S1_6  and  C3_7 
REMARK    3  A    between atoms: C3_7  and  C4_8 
REMARK    4  A    between atoms: C5_10  and  O2_11 
REMARK    5  A    between atoms: C7_13  and  N3_14 
REMARK    6  A    between atoms: C9_19  and  N4_20 
REMARK       I    between atoms: N4_20  and  C10_22 
REMARK    7  A    between atoms: C10_22  and  C11_24 
REMARK    8  A    between atoms: C12_26  and  O5_27 
REMARK    9  A    between atoms: C13_29  and  N5_30 
REMARK   10  A    between atoms: N5_30  and  O6_31 
ROOT
HETATM    1  C4  UNL     1     -50.065  15.905  16.076  1.00  0.00     0.157 C 
HETATM    2  O1  UNL     1     -49.538  15.459  14.944  1.00  0.00    -0.351 OA
HETATM    3  C5  UNL     1     -49.630  16.064  13.769  1.00  0.00     0.290 C 
HETATM    4  C7  UNL     1     -50.301  17.379  13.670  1.00  0.00     0.240 C 
HETATM    5  C8  UNL     1     -51.404  17.515  14.682  1.00  0.00     0.065 C 
HETATM    6  C9  UNL     1     -50.992  17.059  16.056  1.00  0.00     0.116 C 
ENDROOT
BRANCH   6   7
HETATM    7  N4  UNL     1     -52.211  16.802  16.797  1.00  0.00    -0.352 N 
HETATM    8  C10 UNL     1     -53.501  17.080  16.274  1.00  0.00     0.248 C 
HETATM    9  O3  UNL     1     -53.537  17.569  15.114  1.00  0.00    -0.271 OA
ATOM     10  H4  UNL     1     -52.139  16.406  17.734  1.00  0.00     0.163 HD
BRANCH   8  11
HETATM   11  C11 UNL     1     -54.750  16.837  16.985  1.00  0.00     0.231 C 
HETATM   12  O4  UNL     1     -55.547  15.981  16.233  1.00  0.00    -0.344 OA
HETATM   13  C12 UNL     1     -55.144  14.668  16.472  1.00  0.00     0.279 C 
HETATM   14  C13 UNL     1     -55.600  14.211  17.814  1.00  0.00     0.162 C 
HETATM   15  C14 UNL     1     -55.768  15.430  18.709  1.00  0.00     0.047 C 
HETATM   16  C15 UNL     1     -54.563  16.326  18.391  1.00  0.00     0.098 C 
HETATM   17  S2  UNL     1     -54.457  17.684  19.591  1.00  0.00    -0.089 SA
BRANCH  13  18
HETATM   18  O5  UNL     1     -55.576  13.894  15.408  1.00  0.00    -0.369 OA
ATOM     19  H5  UNL     1     -56.467  13.620  15.593  1.00  0.00     0.212 HD
ENDBRANCH  13  18
BRANCH  14  20
HETATM   20  N5  UNL     1     -56.816  13.462  17.692  1.00  0.00    -0.094 NA
BRANCH  20  21
HETATM   21  O6  UNL     1     -57.803  14.295  17.307  1.00  0.00    -0.295 OA
ATOM     22  H6  UNL     1     -58.126  14.015  16.459  1.00  0.00     0.238 HD
ENDBRANCH  20  21
ENDBRANCH  14  20
ENDBRANCH   8  11
ENDBRANCH   6   7
BRANCH   1  23
HETATM   23  C3  UNL     1     -48.948  16.205  17.087  1.00  0.00     0.116 C 
BRANCH  23  24
HETATM   24  S1  UNL     1     -49.263  15.464  18.679  1.00  0.00    -0.095 SA
BRANCH  24  25
HETATM   25  C2  UNL     1     -48.299  13.987  18.843  1.00  0.00     0.149 C 
HETATM   26  N1  UNL     1     -47.791  13.680  19.976  1.00  0.00    -0.377 N 
HETATM   27  C1  UNL     1     -46.990  12.490  20.196  1.00  0.00     0.148 C 
ATOM     28  H1  UNL     1     -47.956  14.304  20.766  1.00  0.00     0.160 HD
HETATM   29  N2  UNL     1     -48.083  13.143  17.738  1.00  0.00    -0.075 NA
ENDBRANCH  24  25
ENDBRANCH  23  24
ENDBRANCH   1  23
BRANCH   4  30
HETATM   30  N3  UNL     1     -49.323  18.447  13.773  1.00  0.00    -0.070 N 
ATOM     31  H33 UNL     1     -49.415  18.965  14.647  1.00  0.00     0.274 HD
ATOM     32  H32 UNL     1     -48.379  18.088  13.910  1.00  0.00     0.274 HD
ATOM     33  H31 UNL     1     -49.384  19.058  12.959  1.00  0.00     0.274 HD
ENDBRANCH   4  30
BRANCH   3  34
HETATM   34  O2  UNL     1     -48.330  16.221  13.239  1.00  0.00    -0.364 OA
HETATM   35  C6  UNL     1     -47.555  15.099  13.372  1.00  0.00     0.204 C 
ENDBRANCH   3  34
TORSDOF 10
ENDMDL
MODEL 2
REMARK VINA RESULT: -8.036021967      4.474      9.777
REMARK  10 active torsions:
REMARK  status: ('A' for Active; 'I' for Inactive)
REMARK    1  A    between atoms: C2_4  and  S1_6 
REMARK    2  A    between atoms: S1_6  and  C3_7 
REMARK    3  A    between atoms: C3_7  and  C4_8 
REMARK    4  A    between atoms: C5_10  and  O2_11 
REMARK    5  A    between atoms: C7_13  and  N3_14 
REMARK    6  A    between atoms: C9_19  and  N4_20 
REMARK       I    between atoms: N4_20  and  C10_22 
REMARK    7  A    between atoms: C10_22  and  C11_24 
REMARK    8  A    between atoms: C12_26  and  O5_27 
REMARK    9  A    between atoms: C13_29  and  N5_30 
REMARK   10  A    between atoms: N5_30  and  O6_31 
ROOT
HETATM    1  C4  UNL     1     -58.417  13.862  20.167  1.00  0.00     0.157 C 
HETATM    2  O1  UNL     1     -59.078  14.822  20.800  1.00  0.00    -0.351 OA
HETATM    3  C5  UNL     1     -60.078  15.524  20.289  1.00  0.00     0.290 C 
HETATM    4  C7  UNL     1     -60.585  15.204  18.936  1.00  0.00     0.240 C 
HETATM    5  C8  UNL     1     -59.493  14.680  18.046  1.00  0.00     0.065 C 
HETATM    6  C9  UNL     1     -58.641  13.639  18.721  1.00  0.00     0.116 C 
ENDROOT
BRANCH   6   7
HETATM    7  N4  UNL     1     -57.401  13.560  17.975  1.00  0.00    -0.352 N 
HETATM    8  C10 UNL     1     -56.345  14.494  18.140  1.00  0.00     0.248 C 
HETATM    9  O3  UNL     1     -56.540  15.411  18.981  1.00  0.00    -0.271 OA
ATOM     10  H4  UNL     1     -57.283  12.803  17.303  1.00  0.00     0.163 HD
BRANCH   8  11
HETATM   11  C11 UNL     1     -55.083  14.451  17.411  1.00  0.00     0.231 C 
HETATM   12  O4  UNL     1     -55.080  15.445  16.439  1.00  0.00    -0.344 OA
HETATM   13  C12 UNL     1     -54.708  16.650  17.033  1.00  0.00     0.279 C 
HETATM   14  C13 UNL     1     -53.246  16.668  17.319  1.00  0.00     0.162 C 
HETATM   15  C14 UNL     1     -52.766  15.234  17.481  1.00  0.00     0.047 C 
HETATM   16  C15 UNL     1     -53.865  14.537  18.295  1.00  0.00     0.098 C 
HETATM   17  S2  UNL     1     -53.304  12.895  18.828  1.00  0.00    -0.089 SA
BRANCH  13  18
HETATM   18  O5  UNL     1     -55.162  17.677  16.223  1.00  0.00    -0.369 OA
ATOM     19  H5  UNL     1     -55.227  18.460  16.757  1.00  0.00     0.212 HD
ENDBRANCH  13  18
BRANCH  14  20
HETATM   20  N5  UNL     1     -52.548  17.354  16.271  1.00  0.00    -0.094 NA
BRANCH  20  21
HETATM   21  O6  UNL     1     -52.848  16.770  15.095  1.00  0.00    -0.295 OA
ATOM     22  H6  UNL     1     -52.063  16.363  14.746  1.00  0.00     0.238 HD
ENDBRANCH  20  21
ENDBRANCH  14  20
ENDBRANCH   8  11
ENDBRANCH   6   7
BRANCH   1  23
HETATM   23  C3  UNL     1     -58.619  12.525  20.896  1.00  0.00     0.116 C 
BRANCH  23  24
HETATM   24  S1  UNL     1     -59.279  12.745  22.539  1.00  0.00    -0.095 SA
BRANCH  24  25
HETATM   25  C2  UNL     1     -60.918  12.076  22.612  1.00  0.00     0.149 C 
HETATM   26  N1  UNL     1     -61.355  11.578  23.705  1.00  0.00    -0.377 N 
HETATM   27  C1  UNL     1     -62.682  11.011  23.849  1.00  0.00     0.148 C 
ATOM     28  H1  UNL     1     -60.739  11.579  24.518  1.00  0.00     0.160 HD
HETATM   29  N2  UNL     1     -61.748  12.085  21.475  1.00  0.00    -0.075 NA
ENDBRANCH  24  25
ENDBRANCH  23  24
ENDBRANCH   1  23
BRANCH   4  30
HETATM   30  N3  UNL     1     -61.708  14.289  19.027  1.00  0.00    -0.070 N 
ATOM     31  H33 UNL     1     -62.573  14.771  19.271  1.00  0.00     0.274 HD
ATOM     32  H32 UNL     1     -61.987  13.935  18.113  1.00  0.00     0.274 HD
ATOM     33  H31 UNL     1     -61.494  13.535  19.679  1.00  0.00     0.274 HD
ENDBRANCH   4  30
BRANCH   3  34
HETATM   34  O2  UNL     1     -61.178  15.451  21.172  1.00  0.00    -0.364 OA
HETATM   35  C6  UNL     1     -60.855  15.769  22.464  1.00  0.00     0.204 C 
ENDBRANCH   3  34
TORSDOF 10
ENDMDL
MODEL 3
REMARK VINA RESULT: -7.749224064      4.307      9.570
REMARK  10 active torsions:
REMARK  status: ('A' for Active; 'I' for Inactive)
REMARK    1  A    between atoms: C2_4  and  S1_6 
REMARK    2  A    between atoms: S1_6  and  C3_7 
REMARK    3  A    between atoms: C3_7  and  C4_8 
REMARK    4  A    between atoms: C5_10  and  O2_11 
REMARK    5  A    between atoms: C7_13  and  N3_14 
REMARK    6  A    between atoms: C9_19  and  N4_20 
REMARK       I    between atoms: N4_20  and  C10_22 
REMARK    7  A    between atoms: C10_22  and  C11_24 
REMARK    8  A    between atoms: C12_26  and  O5_27 
REMARK    9  A    between atoms: C13_29  and  N5_30 
REMARK   10  A    between atoms: N5_30  and  O6_31 
ROOT
HETATM    1  C4  UNL     1     -58.180  13.819  20.238  1.00  0.00     0.157 C 
HETATM    2  O1  UNL     1     -58.968  14.765  20.728  1.00  0.00    -0.351 OA
HETATM    3  C5  UNL     1     -59.898  15.414  20.044  1.00  0.00     0.290 C 
HETATM    4  C7  UNL     1     -60.167  15.043  18.637  1.00  0.00     0.240 C 
HETATM    5  C8  UNL     1     -58.927  14.545  17.949  1.00  0.00     0.065 C 
HETATM    6  C9  UNL     1     -58.159  13.555  18.782  1.00  0.00     0.116 C 
ENDROOT
BRANCH   6   7
HETATM    7  N4  UNL     1     -56.812  13.509  18.247  1.00  0.00    -0.352 N 
HETATM    8  C10 UNL     1     -55.910  14.601  18.344  1.00  0.00     0.248 C 
HETATM    9  O3  UNL     1     -56.344  15.629  18.928  1.00  0.00    -0.271 OA
ATOM     10  H4  UNL     1     -56.500  12.658  17.781  1.00  0.00     0.163 HD
BRANCH   8  11
HETATM   11  C11 UNL     1     -54.550  14.597  17.821  1.00  0.00     0.231 C 
HETATM   12  O4  UNL     1     -54.534  13.957  16.588  1.00  0.00    -0.344 OA
HETATM   13  C12 UNL     1     -54.919  14.868  15.605  1.00  0.00     0.279 C 
HETATM   14  C13 UNL     1     -53.823  15.836  15.323  1.00  0.00     0.162 C 
HETATM   15  C14 UNL     1     -52.944  15.946  16.560  1.00  0.00     0.047 C 
HETATM   16  C15 UNL     1     -53.922  15.966  17.743  1.00  0.00     0.098 C 
HETATM   17  S2  UNL     1     -53.046  16.392  19.274  1.00  0.00    -0.089 SA
BRANCH  13  18
HETATM   18  O5  UNL     1     -55.362  14.145  14.510  1.00  0.00    -0.369 OA
ATOM     19  H5  UNL     1     -56.306  14.059  14.583  1.00  0.00     0.212 HD
ENDBRANCH  13  18
BRANCH  14  20
HETATM   20  N5  UNL     1     -53.081  15.418  14.171  1.00  0.00    -0.094 NA
BRANCH  20  21
HETATM   21  O6  UNL     1     -52.295  16.435  13.767  1.00  0.00    -0.295 OA
ATOM     22  H6  UNL     1     -52.281  16.453  12.817  1.00  0.00     0.238 HD
ENDBRANCH  20  21
ENDBRANCH  14  20
ENDBRANCH   8  11
ENDBRANCH   6   7
BRANCH   1  23
HETATM   23  C3  UNL     1     -58.448  12.491  20.963  1.00  0.00     0.116 C 
BRANCH  23  24
HETATM   24  S1  UNL     1     -59.243  12.734  22.542  1.00  0.00    -0.095 SA
BRANCH  24  25
HETATM   25  C2  UNL     1     -60.866  12.025  22.501  1.00  0.00     0.149 C 
HETATM   26  N1  UNL     1     -61.355  11.491  23.555  1.00  0.00    -0.377 N 
HETATM   27  C1  UNL     1     -62.675  10.890  23.606  1.00  0.00     0.148 C 
ATOM     28  H1  UNL     1     -60.789  11.487  24.403  1.00  0.00     0.160 HD
HETATM   29  N2  UNL     1     -61.627  12.042  21.317  1.00  0.00    -0.075 NA
ENDBRANCH  24  25
ENDBRANCH  23  24
ENDBRANCH   1  23
BRANCH   4  30
HETATM   30  N3  UNL     1     -61.257  14.087  18.573  1.00  0.00    -0.070 N 
ATOM     31  H33 UNL     1     -61.514  13.866  17.611  1.00  0.00     0.274 HD
ATOM     32  H32 UNL     1     -60.965  13.155  18.867  1.00  0.00     0.274 HD
ATOM     33  H31 UNL     1     -62.053  14.425  19.113  1.00  0.00     0.274 HD
ENDBRANCH   4  30
BRANCH   3  34
HETATM   34  O2  UNL     1     -61.122  15.317  20.740  1.00  0.00    -0.364 OA
HETATM   35  C6  UNL     1     -61.009  15.607  22.074  1.00  0.00     0.204 C 
ENDBRANCH   3  34
TORSDOF 10
ENDMDL
MODEL 4
REMARK VINA RESULT: -7.596968690      1.320      1.386
REMARK  10 active torsions:
REMARK  status: ('A' for Active; 'I' for Inactive)
REMARK    1  A    between atoms: C2_4  and  S1_6 
REMARK    2  A    between atoms: S1_6  and  C3_7 
REMARK    3  A    between atoms: C3_7  and  C4_8 
REMARK    4  A    between atoms: C5_10  and  O2_11 
REMARK    5  A    between atoms: C7_13  and  N3_14 
REMARK    6  A    between atoms: C9_19  and  N4_20 
REMARK       I    between atoms: N4_20  and  C10_22 
REMARK    7  A    between atoms: C10_22  and  C11_24 
REMARK    8  A    between atoms: C12_26  and  O5_27 
REMARK    9  A    between atoms: C13_29  and  N5_30 
REMARK   10  A    between atoms: N5_30  and  O6_31 
ROOT
HETATM    1  C4  UNL     1     -49.809  15.819  16.193  1.00  0.00     0.157 C 
HETATM    2  O1  UNL     1     -49.470  15.397  14.983  1.00  0.00    -0.351 OA
HETATM    3  C5  UNL     1     -49.841  15.965  13.845  1.00  0.00     0.290 C 
HETATM    4  C7  UNL     1     -50.637  17.213  13.872  1.00  0.00     0.240 C 
HETATM    5  C8  UNL     1     -51.533  17.272  15.077  1.00  0.00     0.065 C 
HETATM    6  C9  UNL     1     -50.824  16.885  16.347  1.00  0.00     0.116 C 
ENDROOT
BRANCH   6   7
HETATM    7  N4  UNL     1     -51.850  16.537  17.312  1.00  0.00    -0.352 N 
HETATM    8  C10 UNL     1     -53.011  15.799  16.965  1.00  0.00     0.248 C 
HETATM    9  O3  UNL     1     -53.110  15.454  15.757  1.00  0.00    -0.271 OA
ATOM     10  H4  UNL     1     -51.731  16.835  18.279  1.00  0.00     0.163 HD
BRANCH   8  11
HETATM   11  C11 UNL     1     -54.064  15.427  17.902  1.00  0.00     0.231 C 
HETATM   12  O4  UNL     1     -55.274  15.956  17.466  1.00  0.00    -0.344 OA
HETATM   13  C12 UNL     1     -55.814  15.102  16.505  1.00  0.00     0.279 C 
HETATM   14  C13 UNL     1     -56.369  13.874  17.141  1.00  0.00     0.162 C 
HETATM   15  C14 UNL     1     -55.638  13.637  18.454  1.00  0.00     0.047 C 
HETATM   16  C15 UNL     1     -54.165  13.943  18.150  1.00  0.00     0.098 C 
HETATM   17  S2  UNL     1     -53.117  13.422  19.537  1.00  0.00    -0.089 SA
BRANCH  13  18
HETATM   18  O5  UNL     1     -56.717  15.833  15.752  1.00  0.00    -0.369 OA
ATOM     19  H5  UNL     1     -56.337  15.963  14.891  1.00  0.00     0.212 HD
ENDBRANCH  13  18
BRANCH  14  20
HETATM   20  N5  UNL     1     -57.783  14.013  17.329  1.00  0.00    -0.094 NA
BRANCH  20  21
HETATM   21  O6  UNL     1     -58.004  14.898  18.321  1.00  0.00    -0.295 OA
ATOM     22  H6  UNL     1     -58.066  15.769  17.946  1.00  0.00     0.238 HD
ENDBRANCH  20  21
ENDBRANCH  14  20
ENDBRANCH   8  11
ENDBRANCH   6   7
BRANCH   1  23
HETATM   23  C3  UNL     1     -48.551  16.240  16.967  1.00  0.00     0.116 C 
BRANCH  23  24
HETATM   24  S1  UNL     1     -48.597  15.705  18.670  1.00  0.00    -0.095 SA
BRANCH  24  25
HETATM   25  C2  UNL     1     -47.994  14.043  18.783  1.00  0.00     0.149 C 
HETATM   26  N1  UNL     1     -47.527  13.609  19.891  1.00  0.00    -0.377 N 
HETATM   27  C1  UNL     1     -47.015  12.263  20.068  1.00  0.00     0.148 C 
ATOM     28  H1  UNL     1     -47.513  14.241  20.691  1.00  0.00     0.160 HD
HETATM   29  N2  UNL     1     -48.021  13.191  17.663  1.00  0.00    -0.075 NA
ENDBRANCH  24  25
ENDBRANCH  23  24
ENDBRANCH   1  23
BRANCH   4  30
HETATM   30  N3  UNL     1     -49.760  18.365  13.779  1.00  0.00    -0.070 N 
ATOM     31  H33 UNL     1     -49.707  18.876  14.660  1.00  0.00     0.274 HD
ATOM     32  H32 UNL     1     -48.779  18.094  13.704  1.00  0.00     0.274 HD
ATOM     33  H31 UNL     1     -50.049  18.965  13.006  1.00  0.00     0.274 HD
ENDBRANCH   4  30
BRANCH   3  34
HETATM   34  O2  UNL     1     -48.688  16.225  13.073  1.00  0.00    -0.364 OA
HETATM   35  C6  UNL     1     -47.670  15.338  13.307  1.00  0.00     0.204 C 
ENDBRANCH   3  34
TORSDOF 10
ENDMDL
MODEL 5
REMARK VINA RESULT: -7.385909551      2.314      4.335
REMARK  10 active torsions:
REMARK  status: ('A' for Active; 'I' for Inactive)
REMARK    1  A    between atoms: C2_4  and  S1_6 
REMARK    2  A    between atoms: S1_6  and  C3_7 
REMARK    3  A    between atoms: C3_7  and  C4_8 
REMARK    4  A    between atoms: C5_10  and  O2_11 
REMARK    5  A    between atoms: C7_13  and  N3_14 
REMARK    6  A    between atoms: C9_19  and  N4_20 
REMARK       I    between atoms: N4_20  and  C10_22 
REMARK    7  A    between atoms: C10_22  and  C11_24 
REMARK    8  A    between atoms: C12_26  and  O5_27 
REMARK    9  A    between atoms: C13_29  and  N5_30 
REMARK   10  A    between atoms: N5_30  and  O6_31 
ROOT
HETATM    1  C4  UNL     1     -48.792  16.471  16.861  1.00  0.00     0.157 C 
HETATM    2  O1  UNL     1     -47.757  16.913  17.560  1.00  0.00    -0.351 OA
HETATM    3  C5  UNL     1     -47.467  16.555  18.802  1.00  0.00     0.290 C 
HETATM    4  C7  UNL     1     -48.288  15.529  19.482  1.00  0.00     0.240 C 
HETATM    5  C8  UNL     1     -49.717  15.568  19.019  1.00  0.00     0.065 C 
HETATM    6  C9  UNL     1     -49.840  15.661  17.521  1.00  0.00     0.116 C 
ENDROOT
BRANCH   6   7
HETATM    7  N4  UNL     1     -51.176  16.146  17.238  1.00  0.00    -0.352 N 
HETATM    8  C10 UNL     1     -52.282  15.896  18.092  1.00  0.00     0.248 C 
HETATM    9  O3  UNL     1     -52.042  15.220  19.127  1.00  0.00    -0.271 OA
ATOM     10  H4  UNL     1     -51.328  16.690  16.389  1.00  0.00     0.163 HD
BRANCH   8  11
HETATM   11  C11 UNL     1     -53.639  16.366  17.845  1.00  0.00     0.231 C 
HETATM   12  O4  UNL     1     -54.221  15.585  16.853  1.00  0.00    -0.344 OA
HETATM   13  C12 UNL     1     -54.720  14.421  17.435  1.00  0.00     0.279 C 
HETATM   14  C13 UNL     1     -55.966  14.704  18.201  1.00  0.00     0.162 C 
HETATM   15  C14 UNL     1     -55.945  16.161  18.637  1.00  0.00     0.047 C 
HETATM   16  C15 UNL     1     -54.500  16.422  19.082  1.00  0.00     0.098 C 
HETATM   17  S2  UNL     1     -54.380  18.033  19.910  1.00  0.00    -0.089 SA
BRANCH  13  18
HETATM   18  O5  UNL     1     -54.847  13.471  16.435  1.00  0.00    -0.369 OA
ATOM     19  H5  UNL     1     -54.565  12.636  16.792  1.00  0.00     0.212 HD
ENDBRANCH  13  18
BRANCH  14  20
HETATM   20  N5  UNL     1     -57.115  14.397  17.402  1.00  0.00    -0.094 NA
BRANCH  20  21
HETATM   21  O6  UNL     1     -57.110  15.189  16.312  1.00  0.00    -0.295 OA
ATOM     22  H6  UNL     1     -57.658  15.947  16.482  1.00  0.00     0.238 HD
ENDBRANCH  20  21
ENDBRANCH  14  20
ENDBRANCH   8  11
ENDBRANCH   6   7
BRANCH   1  23
HETATM   23  C3  UNL     1     -48.295  15.699  15.628  1.00  0.00     0.116 C 
BRANCH  23  24
HETATM   24  S1  UNL     1     -48.829  16.452  14.101  1.00  0.00    -0.095 SA
BRANCH  24  25
HETATM   25  C2  UNL     1     -50.582  16.703  14.148  1.00  0.00     0.149 C 
HETATM   26  N1  UNL     1     -51.054  17.870  14.373  1.00  0.00    -0.377 N 
HETATM   27  C1  UNL     1     -52.474  18.160  14.428  1.00  0.00     0.148 C 
ATOM     28  H1  UNL     1     -50.398  18.636  14.523  1.00  0.00     0.160 HD
HETATM   29  N2  UNL     1     -51.468  15.628  13.941  1.00  0.00    -0.075 NA
ENDBRANCH  24  25
ENDBRANCH  23  24
ENDBRANCH   1  23
BRANCH   4  30
HETATM   30  N3  UNL     1     -47.689  14.218  19.314  1.00  0.00    -0.070 N 
ATOM     31  H33 UNL     1     -47.826  13.628  20.135  1.00  0.00     0.274 HD
ATOM     32  H32 UNL     1     -48.196  13.651  18.635  1.00  0.00     0.274 HD
ATOM     33  H31 UNL     1     -46.703  14.312  19.071  1.00  0.00     0.274 HD
ENDBRANCH   4  30
BRANCH   3  34
HETATM   34  O2  UNL     1     -46.128  16.107  18.841  1.00  0.00    -0.364 OA
HETATM   35  C6  UNL     1     -45.278  16.879  18.094  1.00  0.00     0.204 C 
ENDBRANCH   3  34
TORSDOF 10
ENDMDL
