MODEL 1
REMARK VINA RESULT: -10.109049888      0.000      0.000
REMARK  9 active torsions:
REMARK  status: ('A' for Active; 'I' for Inactive)
REMARK    1  A    between atoms: N1_1  and  C1_4 
REMARK    2  A    between atoms: C1_4  and  N2_5 
REMARK    3  A    between atoms: C1_4  and  C9_33 
REMARK    4  A    between atoms: N2_5  and  C2_7 
REMARK    5  A    between atoms: C4_10  and  N3_11 
REMARK    6  A    between atoms: C4_10  and  N7_25 
REMARK       I    between atoms: N3_11  and  C5_13 
REMARK    7  A    between atoms: C5_13  and  C6_15 
REMARK    8  A    between atoms: C11_35  and  C12_36 
REMARK    9  A    between atoms: C15_41  and  O8_42 
ROOT
HETATM    1  C2  UNL     1     -55.525  14.777  16.587  1.00  0.00     0.217 A 
HETATM    2  C3  UNL     1     -54.403  14.206  17.339  1.00  0.00     0.207 A 
HETATM    3  O1  UNL     1     -53.894  13.245  17.892  1.00  0.00    -0.291 OA
HETATM    4  C4  UNL     1     -54.375  15.667  16.914  1.00  0.00     0.225 A 
ENDROOT
BRANCH   4   5
HETATM    5  N3  UNL     1     -53.487  16.074  15.858  1.00  0.00    -0.319 N 
HETATM    6  C5  UNL     1     -52.099  16.254  16.015  1.00  0.00     0.276 C 
HETATM    7  O2  UNL     1     -51.639  16.032  17.175  1.00  0.00    -0.266 OA
ATOM      8  H3  UNL     1     -53.888  16.242  14.936  1.00  0.00     0.166 HD
BRANCH   6   9
HETATM    9  C6  UNL     1     -51.165  16.661  14.991  1.00  0.00     0.169 A 
HETATM   10  N4  UNL     1     -50.203  17.609  15.185  1.00  0.00    -0.233 N 
HETATM   11  O3  UNL     1     -49.529  17.756  14.099  1.00  0.00    -0.155 OA
ATOM     12  H4  UNL     1     -50.044  18.121  16.053  1.00  0.00     0.197 HD
HETATM   13  N5  UNL     1     -49.946  16.986  13.170  1.00  0.00    -0.224 N 
HETATM   14  C7  UNL     1     -50.985  16.272  13.690  1.00  0.00     0.155 A 
ATOM     15  H5  UNL     1     -49.574  16.918  12.223  1.00  0.00     0.198 HD
HETATM   16  N6  UNL     1     -51.681  15.389  13.082  1.00  0.00    -0.382 N 
ATOM     17  H62 UNL     1     -52.458  14.855  13.471  1.00  0.00     0.157 HD
ATOM     18  H61 UNL     1     -51.547  15.100  12.114  1.00  0.00     0.157 HD
ENDBRANCH   6   9
ENDBRANCH   4   5
BRANCH   4  19
HETATM   19  N7  UNL     1     -54.429  16.540  18.073  1.00  0.00    -0.179 N 
HETATM   20  N8  UNL     1     -54.203  16.321  19.349  1.00  0.00    -0.173 N 
HETATM   21  O4  UNL     1     -54.380  17.429  20.023  1.00  0.00    -0.137 OA
ATOM     22  H8  UNL     1     -53.931  15.424  19.752  1.00  0.00     0.219 HD
HETATM   23  N9  UNL     1     -54.722  18.385  19.213  1.00  0.00    -0.188 N 
HETATM   24  C8  UNL     1     -54.758  17.846  17.986  1.00  0.00     0.367 A 
ATOM     25  H9  UNL     1     -54.923  19.353  19.461  1.00  0.00     0.202 HD
HETATM   26  O5  UNL     1     -55.055  18.485  16.943  1.00  0.00    -0.243 OA
ENDBRANCH   4  19
BRANCH   1  27
HETATM   27  N2  UNL     1     -56.775  15.094  17.215  1.00  0.00    -0.360 N 
ATOM     28  H2  UNL     1     -57.161  16.039  17.208  1.00  0.00     0.162 HD
BRANCH  27  29
HETATM   29  C1  UNL     1     -57.458  13.990  17.860  1.00  0.00     0.108 C 
BRANCH  29  30
HETATM   30  N1  UNL     1     -56.949  12.832  17.798  1.00  0.00    -0.385 N 
ATOM     31  H12 UNL     1     -56.055  12.606  18.234  1.00  0.00     0.157 HD
ATOM     32  H11 UNL     1     -57.449  12.098  17.296  1.00  0.00     0.157 HD
ENDBRANCH  29  30
BRANCH  29  33
HETATM   33  C9  UNL     1     -58.714  14.255  18.562  1.00  0.00     0.041 A 
HETATM   34  C10 UNL     1     -58.845  14.001  19.902  1.00  0.00     0.036 A 
HETATM   35  C11 UNL     1     -60.009  14.227  20.631  1.00  0.00     0.041 A 
HETATM   36  C13 UNL     1     -61.076  14.742  19.931  1.00  0.00     0.021 A 
HETATM   37  C14 UNL     1     -60.961  15.005  18.571  1.00  0.00     0.038 A 
HETATM   38  C15 UNL     1     -59.803  14.773  17.878  1.00  0.00     0.079 A 
BRANCH  35  39
HETATM   39  C12 UNL     1     -60.127  13.951  22.049  1.00  0.00     0.209 C 
HETATM   40  O6  UNL     1     -61.134  14.373  22.690  1.00  0.00    -0.644 OA
HETATM   41  O7  UNL     1     -59.184  13.239  22.759  1.00  0.00    -0.644 OA
ENDBRANCH  35  39
BRANCH  38  42
HETATM   42  O8  UNL     1     -59.687  15.036  16.521  1.00  0.00    -0.360 OA
ATOM     43  H8  UNL     1     -60.443  15.362  16.045  1.00  0.00     0.217 HD
ENDBRANCH  38  42
ENDBRANCH  29  33
ENDBRANCH  27  29
ENDBRANCH   1  27
TORSDOF 9
ENDMDL
MODEL 2
REMARK VINA RESULT: -10.046859146      0.997      1.287
REMARK  9 active torsions:
REMARK  status: ('A' for Active; 'I' for Inactive)
REMARK    1  A    between atoms: N1_1  and  C1_4 
REMARK    2  A    between atoms: C1_4  and  N2_5 
REMARK    3  A    between atoms: C1_4  and  C9_33 
REMARK    4  A    between atoms: N2_5  and  C2_7 
REMARK    5  A    between atoms: C4_10  and  N3_11 
REMARK    6  A    between atoms: C4_10  and  N7_25 
REMARK       I    between atoms: N3_11  and  C5_13 
REMARK    7  A    between atoms: C5_13  and  C6_15 
REMARK    8  A    between atoms: C11_35  and  C12_36 
REMARK    9  A    between atoms: C15_41  and  O8_42 
ROOT
HETATM    1  C2  UNL     1     -54.916  14.704  17.266  1.00  0.00     0.217 A 
HETATM    2  C3  UNL     1     -53.728  14.484  18.098  1.00  0.00     0.207 A 
HETATM    3  O1  UNL     1     -53.063  13.738  18.798  1.00  0.00    -0.291 OA
HETATM    4  C4  UNL     1     -53.963  15.837  17.442  1.00  0.00     0.225 A 
ENDROOT
BRANCH   4   5
HETATM    5  N3  UNL     1     -53.139  16.231  16.331  1.00  0.00    -0.319 N 
HETATM    6  C5  UNL     1     -51.736  16.347  16.388  1.00  0.00     0.276 C 
HETATM    7  O2  UNL     1     -51.202  16.077  17.506  1.00  0.00    -0.266 OA
ATOM      8  H3  UNL     1     -53.599  16.439  15.446  1.00  0.00     0.166 HD
BRANCH   6   9
HETATM    9  C6  UNL     1     -50.863  16.739  15.307  1.00  0.00     0.169 A 
HETATM   10  N4  UNL     1     -51.297  16.960  14.032  1.00  0.00    -0.233 N 
HETATM   11  O3  UNL     1     -50.295  17.294  13.296  1.00  0.00    -0.155 OA
ATOM     12  H4  UNL     1     -52.262  16.875  13.713  1.00  0.00     0.197 HD
HETATM   13  N5  UNL     1     -49.204  17.322  13.958  1.00  0.00    -0.224 N 
HETATM   14  C7  UNL     1     -49.515  16.975  15.240  1.00  0.00     0.155 A 
ATOM     15  H5  UNL     1     -48.280  17.557  13.598  1.00  0.00     0.198 HD
HETATM   16  N6  UNL     1     -48.702  16.883  16.221  1.00  0.00    -0.382 N 
ATOM     17  H62 UNL     1     -48.934  16.623  17.180  1.00  0.00     0.157 HD
ATOM     18  H61 UNL     1     -47.698  17.058  16.171  1.00  0.00     0.157 HD
ENDBRANCH   6   9
ENDBRANCH   4   5
BRANCH   4  19
HETATM   19  N7  UNL     1     -54.213  16.857  18.444  1.00  0.00    -0.179 N 
HETATM   20  N8  UNL     1     -54.104  16.847  19.754  1.00  0.00    -0.173 N 
HETATM   21  O4  UNL     1     -54.444  18.017  20.233  1.00  0.00    -0.137 OA
ATOM     22  H8  UNL     1     -53.800  16.049  20.313  1.00  0.00     0.219 HD
HETATM   23  N9  UNL     1     -54.780  18.807  19.258  1.00  0.00    -0.188 N 
HETATM   24  C8  UNL     1     -54.641  18.097  18.130  1.00  0.00     0.367 A 
ATOM     25  H9  UNL     1     -55.088  19.776  19.336  1.00  0.00     0.202 HD
HETATM   26  O5  UNL     1     -54.881  18.548  16.978  1.00  0.00    -0.243 OA
ENDBRANCH   4  19
BRANCH   1  27
HETATM   27  N2  UNL     1     -56.221  14.873  17.838  1.00  0.00    -0.360 N 
ATOM     28  H2  UNL     1     -56.755  15.735  17.722  1.00  0.00     0.162 HD
BRANCH  27  29
HETATM   29  C1  UNL     1     -56.734  13.747  18.592  1.00  0.00     0.108 C 
BRANCH  29  30
HETATM   30  N1  UNL     1     -56.014  12.712  18.716  1.00  0.00    -0.385 N 
ATOM     31  H12 UNL     1     -56.263  11.820  18.289  1.00  0.00     0.157 HD
ATOM     32  H11 UNL     1     -55.153  12.770  19.261  1.00  0.00     0.157 HD
ENDBRANCH  29  30
BRANCH  29  33
HETATM   33  C9  UNL     1     -58.068  13.846  19.182  1.00  0.00     0.041 A 
HETATM   34  C10 UNL     1     -58.307  13.436  20.468  1.00  0.00     0.036 A 
HETATM   35  C11 UNL     1     -59.550  13.501  21.092  1.00  0.00     0.041 A 
HETATM   36  C13 UNL     1     -60.582  14.015  20.342  1.00  0.00     0.021 A 
HETATM   37  C14 UNL     1     -60.358  14.435  19.035  1.00  0.00     0.038 A 
HETATM   38  C15 UNL     1     -59.124  14.360  18.446  1.00  0.00     0.079 A 
BRANCH  35  39
HETATM   39  C12 UNL     1     -59.781  13.062  22.454  1.00  0.00     0.209 C 
HETATM   40  O6  UNL     1     -60.958  12.807  22.841  1.00  0.00    -0.644 OA
HETATM   41  O7  UNL     1     -58.769  12.903  23.376  1.00  0.00    -0.644 OA
ENDBRANCH  35  39
BRANCH  38  42
HETATM   42  O8  UNL     1     -58.899  14.780  17.143  1.00  0.00    -0.360 OA
ATOM     43  H8  UNL     1     -59.545  14.581  16.474  1.00  0.00     0.217 HD
ENDBRANCH  38  42
ENDBRANCH  29  33
ENDBRANCH  27  29
ENDBRANCH   1  27
TORSDOF 9
ENDMDL
MODEL 3
REMARK VINA RESULT: -10.013993441      1.551      2.247
REMARK  9 active torsions:
REMARK  status: ('A' for Active; 'I' for Inactive)
REMARK    1  A    between atoms: N1_1  and  C1_4 
REMARK    2  A    between atoms: C1_4  and  N2_5 
REMARK    3  A    between atoms: C1_4  and  C9_33 
REMARK    4  A    between atoms: N2_5  and  C2_7 
REMARK    5  A    between atoms: C4_10  and  N3_11 
REMARK    6  A    between atoms: C4_10  and  N7_25 
REMARK       I    between atoms: N3_11  and  C5_13 
REMARK    7  A    between atoms: C5_13  and  C6_15 
REMARK    8  A    between atoms: C11_35  and  C12_36 
REMARK    9  A    between atoms: C15_41  and  O8_42 
ROOT
HETATM    1  C2  UNL     1     -54.308  15.038  17.208  1.00  0.00     0.217 A 
HETATM    2  C3  UNL     1     -53.467  14.705  18.362  1.00  0.00     0.207 A 
HETATM    3  O1  UNL     1     -53.088  13.881  19.178  1.00  0.00    -0.291 OA
HETATM    4  C4  UNL     1     -53.440  16.109  17.776  1.00  0.00     0.225 A 
ENDROOT
BRANCH   4   5
HETATM    5  N3  UNL     1     -52.286  16.537  17.031  1.00  0.00    -0.319 N 
HETATM    6  C5  UNL     1     -52.284  16.781  15.644  1.00  0.00     0.276 C 
HETATM    7  O2  UNL     1     -53.389  16.604  15.048  1.00  0.00    -0.266 OA
ATOM      8  H3  UNL     1     -51.413  16.671  17.540  1.00  0.00     0.166 HD
BRANCH   6   9
HETATM    9  C6  UNL     1     -51.156  17.208  14.850  1.00  0.00     0.169 A 
HETATM   10  N4  UNL     1     -50.203  18.076  15.301  1.00  0.00    -0.233 N 
HETATM   11  O3  UNL     1     -49.331  18.265  14.374  1.00  0.00    -0.155 OA
ATOM     12  H4  UNL     1     -50.186  18.505  16.226  1.00  0.00     0.197 HD
HETATM   13  N5  UNL     1     -49.602  17.600  13.319  1.00  0.00    -0.224 N 
HETATM   14  C7  UNL     1     -50.753  16.914  13.574  1.00  0.00     0.155 A 
ATOM     15  H5  UNL     1     -49.063  17.584  12.454  1.00  0.00     0.198 HD
HETATM   16  N6  UNL     1     -51.363  16.128  12.772  1.00  0.00    -0.382 N 
ATOM     17  H62 UNL     1     -52.225  15.615  12.962  1.00  0.00     0.157 HD
ATOM     18  H61 UNL     1     -51.064  15.909  11.822  1.00  0.00     0.157 HD
ENDBRANCH   6   9
ENDBRANCH   4   5
BRANCH   4  19
HETATM   19  N7  UNL     1     -53.982  17.069  18.719  1.00  0.00    -0.179 N 
HETATM   20  N8  UNL     1     -53.997  17.098  20.034  1.00  0.00    -0.173 N 
HETATM   21  O4  UNL     1     -54.608  18.181  20.443  1.00  0.00    -0.137 OA
ATOM     22  H8  UNL     1     -53.593  16.385  20.641  1.00  0.00     0.219 HD
HETATM   23  N9  UNL     1     -55.003  18.874  19.419  1.00  0.00    -0.188 N 
HETATM   24  C8  UNL     1     -54.619  18.193  18.330  1.00  0.00     0.367 A 
ATOM     25  H9  UNL     1     -55.505  19.761  19.439  1.00  0.00     0.202 HD
HETATM   26  O5  UNL     1     -54.835  18.572  17.148  1.00  0.00    -0.243 OA
ENDBRANCH   4  19
BRANCH   1  27
HETATM   27  N2  UNL     1     -55.724  15.232  17.333  1.00  0.00    -0.360 N 
ATOM     28  H2  UNL     1     -56.129  16.146  17.540  1.00  0.00     0.162 HD
BRANCH  27  29
HETATM   29  C1  UNL     1     -56.544  14.052  17.147  1.00  0.00     0.108 C 
BRANCH  29  30
HETATM   30  N1  UNL     1     -56.260  13.247  16.212  1.00  0.00    -0.385 N 
ATOM     31  H12 UNL     1     -56.274  13.525  15.231  1.00  0.00     0.157 HD
ATOM     32  H11 UNL     1     -56.007  12.286  16.446  1.00  0.00     0.157 HD
ENDBRANCH  29  30
BRANCH  29  33
HETATM   33  C9  UNL     1     -57.674  13.833  18.050  1.00  0.00     0.041 A 
HETATM   34  C10 UNL     1     -58.860  14.499  17.878  1.00  0.00     0.036 A 
HETATM   35  C11 UNL     1     -59.973  14.341  18.698  1.00  0.00     0.041 A 
HETATM   36  C13 UNL     1     -59.842  13.450  19.738  1.00  0.00     0.021 A 
HETATM   37  C14 UNL     1     -58.646  12.766  19.929  1.00  0.00     0.038 A 
HETATM   38  C15 UNL     1     -57.566  12.941  19.106  1.00  0.00     0.079 A 
BRANCH  35  39
HETATM   39  C12 UNL     1     -61.218  15.055  18.498  1.00  0.00     0.209 C 
HETATM   40  O6  UNL     1     -61.593  15.349  17.326  1.00  0.00    -0.644 OA
HETATM   41  O7  UNL     1     -62.038  15.445  19.536  1.00  0.00    -0.644 OA
ENDBRANCH  35  39
BRANCH  38  42
HETATM   42  O8  UNL     1     -56.372  12.258  19.295  1.00  0.00    -0.360 OA
ATOM     43  H8  UNL     1     -56.232  11.787  20.108  1.00  0.00     0.217 HD
ENDBRANCH  38  42
ENDBRANCH  29  33
ENDBRANCH  27  29
ENDBRANCH   1  27
TORSDOF 9
ENDMDL
MODEL 4
REMARK VINA RESULT: -9.978133259      2.263      8.436
REMARK  9 active torsions:
REMARK  status: ('A' for Active; 'I' for Inactive)
REMARK    1  A    between atoms: N1_1  and  C1_4 
REMARK    2  A    between atoms: C1_4  and  N2_5 
REMARK    3  A    between atoms: C1_4  and  C9_33 
REMARK    4  A    between atoms: N2_5  and  C2_7 
REMARK    5  A    between atoms: C4_10  and  N3_11 
REMARK    6  A    between atoms: C4_10  and  N7_25 
REMARK       I    between atoms: N3_11  and  C5_13 
REMARK    7  A    between atoms: C5_13  and  C6_15 
REMARK    8  A    between atoms: C11_35  and  C12_36 
REMARK    9  A    between atoms: C15_41  and  O8_42 
ROOT
HETATM    1  C2  UNL     1     -54.284  15.695  15.602  1.00  0.00     0.217 A 
HETATM    2  C3  UNL     1     -54.778  16.732  16.514  1.00  0.00     0.207 A 
HETATM    3  O1  UNL     1     -55.057  17.902  16.717  1.00  0.00    -0.291 OA
HETATM    4  C4  UNL     1     -54.676  15.287  16.981  1.00  0.00     0.225 A 
ENDROOT
BRANCH   4   5
HETATM    5  N3  UNL     1     -55.880  14.522  17.164  1.00  0.00    -0.319 N 
HETATM    6  C5  UNL     1     -56.676  14.563  18.325  1.00  0.00     0.276 C 
HETATM    7  O2  UNL     1     -56.275  15.336  19.246  1.00  0.00    -0.266 OA
ATOM      8  H3  UNL     1     -56.177  13.911  16.404  1.00  0.00     0.166 HD
BRANCH   6   9
HETATM    9  C6  UNL     1     -57.890  13.817  18.560  1.00  0.00     0.169 A 
HETATM   10  N4  UNL     1     -57.981  12.791  19.457  1.00  0.00    -0.233 N 
HETATM   11  O3  UNL     1     -59.180  12.324  19.445  1.00  0.00    -0.155 OA
ATOM     12  H4  UNL     1     -57.220  12.450  20.043  1.00  0.00     0.197 HD
HETATM   13  N5  UNL     1     -59.926  12.942  18.613  1.00  0.00    -0.224 N 
HETATM   14  C7  UNL     1     -59.149  13.898  18.027  1.00  0.00     0.155 A 
ATOM     15  H5  UNL     1     -60.910  12.757  18.424  1.00  0.00     0.198 HD
HETATM   16  N6  UNL     1     -59.518  14.735  17.134  1.00  0.00    -0.382 N 
ATOM     17  H62 UNL     1     -58.937  15.450  16.695  1.00  0.00     0.157 HD
ATOM     18  H61 UNL     1     -60.455  14.796  16.737  1.00  0.00     0.157 HD
ENDBRANCH   6   9
ENDBRANCH   4   5
BRANCH   4  19
HETATM   19  N7  UNL     1     -53.672  15.154  18.021  1.00  0.00    -0.179 N 
HETATM   20  N8  UNL     1     -52.994  16.046  18.708  1.00  0.00    -0.173 N 
HETATM   21  O4  UNL     1     -52.192  15.440  19.546  1.00  0.00    -0.137 OA
ATOM     22  H8  UNL     1     -53.080  17.057  18.604  1.00  0.00     0.219 HD
HETATM   23  N9  UNL     1     -52.325  14.153  19.426  1.00  0.00    -0.188 N 
HETATM   24  C8  UNL     1     -53.248  13.955  18.475  1.00  0.00     0.367 A 
ATOM     25  H9  UNL     1     -51.827  13.436  19.952  1.00  0.00     0.202 HD
HETATM   26  O5  UNL     1     -53.635  12.820  18.092  1.00  0.00    -0.243 OA
ENDBRANCH   4  19
BRANCH   1  27
HETATM   27  N2  UNL     1     -52.892  15.576  15.274  1.00  0.00    -0.360 N 
ATOM     28  H2  UNL     1     -52.449  14.671  15.114  1.00  0.00     0.162 HD
BRANCH  27  29
HETATM   29  C1  UNL     1     -52.153  16.820  15.184  1.00  0.00     0.108 C 
BRANCH  29  30
HETATM   30  N1  UNL     1     -52.738  17.850  14.736  1.00  0.00    -0.385 N 
ATOM     31  H12 UNL     1     -53.491  18.314  15.244  1.00  0.00     0.157 HD
ATOM     32  H11 UNL     1     -52.446  18.232  13.836  1.00  0.00     0.157 HD
ENDBRANCH  29  30
BRANCH  29  33
HETATM   33  C9  UNL     1     -50.756  16.839  15.615  1.00  0.00     0.041 A 
HETATM   34  C10 UNL     1     -50.366  16.241  16.785  1.00  0.00     0.036 A 
HETATM   35  C11 UNL     1     -49.056  16.222  17.255  1.00  0.00     0.041 A 
HETATM   36  C13 UNL     1     -48.117  16.851  16.470  1.00  0.00     0.021 A 
HETATM   37  C14 UNL     1     -48.495  17.463  15.280  1.00  0.00     0.038 A 
HETATM   38  C15 UNL     1     -49.792  17.466  14.841  1.00  0.00     0.079 A 
BRANCH  35  39
HETATM   39  C12 UNL     1     -48.664  15.584  18.497  1.00  0.00     0.209 C 
HETATM   40  O6  UNL     1     -49.142  14.453  18.800  1.00  0.00    -0.644 OA
HETATM   41  O7  UNL     1     -47.780  16.152  19.389  1.00  0.00    -0.644 OA
ENDBRANCH  35  39
BRANCH  38  42
HETATM   42  O8  UNL     1     -50.170  18.076  13.653  1.00  0.00    -0.360 OA
ATOM     43  H8  UNL     1     -50.112  19.022  13.579  1.00  0.00     0.217 HD
ENDBRANCH  38  42
ENDBRANCH  29  33
ENDBRANCH  27  29
ENDBRANCH   1  27
TORSDOF 9
ENDMDL
MODEL 5
REMARK VINA RESULT: -9.960588973      1.649      2.399
REMARK  9 active torsions:
REMARK  status: ('A' for Active; 'I' for Inactive)
REMARK    1  A    between atoms: N1_1  and  C1_4 
REMARK    2  A    between atoms: C1_4  and  N2_5 
REMARK    3  A    between atoms: C1_4  and  C9_33 
REMARK    4  A    between atoms: N2_5  and  C2_7 
REMARK    5  A    between atoms: C4_10  and  N3_11 
REMARK    6  A    between atoms: C4_10  and  N7_25 
REMARK       I    between atoms: N3_11  and  C5_13 
REMARK    7  A    between atoms: C5_13  and  C6_15 
REMARK    8  A    between atoms: C11_35  and  C12_36 
REMARK    9  A    between atoms: C15_41  and  O8_42 
ROOT
HETATM    1  C2  UNL     1     -54.110  14.367  17.965  1.00  0.00     0.217 A 
HETATM    2  C3  UNL     1     -52.854  14.651  18.667  1.00  0.00     0.207 A 
HETATM    3  O1  UNL     1     -51.991  14.296  19.452  1.00  0.00    -0.291 OA
HETATM    4  C4  UNL     1     -53.441  15.673  17.705  1.00  0.00     0.225 A 
ENDROOT
BRANCH   4   5
HETATM    5  N3  UNL     1     -52.802  15.886  16.433  1.00  0.00    -0.319 N 
HETATM    6  C5  UNL     1     -51.432  16.168  16.272  1.00  0.00     0.276 C 
HETATM    7  O2  UNL     1     -50.749  16.229  17.338  1.00  0.00    -0.266 OA
ATOM      8  H3  UNL     1     -53.379  15.828  15.594  1.00  0.00     0.166 HD
BRANCH   6   9
HETATM    9  C6  UNL     1     -50.743  16.391  15.023  1.00  0.00     0.169 A 
HETATM   10  N4  UNL     1     -51.294  17.061  13.968  1.00  0.00    -0.233 N 
HETATM   11  O3  UNL     1     -50.445  17.099  13.002  1.00  0.00    -0.155 OA
ATOM     12  H4  UNL     1     -52.230  17.466  13.950  1.00  0.00     0.197 HD
HETATM   13  N5  UNL     1     -49.353  16.512  13.301  1.00  0.00    -0.224 N 
HETATM   14  C7  UNL     1     -49.496  16.045  14.575  1.00  0.00     0.155 A 
ATOM     15  H5  UNL     1     -48.532  16.411  12.704  1.00  0.00     0.198 HD
HETATM   16  N6  UNL     1     -48.625  15.396  15.249  1.00  0.00    -0.382 N 
ATOM     17  H62 UNL     1     -48.732  15.047  16.202  1.00  0.00     0.157 HD
ATOM     18  H61 UNL     1     -47.696  15.138  14.916  1.00  0.00     0.157 HD
ENDBRANCH   6   9
ENDBRANCH   4   5
BRANCH   4  19
HETATM   19  N7  UNL     1     -53.858  16.867  18.416  1.00  0.00    -0.179 N 
HETATM   20  N8  UNL     1     -53.750  17.222  19.677  1.00  0.00    -0.173 N 
HETATM   21  O4  UNL     1     -54.282  18.406  19.848  1.00  0.00    -0.137 OA
ATOM     22  H8  UNL     1     -53.318  16.660  20.411  1.00  0.00     0.219 HD
HETATM   23  N9  UNL     1     -54.745  18.845  18.718  1.00  0.00    -0.188 N 
HETATM   24  C8  UNL     1     -54.488  17.894  17.808  1.00  0.00     0.367 A 
ATOM     25  H9  UNL     1     -55.211  19.737  18.553  1.00  0.00     0.202 HD
HETATM   26  O5  UNL     1     -54.798  17.980  16.590  1.00  0.00    -0.243 OA
ENDBRANCH   4  19
BRANCH   1  27
HETATM   27  N2  UNL     1     -55.380  14.424  18.631  1.00  0.00    -0.360 N 
ATOM     28  H2  UNL     1     -55.457  14.565  19.639  1.00  0.00     0.162 HD
BRANCH  27  29
HETATM   29  C1  UNL     1     -56.547  14.268  17.786  1.00  0.00     0.108 C 
BRANCH  29  30
HETATM   30  N1  UNL     1     -56.438  14.486  16.542  1.00  0.00    -0.385 N 
ATOM     31  H12 UNL     1     -55.703  14.061  15.977  1.00  0.00     0.157 HD
ATOM     32  H11 UNL     1     -57.108  15.108  16.089  1.00  0.00     0.157 HD
ENDBRANCH  29  30
BRANCH  29  33
HETATM   33  C9  UNL     1     -57.811  13.864  18.401  1.00  0.00     0.041 A 
HETATM   34  C10 UNL     1     -58.956  14.592  18.211  1.00  0.00     0.036 A 
HETATM   35  C11 UNL     1     -60.191  14.267  18.766  1.00  0.00     0.041 A 
HETATM   36  C13 UNL     1     -60.229  13.135  19.547  1.00  0.00     0.021 A 
HETATM   37  C14 UNL     1     -59.075  12.384  19.751  1.00  0.00     0.038 A 
HETATM   38  C15 UNL     1     -57.873  12.728  19.192  1.00  0.00     0.079 A 
BRANCH  35  39
HETATM   39  C12 UNL     1     -61.392  15.051  18.554  1.00  0.00     0.209 C 
HETATM   40  O6  UNL     1     -61.695  15.431  17.386  1.00  0.00    -0.644 OA
HETATM   41  O7  UNL     1     -62.243  15.416  19.574  1.00  0.00    -0.644 OA
ENDBRANCH  35  39
BRANCH  38  42
HETATM   42  O8  UNL     1     -56.723  11.979  19.394  1.00  0.00    -0.360 OA
ATOM     43  H8  UNL     1     -56.786  11.031  19.426  1.00  0.00     0.217 HD
ENDBRANCH  38  42
ENDBRANCH  29  33
ENDBRANCH  27  29
ENDBRANCH   1  27
TORSDOF 9
ENDMDL
