MODEL 1
REMARK VINA RESULT: -8.973969744      0.000      0.000
REMARK  9 active torsions:
REMARK  status: ('A' for Active; 'I' for Inactive)
REMARK    1  A    between atoms: C3_6  and  C4_7 
REMARK    2  A    between atoms: C5_8  and  O2_9 
REMARK    3  A    between atoms: C6_13  and  N3_14 
REMARK    4  A    between atoms: C7_19  and  C8_20 
REMARK       I    between atoms: C8_20  and  N5_22 
REMARK    5  A    between atoms: N5_22  and  N6_23 
REMARK    6  A    between atoms: N5_22  and  N9_30 
REMARK    7  A    between atoms: N6_23  and  N7_25 
REMARK    8  A    between atoms: N7_25  and  N8_27 
REMARK    9  A    between atoms: C10_32  and  C11_33 
ROOT
HETATM    1  C8  UNL     1     -50.242  16.419  16.000  1.00  0.00     0.291 C 
HETATM    2  O3  UNL     1     -50.462  15.252  15.684  1.00  0.00    -0.269 OA
HETATM    3  N5  UNL     1     -51.464  17.182  16.184  1.00  0.00    -0.025 NA
ENDROOT
BRANCH   1   4
HETATM    4  C7  UNL     1     -48.955  17.048  16.191  1.00  0.00     0.133 A 
HETATM    5  C4  UNL     1     -48.015  16.555  17.040  1.00  0.00     0.101 A 
HETATM    6  C5  UNL     1     -46.767  17.222  17.063  1.00  0.00     0.172 A 
HETATM    7  N2  UNL     1     -46.532  18.289  16.282  1.00  0.00    -0.170 N 
HETATM    8  C6  UNL     1     -47.478  18.761  15.451  1.00  0.00     0.678 A 
ATOM      9  H2  UNL     1     -45.623  18.749  16.320  1.00  0.00     0.186 HD
HETATM   10  N4  UNL     1     -48.666  18.159  15.401  1.00  0.00    -0.186 N 
ATOM     11  H4  UNL     1     -49.381  18.520  14.769  1.00  0.00     0.184 HD
BRANCH   5  12
HETATM   12  C3  UNL     1     -48.208  15.430  17.938  1.00  0.00     0.188 A 
HETATM   13  O1  UNL     1     -49.097  15.144  18.811  1.00  0.00    -0.217 OA
HETATM   14  N1  UNL     1     -48.909  14.020  19.413  1.00  0.00    -0.247 N 
HETATM   15  C2  UNL     1     -47.769  13.463  18.909  1.00  0.00     0.100 A 
ATOM     16  H1  UNL     1     -49.505  13.619  20.137  1.00  0.00     0.196 HD
HETATM   17  C1  UNL     1     -47.165  12.166  19.307  1.00  0.00     0.091 C 
HETATM   18  N13 UNL     1     -47.353  14.350  17.999  1.00  0.00    -0.323 N 
ATOM     19  H13 UNL     1     -46.516  14.243  17.427  1.00  0.00     0.169 HD
ENDBRANCH   5  12
BRANCH   6  20
HETATM   20  O2  UNL     1     -45.806  16.719  17.927  1.00  0.00    -0.345 OA
ATOM     21  H2  UNL     1     -45.054  16.296  17.530  1.00  0.00     0.219 HD
ENDBRANCH   6  20
BRANCH   8  22
HETATM   22  N3  UNL     1     -47.226  19.785  14.716  1.00  0.00    -0.234 N 
ATOM     23  H32 UNL     1     -46.519  20.467  14.993  1.00  0.00     0.174 HD
ATOM     24  H31 UNL     1     -47.738  19.919  13.844  1.00  0.00     0.174 HD
ENDBRANCH   8  22
ENDBRANCH   1   4
BRANCH   3  25
HETATM   25  N6  UNL     1     -52.087  17.353  14.926  1.00  0.00    -0.221 N 
ATOM     26  H6  UNL     1     -53.031  17.737  14.900  1.00  0.00     0.206 HD
BRANCH  25  27
HETATM   27  N7  UNL     1     -51.471  17.021  13.716  1.00  0.00    -0.237 N 
ATOM     28  H7  UNL     1     -50.746  17.643  13.356  1.00  0.00     0.209 HD
BRANCH  27  29
HETATM   29  N8  UNL     1     -51.765  15.987  13.042  1.00  0.00    -0.330 N 
ATOM     30  H82 UNL     1     -51.780  15.095  13.537  1.00  0.00     0.178 HD
ATOM     31  H81 UNL     1     -51.983  16.008  12.046  1.00  0.00     0.178 HD
ENDBRANCH  27  29
ENDBRANCH  25  27
ENDBRANCH   3  25
BRANCH   3  32
HETATM   32  N9  UNL     1     -52.356  16.426  16.953  1.00  0.00    -0.200 N 
HETATM   33  C9  UNL     1     -53.652  16.231  16.657  1.00  0.00     0.150 A 
HETATM   34  C10 UNL     1     -54.218  15.432  17.649  1.00  0.00     0.052 A 
HETATM   35  C13 UNL     1     -53.205  15.169  18.530  1.00  0.00     0.126 A 
HETATM   36  N12 UNL     1     -52.104  15.788  18.070  1.00  0.00    -0.292 N 
ATOM     37  H12 UNL     1     -51.194  15.764  18.529  1.00  0.00     0.187 HD
BRANCH  34  38
HETATM   38  C11 UNL     1     -55.592  14.965  17.744  1.00  0.00     0.178 A 
HETATM   39  N10 UNL     1     -56.294  14.396  16.758  1.00  0.00    -0.276 N 
HETATM   40  N11 UNL     1     -57.516  14.098  17.214  1.00  0.00    -0.268 N 
ATOM     41  H10 UNL     1     -55.953  14.217  15.814  1.00  0.00     0.189 HD
HETATM   42  C12 UNL     1     -57.559  14.492  18.493  1.00  0.00     0.235 A 
ATOM     43  H11 UNL     1     -58.270  13.655  16.688  1.00  0.00     0.190 HD
HETATM   44  S1  UNL     1     -58.839  14.344  19.483  1.00  0.00    -0.031 SA
HETATM   45  O4  UNL     1     -56.384  15.012  18.790  1.00  0.00    -0.264 OA
ENDBRANCH  34  38
ENDBRANCH   3  32
TORSDOF 9
ENDMDL
MODEL 2
REMARK VINA RESULT: -8.391200865      3.520      7.249
REMARK  9 active torsions:
REMARK  status: ('A' for Active; 'I' for Inactive)
REMARK    1  A    between atoms: C3_6  and  C4_7 
REMARK    2  A    between atoms: C5_8  and  O2_9 
REMARK    3  A    between atoms: C6_13  and  N3_14 
REMARK    4  A    between atoms: C7_19  and  C8_20 
REMARK       I    between atoms: C8_20  and  N5_22 
REMARK    5  A    between atoms: N5_22  and  N6_23 
REMARK    6  A    between atoms: N5_22  and  N9_30 
REMARK    7  A    between atoms: N6_23  and  N7_25 
REMARK    8  A    between atoms: N7_25  and  N8_27 
REMARK    9  A    between atoms: C10_32  and  C11_33 
ROOT
HETATM    1  C8  UNL     1     -49.787  15.719  17.595  1.00  0.00     0.291 C 
HETATM    2  O3  UNL     1     -50.322  15.156  18.547  1.00  0.00    -0.269 OA
HETATM    3  N5  UNL     1     -48.338  15.729  17.703  1.00  0.00    -0.025 NA
ENDROOT
BRANCH   1   4
HETATM    4  C7  UNL     1     -50.435  16.328  16.457  1.00  0.00     0.133 A 
HETATM    5  C4  UNL     1     -51.769  16.590  16.424  1.00  0.00     0.101 A 
HETATM    6  C5  UNL     1     -52.255  17.270  15.282  1.00  0.00     0.172 A 
HETATM    7  N2  UNL     1     -51.433  17.633  14.284  1.00  0.00    -0.170 N 
HETATM    8  C6  UNL     1     -50.118  17.362  14.337  1.00  0.00     0.678 A 
ATOM      9  H2  UNL     1     -51.813  18.122  13.473  1.00  0.00     0.186 HD
HETATM   10  N4  UNL     1     -49.622  16.724  15.397  1.00  0.00    -0.186 N 
ATOM     11  H4  UNL     1     -48.623  16.519  15.433  1.00  0.00     0.184 HD
BRANCH   5  12
HETATM   12  C3  UNL     1     -52.722  16.198  17.447  1.00  0.00     0.188 A 
HETATM   13  O1  UNL     1     -52.945  16.599  18.641  1.00  0.00    -0.217 OA
HETATM   14  N1  UNL     1     -53.907  15.981  19.238  1.00  0.00    -0.247 N 
HETATM   15  C2  UNL     1     -54.407  15.053  18.370  1.00  0.00     0.100 A 
ATOM     16  H1  UNL     1     -54.235  16.156  20.188  1.00  0.00     0.196 HD
HETATM   17  C1  UNL     1     -55.525  14.110  18.630  1.00  0.00     0.091 C 
HETATM   18  N13 UNL     1     -53.661  15.205  17.271  1.00  0.00    -0.323 N 
ATOM     19  H13 UNL     1     -53.772  14.658  16.417  1.00  0.00     0.169 HD
ENDBRANCH   5  12
BRANCH   6  20
HETATM   20  O2  UNL     1     -53.615  17.540  15.249  1.00  0.00    -0.345 OA
ATOM     21  H2  UNL     1     -53.909  18.179  14.610  1.00  0.00     0.219 HD
ENDBRANCH   6  20
BRANCH   8  22
HETATM   22  N3  UNL     1     -49.355  17.720  13.366  1.00  0.00    -0.234 N 
ATOM     23  H32 UNL     1     -49.310  17.173  12.505  1.00  0.00     0.174 HD
ATOM     24  H31 UNL     1     -48.787  18.562  13.455  1.00  0.00     0.174 HD
ENDBRANCH   8  22
ENDBRANCH   1   4
BRANCH   3  25
HETATM   25  N6  UNL     1     -47.966  16.581  18.768  1.00  0.00    -0.221 N 
ATOM     26  H6  UNL     1     -48.613  16.693  19.549  1.00  0.00     0.206 HD
BRANCH  25  27
HETATM   27  N7  UNL     1     -46.755  17.278  18.803  1.00  0.00    -0.237 N 
ATOM     28  H7  UNL     1     -46.675  18.077  19.432  1.00  0.00     0.209 HD
BRANCH  27  29
HETATM   29  N8  UNL     1     -45.749  16.968  18.092  1.00  0.00    -0.330 N 
ATOM     30  H82 UNL     1     -45.098  16.284  18.478  1.00  0.00     0.178 HD
ATOM     31  H81 UNL     1     -45.569  17.365  17.171  1.00  0.00     0.178 HD
ENDBRANCH  27  29
ENDBRANCH  25  27
ENDBRANCH   3  25
BRANCH   3  32
HETATM   32  N9  UNL     1     -47.905  14.449  18.067  1.00  0.00    -0.200 N 
HETATM   33  C9  UNL     1     -47.600  14.068  19.320  1.00  0.00     0.150 A 
HETATM   34  C10 UNL     1     -47.208  12.731  19.294  1.00  0.00     0.052 A 
HETATM   35  C13 UNL     1     -47.296  12.349  17.984  1.00  0.00     0.126 A 
HETATM   36  N12 UNL     1     -47.720  13.415  17.283  1.00  0.00    -0.292 N 
ATOM     37  H12 UNL     1     -47.876  13.419  16.275  1.00  0.00     0.187 HD
BRANCH  34  38
HETATM   38  C11 UNL     1     -46.790  11.901  20.413  1.00  0.00     0.178 A 
HETATM   39  N10 UNL     1     -46.959  10.577  20.509  1.00  0.00    -0.276 N 
HETATM   40  N11 UNL     1     -46.449  10.161  21.674  1.00  0.00    -0.268 N 
ATOM     41  H10 UNL     1     -47.402   9.983  19.809  1.00  0.00     0.189 HD
HETATM   42  C12 UNL     1     -45.966  11.244  22.295  1.00  0.00     0.235 A 
ATOM     43  H11 UNL     1     -46.433   9.202  22.022  1.00  0.00     0.190 HD
HETATM   44  S1  UNL     1     -45.244  11.253  23.750  1.00  0.00    -0.031 SA
HETATM   45  O4  UNL     1     -46.183  12.284  21.512  1.00  0.00    -0.264 OA
ENDBRANCH  34  38
ENDBRANCH   3  32
TORSDOF 9
ENDMDL
MODEL 3
REMARK VINA RESULT: -7.832991665      3.775      7.573
REMARK  9 active torsions:
REMARK  status: ('A' for Active; 'I' for Inactive)
REMARK    1  A    between atoms: C3_6  and  C4_7 
REMARK    2  A    between atoms: C5_8  and  O2_9 
REMARK    3  A    between atoms: C6_13  and  N3_14 
REMARK    4  A    between atoms: C7_19  and  C8_20 
REMARK       I    between atoms: C8_20  and  N5_22 
REMARK    5  A    between atoms: N5_22  and  N6_23 
REMARK    6  A    between atoms: N5_22  and  N9_30 
REMARK    7  A    between atoms: N6_23  and  N7_25 
REMARK    8  A    between atoms: N7_25  and  N8_27 
REMARK    9  A    between atoms: C10_32  and  C11_33 
ROOT
HETATM    1  C8  UNL     1     -49.438  15.943  17.556  1.00  0.00     0.291 C 
HETATM    2  O3  UNL     1     -49.909  16.036  18.687  1.00  0.00    -0.269 OA
HETATM    3  N5  UNL     1     -47.998  15.752  17.571  1.00  0.00    -0.025 NA
ENDROOT
BRANCH   1   4
HETATM    4  C7  UNL     1     -50.150  16.003  16.301  1.00  0.00     0.133 A 
HETATM    5  C4  UNL     1     -51.500  16.150  16.228  1.00  0.00     0.101 A 
HETATM    6  C5  UNL     1     -52.055  16.283  14.933  1.00  0.00     0.172 A 
HETATM    7  N2  UNL     1     -51.281  16.261  13.836  1.00  0.00    -0.170 N 
HETATM    8  C6  UNL     1     -49.949  16.113  13.932  1.00  0.00     0.678 A 
ATOM      9  H2  UNL     1     -51.710  16.359  12.916  1.00  0.00     0.186 HD
HETATM   10  N4  UNL     1     -49.387  15.986  15.135  1.00  0.00    -0.186 N 
ATOM     11  H4  UNL     1     -48.376  15.873  15.203  1.00  0.00     0.184 HD
BRANCH   5  12
HETATM   12  C3  UNL     1     -52.403  16.147  17.365  1.00  0.00     0.188 A 
HETATM   13  O1  UNL     1     -52.758  15.249  18.203  1.00  0.00    -0.217 OA
HETATM   14  N1  UNL     1     -53.601  15.653  19.090  1.00  0.00    -0.247 N 
HETATM   15  C2  UNL     1     -53.863  16.971  18.845  1.00  0.00     0.100 A 
ATOM     16  H1  UNL     1     -54.002  15.089  19.840  1.00  0.00     0.196 HD
HETATM   17  C1  UNL     1     -54.778  17.850  19.616  1.00  0.00     0.091 C 
HETATM   18  N13 UNL     1     -53.112  17.255  17.776  1.00  0.00    -0.323 N 
ATOM     19  H13 UNL     1     -53.069  18.169  17.326  1.00  0.00     0.169 HD
ENDBRANCH   5  12
BRANCH   6  20
HETATM   20  O2  UNL     1     -53.432  16.435  14.858  1.00  0.00    -0.345 OA
ATOM     21  H2  UNL     1     -53.861  16.818  15.613  1.00  0.00     0.219 HD
ENDBRANCH   6  20
BRANCH   8  22
HETATM   22  N3  UNL     1     -49.232  16.095  12.864  1.00  0.00    -0.234 N 
ATOM     23  H32 UNL     1     -48.421  16.708  12.768  1.00  0.00     0.174 HD
ATOM     24  H31 UNL     1     -49.474  15.461  12.104  1.00  0.00     0.174 HD
ENDBRANCH   8  22
ENDBRANCH   1   4
BRANCH   3  25
HETATM   25  N6  UNL     1     -47.385  16.943  18.025  1.00  0.00    -0.221 N 
ATOM     26  H6  UNL     1     -47.515  17.216  18.999  1.00  0.00     0.206 HD
BRANCH  25  27
HETATM   27  N7  UNL     1     -46.609  17.764  17.202  1.00  0.00    -0.237 N 
ATOM     28  H7  UNL     1     -45.632  17.916  17.454  1.00  0.00     0.209 HD
BRANCH  27  29
HETATM   29  N8  UNL     1     -47.057  18.332  16.158  1.00  0.00    -0.330 N 
ATOM     30  H82 UNL     1     -47.167  19.346  16.188  1.00  0.00     0.178 HD
ATOM     31  H81 UNL     1     -47.308  17.827  15.308  1.00  0.00     0.178 HD
ENDBRANCH  27  29
ENDBRANCH  25  27
ENDBRANCH   3  25
BRANCH   3  32
HETATM   32  N9  UNL     1     -47.683  14.774  18.522  1.00  0.00    -0.200 N 
HETATM   33  C9  UNL     1     -46.867  14.958  19.574  1.00  0.00     0.150 A 
HETATM   34  C10 UNL     1     -46.793  13.766  20.292  1.00  0.00     0.052 A 
HETATM   35  C13 UNL     1     -47.596  12.884  19.621  1.00  0.00     0.126 A 
HETATM   36  N12 UNL     1     -48.110  13.535  18.563  1.00  0.00    -0.292 N 
ATOM     37  H12 UNL     1     -48.747  13.120  17.883  1.00  0.00     0.187 HD
BRANCH  34  38
HETATM   38  C11 UNL     1     -46.032  13.497  21.501  1.00  0.00     0.178 A 
HETATM   39  N10 UNL     1     -45.816  12.290  22.037  1.00  0.00    -0.276 N 
HETATM   40  N11 UNL     1     -45.075  12.435  23.142  1.00  0.00    -0.268 N 
ATOM     41  H10 UNL     1     -46.159  11.406  21.664  1.00  0.00     0.189 HD
HETATM   42  C12 UNL     1     -44.838  13.745  23.281  1.00  0.00     0.235 A 
ATOM     43  H11 UNL     1     -44.753  11.689  23.759  1.00  0.00     0.190 HD
HETATM   44  S1  UNL     1     -43.977  14.425  24.479  1.00  0.00    -0.031 SA
HETATM   45  O4  UNL     1     -45.426  14.366  22.276  1.00  0.00    -0.264 OA
ENDBRANCH  34  38
ENDBRANCH   3  32
TORSDOF 9
ENDMDL
MODEL 4
REMARK VINA RESULT: -7.762837373      1.933      3.594
REMARK  9 active torsions:
REMARK  status: ('A' for Active; 'I' for Inactive)
REMARK    1  A    between atoms: C3_6  and  C4_7 
REMARK    2  A    between atoms: C5_8  and  O2_9 
REMARK    3  A    between atoms: C6_13  and  N3_14 
REMARK    4  A    between atoms: C7_19  and  C8_20 
REMARK       I    between atoms: C8_20  and  N5_22 
REMARK    5  A    between atoms: N5_22  and  N6_23 
REMARK    6  A    between atoms: N5_22  and  N9_30 
REMARK    7  A    between atoms: N6_23  and  N7_25 
REMARK    8  A    between atoms: N7_25  and  N8_27 
REMARK    9  A    between atoms: C10_32  and  C11_33 
ROOT
HETATM    1  C8  UNL     1     -51.622  16.641  16.440  1.00  0.00     0.291 C 
HETATM    2  O3  UNL     1     -52.003  17.730  16.862  1.00  0.00    -0.269 OA
HETATM    3  N5  UNL     1     -51.771  15.584  17.426  1.00  0.00    -0.025 NA
ENDROOT
BRANCH   1   4
HETATM    4  C7  UNL     1     -51.078  16.347  15.135  1.00  0.00     0.133 A 
HETATM    5  C4  UNL     1     -49.808  15.896  14.952  1.00  0.00     0.101 A 
HETATM    6  C5  UNL     1     -49.436  15.564  13.627  1.00  0.00     0.172 A 
HETATM    7  N2  UNL     1     -50.300  15.694  12.607  1.00  0.00    -0.170 N 
HETATM    8  C6  UNL     1     -51.549  16.145  12.811  1.00  0.00     0.678 A 
ATOM      9  H2  UNL     1     -50.003  15.447  11.663  1.00  0.00     0.186 HD
HETATM   10  N4  UNL     1     -51.938  16.466  14.045  1.00  0.00    -0.186 N 
ATOM     11  H4  UNL     1     -52.887  16.808  14.195  1.00  0.00     0.184 HD
BRANCH   5  12
HETATM   12  C3  UNL     1     -48.811  15.763  15.998  1.00  0.00     0.188 A 
HETATM   13  O1  UNL     1     -48.437  14.790  16.739  1.00  0.00    -0.217 OA
HETATM   14  N1  UNL     1     -47.494  15.083  17.568  1.00  0.00    -0.247 N 
HETATM   15  C2  UNL     1     -47.177  16.399  17.387  1.00  0.00     0.100 A 
ATOM     16  H1  UNL     1     -47.063  14.447  18.238  1.00  0.00     0.196 HD
HETATM   17  C1  UNL     1     -46.144  17.170  18.125  1.00  0.00     0.091 C 
HETATM   18  N13 UNL     1     -48.001  16.798  16.414  1.00  0.00    -0.323 N 
ATOM     19  H13 UNL     1     -48.028  17.743  16.029  1.00  0.00     0.169 HD
ENDBRANCH   5  12
BRANCH   6  20
HETATM   20  O2  UNL     1     -48.142  15.101  13.440  1.00  0.00    -0.345 OA
ATOM     21  H2  UNL     1     -47.488  15.401  14.059  1.00  0.00     0.219 HD
ENDBRANCH   6  20
BRANCH   8  22
HETATM   22  N3  UNL     1     -52.355  16.260  11.815  1.00  0.00    -0.234 N 
ATOM     23  H32 UNL     1     -52.235  15.691  10.976  1.00  0.00     0.174 HD
ATOM     24  H31 UNL     1     -53.124  16.927  11.862  1.00  0.00     0.174 HD
ENDBRANCH   8  22
ENDBRANCH   1   4
BRANCH   3  25
HETATM   25  N6  UNL     1     -50.849  15.808  18.475  1.00  0.00    -0.221 N 
ATOM     26  H6  UNL     1     -50.425  16.731  18.560  1.00  0.00     0.206 HD
BRANCH  25  27
HETATM   27  N7  UNL     1     -50.493  14.824  19.402  1.00  0.00    -0.237 N 
ATOM     28  H7  UNL     1     -51.220  14.447  20.010  1.00  0.00     0.209 HD
BRANCH  27  29
HETATM   29  N8  UNL     1     -49.312  14.374  19.526  1.00  0.00    -0.330 N 
ATOM     30  H82 UNL     1     -48.910  13.892  18.722  1.00  0.00     0.178 HD
ATOM     31  H81 UNL     1     -48.760  14.473  20.377  1.00  0.00     0.178 HD
ENDBRANCH  27  29
ENDBRANCH  25  27
ENDBRANCH   3  25
BRANCH   3  32
HETATM   32  N9  UNL     1     -53.041  15.683  18.004  1.00  0.00    -0.200 N 
HETATM   33  C9  UNL     1     -54.076  14.869  17.731  1.00  0.00     0.150 A 
HETATM   34  C10 UNL     1     -55.171  15.274  18.492  1.00  0.00     0.052 A 
HETATM   35  C13 UNL     1     -54.737  16.350  19.215  1.00  0.00     0.126 A 
HETATM   36  N12 UNL     1     -53.450  16.559  18.889  1.00  0.00    -0.292 N 
ATOM     37  H12 UNL     1     -52.868  17.302  19.278  1.00  0.00     0.187 HD
BRANCH  34  38
HETATM   38  C11 UNL     1     -56.501  14.688  18.524  1.00  0.00     0.178 A 
HETATM   39  N10 UNL     1     -56.896  13.608  17.840  1.00  0.00    -0.276 N 
HETATM   40  N11 UNL     1     -58.182  13.366  18.121  1.00  0.00    -0.268 N 
ATOM     41  H10 UNL     1     -56.314  13.060  17.209  1.00  0.00     0.189 HD
HETATM   42  C12 UNL     1     -58.575  14.310  18.986  1.00  0.00     0.235 A 
ATOM     43  H11 UNL     1     -58.753  12.607  17.748  1.00  0.00     0.190 HD
HETATM   44  S1  UNL     1     -60.062  14.442  19.626  1.00  0.00    -0.031 SA
HETATM   45  O4  UNL     1     -57.540  15.097  19.214  1.00  0.00    -0.264 OA
ENDBRANCH  34  38
ENDBRANCH   3  32
TORSDOF 9
ENDMDL
MODEL 5
REMARK VINA RESULT: -7.529092249      3.771      7.826
REMARK  9 active torsions:
REMARK  status: ('A' for Active; 'I' for Inactive)
REMARK    1  A    between atoms: C3_6  and  C4_7 
REMARK    2  A    between atoms: C5_8  and  O2_9 
REMARK    3  A    between atoms: C6_13  and  N3_14 
REMARK    4  A    between atoms: C7_19  and  C8_20 
REMARK       I    between atoms: C8_20  and  N5_22 
REMARK    5  A    between atoms: N5_22  and  N6_23 
REMARK    6  A    between atoms: N5_22  and  N9_30 
REMARK    7  A    between atoms: N6_23  and  N7_25 
REMARK    8  A    between atoms: N7_25  and  N8_27 
REMARK    9  A    between atoms: C10_32  and  C11_33 
ROOT
HETATM    1  C8  UNL     1     -49.381  15.602  18.296  1.00  0.00     0.291 C 
HETATM    2  O3  UNL     1     -48.841  16.157  19.250  1.00  0.00    -0.269 OA
HETATM    3  N5  UNL     1     -48.528  14.596  17.687  1.00  0.00    -0.025 NA
ENDROOT
BRANCH   1   4
HETATM    4  C7  UNL     1     -50.702  15.851  17.769  1.00  0.00     0.133 A 
HETATM    5  C4  UNL     1     -50.914  16.430  16.557  1.00  0.00     0.101 A 
HETATM    6  C5  UNL     1     -52.258  16.533  16.128  1.00  0.00     0.172 A 
HETATM    7  N2  UNL     1     -53.270  16.079  16.887  1.00  0.00    -0.170 N 
HETATM    8  C6  UNL     1     -53.037  15.512  18.082  1.00  0.00     0.678 A 
ATOM      9  H2  UNL     1     -54.229  16.167  16.550  1.00  0.00     0.186 HD
HETATM   10  N4  UNL     1     -51.784  15.396  18.522  1.00  0.00    -0.186 N 
ATOM     11  H4  UNL     1     -51.612  14.965  19.430  1.00  0.00     0.184 HD
BRANCH   5  12
HETATM   12  C3  UNL     1     -49.876  16.974  15.699  1.00  0.00     0.188 A 
HETATM   13  O1  UNL     1     -49.478  16.695  14.517  1.00  0.00    -0.217 OA
HETATM   14  N1  UNL     1     -48.504  17.428  14.097  1.00  0.00    -0.247 N 
HETATM   15  C2  UNL     1     -48.189  18.310  15.091  1.00  0.00     0.100 A 
ATOM     16  H1  UNL     1     -48.050  17.361  13.187  1.00  0.00     0.196 HD
HETATM   17  C1  UNL     1     -47.127  19.348  15.051  1.00  0.00     0.091 C 
HETATM   18  N13 UNL     1     -49.049  18.012  16.070  1.00  0.00    -0.323 N 
ATOM     19  H13 UNL     1     -49.088  18.489  16.971  1.00  0.00     0.169 HD
ENDBRANCH   5  12
BRANCH   6  20
HETATM   20  O2  UNL     1     -52.475  17.121  14.891  1.00  0.00    -0.345 OA
ATOM     21  H2  UNL     1     -53.108  16.700  14.322  1.00  0.00     0.219 HD
ENDBRANCH   6  20
BRANCH   8  22
HETATM   22  N3  UNL     1     -54.025  15.088  18.788  1.00  0.00    -0.234 N 
ATOM     23  H32 UNL     1     -53.909  14.881  19.781  1.00  0.00     0.174 HD
ATOM     24  H31 UNL     1     -54.938  14.957  18.352  1.00  0.00     0.174 HD
ENDBRANCH   8  22
ENDBRANCH   1   4
BRANCH   3  25
HETATM   25  N6  UNL     1     -47.444  15.244  17.049  1.00  0.00    -0.221 N 
ATOM     26  H6  UNL     1     -47.431  15.279  16.030  1.00  0.00     0.206 HD
BRANCH  25  27
HETATM   27  N7  UNL     1     -46.391  15.839  17.748  1.00  0.00    -0.237 N 
ATOM     28  H7  UNL     1     -45.649  15.238  18.108  1.00  0.00     0.209 HD
BRANCH  27  29
HETATM   29  N8  UNL     1     -46.308  17.088  17.959  1.00  0.00    -0.330 N 
ATOM     30  H82 UNL     1     -47.110  17.661  17.693  1.00  0.00     0.178 HD
ATOM     31  H81 UNL     1     -45.491  17.535  18.375  1.00  0.00     0.178 HD
ENDBRANCH  27  29
ENDBRANCH  25  27
ENDBRANCH   3  25
BRANCH   3  32
HETATM   32  N9  UNL     1     -47.963  13.812  18.699  1.00  0.00    -0.200 N 
HETATM   33  C9  UNL     1     -47.509  12.557  18.536  1.00  0.00     0.150 A 
HETATM   34  C10 UNL     1     -47.022  12.099  19.760  1.00  0.00     0.052 A 
HETATM   35  C13 UNL     1     -47.209  13.132  20.637  1.00  0.00     0.126 A 
HETATM   36  N12 UNL     1     -47.777  14.141  19.954  1.00  0.00    -0.292 N 
ATOM     37  H12 UNL     1     -48.031  15.042  20.359  1.00  0.00     0.187 HD
BRANCH  34  38
HETATM   38  C11 UNL     1     -46.436  10.803  20.059  1.00  0.00     0.178 A 
HETATM   39  N10 UNL     1     -46.936   9.896  20.905  1.00  0.00    -0.276 N 
HETATM   40  N11 UNL     1     -46.128   8.830  20.922  1.00  0.00    -0.268 N 
ATOM     41  H10 UNL     1     -47.793   9.999  21.448  1.00  0.00     0.189 HD
HETATM   42  C12 UNL     1     -45.123   9.091  20.077  1.00  0.00     0.235 A 
ATOM     43  H11 UNL     1     -46.253   7.981  21.474  1.00  0.00     0.190 HD
HETATM   44  S1  UNL     1     -43.881   8.096  19.752  1.00  0.00    -0.031 SA
HETATM   45  O4  UNL     1     -45.332  10.290  19.567  1.00  0.00    -0.264 OA
ENDBRANCH  34  38
ENDBRANCH   3  32
TORSDOF 9
ENDMDL
