MODEL 1
REMARK VINA RESULT: -9.690821628      0.000      0.000
REMARK  8 active torsions:
REMARK  status: ('A' for Active; 'I' for Inactive)
REMARK    1  A    between atoms: N1_1  and  N2_4 
REMARK       I    between atoms: N2_4  and  C1_6 
REMARK    2  A    between atoms: C1_6  and  C2_8 
REMARK       I    between atoms: N4_11  and  C3_12 
REMARK    3  A    between atoms: C3_12  and  C4_14 
REMARK    4  A    between atoms: C4_14  and  C5_15 
REMARK    5  A    between atoms: C5_15  and  N5_16 
REMARK    6  A    between atoms: C11_26  and  N7_27 
REMARK    7  A    between atoms: N8_29  and  C12_31 
REMARK    8  A    between atoms: C13_32  and  O4_33 
ROOT
HETATM    1  C2  UNL     1     -54.191  16.431  17.243  1.00  0.00     0.152 A 
HETATM    2  N3  UNL     1     -55.311  15.709  17.334  1.00  0.00    -0.281 N 
ATOM      3  H3  UNL     1     -56.230  15.957  16.966  1.00  0.00     0.188 HD
HETATM    4  N4  UNL     1     -54.989  14.599  18.001  1.00  0.00    -0.184 N 
HETATM    5  C3  UNL     1     -55.890  13.537  18.328  1.00  0.00     0.247 C 
HETATM    6  O2  UNL     1     -55.440  12.555  18.961  1.00  0.00    -0.271 OA
HETATM    7  C10 UNL     1     -53.694  14.596  18.337  1.00  0.00     0.300 A 
HETATM    8  O3  UNL     1     -53.042  13.719  18.968  1.00  0.00    -0.263 OA
HETATM    9  C11 UNL     1     -53.157  15.768  17.859  1.00  0.00     0.152 A 
ENDROOT
BRANCH   9  10
HETATM   10  N7  UNL     1     -51.797  16.158  18.006  1.00  0.00    -0.293 N 
HETATM   11  N8  UNL     1     -50.895  15.668  17.236  1.00  0.00    -0.291 N 
ATOM     12  H8  UNL     1     -51.168  14.996  16.519  1.00  0.00     0.187 HD
ATOM     13  H7  UNL     1     -51.537  16.831  18.727  1.00  0.00     0.187 HD
BRANCH  11  14
HETATM   14  C12 UNL     1     -49.545  16.031  17.353  1.00  0.00     0.168 A 
HETATM   15  C13 UNL     1     -48.848  15.948  18.543  1.00  0.00     0.178 A 
HETATM   16  N9  UNL     1     -47.547  16.304  18.629  1.00  0.00    -0.287 N 
HETATM   17  C14 UNL     1     -46.891  16.754  17.544  1.00  0.00     0.329 A 
ATOM     18  H9  UNL     1     -47.060  16.232  19.522  1.00  0.00     0.172 HD
HETATM   19  O5  UNL     1     -45.677  17.091  17.610  1.00  0.00    -0.247 OA
HETATM   20  N10 UNL     1     -47.553  16.839  16.394  1.00  0.00    -0.273 N 
HETATM   21  C15 UNL     1     -48.844  16.500  16.243  1.00  0.00     0.281 A 
ATOM     22  H10 UNL     1     -47.050  17.182  15.576  1.00  0.00     0.173 HD
HETATM   23  O6  UNL     1     -49.462  16.581  15.159  1.00  0.00    -0.265 OA
BRANCH  15  24
HETATM   24  O4  UNL     1     -49.545  15.479  19.655  1.00  0.00    -0.344 OA
ATOM     25  H4  UNL     1     -49.087  15.488  20.487  1.00  0.00     0.219 HD
ENDBRANCH  15  24
ENDBRANCH  11  14
ENDBRANCH   9  10
BRANCH   1  26
HETATM   26  C1  UNL     1     -54.102  17.731  16.582  1.00  0.00     0.290 C 
HETATM   27  N2  UNL     1     -53.270  17.939  15.451  1.00  0.00    -0.271 N 
ATOM     28  H2  UNL     1     -52.729  17.146  15.106  1.00  0.00     0.189 HD
HETATM   29  O1  UNL     1     -54.787  18.672  17.046  1.00  0.00    -0.264 OA
BRANCH  27  30
HETATM   30  N1  UNL     1     -53.145  19.141  14.788  1.00  0.00    -0.342 N 
ATOM     31  H12 UNL     1     -54.011  19.614  14.528  1.00  0.00     0.176 HD
ATOM     32  H11 UNL     1     -52.255  19.576  14.547  1.00  0.00     0.176 HD
ENDBRANCH  27  30
ENDBRANCH   1  26
BRANCH   5  33
HETATM   33  C4  UNL     1     -57.312  13.632  17.910  1.00  0.00     0.135 C 
BRANCH  33  34
HETATM   34  C5  UNL     1     -58.188  12.663  18.636  1.00  0.00     0.282 C 
BRANCH  34  35
HETATM   35  N5  UNL     1     -59.576  13.045  18.647  1.00  0.00     0.092 N 
HETATM   36  C6  UNL     1     -60.019  13.068  20.033  1.00  0.00     0.300 C 
HETATM   37  C7  UNL     1     -59.673  14.402  20.682  1.00  0.00     0.262 C 
HETATM   38  N6  UNL     1     -60.403  15.483  20.061  1.00  0.00    -0.072 N 
HETATM   39  C8  UNL     1     -60.851  15.145  18.723  1.00  0.00     0.262 C 
ATOM     40  H62 UNL     1     -61.182  15.786  20.644  1.00  0.00     0.277 HD
ATOM     41  H61 UNL     1     -59.857  16.344  20.060  1.00  0.00     0.277 HD
HETATM   42  C9  UNL     1     -59.796  14.326  18.006  1.00  0.00     0.300 C 
ENDBRANCH  34  35
ENDBRANCH  33  34
ENDBRANCH   5  33
TORSDOF 8
ENDMDL
MODEL 2
REMARK VINA RESULT: -9.681419735      0.669      1.009
REMARK  8 active torsions:
REMARK  status: ('A' for Active; 'I' for Inactive)
REMARK    1  A    between atoms: N1_1  and  N2_4 
REMARK       I    between atoms: N2_4  and  C1_6 
REMARK    2  A    between atoms: C1_6  and  C2_8 
REMARK       I    between atoms: N4_11  and  C3_12 
REMARK    3  A    between atoms: C3_12  and  C4_14 
REMARK    4  A    between atoms: C4_14  and  C5_15 
REMARK    5  A    between atoms: C5_15  and  N5_16 
REMARK    6  A    between atoms: C11_26  and  N7_27 
REMARK    7  A    between atoms: N8_29  and  C12_31 
REMARK    8  A    between atoms: C13_32  and  O4_33 
ROOT
HETATM    1  C2  UNL     1     -54.300  16.499  17.180  1.00  0.00     0.152 A 
HETATM    2  N3  UNL     1     -55.457  15.838  17.255  1.00  0.00    -0.281 N 
ATOM      3  H3  UNL     1     -56.354  16.127  16.862  1.00  0.00     0.188 HD
HETATM    4  N4  UNL     1     -55.209  14.723  17.946  1.00  0.00    -0.184 N 
HETATM    5  C3  UNL     1     -56.171  13.714  18.267  1.00  0.00     0.247 C 
HETATM    6  O2  UNL     1     -55.788  12.721  18.925  1.00  0.00    -0.271 OA
HETATM    7  C10 UNL     1     -53.924  14.658  18.312  1.00  0.00     0.300 A 
HETATM    8  O3  UNL     1     -53.333  13.758  18.971  1.00  0.00    -0.263 OA
HETATM    9  C11 UNL     1     -53.316  15.793  17.830  1.00  0.00     0.152 A 
ENDROOT
BRANCH   9  10
HETATM   10  N7  UNL     1     -51.941  16.114  18.003  1.00  0.00    -0.293 N 
HETATM   11  N8  UNL     1     -51.084  15.806  17.099  1.00  0.00    -0.291 N 
ATOM     12  H8  UNL     1     -51.403  15.328  16.257  1.00  0.00     0.187 HD
ATOM     13  H7  UNL     1     -51.634  16.593  18.850  1.00  0.00     0.187 HD
BRANCH  11  14
HETATM   14  C12 UNL     1     -49.721  16.108  17.237  1.00  0.00     0.168 A 
HETATM   15  C13 UNL     1     -49.019  15.884  18.406  1.00  0.00     0.178 A 
HETATM   16  N9  UNL     1     -47.706  16.184  18.513  1.00  0.00    -0.287 N 
HETATM   17  C14 UNL     1     -47.042  16.715  17.471  1.00  0.00     0.329 A 
ATOM     18  H9  UNL     1     -47.215  16.006  19.389  1.00  0.00     0.172 HD
HETATM   19  O5  UNL     1     -45.816  17.001  17.557  1.00  0.00    -0.247 OA
HETATM   20  N10 UNL     1     -47.709  16.937  16.341  1.00  0.00    -0.273 N 
HETATM   21  C15 UNL     1     -49.012  16.660  16.171  1.00  0.00     0.281 A 
ATOM     22  H10 UNL     1     -47.199  17.341  15.556  1.00  0.00     0.173 HD
HETATM   23  O6  UNL     1     -49.634  16.869  15.108  1.00  0.00    -0.265 OA
BRANCH  15  24
HETATM   24  O4  UNL     1     -49.725  15.332  19.474  1.00  0.00    -0.344 OA
ATOM     25  H4  UNL     1     -49.251  14.738  20.044  1.00  0.00     0.219 HD
ENDBRANCH  15  24
ENDBRANCH  11  14
ENDBRANCH   9  10
BRANCH   1  26
HETATM   26  C1  UNL     1     -54.128  17.782  16.502  1.00  0.00     0.290 C 
HETATM   27  N2  UNL     1     -53.294  17.920  15.363  1.00  0.00    -0.271 N 
ATOM     28  H2  UNL     1     -52.810  17.088  15.023  1.00  0.00     0.189 HD
HETATM   29  O1  UNL     1     -54.744  18.773  16.960  1.00  0.00    -0.264 OA
BRANCH  27  30
HETATM   30  N1  UNL     1     -53.093  19.103  14.684  1.00  0.00    -0.342 N 
ATOM     31  H12 UNL     1     -53.920  19.669  14.495  1.00  0.00     0.176 HD
ATOM     32  H11 UNL     1     -52.184  19.437  14.366  1.00  0.00     0.176 HD
ENDBRANCH  27  30
ENDBRANCH   1  26
BRANCH   5  33
HETATM   33  C4  UNL     1     -57.577  13.876  17.814  1.00  0.00     0.135 C 
BRANCH  33  34
HETATM   34  C5  UNL     1     -58.533  13.047  18.609  1.00  0.00     0.282 C 
BRANCH  34  35
HETATM   35  N5  UNL     1     -59.323  13.815  19.535  1.00  0.00     0.092 N 
HETATM   36  C6  UNL     1     -59.607  15.101  18.916  1.00  0.00     0.300 C 
HETATM   37  C7  UNL     1     -60.823  14.998  18.005  1.00  0.00     0.262 C 
HETATM   38  N6  UNL     1     -62.014  14.701  18.766  1.00  0.00    -0.072 N 
HETATM   39  C8  UNL     1     -61.710  14.092  20.047  1.00  0.00     0.262 C 
ATOM     40  H62 UNL     1     -62.594  15.532  18.882  1.00  0.00     0.277 HD
ATOM     41  H61 UNL     1     -62.662  14.126  18.228  1.00  0.00     0.277 HD
HETATM   42  C9  UNL     1     -60.545  13.132  19.909  1.00  0.00     0.300 C 
ENDBRANCH  34  35
ENDBRANCH  33  34
ENDBRANCH   5  33
TORSDOF 8
ENDMDL
MODEL 3
REMARK VINA RESULT: -9.661352281      3.471     10.126
REMARK  8 active torsions:
REMARK  status: ('A' for Active; 'I' for Inactive)
REMARK    1  A    between atoms: N1_1  and  N2_4 
REMARK       I    between atoms: N2_4  and  C1_6 
REMARK    2  A    between atoms: C1_6  and  C2_8 
REMARK       I    between atoms: N4_11  and  C3_12 
REMARK    3  A    between atoms: C3_12  and  C4_14 
REMARK    4  A    between atoms: C4_14  and  C5_15 
REMARK    5  A    between atoms: C5_15  and  N5_16 
REMARK    6  A    between atoms: C11_26  and  N7_27 
REMARK    7  A    between atoms: N8_29  and  C12_31 
REMARK    8  A    between atoms: C13_32  and  O4_33 
ROOT
HETATM    1  C2  UNL     1     -58.933  14.158  17.828  1.00  0.00     0.152 A 
HETATM    2  N3  UNL     1     -57.899  14.561  17.086  1.00  0.00    -0.281 N 
ATOM      3  H3  UNL     1     -57.935  15.165  16.264  1.00  0.00     0.188 HD
HETATM    4  N4  UNL     1     -56.809  14.018  17.632  1.00  0.00    -0.184 N 
HETATM    5  C3  UNL     1     -55.471  14.185  17.157  1.00  0.00     0.247 C 
HETATM    6  O2  UNL     1     -54.548  13.610  17.776  1.00  0.00    -0.271 OA
HETATM    7  C10 UNL     1     -57.123  13.278  18.703  1.00  0.00     0.300 A 
HETATM    8  O3  UNL     1     -56.360  12.621  19.463  1.00  0.00    -0.263 OA
HETATM    9  C11 UNL     1     -58.488  13.353  18.850  1.00  0.00     0.152 A 
ENDROOT
BRANCH   9  10
HETATM   10  N7  UNL     1     -59.232  12.705  19.875  1.00  0.00    -0.293 N 
HETATM   11  N8  UNL     1     -59.697  13.377  20.863  1.00  0.00    -0.291 N 
ATOM     12  H8  UNL     1     -59.525  14.382  20.904  1.00  0.00     0.187 HD
ATOM     13  H7  UNL     1     -59.397  11.699  19.823  1.00  0.00     0.187 HD
BRANCH  11  14
HETATM   14  C12 UNL     1     -60.434  12.769  21.891  1.00  0.00     0.168 A 
HETATM   15  C13 UNL     1     -59.915  12.541  23.151  1.00  0.00     0.178 A 
HETATM   16  N9  UNL     1     -60.647  11.953  24.123  1.00  0.00    -0.287 N 
HETATM   17  C14 UNL     1     -61.914  11.571  23.884  1.00  0.00     0.329 A 
ATOM     18  H9  UNL     1     -60.236  11.798  25.043  1.00  0.00     0.172 HD
HETATM   19  O5  UNL     1     -62.609  11.020  24.782  1.00  0.00    -0.247 OA
HETATM   20  N10 UNL     1     -62.423  11.784  22.674  1.00  0.00    -0.273 N 
HETATM   21  C15 UNL     1     -61.749  12.364  21.667  1.00  0.00     0.281 A 
ATOM     22  H10 UNL     1     -63.384  11.490  22.500  1.00  0.00     0.173 HD
HETATM   23  O6  UNL     1     -62.232  12.563  20.531  1.00  0.00    -0.265 OA
BRANCH  15  24
HETATM   24  O4  UNL     1     -58.601  12.945  23.378  1.00  0.00    -0.344 OA
ATOM     25  H4  UNL     1     -57.973  12.782  22.684  1.00  0.00     0.219 HD
ENDBRANCH  15  24
ENDBRANCH  11  14
ENDBRANCH   9  10
BRANCH   1  26
HETATM   26  C1  UNL     1     -60.323  14.530  17.574  1.00  0.00     0.290 C 
HETATM   27  N2  UNL     1     -61.259  14.691  18.628  1.00  0.00    -0.271 N 
ATOM     28  H2  UNL     1     -60.932  14.539  19.583  1.00  0.00     0.189 HD
HETATM   29  O1  UNL     1     -60.674  14.704  16.383  1.00  0.00    -0.264 OA
BRANCH  27  30
HETATM   30  N1  UNL     1     -62.580  15.039  18.448  1.00  0.00    -0.342 N 
ATOM     31  H12 UNL     1     -62.793  15.640  17.653  1.00  0.00     0.176 HD
ATOM     32  H11 UNL     1     -63.343  14.736  19.054  1.00  0.00     0.176 HD
ENDBRANCH  27  30
ENDBRANCH   1  26
BRANCH   5  33
HETATM   33  C4  UNL     1     -55.223  15.027  15.958  1.00  0.00     0.135 C 
BRANCH  33  34
HETATM   34  C5  UNL     1     -54.263  16.140  16.229  1.00  0.00     0.282 C 
BRANCH  34  35
HETATM   35  N5  UNL     1     -52.905  15.823  15.872  1.00  0.00     0.092 N 
HETATM   36  C6  UNL     1     -52.648  16.390  14.557  1.00  0.00     0.300 C 
HETATM   37  C7  UNL     1     -52.247  17.855  14.677  1.00  0.00     0.262 C 
HETATM   38  N6  UNL     1     -50.988  17.990  15.372  1.00  0.00    -0.072 N 
HETATM   39  C8  UNL     1     -50.689  16.835  16.197  1.00  0.00     0.262 C 
ATOM     40  H62 UNL     1     -50.227  18.185  14.723  1.00  0.00     0.277 HD
ATOM     41  H61 UNL     1     -50.959  18.851  15.919  1.00  0.00     0.277 HD
HETATM   42  C9  UNL     1     -51.954  16.313  16.849  1.00  0.00     0.300 C 
ENDBRANCH  34  35
ENDBRANCH  33  34
ENDBRANCH   5  33
TORSDOF 8
ENDMDL
MODEL 4
REMARK VINA RESULT: -9.638737532      3.447     10.110
REMARK  8 active torsions:
REMARK  status: ('A' for Active; 'I' for Inactive)
REMARK    1  A    between atoms: N1_1  and  N2_4 
REMARK       I    between atoms: N2_4  and  C1_6 
REMARK    2  A    between atoms: C1_6  and  C2_8 
REMARK       I    between atoms: N4_11  and  C3_12 
REMARK    3  A    between atoms: C3_12  and  C4_14 
REMARK    4  A    between atoms: C4_14  and  C5_15 
REMARK    5  A    between atoms: C5_15  and  N5_16 
REMARK    6  A    between atoms: C11_26  and  N7_27 
REMARK    7  A    between atoms: N8_29  and  C12_31 
REMARK    8  A    between atoms: C13_32  and  O4_33 
ROOT
HETATM    1  C2  UNL     1     -58.851  14.230  17.932  1.00  0.00     0.152 A 
HETATM    2  N3  UNL     1     -57.848  14.624  17.143  1.00  0.00    -0.281 N 
ATOM      3  H3  UNL     1     -57.909  15.261  16.348  1.00  0.00     0.188 HD
HETATM    4  N4  UNL     1     -56.750  14.018  17.600  1.00  0.00    -0.184 N 
HETATM    5  C3  UNL     1     -55.437  14.155  17.050  1.00  0.00     0.247 C 
HETATM    6  O2  UNL     1     -54.502  13.521  17.589  1.00  0.00    -0.271 OA
HETATM    7  C10 UNL     1     -57.028  13.249  18.659  1.00  0.00     0.300 A 
HETATM    8  O3  UNL     1     -56.247  12.534  19.346  1.00  0.00    -0.263 OA
HETATM    9  C11 UNL     1     -58.378  13.369  18.893  1.00  0.00     0.152 A 
ENDROOT
BRANCH   9  10
HETATM   10  N7  UNL     1     -59.084  12.708  19.936  1.00  0.00    -0.293 N 
HETATM   11  N8  UNL     1     -59.611  13.383  20.891  1.00  0.00    -0.291 N 
ATOM     12  H8  UNL     1     -59.518  14.398  20.891  1.00  0.00     0.187 HD
ATOM     13  H7  UNL     1     -59.171  11.691  19.925  1.00  0.00     0.187 HD
BRANCH  11  14
HETATM   14  C12 UNL     1     -60.314  12.763  21.935  1.00  0.00     0.168 A 
HETATM   15  C13 UNL     1     -61.625  12.347  21.812  1.00  0.00     0.178 A 
HETATM   16  N9  UNL     1     -62.280  11.752  22.835  1.00  0.00    -0.287 N 
HETATM   17  C14 UNL     1     -61.661  11.547  24.011  1.00  0.00     0.329 A 
ATOM     18  H9  UNL     1     -63.248  11.456  22.712  1.00  0.00     0.172 HD
HETATM   19  O5  UNL     1     -62.260  10.993  24.974  1.00  0.00    -0.247 OA
HETATM   20  N10 UNL     1     -60.399  11.945  24.141  1.00  0.00    -0.273 N 
HETATM   21  C15 UNL     1     -59.694  12.540  23.164  1.00  0.00     0.281 A 
ATOM     22  H10 UNL     1     -59.937  11.788  25.037  1.00  0.00     0.173 HD
HETATM   23  O6  UNL     1     -58.508  12.912  23.291  1.00  0.00    -0.265 OA
BRANCH  15  24
HETATM   24  O4  UNL     1     -62.248  12.567  20.585  1.00  0.00    -0.344 OA
ATOM     25  H4  UNL     1     -63.197  12.517  20.567  1.00  0.00     0.219 HD
ENDBRANCH  15  24
ENDBRANCH  11  14
ENDBRANCH   9  10
BRANCH   1  26
HETATM   26  C1  UNL     1     -60.238  14.663  17.778  1.00  0.00     0.290 C 
HETATM   27  N2  UNL     1     -61.055  14.967  18.897  1.00  0.00    -0.271 N 
ATOM     28  H2  UNL     1     -60.643  14.875  19.826  1.00  0.00     0.189 HD
HETATM   29  O1  UNL     1     -60.696  14.759  16.615  1.00  0.00    -0.264 OA
BRANCH  27  30
HETATM   30  N1  UNL     1     -62.368  15.379  18.813  1.00  0.00    -0.342 N 
ATOM     31  H12 UNL     1     -62.957  14.898  18.134  1.00  0.00     0.176 HD
ATOM     32  H11 UNL     1     -62.776  16.122  19.380  1.00  0.00     0.176 HD
ENDBRANCH  27  30
ENDBRANCH   1  26
BRANCH   5  33
HETATM   33  C4  UNL     1     -55.228  15.034  15.870  1.00  0.00     0.135 C 
BRANCH  33  34
HETATM   34  C5  UNL     1     -54.274  16.149  16.150  1.00  0.00     0.282 C 
BRANCH  34  35
HETATM   35  N5  UNL     1     -52.909  15.830  15.819  1.00  0.00     0.092 N 
HETATM   36  C6  UNL     1     -52.626  16.398  14.509  1.00  0.00     0.300 C 
HETATM   37  C7  UNL     1     -52.225  17.862  14.639  1.00  0.00     0.262 C 
HETATM   38  N6  UNL     1     -50.980  17.994  15.358  1.00  0.00    -0.072 N 
HETATM   39  C8  UNL     1     -50.699  16.838  16.187  1.00  0.00     0.262 C 
ATOM     40  H62 UNL     1     -50.206  18.189  14.723  1.00  0.00     0.277 HD
ATOM     41  H61 UNL     1     -50.960  18.855  15.906  1.00  0.00     0.277 HD
HETATM   42  C9  UNL     1     -51.977  16.318  16.815  1.00  0.00     0.300 C 
ENDBRANCH  34  35
ENDBRANCH  33  34
ENDBRANCH   5  33
TORSDOF 8
ENDMDL
MODEL 5
REMARK VINA RESULT: -9.541947354      0.767      1.760
REMARK  8 active torsions:
REMARK  status: ('A' for Active; 'I' for Inactive)
REMARK    1  A    between atoms: N1_1  and  N2_4 
REMARK       I    between atoms: N2_4  and  C1_6 
REMARK    2  A    between atoms: C1_6  and  C2_8 
REMARK       I    between atoms: N4_11  and  C3_12 
REMARK    3  A    between atoms: C3_12  and  C4_14 
REMARK    4  A    between atoms: C4_14  and  C5_15 
REMARK    5  A    between atoms: C5_15  and  N5_16 
REMARK    6  A    between atoms: C11_26  and  N7_27 
REMARK    7  A    between atoms: N8_29  and  C12_31 
REMARK    8  A    between atoms: C13_32  and  O4_33 
ROOT
HETATM    1  C2  UNL     1     -54.313  16.510  17.134  1.00  0.00     0.152 A 
HETATM    2  N3  UNL     1     -55.478  15.867  17.244  1.00  0.00    -0.281 N 
ATOM      3  H3  UNL     1     -56.382  16.173  16.882  1.00  0.00     0.188 HD
HETATM    4  N4  UNL     1     -55.226  14.745  17.921  1.00  0.00    -0.184 N 
HETATM    5  C3  UNL     1     -56.193  13.750  18.269  1.00  0.00     0.247 C 
HETATM    6  O2  UNL     1     -55.805  12.748  18.909  1.00  0.00    -0.271 OA
HETATM    7  C10 UNL     1     -53.930  14.657  18.246  1.00  0.00     0.300 A 
HETATM    8  O3  UNL     1     -53.333  13.745  18.881  1.00  0.00    -0.263 OA
HETATM    9  C11 UNL     1     -53.321  15.784  17.749  1.00  0.00     0.152 A 
ENDROOT
BRANCH   9  10
HETATM   10  N7  UNL     1     -51.935  16.083  17.878  1.00  0.00    -0.293 N 
HETATM   11  N8  UNL     1     -51.139  15.906  16.888  1.00  0.00    -0.291 N 
ATOM     12  H8  UNL     1     -51.513  15.549  16.009  1.00  0.00     0.187 HD
ATOM     13  H7  UNL     1     -51.573  16.439  18.763  1.00  0.00     0.187 HD
BRANCH  11  14
HETATM   14  C12 UNL     1     -49.768  16.190  16.981  1.00  0.00     0.168 A 
HETATM   15  C13 UNL     1     -49.108  17.003  16.080  1.00  0.00     0.178 A 
HETATM   16  N9  UNL     1     -47.786  17.261  16.193  1.00  0.00    -0.287 N 
HETATM   17  C14 UNL     1     -47.072  16.724  17.198  1.00  0.00     0.329 A 
ATOM     18  H9  UNL     1     -47.328  17.866  15.512  1.00  0.00     0.172 HD
HETATM   19  O5  UNL     1     -45.837  16.956  17.315  1.00  0.00    -0.247 OA
HETATM   20  N10 UNL     1     -47.697  15.938  18.071  1.00  0.00    -0.273 N 
HETATM   21  C15 UNL     1     -49.006  15.645  18.014  1.00  0.00     0.281 A 
ATOM     22  H10 UNL     1     -47.148  15.534  18.829  1.00  0.00     0.173 HD
HETATM   23  O6  UNL     1     -49.589  14.906  18.837  1.00  0.00    -0.265 OA
BRANCH  15  24
HETATM   24  O4  UNL     1     -49.867  17.550  15.047  1.00  0.00    -0.344 OA
ATOM     25  H4  UNL     1     -49.663  18.441  14.787  1.00  0.00     0.219 HD
ENDBRANCH  15  24
ENDBRANCH  11  14
ENDBRANCH   9  10
BRANCH   1  26
HETATM   26  C1  UNL     1     -54.142  17.793  16.457  1.00  0.00     0.290 C 
HETATM   27  N2  UNL     1     -53.272  17.942  15.346  1.00  0.00    -0.271 N 
ATOM     28  H2  UNL     1     -52.762  17.118  15.027  1.00  0.00     0.189 HD
HETATM   29  O1  UNL     1     -54.791  18.774  16.889  1.00  0.00    -0.264 OA
BRANCH  27  30
HETATM   30  N1  UNL     1     -53.071  19.126  14.669  1.00  0.00    -0.342 N 
ATOM     31  H12 UNL     1     -52.999  19.971  15.234  1.00  0.00     0.176 HD
ATOM     32  H11 UNL     1     -52.991  19.203  13.655  1.00  0.00     0.176 HD
ENDBRANCH  27  30
ENDBRANCH   1  26
BRANCH   5  33
HETATM   33  C4  UNL     1     -57.610  13.938  17.863  1.00  0.00     0.135 C 
BRANCH  33  34
HETATM   34  C5  UNL     1     -58.549  13.086  18.654  1.00  0.00     0.282 C 
BRANCH  34  35
HETATM   35  N5  UNL     1     -59.364  13.836  19.574  1.00  0.00     0.092 N 
HETATM   36  C6  UNL     1     -59.652  15.125  18.962  1.00  0.00     0.300 C 
HETATM   37  C7  UNL     1     -60.851  15.016  18.028  1.00  0.00     0.262 C 
HETATM   38  N6  UNL     1     -62.052  14.699  18.766  1.00  0.00    -0.072 N 
HETATM   39  C8  UNL     1     -61.764  14.081  20.045  1.00  0.00     0.262 C 
ATOM     40  H62 UNL     1     -62.644  15.522  18.879  1.00  0.00     0.277 HD
ATOM     41  H61 UNL     1     -62.684  14.121  18.211  1.00  0.00     0.277 HD
HETATM   42  C9  UNL     1     -60.585  13.136  19.920  1.00  0.00     0.300 C 
ENDBRANCH  34  35
ENDBRANCH  33  34
ENDBRANCH   5  33
TORSDOF 8
ENDMDL
