MODEL 1
REMARK VINA RESULT: -9.639381406      0.000      0.000
REMARK  3 active torsions:
REMARK  status: ('A' for Active; 'I' for Inactive)
REMARK    1  A    between atoms: C1_1  and  C2_2 
REMARK    2  A    between atoms: C3_3  and  C4_4 
REMARK    3  A    between atoms: C7_11  and  C8_12 
ROOT
HETATM    1  C2  UNL     1      30.113  15.959  -1.591  1.00  0.00     0.002 C 
HETATM    2  C3  UNL     1      29.093  15.182  -1.295  1.00  0.00     0.031 C 
ENDROOT
BRANCH   1   3
HETATM    3  C1  UNL     1      30.414  17.114  -0.765  1.00  0.00     0.001 C 
HETATM    4  C7  UNL     1      31.343  17.044   0.147  1.00  0.00     0.011 C 
BRANCH   4   5
HETATM    5  C8  UNL     1      31.720  18.143   1.025  1.00  0.00    -0.036 A 
HETATM    6  C9  UNL     1      31.649  19.466   0.576  1.00  0.00     0.011 A 
HETATM    7  C10 UNL     1      31.994  20.544   1.363  1.00  0.00     0.001 A 
HETATM    8  C11 UNL     1      32.432  20.354   2.656  1.00  0.00     0.000 A 
HETATM    9  C12 UNL     1      32.508  19.057   3.112  1.00  0.00     0.001 A 
HETATM   10  C13 UNL     1      32.158  17.958   2.315  1.00  0.00     0.011 A 
ENDBRANCH   4   5
ENDBRANCH   1   3
BRANCH   2  11
HETATM   11  C4  UNL     1      28.764  14.013  -2.107  1.00  0.00     0.049 A 
HETATM   12  C5  UNL     1      27.889  13.022  -1.727  1.00  0.00     0.049 A 
HETATM   13  C6  UNL     1      27.862  12.107  -2.776  1.00  0.00     0.109 A 
HETATM   14  N1  UNL     1      28.703  12.590  -3.707  1.00  0.00    -0.311 N 
HETATM   15  N2  UNL     1      29.248  13.729  -3.317  1.00  0.00    -0.301 N 
ATOM     16  H1  UNL     1      28.897  12.135  -4.599  1.00  0.00     0.186 HD
ATOM     17  H2  UNL     1      29.916  14.290  -3.845  1.00  0.00     0.187 HD
ENDBRANCH   2  11
TORSDOF 3
ENDMDL
MODEL 2
REMARK VINA RESULT: -9.574270491      0.053      1.217
REMARK  3 active torsions:
REMARK  status: ('A' for Active; 'I' for Inactive)
REMARK    1  A    between atoms: C1_1  and  C2_2 
REMARK    2  A    between atoms: C3_3  and  C4_4 
REMARK    3  A    between atoms: C7_11  and  C8_12 
ROOT
HETATM    1  C2  UNL     1      30.111  15.934  -1.576  1.00  0.00     0.002 C 
HETATM    2  C3  UNL     1      29.055  15.193  -1.320  1.00  0.00     0.031 C 
ENDROOT
BRANCH   1   3
HETATM    3  C1  UNL     1      30.396  17.103  -0.764  1.00  0.00     0.001 C 
HETATM    4  C7  UNL     1      31.347  17.069   0.125  1.00  0.00     0.011 C 
BRANCH   4   5
HETATM    5  C8  UNL     1      31.710  18.186   0.987  1.00  0.00    -0.036 A 
HETATM    6  C9  UNL     1      32.155  17.959   2.294  1.00  0.00     0.011 A 
HETATM    7  C10 UNL     1      32.511  18.976   3.152  1.00  0.00     0.001 A 
HETATM    8  C11 UNL     1      32.440  20.291   2.745  1.00  0.00     0.000 A 
HETATM    9  C12 UNL     1      32.003  20.532   1.461  1.00  0.00     0.001 A 
HETATM   10  C13 UNL     1      31.640  19.499   0.585  1.00  0.00     0.011 A 
ENDBRANCH   4   5
ENDBRANCH   1   3
BRANCH   2  11
HETATM   11  C4  UNL     1      28.742  14.010  -2.119  1.00  0.00     0.049 A 
HETATM   12  C5  UNL     1      27.881  13.011  -1.727  1.00  0.00     0.049 A 
HETATM   13  C6  UNL     1      27.866  12.084  -2.766  1.00  0.00     0.109 A 
HETATM   14  N1  UNL     1      28.700  12.568  -3.702  1.00  0.00    -0.311 N 
HETATM   15  N2  UNL     1      29.229  13.719  -3.326  1.00  0.00    -0.301 N 
ATOM     16  H1  UNL     1      28.900  12.106  -4.590  1.00  0.00     0.186 HD
ATOM     17  H2  UNL     1      29.889  14.282  -3.860  1.00  0.00     0.187 HD
ENDBRANCH   2  11
TORSDOF 3
ENDMDL
MODEL 3
REMARK VINA RESULT: -9.062568236      2.899      4.748
REMARK  3 active torsions:
REMARK  status: ('A' for Active; 'I' for Inactive)
REMARK    1  A    between atoms: C1_1  and  C2_2 
REMARK    2  A    between atoms: C3_3  and  C4_4 
REMARK    3  A    between atoms: C7_11  and  C8_12 
ROOT
HETATM    1  C2  UNL     1      27.535  11.907  -2.250  1.00  0.00     0.002 C 
HETATM    2  C3  UNL     1      28.247  11.170  -3.075  1.00  0.00     0.031 C 
ENDROOT
BRANCH   1   3
HETATM    3  C1  UNL     1      28.111  13.096  -1.650  1.00  0.00     0.001 C 
HETATM    4  C7  UNL     1      28.880  13.878  -2.354  1.00  0.00     0.011 C 
BRANCH   4   5
HETATM    5  C8  UNL     1      29.506  15.092  -1.846  1.00  0.00    -0.036 A 
HETATM    6  C9  UNL     1      30.430  15.794  -2.627  1.00  0.00     0.011 A 
HETATM    7  C10 UNL     1      31.052  16.947  -2.198  1.00  0.00     0.001 A 
HETATM    8  C11 UNL     1      30.779  17.465  -0.950  1.00  0.00     0.000 A 
HETATM    9  C12 UNL     1      29.871  16.785  -0.169  1.00  0.00     0.001 A 
HETATM   10  C13 UNL     1      29.237  15.612  -0.602  1.00  0.00     0.011 A 
ENDBRANCH   4   5
ENDBRANCH   1   3
BRANCH   2  11
HETATM   11  C4  UNL     1      27.695   9.967  -3.695  1.00  0.00     0.049 A 
HETATM   12  C5  UNL     1      28.095   8.685  -3.399  1.00  0.00     0.049 A 
HETATM   13  C6  UNL     1      27.328   7.846  -4.202  1.00  0.00     0.109 A 
HETATM   14  N1  UNL     1      26.527   8.654  -4.918  1.00  0.00    -0.311 N 
HETATM   15  N2  UNL     1      26.738   9.924  -4.622  1.00  0.00    -0.301 N 
ATOM     16  H1  UNL     1      25.844   8.327  -5.602  1.00  0.00     0.186 HD
ATOM     17  H2  UNL     1      26.257  10.725  -5.030  1.00  0.00     0.187 HD
ENDBRANCH   2  11
TORSDOF 3
ENDMDL
MODEL 4
REMARK VINA RESULT: -9.032509341      2.884      4.804
REMARK  3 active torsions:
REMARK  status: ('A' for Active; 'I' for Inactive)
REMARK    1  A    between atoms: C1_1  and  C2_2 
REMARK    2  A    between atoms: C3_3  and  C4_4 
REMARK    3  A    between atoms: C7_11  and  C8_12 
ROOT
HETATM    1  C2  UNL     1      27.511  12.002  -2.320  1.00  0.00     0.002 C 
HETATM    2  C3  UNL     1      28.224  11.281  -3.158  1.00  0.00     0.031 C 
ENDROOT
BRANCH   1   3
HETATM    3  C1  UNL     1      28.059  13.224  -1.760  1.00  0.00     0.001 C 
HETATM    4  C7  UNL     1      28.974  13.889  -2.407  1.00  0.00     0.011 C 
BRANCH   4   5
HETATM    5  C8  UNL     1      29.586  15.123  -1.933  1.00  0.00    -0.036 A 
HETATM    6  C9  UNL     1      29.300  15.611  -0.653  1.00  0.00     0.011 A 
HETATM    7  C10 UNL     1      29.849  16.772  -0.154  1.00  0.00     0.001 A 
HETATM    8  C11 UNL     1      30.724  17.516  -0.916  1.00  0.00     0.000 A 
HETATM    9  C12 UNL     1      31.015  17.049  -2.179  1.00  0.00     0.001 A 
HETATM   10  C13 UNL     1      30.459  15.869  -2.690  1.00  0.00     0.011 A 
ENDBRANCH   4   5
ENDBRANCH   1   3
BRANCH   2  11
HETATM   11  C4  UNL     1      27.701  10.046  -3.738  1.00  0.00     0.049 A 
HETATM   12  C5  UNL     1      28.170   8.787  -3.442  1.00  0.00     0.049 A 
HETATM   13  C6  UNL     1      27.408   7.903  -4.201  1.00  0.00     0.109 A 
HETATM   14  N1  UNL     1      26.543   8.664  -4.893  1.00  0.00    -0.311 N 
HETATM   15  N2  UNL     1      26.710   9.947  -4.624  1.00  0.00    -0.301 N 
ATOM     16  H1  UNL     1      25.847   8.298  -5.544  1.00  0.00     0.186 HD
ATOM     17  H2  UNL     1      26.178  10.720  -5.021  1.00  0.00     0.187 HD
ENDBRANCH   2  11
TORSDOF 3
ENDMDL
MODEL 5
REMARK VINA RESULT: -8.913535210      3.229      8.826
REMARK  3 active torsions:
REMARK  status: ('A' for Active; 'I' for Inactive)
REMARK    1  A    between atoms: C1_1  and  C2_2 
REMARK    2  A    between atoms: C3_3  and  C4_4 
REMARK    3  A    between atoms: C7_11  and  C8_12 
ROOT
HETATM    1  C2  UNL     1      28.056  13.661  -1.673  1.00  0.00     0.002 C 
HETATM    2  C3  UNL     1      29.045  14.215  -2.341  1.00  0.00     0.031 C 
ENDROOT
BRANCH   1   3
HETATM    3  C1  UNL     1      27.796  12.239  -1.801  1.00  0.00     0.001 C 
HETATM    4  C7  UNL     1      27.929  11.649  -2.955  1.00  0.00     0.011 C 
BRANCH   4   5
HETATM    5  C8  UNL     1      27.693  10.230  -3.187  1.00  0.00    -0.036 A 
HETATM    6  C9  UNL     1      26.788   9.521  -2.389  1.00  0.00     0.011 A 
HETATM    7  C10 UNL     1      26.527   8.179  -2.563  1.00  0.00     0.001 A 
HETATM    8  C11 UNL     1      27.163   7.466  -3.556  1.00  0.00     0.000 A 
HETATM    9  C12 UNL     1      28.057   8.150  -4.350  1.00  0.00     0.001 A 
HETATM   10  C13 UNL     1      28.326   9.515  -4.176  1.00  0.00     0.011 A 
ENDBRANCH   4   5
ENDBRANCH   1   3
BRANCH   2  11
HETATM   11  C4  UNL     1      29.332  15.644  -2.233  1.00  0.00     0.049 A 
HETATM   12  C5  UNL     1      30.389  16.175  -1.533  1.00  0.00     0.049 A 
HETATM   13  C6  UNL     1      30.298  17.556  -1.685  1.00  0.00     0.109 A 
HETATM   14  N1  UNL     1      29.216  17.771  -2.453  1.00  0.00    -0.311 N 
HETATM   15  N2  UNL     1      28.631  16.634  -2.786  1.00  0.00    -0.301 N 
ATOM     16  H1  UNL     1      28.889  18.693  -2.740  1.00  0.00     0.186 HD
ATOM     17  H2  UNL     1      27.796  16.533  -3.362  1.00  0.00     0.187 HD
ENDBRANCH   2  11
TORSDOF 3
ENDMDL
