MODEL 1
REMARK VINA RESULT: -8.596905508      0.000      0.000
REMARK  4 active torsions:
REMARK  status: ('A' for Active; 'I' for Inactive)
REMARK    1  A    between atoms: C2_2  and  C3_3 
REMARK    2  A    between atoms: C3_3  and  C4_4 
REMARK    3  A    between atoms: C4_4  and  N1_5 
REMARK    4  A    between atoms: N1_5  and  C5_7 
ROOT
HETATM    1  C5  UNL     1      29.061  13.579  -3.048  1.00  0.00     0.101 A 
HETATM    2  C6  UNL     1      28.345  13.429  -1.882  1.00  0.00     0.049 A 
HETATM    3  C7  UNL     1      27.634  12.278  -1.631  1.00  0.00     0.017 A 
HETATM    4  C8  UNL     1      27.656  11.274  -2.577  1.00  0.00    -0.009 A 
HETATM    5  C9  UNL     1      26.961  10.089  -2.386  1.00  0.00     0.013 A 
HETATM    6  C10 UNL     1      26.955   9.063  -3.306  1.00  0.00     0.001 A 
HETATM    7  C11 UNL     1      27.683   9.221  -4.486  1.00  0.00     0.002 A 
HETATM    8  C12 UNL     1      28.375  10.398  -4.679  1.00  0.00     0.030 A 
HETATM    9  C13 UNL     1      28.373  11.419  -3.751  1.00  0.00     0.043 A 
HETATM   10  N2  UNL     1      29.051  12.573  -3.940  1.00  0.00    -0.342 N 
ATOM     11  H2  UNL     1      29.582  12.687  -4.803  1.00  0.00     0.167 HD
ENDROOT
BRANCH   1  12
HETATM   12  N1  UNL     1      29.742  14.628  -3.338  1.00  0.00    -0.376 N 
ATOM     13  H1  UNL     1      30.517  14.512  -3.992  1.00  0.00     0.161 HD
BRANCH  12  14
HETATM   14  C4  UNL     1      29.514  15.942  -2.827  1.00  0.00     0.125 C 
BRANCH  14  15
HETATM   15  C3  UNL     1      30.868  16.514  -2.386  1.00  0.00     0.046 C 
BRANCH  15  16
HETATM   16  C2  UNL     1      30.893  16.693  -0.908  1.00  0.00    -0.035 C 
HETATM   17  C1  UNL     1      29.787  16.641  -0.198  1.00  0.00     0.007 C 
ENDBRANCH  15  16
ENDBRANCH  14  15
ENDBRANCH  12  14
ENDBRANCH   1  12
TORSDOF 4
ENDMDL
MODEL 2
REMARK VINA RESULT: -8.454290124      0.919      5.933
REMARK  4 active torsions:
REMARK  status: ('A' for Active; 'I' for Inactive)
REMARK    1  A    between atoms: C2_2  and  C3_3 
REMARK    2  A    between atoms: C3_3  and  C4_4 
REMARK    3  A    between atoms: C4_4  and  N1_5 
REMARK    4  A    between atoms: N1_5  and  C5_7 
ROOT
HETATM    1  C5  UNL     1      28.708  12.984  -3.164  1.00  0.00     0.101 A 
HETATM    2  C6  UNL     1      28.102  12.915  -1.930  1.00  0.00     0.049 A 
HETATM    3  C7  UNL     1      28.319  13.886  -0.980  1.00  0.00     0.017 A 
HETATM    4  C8  UNL     1      29.162  14.933  -1.293  1.00  0.00    -0.009 A 
HETATM    5  C9  UNL     1      29.424  15.945  -0.380  1.00  0.00     0.013 A 
HETATM    6  C10 UNL     1      30.259  17.006  -0.653  1.00  0.00     0.001 A 
HETATM    7  C11 UNL     1      30.870  17.070  -1.906  1.00  0.00     0.002 A 
HETATM    8  C12 UNL     1      30.612  16.066  -2.815  1.00  0.00     0.030 A 
HETATM    9  C13 UNL     1      29.774  15.007  -2.531  1.00  0.00     0.043 A 
HETATM   10  N2  UNL     1      29.520  14.023  -3.422  1.00  0.00    -0.342 N 
ATOM     11  H2  UNL     1      29.969  14.070  -4.337  1.00  0.00     0.167 HD
ENDROOT
BRANCH   1  12
HETATM   12  N1  UNL     1      28.543  12.110  -4.090  1.00  0.00    -0.376 N 
ATOM     13  H1  UNL     1      29.155  12.175  -4.904  1.00  0.00     0.161 HD
BRANCH  12  14
HETATM   14  C4  UNL     1      27.580  11.055  -4.083  1.00  0.00     0.125 C 
BRANCH  14  15
HETATM   15  C3  UNL     1      28.330   9.737  -3.850  1.00  0.00     0.046 C 
BRANCH  15  16
HETATM   16  C2  UNL     1      27.457   8.770  -3.130  1.00  0.00    -0.035 C 
HETATM   17  C1  UNL     1      26.455   9.183  -2.383  1.00  0.00     0.007 C 
ENDBRANCH  15  16
ENDBRANCH  14  15
ENDBRANCH  12  14
ENDBRANCH   1  12
TORSDOF 4
ENDMDL
MODEL 3
REMARK VINA RESULT: -8.298201925      0.990      1.305
REMARK  4 active torsions:
REMARK  status: ('A' for Active; 'I' for Inactive)
REMARK    1  A    between atoms: C2_2  and  C3_3 
REMARK    2  A    between atoms: C3_3  and  C4_4 
REMARK    3  A    between atoms: C4_4  and  N1_5 
REMARK    4  A    between atoms: N1_5  and  C5_7 
ROOT
HETATM    1  C5  UNL     1      28.162  13.301  -2.251  1.00  0.00     0.101 A 
HETATM    2  C6  UNL     1      27.669  12.423  -1.314  1.00  0.00     0.049 A 
HETATM    3  C7  UNL     1      27.556  11.080  -1.592  1.00  0.00     0.017 A 
HETATM    4  C8  UNL     1      27.950  10.633  -2.837  1.00  0.00    -0.009 A 
HETATM    5  C9  UNL     1      27.863   9.292  -3.182  1.00  0.00     0.013 A 
HETATM    6  C10 UNL     1      28.245   8.806  -4.413  1.00  0.00     0.001 A 
HETATM    7  C11 UNL     1      28.744   9.702  -5.359  1.00  0.00     0.002 A 
HETATM    8  C12 UNL     1      28.832  11.035  -5.019  1.00  0.00     0.030 A 
HETATM    9  C13 UNL     1      28.446  11.512  -3.783  1.00  0.00     0.043 A 
HETATM   10  N2  UNL     1      28.532  12.818  -3.450  1.00  0.00    -0.342 N 
ATOM     11  H2  UNL     1      28.897  13.472  -4.143  1.00  0.00     0.167 HD
ENDROOT
BRANCH   1  12
HETATM   12  N1  UNL     1      28.290  14.563  -2.050  1.00  0.00    -0.376 N 
ATOM     13  H1  UNL     1      27.506  15.158  -2.317  1.00  0.00     0.161 HD
BRANCH  12  14
HETATM   14  C4  UNL     1      29.433  15.208  -1.486  1.00  0.00     0.125 C 
BRANCH  14  15
HETATM   15  C3  UNL     1      30.239  15.823  -2.637  1.00  0.00     0.046 C 
BRANCH  15  16
HETATM   16  C2  UNL     1      31.317  16.699  -2.099  1.00  0.00    -0.035 C 
HETATM   17  C1  UNL     1      31.413  16.944  -0.809  1.00  0.00     0.007 C 
ENDBRANCH  15  16
ENDBRANCH  14  15
ENDBRANCH  12  14
ENDBRANCH   1  12
TORSDOF 4
ENDMDL
MODEL 4
REMARK VINA RESULT: -8.258400021      1.001      1.161
REMARK  4 active torsions:
REMARK  status: ('A' for Active; 'I' for Inactive)
REMARK    1  A    between atoms: C2_2  and  C3_3 
REMARK    2  A    between atoms: C3_3  and  C4_4 
REMARK    3  A    between atoms: C4_4  and  N1_5 
REMARK    4  A    between atoms: N1_5  and  C5_7 
ROOT
HETATM    1  C5  UNL     1      29.331  14.424  -2.724  1.00  0.00     0.101 A 
HETATM    2  C6  UNL     1      28.626  14.235  -1.558  1.00  0.00     0.049 A 
HETATM    3  C7  UNL     1      27.933  13.068  -1.331  1.00  0.00     0.017 A 
HETATM    4  C8  UNL     1      27.960  12.090  -2.304  1.00  0.00    -0.009 A 
HETATM    5  C9  UNL     1      27.282  10.891  -2.139  1.00  0.00     0.013 A 
HETATM    6  C10 UNL     1      27.283   9.889  -3.086  1.00  0.00     0.001 A 
HETATM    7  C11 UNL     1      28.000  10.088  -4.266  1.00  0.00     0.002 A 
HETATM    8  C12 UNL     1      28.675  11.278  -4.433  1.00  0.00     0.030 A 
HETATM    9  C13 UNL     1      28.667  12.275  -3.479  1.00  0.00     0.043 A 
HETATM   10  N2  UNL     1      29.328  13.442  -3.642  1.00  0.00    -0.342 N 
ATOM     11  H2  UNL     1      29.851  13.586  -4.506  1.00  0.00     0.167 HD
ENDROOT
BRANCH   1  12
HETATM   12  N1  UNL     1      29.997  15.489  -2.991  1.00  0.00    -0.376 N 
ATOM     13  H1  UNL     1      30.552  15.487  -3.847  1.00  0.00     0.161 HD
BRANCH  12  14
HETATM   14  C4  UNL     1      30.032  16.676  -2.197  1.00  0.00     0.125 C 
BRANCH  14  15
HETATM   15  C3  UNL     1      31.429  16.781  -1.572  1.00  0.00     0.046 C 
BRANCH  15  16
HETATM   16  C2  UNL     1      31.321  16.964  -0.099  1.00  0.00    -0.035 C 
HETATM   17  C1  UNL     1      32.202  17.683   0.564  1.00  0.00     0.007 C 
ENDBRANCH  15  16
ENDBRANCH  14  15
ENDBRANCH  12  14
ENDBRANCH   1  12
TORSDOF 4
ENDMDL
MODEL 5
REMARK VINA RESULT: -8.254589734      1.226      6.330
REMARK  4 active torsions:
REMARK  status: ('A' for Active; 'I' for Inactive)
REMARK    1  A    between atoms: C2_2  and  C3_3 
REMARK    2  A    between atoms: C3_3  and  C4_4 
REMARK    3  A    between atoms: C4_4  and  N1_5 
REMARK    4  A    between atoms: N1_5  and  C5_7 
ROOT
HETATM    1  C5  UNL     1      28.298  13.068  -2.308  1.00  0.00     0.101 A 
HETATM    2  C6  UNL     1      29.035  13.303  -3.446  1.00  0.00     0.049 A 
HETATM    3  C7  UNL     1      29.864  14.397  -3.539  1.00  0.00     0.017 A 
HETATM    4  C8  UNL     1      29.941  15.255  -2.461  1.00  0.00    -0.009 A 
HETATM    5  C9  UNL     1      30.758  16.376  -2.489  1.00  0.00     0.013 A 
HETATM    6  C10 UNL     1      30.863  17.257  -1.435  1.00  0.00     0.001 A 
HETATM    7  C11 UNL     1      30.114  17.012  -0.283  1.00  0.00     0.002 A 
HETATM    8  C12 UNL     1      29.301  15.899  -0.252  1.00  0.00     0.030 A 
HETATM    9  C13 UNL     1      29.204  15.023  -1.314  1.00  0.00     0.043 A 
HETATM   10  N2  UNL     1      28.407  13.932  -1.284  1.00  0.00    -0.342 N 
ATOM     11  H2  UNL     1      27.860  13.755  -0.442  1.00  0.00     0.167 HD
ENDROOT
BRANCH   1  12
HETATM   12  N1  UNL     1      27.509  12.066  -2.163  1.00  0.00    -0.376 N 
ATOM     13  H1  UNL     1      26.509  12.265  -2.116  1.00  0.00     0.161 HD
BRANCH  12  14
HETATM   14  C4  UNL     1      27.904  10.697  -2.061  1.00  0.00     0.125 C 
BRANCH  14  15
HETATM   15  C3  UNL     1      26.704   9.832  -2.468  1.00  0.00     0.046 C 
BRANCH  15  16
HETATM   16  C2  UNL     1      26.740   9.559  -3.931  1.00  0.00    -0.035 C 
HETATM   17  C1  UNL     1      27.880   9.349  -4.556  1.00  0.00     0.007 C 
ENDBRANCH  15  16
ENDBRANCH  14  15
ENDBRANCH  12  14
ENDBRANCH   1  12
TORSDOF 4
ENDMDL
