MODEL 1
REMARK VINA RESULT: -8.802185881      0.000      0.000
REMARK  4 active torsions:
REMARK  status: ('A' for Active; 'I' for Inactive)
REMARK    1  A    between atoms: C3_3  and  O1_4 
REMARK    2  A    between atoms: C3_3  and  C4_6 
REMARK    3  A    between atoms: C3_3  and  C13_15 
REMARK    4  A    between atoms: C5_7  and  C6_8 
ROOT
HETATM    1  C1  UNL     1      29.216  10.198  -5.754  1.00  0.00     0.015 C 
HETATM    2  C2  UNL     1      28.683  10.754  -4.824  1.00  0.00    -0.075 C 
HETATM    3  C3  UNL     1      28.015  11.432  -3.709  1.00  0.00     0.138 C 
ENDROOT
BRANCH   3   4
HETATM    4  O1  UNL     1      26.790  11.927  -4.215  1.00  0.00    -0.374 OA
ATOM      5  H1  UNL     1      26.872  11.933  -5.162  1.00  0.00     0.212 HD
ENDBRANCH   3   4
BRANCH   3   6
HETATM    6  C4  UNL     1      28.778  12.640  -3.304  1.00  0.00     0.025 C 
HETATM    7  C5  UNL     1      28.371  13.321  -2.252  1.00  0.00     0.011 C 
BRANCH   7   8
HETATM    8  C6  UNL     1      29.060  14.527  -1.777  1.00  0.00    -0.036 A 
HETATM    9  C7  UNL     1      28.875  15.013  -0.519  1.00  0.00     0.012 A 
HETATM   10  C8  UNL     1      29.558  16.156  -0.137  1.00  0.00     0.007 A 
HETATM   11  C9  UNL     1      30.413  16.813  -0.979  1.00  0.00    -0.062 A 
HETATM   12  C10 UNL     1      31.117  18.022  -0.533  1.00  0.00     0.048 C 
HETATM   13  C11 UNL     1      30.586  16.309  -2.243  1.00  0.00     0.007 A 
HETATM   14  C12 UNL     1      29.922  15.182  -2.641  1.00  0.00     0.012 A 
ENDBRANCH   7   8
ENDBRANCH   3   6
BRANCH   3  15
HETATM   15  C13 UNL     1      27.782  10.549  -2.543  1.00  0.00     0.051 C 
HETATM   16  C14 UNL     1      26.617   9.593  -2.753  1.00  0.00     0.009 C 
ENDBRANCH   3  15
TORSDOF 4
ENDMDL
MODEL 2
REMARK VINA RESULT: -8.792186957      0.132      1.226
REMARK  4 active torsions:
REMARK  status: ('A' for Active; 'I' for Inactive)
REMARK    1  A    between atoms: C3_3  and  O1_4 
REMARK    2  A    between atoms: C3_3  and  C4_6 
REMARK    3  A    between atoms: C3_3  and  C13_15 
REMARK    4  A    between atoms: C5_7  and  C6_8 
ROOT
HETATM    1  C1  UNL     1      29.113   9.966  -5.582  1.00  0.00     0.015 C 
HETATM    2  C2  UNL     1      28.581  10.609  -4.709  1.00  0.00    -0.075 C 
HETATM    3  C3  UNL     1      27.913  11.393  -3.665  1.00  0.00     0.138 C 
ENDROOT
BRANCH   3   4
HETATM    4  O1  UNL     1      26.734  11.916  -4.247  1.00  0.00    -0.374 OA
ATOM      5  H1  UNL     1      26.619  12.787  -3.885  1.00  0.00     0.212 HD
ENDBRANCH   3   4
BRANCH   3   6
HETATM    6  C4  UNL     1      28.727  12.584  -3.311  1.00  0.00     0.025 C 
HETATM    7  C5  UNL     1      28.337  13.338  -2.303  1.00  0.00     0.011 C 
BRANCH   7   8
HETATM    8  C6  UNL     1      29.075  14.534  -1.880  1.00  0.00    -0.036 A 
HETATM    9  C7  UNL     1      29.909  15.201  -2.724  1.00  0.00     0.012 A 
HETATM   10  C8  UNL     1      30.574  16.323  -2.257  1.00  0.00     0.007 A 
HETATM   11  C9  UNL     1      30.423  16.785  -0.978  1.00  0.00    -0.062 A 
HETATM   12  C10 UNL     1      31.147  17.978  -0.525  1.00  0.00     0.048 C 
HETATM   13  C11 UNL     1      29.579  16.098  -0.142  1.00  0.00     0.007 A 
HETATM   14  C12 UNL     1      28.912  14.989  -0.581  1.00  0.00     0.012 A 
ENDBRANCH   7   8
ENDBRANCH   3   6
BRANCH   3  15
HETATM   15  C13 UNL     1      27.595  10.602  -2.454  1.00  0.00     0.051 C 
HETATM   16  C14 UNL     1      26.625   9.463  -2.735  1.00  0.00     0.009 C 
ENDBRANCH   3  15
TORSDOF 4
ENDMDL
MODEL 3
REMARK VINA RESULT: -8.700569780      4.088      8.645
REMARK  4 active torsions:
REMARK  status: ('A' for Active; 'I' for Inactive)
REMARK    1  A    between atoms: C3_3  and  O1_4 
REMARK    2  A    between atoms: C3_3  and  C4_6 
REMARK    3  A    between atoms: C3_3  and  C13_15 
REMARK    4  A    between atoms: C5_7  and  C6_8 
ROOT
HETATM    1  C1  UNL     1      32.899  22.629  -0.229  1.00  0.00     0.015 C 
HETATM    2  C2  UNL     1      32.764  21.601   0.389  1.00  0.00    -0.075 C 
HETATM    3  C3  UNL     1      32.625  20.348   1.138  1.00  0.00     0.138 C 
ENDROOT
BRANCH   3   4
HETATM    4  O1  UNL     1      33.883  19.703   1.078  1.00  0.00    -0.374 OA
ATOM      5  H1  UNL     1      33.840  19.094   0.350  1.00  0.00     0.212 HD
ENDBRANCH   3   4
BRANCH   3   6
HETATM    6  C4  UNL     1      31.690  19.428   0.441  1.00  0.00     0.025 C 
HETATM    7  C5  UNL     1      32.084  18.196   0.192  1.00  0.00     0.011 C 
BRANCH   7   8
HETATM    8  C6  UNL     1      31.231  17.216  -0.490  1.00  0.00    -0.036 A 
HETATM    9  C7  UNL     1      31.429  16.872  -1.792  1.00  0.00     0.012 A 
HETATM   10  C8  UNL     1      30.585  15.940  -2.373  1.00  0.00     0.007 A 
HETATM   11  C9  UNL     1      29.559  15.353  -1.685  1.00  0.00    -0.062 A 
HETATM   12  C10 UNL     1      28.687  14.370  -2.340  1.00  0.00     0.048 C 
HETATM   13  C11 UNL     1      29.374  15.713  -0.374  1.00  0.00     0.007 A 
HETATM   14  C12 UNL     1      30.195  16.631   0.220  1.00  0.00     0.012 A 
ENDBRANCH   7   8
ENDBRANCH   3   6
BRANCH   3  15
HETATM   15  C13 UNL     1      32.205  20.550   2.544  1.00  0.00     0.051 C 
HETATM   16  C14 UNL     1      32.482  19.336   3.419  1.00  0.00     0.009 C 
ENDBRANCH   3  15
TORSDOF 4
ENDMDL
MODEL 4
REMARK VINA RESULT: -8.647507496      4.076      8.540
REMARK  4 active torsions:
REMARK  status: ('A' for Active; 'I' for Inactive)
REMARK    1  A    between atoms: C3_3  and  O1_4 
REMARK    2  A    between atoms: C3_3  and  C4_6 
REMARK    3  A    between atoms: C3_3  and  C13_15 
REMARK    4  A    between atoms: C5_7  and  C6_8 
ROOT
HETATM    1  C1  UNL     1      32.713  22.633  -0.174  1.00  0.00     0.015 C 
HETATM    2  C2  UNL     1      32.659  21.594   0.438  1.00  0.00    -0.075 C 
HETATM    3  C3  UNL     1      32.620  20.329   1.178  1.00  0.00     0.138 C 
ENDROOT
BRANCH   3   4
HETATM    4  O1  UNL     1      33.884  19.718   0.999  1.00  0.00    -0.374 OA
ATOM      5  H1  UNL     1      34.379  19.884   1.793  1.00  0.00     0.212 HD
ENDBRANCH   3   4
BRANCH   3   6
HETATM    6  C4  UNL     1      31.650  19.393   0.554  1.00  0.00     0.025 C 
HETATM    7  C5  UNL     1      32.075  18.205   0.173  1.00  0.00     0.011 C 
BRANCH   7   8
HETATM    8  C6  UNL     1      31.191  17.214  -0.452  1.00  0.00    -0.036 A 
HETATM    9  C7  UNL     1      30.154  16.647   0.223  1.00  0.00     0.012 A 
HETATM   10  C8  UNL     1      29.361  15.718  -0.430  1.00  0.00     0.007 A 
HETATM   11  C9  UNL     1      29.581  15.350  -1.729  1.00  0.00    -0.062 A 
HETATM   12  C10 UNL     1      28.715  14.362  -2.382  1.00  0.00     0.048 C 
HETATM   13  C11 UNL     1      30.632  15.932  -2.392  1.00  0.00     0.007 A 
HETATM   14  C12 UNL     1      31.429  16.851  -1.769  1.00  0.00     0.012 A 
ENDBRANCH   7   8
ENDBRANCH   3   6
BRANCH   3  15
HETATM   15  C13 UNL     1      32.321  20.503   2.619  1.00  0.00     0.051 C 
HETATM   16  C14 UNL     1      32.385  19.194   3.394  1.00  0.00     0.009 C 
ENDBRANCH   3  15
TORSDOF 4
ENDMDL
MODEL 5
REMARK VINA RESULT: -8.571498239      1.594      6.429
REMARK  4 active torsions:
REMARK  status: ('A' for Active; 'I' for Inactive)
REMARK    1  A    between atoms: C3_3  and  O1_4 
REMARK    2  A    between atoms: C3_3  and  C4_6 
REMARK    3  A    between atoms: C3_3  and  C13_15 
REMARK    4  A    between atoms: C5_7  and  C6_8 
ROOT
HETATM    1  C1  UNL     1      29.558  16.255   0.416  1.00  0.00     0.015 C 
HETATM    2  C2  UNL     1      29.366  15.829  -0.696  1.00  0.00    -0.075 C 
HETATM    3  C3  UNL     1      29.114  15.330  -2.052  1.00  0.00     0.138 C 
ENDROOT
BRANCH   3   4
HETATM    4  O1  UNL     1      27.999  16.048  -2.545  1.00  0.00    -0.374 OA
ATOM      5  H1  UNL     1      27.592  16.464  -1.793  1.00  0.00     0.212 HD
ENDBRANCH   3   4
BRANCH   3   6
HETATM    6  C4  UNL     1      28.668  13.913  -2.009  1.00  0.00     0.025 C 
HETATM    7  C5  UNL     1      28.689  13.210  -3.123  1.00  0.00     0.011 C 
BRANCH   7   8
HETATM    8  C6  UNL     1      28.268  11.806  -3.179  1.00  0.00    -0.036 A 
HETATM    9  C7  UNL     1      27.496  11.247  -2.207  1.00  0.00     0.012 A 
HETATM   10  C8  UNL     1      27.136   9.914  -2.323  1.00  0.00     0.007 A 
HETATM   11  C9  UNL     1      27.528   9.140  -3.381  1.00  0.00    -0.062 A 
HETATM   12  C10 UNL     1      27.123   7.732  -3.465  1.00  0.00     0.048 C 
HETATM   13  C11 UNL     1      28.306   9.721  -4.350  1.00  0.00     0.007 A 
HETATM   14  C12 UNL     1      28.674  11.034  -4.256  1.00  0.00     0.012 A 
ENDBRANCH   7   8
ENDBRANCH   3   6
BRANCH   3  15
HETATM   15  C13 UNL     1      30.277  15.481  -2.956  1.00  0.00     0.051 C 
HETATM   16  C14 UNL     1      31.213  16.601  -2.526  1.00  0.00     0.009 C 
ENDBRANCH   3  15
TORSDOF 4
ENDMDL
