MODEL 1
REMARK VINA RESULT: -7.725328655      0.000      0.000
REMARK  14 active torsions:
REMARK  status: ('A' for Active; 'I' for Inactive)
REMARK    1  A    between atoms: C2_2  and  S1_4 
REMARK    2  A    between atoms: C2_2  and  C14_22 
REMARK    3  A    between atoms: S1_4  and  C4_5 
REMARK    4  A    between atoms: C6_8  and  C7_9 
REMARK    5  A    between atoms: C7_9  and  O2_10 
REMARK    6  A    between atoms: C7_9  and  C8_12 
REMARK    7  A    between atoms: C10_14  and  O3_15 
REMARK    8  A    between atoms: C12_18  and  O4_19 
REMARK    9  A    between atoms: C14_22  and  C15_24 
REMARK       I    between atoms: C15_24  and  N1_26 
REMARK   10  A    between atoms: N1_26  and  N2_28 
REMARK       I    between atoms: N2_28  and  C16_30 
REMARK       I    between atoms: C16_30  and  N3_32 
REMARK   11  A    between atoms: N3_32  and  N4_34 
REMARK   12  A    between atoms: N4_34  and  S2_36 
REMARK   13  A    between atoms: S2_36  and  O10_39 
REMARK   14  A    between atoms: O10_39  and  C17_40 
ROOT
HETATM    1  C1  UNL     1     -34.093   7.307 -28.723  1.00  0.00     0.035 C 
HETATM    2  C2  UNL     1     -33.125   7.614 -29.854  1.00  0.00     0.071 C 
HETATM    3  C3  UNL     1     -33.877   7.980 -31.101  1.00  0.00     0.035 C 
ENDROOT
BRANCH   2   4
HETATM    4  S1  UNL     1     -31.941   6.302 -30.089  1.00  0.00    -0.142 SA
BRANCH   4   5
HETATM    5  C4  UNL     1     -30.506   6.389 -28.986  1.00  0.00     0.104 C 
HETATM    6  C5  UNL     1     -29.176   6.172 -29.625  1.00  0.00     0.186 C 
HETATM    7  O1  UNL     1     -29.323   4.813 -29.344  1.00  0.00    -0.380 OA
HETATM    8  C6  UNL     1     -30.266   5.093 -28.315  1.00  0.00     0.170 C 
BRANCH   8   9
HETATM    9  C7  UNL     1     -29.559   5.009 -27.017  1.00  0.00     0.181 C 
BRANCH   9  10
HETATM   10  O2  UNL     1     -28.705   6.075 -26.732  1.00  0.00    -0.388 OA
ATOM     11  H2  UNL     1     -27.956   6.162 -27.310  1.00  0.00     0.210 HD
ENDBRANCH   9  10
BRANCH   9  12
HETATM   12  C8  UNL     1     -30.336   4.684 -25.827  1.00  0.00    -0.022 A 
HETATM   13  C9  UNL     1     -30.843   3.426 -25.621  1.00  0.00     0.046 A 
HETATM   14  C10 UNL     1     -31.598   3.106 -24.506  1.00  0.00     0.069 A 
HETATM   15  C11 UNL     1     -31.831   4.107 -23.589  1.00  0.00     0.073 A 
HETATM   16  C12 UNL     1     -31.349   5.389 -23.741  1.00  0.00     0.069 A 
HETATM   17  C13 UNL     1     -30.598   5.648 -24.880  1.00  0.00     0.046 A 
BRANCH  14  18
HETATM   18  O3  UNL     1     -32.107   1.811 -24.317  1.00  0.00    -0.361 OA
ATOM     19  H3  UNL     1     -32.387   1.278 -25.051  1.00  0.00     0.217 HD
ENDBRANCH  14  18
BRANCH  16  20
HETATM   20  O4  UNL     1     -31.593   6.398 -22.800  1.00  0.00    -0.361 OA
ATOM     21  H4  UNL     1     -30.983   6.599 -22.099  1.00  0.00     0.217 HD
ENDBRANCH  16  20
ENDBRANCH   9  12
ENDBRANCH   8   9
ENDBRANCH   4   5
ENDBRANCH   2   4
BRANCH   2  22
HETATM   22  C14 UNL     1     -32.407   8.862 -29.401  1.00  0.00     0.235 C 
HETATM   23  O5  UNL     1     -31.580   9.454 -30.121  1.00  0.00    -0.285 OA
BRANCH  22  24
HETATM   24  C15 UNL     1     -32.691   9.381 -28.081  1.00  0.00     0.307 C 
HETATM   25  O6  UNL     1     -33.609  10.214 -27.821  1.00  0.00    -0.263 OA
HETATM   26  N1  UNL     1     -31.913   8.949 -26.955  1.00  0.00    -0.259 N 
ATOM     27  H1  UNL     1     -31.160   8.280 -27.117  1.00  0.00     0.190 HD
BRANCH  26  28
HETATM   28  N2  UNL     1     -32.128   9.393 -25.658  1.00  0.00    -0.247 N 
HETATM   29  C16 UNL     1     -32.911   8.684 -24.727  1.00  0.00     0.354 C 
HETATM   30  O7  UNL     1     -33.435   7.594 -25.100  1.00  0.00    -0.244 OA
HETATM   31  N3  UNL     1     -33.157   9.107 -23.398  1.00  0.00    -0.239 N 
ATOM     32  H3  UNL     1     -32.743   9.976 -23.061  1.00  0.00     0.192 HD
ATOM     33  H2  UNL     1     -31.700  10.271 -25.366  1.00  0.00     0.192 HD
BRANCH  31  34
HETATM   34  N4  UNL     1     -33.945   8.360 -22.559  1.00  0.00    -0.200 N 
ATOM     35  H4  UNL     1     -33.600   7.551 -22.042  1.00  0.00     0.202 HD
BRANCH  34  36
HETATM   36  S2  UNL     1     -35.552   8.914 -22.459  1.00  0.00     0.384 S 
HETATM   37  O8  UNL     1     -35.625  10.256 -23.159  1.00  0.00    -0.174 OA
HETATM   38  O9  UNL     1     -36.534   7.990 -23.159  1.00  0.00    -0.174 OA
BRANCH  36  39
HETATM   39  O10 UNL     1     -35.975   9.133 -20.833  1.00  0.00    -0.163 OA
BRANCH  39  40
HETATM   40  C17 UNL     1     -35.089   9.853 -20.020  1.00  0.00     0.388 C 
HETATM   41  N5  UNL     1     -35.460  11.195 -19.703  1.00  0.00    -0.031 NA
HETATM   42  O11 UNL     1     -34.020   9.359 -19.586  1.00  0.00    -0.241 OA
ENDBRANCH  39  40
ENDBRANCH  36  39
ENDBRANCH  34  36
ENDBRANCH  31  34
ENDBRANCH  26  28
ENDBRANCH  22  24
ENDBRANCH   2  22
TORSDOF 14
ENDMDL
MODEL 2
REMARK VINA RESULT: -7.588142852      1.395      2.093
REMARK  14 active torsions:
REMARK  status: ('A' for Active; 'I' for Inactive)
REMARK    1  A    between atoms: C2_2  and  S1_4 
REMARK    2  A    between atoms: C2_2  and  C14_22 
REMARK    3  A    between atoms: S1_4  and  C4_5 
REMARK    4  A    between atoms: C6_8  and  C7_9 
REMARK    5  A    between atoms: C7_9  and  O2_10 
REMARK    6  A    between atoms: C7_9  and  C8_12 
REMARK    7  A    between atoms: C10_14  and  O3_15 
REMARK    8  A    between atoms: C12_18  and  O4_19 
REMARK    9  A    between atoms: C14_22  and  C15_24 
REMARK       I    between atoms: C15_24  and  N1_26 
REMARK   10  A    between atoms: N1_26  and  N2_28 
REMARK       I    between atoms: N2_28  and  C16_30 
REMARK       I    between atoms: C16_30  and  N3_32 
REMARK   11  A    between atoms: N3_32  and  N4_34 
REMARK   12  A    between atoms: N4_34  and  S2_36 
REMARK   13  A    between atoms: S2_36  and  O10_39 
REMARK   14  A    between atoms: O10_39  and  C17_40 
ROOT
HETATM    1  C1  UNL     1     -32.942   7.621 -28.026  1.00  0.00     0.035 C 
HETATM    2  C2  UNL     1     -31.899   8.523 -28.663  1.00  0.00     0.071 C 
HETATM    3  C3  UNL     1     -32.551   9.728 -29.277  1.00  0.00     0.035 C 
ENDROOT
BRANCH   2   4
HETATM    4  S1  UNL     1     -30.845   7.627 -29.789  1.00  0.00    -0.142 SA
BRANCH   4   5
HETATM    5  C4  UNL     1     -29.594   6.597 -28.977  1.00  0.00     0.104 C 
HETATM    6  C5  UNL     1     -28.956   5.552 -29.827  1.00  0.00     0.186 C 
HETATM    7  O1  UNL     1     -29.961   4.678 -29.411  1.00  0.00    -0.380 OA
HETATM    8  C6  UNL     1     -30.217   5.467 -28.255  1.00  0.00     0.170 C 
BRANCH   8   9
HETATM    9  C7  UNL     1     -29.549   4.817 -27.106  1.00  0.00     0.181 C 
BRANCH   9  10
HETATM   10  O2  UNL     1     -28.318   5.364 -26.743  1.00  0.00    -0.388 OA
ATOM     11  H2  UNL     1     -27.558   4.960 -27.147  1.00  0.00     0.210 HD
ENDBRANCH   9  10
BRANCH   9  12
HETATM   12  C8  UNL     1     -30.334   4.561 -25.904  1.00  0.00    -0.022 A 
HETATM   13  C9  UNL     1     -30.535   5.533 -24.956  1.00  0.00     0.046 A 
HETATM   14  C10 UNL     1     -31.261   5.301 -23.802  1.00  0.00     0.069 A 
HETATM   15  C11 UNL     1     -31.788   4.040 -23.626  1.00  0.00     0.073 A 
HETATM   16  C12 UNL     1     -31.621   3.024 -24.541  1.00  0.00     0.069 A 
HETATM   17  C13 UNL     1     -30.882   3.319 -25.680  1.00  0.00     0.046 A 
BRANCH  14  18
HETATM   18  O3  UNL     1     -31.454   6.311 -22.845  1.00  0.00    -0.361 OA
ATOM     19  H3  UNL     1     -31.407   6.125 -21.914  1.00  0.00     0.217 HD
ENDBRANCH  14  18
BRANCH  16  20
HETATM   20  O4  UNL     1     -32.163   1.746 -24.351  1.00  0.00    -0.361 OA
ATOM     21  H4  UNL     1     -32.025   1.037 -24.969  1.00  0.00     0.217 HD
ENDBRANCH  16  20
ENDBRANCH   9  12
ENDBRANCH   8   9
ENDBRANCH   4   5
ENDBRANCH   2   4
BRANCH   2  22
HETATM   22  C14 UNL     1     -31.077   9.024 -27.499  1.00  0.00     0.235 C 
HETATM   23  O5  UNL     1     -29.835   9.105 -27.546  1.00  0.00    -0.285 OA
BRANCH  22  24
HETATM   24  C15 UNL     1     -31.765   9.417 -26.289  1.00  0.00     0.307 C 
HETATM   25  O6  UNL     1     -32.258  10.566 -26.086  1.00  0.00    -0.263 OA
HETATM   26  N1  UNL     1     -31.932   8.476 -25.218  1.00  0.00    -0.259 N 
ATOM     27  H1  UNL     1     -31.548   7.538 -25.336  1.00  0.00     0.190 HD
BRANCH  26  28
HETATM   28  N2  UNL     1     -32.586   8.773 -24.031  1.00  0.00    -0.247 N 
HETATM   29  C16 UNL     1     -33.900   8.350 -23.754  1.00  0.00     0.354 C 
HETATM   30  O7  UNL     1     -34.501   7.667 -24.634  1.00  0.00    -0.244 OA
HETATM   31  N3  UNL     1     -34.601   8.638 -22.558  1.00  0.00    -0.239 N 
ATOM     32  H3  UNL     1     -34.144   9.178 -21.823  1.00  0.00     0.192 HD
ATOM     33  H2  UNL     1     -32.093   9.322 -23.327  1.00  0.00     0.192 HD
BRANCH  31  34
HETATM   34  N4  UNL     1     -35.887   8.196 -22.375  1.00  0.00    -0.200 N 
ATOM     35  H4  UNL     1     -36.169   7.225 -22.511  1.00  0.00     0.202 HD
BRANCH  34  36
HETATM   36  S2  UNL     1     -36.968   9.423 -21.898  1.00  0.00     0.384 S 
HETATM   37  O8  UNL     1     -36.635  10.669 -22.693  1.00  0.00    -0.174 OA
HETATM   38  O9  UNL     1     -38.417   9.075 -22.195  1.00  0.00    -0.174 OA
BRANCH  36  39
HETATM   39  O10 UNL     1     -36.749   9.762 -20.252  1.00  0.00    -0.163 OA
BRANCH  39  40
HETATM   40  C17 UNL     1     -35.568  10.415 -19.873  1.00  0.00     0.388 C 
HETATM   41  N5  UNL     1     -34.412   9.596 -19.696  1.00  0.00    -0.031 NA
HETATM   42  O11 UNL     1     -35.513  11.657 -19.693  1.00  0.00    -0.241 OA
ENDBRANCH  39  40
ENDBRANCH  36  39
ENDBRANCH  34  36
ENDBRANCH  31  34
ENDBRANCH  26  28
ENDBRANCH  22  24
ENDBRANCH   2  22
TORSDOF 14
ENDMDL
MODEL 3
REMARK VINA RESULT: -7.567627865      1.390      1.534
REMARK  14 active torsions:
REMARK  status: ('A' for Active; 'I' for Inactive)
REMARK    1  A    between atoms: C2_2  and  S1_4 
REMARK    2  A    between atoms: C2_2  and  C14_22 
REMARK    3  A    between atoms: S1_4  and  C4_5 
REMARK    4  A    between atoms: C6_8  and  C7_9 
REMARK    5  A    between atoms: C7_9  and  O2_10 
REMARK    6  A    between atoms: C7_9  and  C8_12 
REMARK    7  A    between atoms: C10_14  and  O3_15 
REMARK    8  A    between atoms: C12_18  and  O4_19 
REMARK    9  A    between atoms: C14_22  and  C15_24 
REMARK       I    between atoms: C15_24  and  N1_26 
REMARK   10  A    between atoms: N1_26  and  N2_28 
REMARK       I    between atoms: N2_28  and  C16_30 
REMARK       I    between atoms: C16_30  and  N3_32 
REMARK   11  A    between atoms: N3_32  and  N4_34 
REMARK   12  A    between atoms: N4_34  and  S2_36 
REMARK   13  A    between atoms: S2_36  and  O10_39 
REMARK   14  A    between atoms: O10_39  and  C17_40 
ROOT
HETATM    1  C1  UNL     1     -32.930   7.580 -27.935  1.00  0.00     0.035 C 
HETATM    2  C2  UNL     1     -31.933   8.494 -28.629  1.00  0.00     0.071 C 
HETATM    3  C3  UNL     1     -32.636   9.675 -29.233  1.00  0.00     0.035 C 
ENDROOT
BRANCH   2   4
HETATM    4  S1  UNL     1     -30.909   7.602 -29.785  1.00  0.00    -0.142 SA
BRANCH   4   5
HETATM    5  C4  UNL     1     -29.644   6.561 -29.010  1.00  0.00     0.104 C 
HETATM    6  C5  UNL     1     -29.046   5.505 -29.875  1.00  0.00     0.186 C 
HETATM    7  O1  UNL     1     -30.047   4.644 -29.423  1.00  0.00    -0.380 OA
HETATM    8  C6  UNL     1     -30.257   5.441 -28.263  1.00  0.00     0.170 C 
BRANCH   8   9
HETATM    9  C7  UNL     1     -29.559   4.788 -27.133  1.00  0.00     0.181 C 
BRANCH   9  10
HETATM   10  O2  UNL     1     -28.329   5.350 -26.785  1.00  0.00    -0.388 OA
ATOM     11  H2  UNL     1     -27.600   4.742 -26.749  1.00  0.00     0.210 HD
ENDBRANCH   9  10
BRANCH   9  12
HETATM   12  C8  UNL     1     -30.319   4.507 -25.921  1.00  0.00    -0.022 A 
HETATM   13  C9  UNL     1     -30.877   3.274 -25.693  1.00  0.00     0.046 A 
HETATM   14  C10 UNL     1     -31.617   2.996 -24.557  1.00  0.00     0.069 A 
HETATM   15  C11 UNL     1     -31.781   4.013 -23.642  1.00  0.00     0.073 A 
HETATM   16  C12 UNL     1     -31.245   5.270 -23.815  1.00  0.00     0.069 A 
HETATM   17  C13 UNL     1     -30.512   5.487 -24.975  1.00  0.00     0.046 A 
BRANCH  14  18
HETATM   18  O3  UNL     1     -32.180   1.727 -24.345  1.00  0.00    -0.361 OA
ATOM     19  H3  UNL     1     -32.001   1.233 -23.554  1.00  0.00     0.217 HD
ENDBRANCH  14  18
BRANCH  16  20
HETATM   20  O4  UNL     1     -31.418   6.295 -22.875  1.00  0.00    -0.361 OA
ATOM     21  H4  UNL     1     -30.901   6.349 -22.080  1.00  0.00     0.217 HD
ENDBRANCH  16  20
ENDBRANCH   9  12
ENDBRANCH   8   9
ENDBRANCH   4   5
ENDBRANCH   2   4
BRANCH   2  22
HETATM   22  C14 UNL     1     -31.075   9.029 -27.509  1.00  0.00     0.235 C 
HETATM   23  O5  UNL     1     -29.838   9.143 -27.612  1.00  0.00    -0.285 OA
BRANCH  22  24
HETATM   24  C15 UNL     1     -31.718   9.417 -26.272  1.00  0.00     0.307 C 
HETATM   25  O6  UNL     1     -32.185  10.571 -26.040  1.00  0.00    -0.263 OA
HETATM   26  N1  UNL     1     -31.867   8.465 -25.209  1.00  0.00    -0.259 N 
ATOM     27  H1  UNL     1     -31.503   7.523 -25.351  1.00  0.00     0.190 HD
BRANCH  26  28
HETATM   28  N2  UNL     1     -32.480   8.757 -23.999  1.00  0.00    -0.247 N 
HETATM   29  C16 UNL     1     -33.804   8.384 -23.700  1.00  0.00     0.354 C 
HETATM   30  O7  UNL     1     -34.454   7.752 -24.583  1.00  0.00    -0.244 OA
HETATM   31  N3  UNL     1     -34.462   8.668 -22.480  1.00  0.00    -0.239 N 
ATOM     32  H3  UNL     1     -33.965   9.168 -21.743  1.00  0.00     0.192 HD
ATOM     33  H2  UNL     1     -31.946   9.265 -23.293  1.00  0.00     0.192 HD
BRANCH  31  34
HETATM   34  N4  UNL     1     -35.762   8.278 -22.277  1.00  0.00    -0.200 N 
ATOM     35  H4  UNL     1     -36.059   7.301 -22.277  1.00  0.00     0.202 HD
BRANCH  34  36
HETATM   36  S2  UNL     1     -36.833   9.577 -22.024  1.00  0.00     0.384 S 
HETATM   37  O8  UNL     1     -36.368  10.736 -22.881  1.00  0.00    -0.174 OA
HETATM   38  O9  UNL     1     -38.257   9.253 -22.443  1.00  0.00    -0.174 OA
BRANCH  36  39
HETATM   39  O10 UNL     1     -36.771  10.054 -20.398  1.00  0.00    -0.163 OA
BRANCH  39  40
HETATM   40  C17 UNL     1     -35.606  10.693 -19.951  1.00  0.00     0.388 C 
HETATM   41  N5  UNL     1     -34.488   9.855 -19.661  1.00  0.00    -0.031 NA
HETATM   42  O11 UNL     1     -35.535  11.939 -19.807  1.00  0.00    -0.241 OA
ENDBRANCH  39  40
ENDBRANCH  36  39
ENDBRANCH  34  36
ENDBRANCH  31  34
ENDBRANCH  26  28
ENDBRANCH  22  24
ENDBRANCH   2  22
TORSDOF 14
ENDMDL
MODEL 4
REMARK VINA RESULT: -7.497598697      3.209      6.075
REMARK  14 active torsions:
REMARK  status: ('A' for Active; 'I' for Inactive)
REMARK    1  A    between atoms: C2_2  and  S1_4 
REMARK    2  A    between atoms: C2_2  and  C14_22 
REMARK    3  A    between atoms: S1_4  and  C4_5 
REMARK    4  A    between atoms: C6_8  and  C7_9 
REMARK    5  A    between atoms: C7_9  and  O2_10 
REMARK    6  A    between atoms: C7_9  and  C8_12 
REMARK    7  A    between atoms: C10_14  and  O3_15 
REMARK    8  A    between atoms: C12_18  and  O4_19 
REMARK    9  A    between atoms: C14_22  and  C15_24 
REMARK       I    between atoms: C15_24  and  N1_26 
REMARK   10  A    between atoms: N1_26  and  N2_28 
REMARK       I    between atoms: N2_28  and  C16_30 
REMARK       I    between atoms: C16_30  and  N3_32 
REMARK   11  A    between atoms: N3_32  and  N4_34 
REMARK   12  A    between atoms: N4_34  and  S2_36 
REMARK   13  A    between atoms: S2_36  and  O10_39 
REMARK   14  A    between atoms: O10_39  and  C17_40 
ROOT
HETATM    1  C1  UNL     1     -28.359   5.774 -29.364  1.00  0.00     0.035 C 
HETATM    2  C2  UNL     1     -29.569   5.587 -28.465  1.00  0.00     0.071 C 
HETATM    3  C3  UNL     1     -29.205   4.772 -27.257  1.00  0.00     0.035 C 
ENDROOT
BRANCH   2   4
HETATM    4  S1  UNL     1     -30.971   4.947 -29.363  1.00  0.00    -0.142 SA
BRANCH   4   5
HETATM    5  C4  UNL     1     -31.134   5.596 -31.047  1.00  0.00     0.104 C 
HETATM    6  C5  UNL     1     -32.504   5.556 -31.634  1.00  0.00     0.186 C 
HETATM    7  O1  UNL     1     -32.192   4.293 -32.139  1.00  0.00    -0.380 OA
HETATM    8  C6  UNL     1     -30.798   4.565 -32.054  1.00  0.00     0.170 C 
BRANCH   8   9
HETATM    9  C7  UNL     1     -30.323   4.928 -33.408  1.00  0.00     0.181 C 
BRANCH   9  10
HETATM   10  O2  UNL     1     -30.892   6.080 -33.952  1.00  0.00    -0.388 OA
ATOM     11  H2  UNL     1     -31.080   6.040 -34.883  1.00  0.00     0.210 HD
ENDBRANCH   9  10
BRANCH   9  12
HETATM   12  C8  UNL     1     -28.887   4.938 -33.657  1.00  0.00    -0.022 A 
HETATM   13  C9  UNL     1     -27.980   5.034 -32.631  1.00  0.00     0.046 A 
HETATM   14  C10 UNL     1     -26.614   5.065 -32.851  1.00  0.00     0.069 A 
HETATM   15  C11 UNL     1     -26.180   4.993 -34.157  1.00  0.00     0.073 A 
HETATM   16  C12 UNL     1     -27.042   4.896 -35.228  1.00  0.00     0.069 A 
HETATM   17  C13 UNL     1     -28.401   4.870 -34.942  1.00  0.00     0.046 A 
BRANCH  14  18
HETATM   18  O3  UNL     1     -25.705   5.164 -31.786  1.00  0.00    -0.361 OA
ATOM     19  H3  UNL     1     -25.642   5.954 -31.262  1.00  0.00     0.217 HD
ENDBRANCH  14  18
BRANCH  16  20
HETATM   20  O4  UNL     1     -26.587   4.823 -36.552  1.00  0.00    -0.361 OA
ATOM     21  H4  UNL     1     -27.182   4.782 -37.292  1.00  0.00     0.217 HD
ENDBRANCH  16  20
ENDBRANCH   9  12
ENDBRANCH   8   9
ENDBRANCH   4   5
ENDBRANCH   2   4
BRANCH   2  22
HETATM   22  C14 UNL     1     -29.884   6.977 -27.969  1.00  0.00     0.235 C 
HETATM   23  O5  UNL     1     -29.816   7.979 -28.706  1.00  0.00    -0.285 OA
BRANCH  22  24
HETATM   24  C15 UNL     1     -30.275   7.144 -26.586  1.00  0.00     0.307 C 
HETATM   25  O6  UNL     1     -29.519   7.603 -25.679  1.00  0.00    -0.263 OA
HETATM   26  N1  UNL     1     -31.598   6.785 -26.164  1.00  0.00    -0.259 N 
ATOM     27  H1  UNL     1     -32.241   6.408 -26.861  1.00  0.00     0.190 HD
BRANCH  26  28
HETATM   28  N2  UNL     1     -32.051   6.923 -24.860  1.00  0.00    -0.247 N 
HETATM   29  C16 UNL     1     -32.755   8.056 -24.409  1.00  0.00     0.354 C 
HETATM   30  O7  UNL     1     -32.980   8.983 -25.240  1.00  0.00    -0.244 OA
HETATM   31  N3  UNL     1     -33.228   8.234 -23.086  1.00  0.00    -0.239 N 
ATOM     32  H3  UNL     1     -33.072   7.503 -22.392  1.00  0.00     0.192 HD
ATOM     33  H2  UNL     1     -31.867   6.170 -24.198  1.00  0.00     0.192 HD
BRANCH  31  34
HETATM   34  N4  UNL     1     -33.895   9.378 -22.728  1.00  0.00    -0.200 N 
ATOM     35  H4  UNL     1     -33.432  10.279 -22.604  1.00  0.00     0.202 HD
BRANCH  34  36
HETATM   36  S2  UNL     1     -35.569   9.153 -22.511  1.00  0.00     0.384 S 
HETATM   37  O8  UNL     1     -36.282  10.318 -23.166  1.00  0.00    -0.174 OA
HETATM   38  O9  UNL     1     -36.080   7.885 -23.172  1.00  0.00    -0.174 OA
BRANCH  36  39
HETATM   39  O10 UNL     1     -35.931   9.166 -20.855  1.00  0.00    -0.163 OA
BRANCH  39  40
HETATM   40  C17 UNL     1     -35.081   9.889 -20.007  1.00  0.00     0.388 C 
HETATM   41  N5  UNL     1     -33.908   9.215 -19.552  1.00  0.00    -0.031 NA
HETATM   42  O11 UNL     1     -35.324  11.070 -19.656  1.00  0.00    -0.241 OA
ENDBRANCH  39  40
ENDBRANCH  36  39
ENDBRANCH  34  36
ENDBRANCH  31  34
ENDBRANCH  26  28
ENDBRANCH  22  24
ENDBRANCH   2  22
TORSDOF 14
ENDMDL
MODEL 5
REMARK VINA RESULT: -7.491572367      3.209      6.010
REMARK  14 active torsions:
REMARK  status: ('A' for Active; 'I' for Inactive)
REMARK    1  A    between atoms: C2_2  and  S1_4 
REMARK    2  A    between atoms: C2_2  and  C14_22 
REMARK    3  A    between atoms: S1_4  and  C4_5 
REMARK    4  A    between atoms: C6_8  and  C7_9 
REMARK    5  A    between atoms: C7_9  and  O2_10 
REMARK    6  A    between atoms: C7_9  and  C8_12 
REMARK    7  A    between atoms: C10_14  and  O3_15 
REMARK    8  A    between atoms: C12_18  and  O4_19 
REMARK    9  A    between atoms: C14_22  and  C15_24 
REMARK       I    between atoms: C15_24  and  N1_26 
REMARK   10  A    between atoms: N1_26  and  N2_28 
REMARK       I    between atoms: N2_28  and  C16_30 
REMARK       I    between atoms: C16_30  and  N3_32 
REMARK   11  A    between atoms: N3_32  and  N4_34 
REMARK   12  A    between atoms: N4_34  and  S2_36 
REMARK   13  A    between atoms: S2_36  and  O10_39 
REMARK   14  A    between atoms: O10_39  and  C17_40 
ROOT
HETATM    1  C1  UNL     1     -28.357   5.847 -29.433  1.00  0.00     0.035 C 
HETATM    2  C2  UNL     1     -29.542   5.630 -28.507  1.00  0.00     0.071 C 
HETATM    3  C3  UNL     1     -29.133   4.815 -27.314  1.00  0.00     0.035 C 
ENDROOT
BRANCH   2   4
HETATM    4  S1  UNL     1     -30.952   4.968 -29.377  1.00  0.00    -0.142 SA
BRANCH   4   5
HETATM    5  C4  UNL     1     -31.140   5.588 -31.069  1.00  0.00     0.104 C 
HETATM    6  C5  UNL     1     -32.506   5.480 -31.657  1.00  0.00     0.186 C 
HETATM    7  O1  UNL     1     -32.136   4.226 -32.147  1.00  0.00    -0.380 OA
HETATM    8  C6  UNL     1     -30.756   4.562 -32.062  1.00  0.00     0.170 C 
BRANCH   8   9
HETATM    9  C7  UNL     1     -30.296   4.930 -33.420  1.00  0.00     0.181 C 
BRANCH   9  10
HETATM   10  O2  UNL     1     -30.888   6.070 -33.964  1.00  0.00    -0.388 OA
ATOM     11  H2  UNL     1     -31.020   6.051 -34.905  1.00  0.00     0.210 HD
ENDBRANCH   9  10
BRANCH   9  12
HETATM   12  C8  UNL     1     -28.861   4.965 -33.677  1.00  0.00    -0.022 A 
HETATM   13  C9  UNL     1     -28.357   4.898 -34.952  1.00  0.00     0.046 A 
HETATM   14  C10 UNL     1     -26.999   4.911 -35.212  1.00  0.00     0.069 A 
HETATM   15  C11 UNL     1     -26.146   4.994 -34.133  1.00  0.00     0.073 A 
HETATM   16  C12 UNL     1     -26.592   5.064 -32.831  1.00  0.00     0.069 A 
HETATM   17  C13 UNL     1     -27.967   5.047 -32.634  1.00  0.00     0.046 A 
BRANCH  14  18
HETATM   18  O3  UNL     1     -26.506   4.841 -36.526  1.00  0.00    -0.361 OA
ATOM     19  H3  UNL     1     -25.955   4.120 -36.809  1.00  0.00     0.217 HD
ENDBRANCH  14  18
BRANCH  16  20
HETATM   20  O4  UNL     1     -25.714   5.150 -31.741  1.00  0.00    -0.361 OA
ATOM     21  H4  UNL     1     -24.810   5.426 -31.837  1.00  0.00     0.217 HD
ENDBRANCH  16  20
ENDBRANCH   9  12
ENDBRANCH   8   9
ENDBRANCH   4   5
ENDBRANCH   2   4
BRANCH   2  22
HETATM   22  C14 UNL     1     -29.873   7.010 -27.994  1.00  0.00     0.235 C 
HETATM   23  O5  UNL     1     -29.818   8.022 -28.719  1.00  0.00    -0.285 OA
BRANCH  22  24
HETATM   24  C15 UNL     1     -30.264   7.155 -26.609  1.00  0.00     0.307 C 
HETATM   25  O6  UNL     1     -29.506   7.589 -25.693  1.00  0.00    -0.263 OA
HETATM   26  N1  UNL     1     -31.592   6.803 -26.196  1.00  0.00    -0.259 N 
ATOM     27  H1  UNL     1     -32.238   6.445 -26.900  1.00  0.00     0.190 HD
BRANCH  26  28
HETATM   28  N2  UNL     1     -32.046   6.922 -24.890  1.00  0.00    -0.247 N 
HETATM   29  C16 UNL     1     -32.743   8.051 -24.421  1.00  0.00     0.354 C 
HETATM   30  O7  UNL     1     -32.961   8.994 -25.236  1.00  0.00    -0.244 OA
HETATM   31  N3  UNL     1     -33.216   8.209 -23.096  1.00  0.00    -0.239 N 
ATOM     32  H3  UNL     1     -33.066   7.466 -22.414  1.00  0.00     0.192 HD
ATOM     33  H2  UNL     1     -31.867   6.155 -24.241  1.00  0.00     0.192 HD
BRANCH  31  34
HETATM   34  N4  UNL     1     -33.876   9.352 -22.718  1.00  0.00    -0.200 N 
ATOM     35  H4  UNL     1     -33.407  10.247 -22.576  1.00  0.00     0.202 HD
BRANCH  34  36
HETATM   36  S2  UNL     1     -35.552   9.135 -22.511  1.00  0.00     0.384 S 
HETATM   37  O8  UNL     1     -36.256  10.303 -23.172  1.00  0.00    -0.174 OA
HETATM   38  O9  UNL     1     -36.066   7.869 -23.175  1.00  0.00    -0.174 OA
BRANCH  36  39
HETATM   39  O10 UNL     1     -35.925   9.150 -20.858  1.00  0.00    -0.163 OA
BRANCH  39  40
HETATM   40  C17 UNL     1     -35.075   9.867 -20.005  1.00  0.00     0.388 C 
HETATM   41  N5  UNL     1     -33.887   9.200 -19.577  1.00  0.00    -0.031 NA
HETATM   42  O11 UNL     1     -35.330  11.037 -19.626  1.00  0.00    -0.241 OA
ENDBRANCH  39  40
ENDBRANCH  36  39
ENDBRANCH  34  36
ENDBRANCH  31  34
ENDBRANCH  26  28
ENDBRANCH  22  24
ENDBRANCH   2  22
TORSDOF 14
ENDMDL
