MODEL 1
REMARK VINA RESULT: -8.548695111      0.000      0.000
REMARK  15 active torsions:
REMARK  status: ('A' for Active; 'I' for Inactive)
REMARK    1  A    between atoms: C2_2  and  C3_3 
REMARK    2  A    between atoms: C8_8  and  O1_9 
REMARK    3  A    between atoms: O1_9  and  C9_10 
REMARK    4  A    between atoms: C10_11  and  N1_12 
REMARK    5  A    between atoms: C11_16  and  O2_17 
REMARK    6  A    between atoms: O2_17  and  C12_18 
REMARK    7  A    between atoms: C12_18  and  C13_19 
REMARK    8  A    between atoms: C13_19  and  N2_20 
REMARK    9  A    between atoms: C13_19  and  C14_24 
REMARK       I    between atoms: C14_24  and  N3_26 
REMARK   10  A    between atoms: N3_26  and  C15_28 
REMARK   11  A    between atoms: C21_34  and  O4_35 
REMARK   12  A    between atoms: C22_37  and  O5_38 
REMARK   13  A    between atoms: C23_40  and  O6_41 
REMARK   14  A    between atoms: C24_43  and  O7_44 
REMARK   15  A    between atoms: C25_46  and  O8_47 
ROOT
HETATM    1  C9  UNL     1     -29.655   6.041 -26.671  1.00  0.00     0.186 C 
HETATM    2  C10 UNL     1     -30.663   6.978 -26.121  1.00  0.00     0.246 C 
HETATM    3  C11 UNL     1     -30.707   6.804 -24.568  1.00  0.00     0.185 C 
HETATM    4  C21 UNL     1     -31.462   5.476 -24.416  1.00  0.00     0.180 C 
HETATM    5  C22 UNL     1     -30.597   4.407 -24.999  1.00  0.00     0.180 C 
HETATM    6  C23 UNL     1     -29.374   4.895 -25.718  1.00  0.00     0.180 C 
ENDROOT
BRANCH   3   7
HETATM    7  O2  UNL     1     -31.321   7.838 -23.984  1.00  0.00    -0.378 OA
BRANCH   7   8
HETATM    8  C12 UNL     1     -32.288   7.698 -23.053  1.00  0.00     0.211 C 
BRANCH   8   9
HETATM    9  C13 UNL     1     -33.526   8.516 -23.139  1.00  0.00     0.298 C 
BRANCH   9  10
HETATM   10  N2  UNL     1     -34.655   7.850 -23.728  1.00  0.00    -0.064 N 
ATOM     11  H23 UNL     1     -35.370   8.530 -23.986  1.00  0.00     0.275 HD
ATOM     12  H22 UNL     1     -34.410   7.490 -24.650  1.00  0.00     0.275 HD
ATOM     13  H21 UNL     1     -35.064   7.109 -23.158  1.00  0.00     0.275 HD
ENDBRANCH   9  10
BRANCH   9  14
HETATM   14  C14 UNL     1     -33.958   9.006 -21.783  1.00  0.00     0.250 C 
HETATM   15  O3  UNL     1     -33.367   8.639 -20.768  1.00  0.00    -0.271 OA
HETATM   16  N3  UNL     1     -35.059   9.896 -21.724  1.00  0.00    -0.355 N 
ATOM     17  H3  UNL     1     -35.519  10.174 -22.591  1.00  0.00     0.162 HD
BRANCH  16  18
HETATM   18  C15 UNL     1     -35.549  10.421 -20.465  1.00  0.00     0.084 C 
HETATM   19  C16 UNL     1     -35.760  11.897 -20.644  1.00  0.00     0.025 C 
HETATM   20  C17 UNL     1     -36.372  12.570 -19.455  1.00  0.00     0.002 C 
HETATM   21  C18 UNL     1     -37.377  11.703 -18.746  1.00  0.00     0.000 C 
HETATM   22  C19 UNL     1     -37.923  10.651 -19.682  1.00  0.00     0.002 C 
HETATM   23  C20 UNL     1     -36.823   9.702 -20.094  1.00  0.00     0.025 C 
ENDBRANCH  16  18
ENDBRANCH   9  14
ENDBRANCH   8   9
ENDBRANCH   7   8
ENDBRANCH   3   7
BRANCH   2  24
HETATM   24  N1  UNL     1     -32.004   6.844 -26.566  1.00  0.00    -0.070 N 
ATOM     25  H13 UNL     1     -32.163   5.883 -26.869  1.00  0.00     0.274 HD
ATOM     26  H12 UNL     1     -32.631   6.899 -25.764  1.00  0.00     0.274 HD
ATOM     27  H11 UNL     1     -32.330   7.484 -27.292  1.00  0.00     0.274 HD
ENDBRANCH   2  24
BRANCH   4  28
HETATM   28  O4  UNL     1     -31.850   5.214 -23.126  1.00  0.00    -0.390 OA
ATOM     29  H4  UNL     1     -31.643   4.331 -22.841  1.00  0.00     0.210 HD
ENDBRANCH   4  28
BRANCH   1  30
HETATM   30  O1  UNL     1     -29.913   5.495 -27.904  1.00  0.00    -0.373 OA
BRANCH  30  31
HETATM   31  C8  UNL     1     -29.127   5.956 -28.949  1.00  0.00     0.153 C 
HETATM   32  C7  UNL     1     -28.317   4.930 -29.635  1.00  0.00     0.034 C 
HETATM   33  C6  UNL     1     -27.994   5.275 -31.051  1.00  0.00     0.002 C 
HETATM   34  C5  UNL     1     -29.066   5.056 -32.050  1.00  0.00     0.001 C 
HETATM   35  C4  UNL     1     -30.195   4.192 -31.633  1.00  0.00     0.007 C 
HETATM   36  C3  UNL     1     -31.179   4.797 -30.705  1.00  0.00     0.017 C 
HETATM   37  C25 UNL     1     -31.089   6.273 -30.524  1.00  0.00     0.153 C 
HETATM   38  C24 UNL     1     -29.952   6.835 -29.827  1.00  0.00     0.176 C 
BRANCH  36  39
HETATM   39  C2  UNL     1     -32.575   4.540 -31.261  1.00  0.00     0.002 C 
HETATM   40  C1  UNL     1     -32.616   4.541 -32.754  1.00  0.00     0.005 C 
ENDBRANCH  36  39
BRANCH  37  41
HETATM   41  O8  UNL     1     -32.295   6.669 -29.937  1.00  0.00    -0.393 OA
ATOM     42  H8  UNL     1     -32.175   7.573 -29.668  1.00  0.00     0.210 HD
ENDBRANCH  37  41
BRANCH  38  43
HETATM   43  O7  UNL     1     -30.380   7.905 -29.011  1.00  0.00    -0.390 OA
ATOM     44  H7  UNL     1     -30.768   8.541 -29.599  1.00  0.00     0.210 HD
ENDBRANCH  38  43
ENDBRANCH  30  31
ENDBRANCH   1  30
BRANCH   5  45
HETATM   45  O5  UNL     1     -30.211   3.565 -23.960  1.00  0.00    -0.390 OA
ATOM     46  H5  UNL     1     -29.756   2.824 -24.343  1.00  0.00     0.210 HD
ENDBRANCH   5  45
BRANCH   6  47
HETATM   47  O6  UNL     1     -28.905   3.803 -26.460  1.00  0.00    -0.390 OA
ATOM     48  H6  UNL     1     -29.523   3.087 -26.367  1.00  0.00     0.210 HD
ENDBRANCH   6  47
TORSDOF 15
ENDMDL
MODEL 2
REMARK VINA RESULT: -8.015631285      1.996      3.791
REMARK  15 active torsions:
REMARK  status: ('A' for Active; 'I' for Inactive)
REMARK    1  A    between atoms: C2_2  and  C3_3 
REMARK    2  A    between atoms: C8_8  and  O1_9 
REMARK    3  A    between atoms: O1_9  and  C9_10 
REMARK    4  A    between atoms: C10_11  and  N1_12 
REMARK    5  A    between atoms: C11_16  and  O2_17 
REMARK    6  A    between atoms: O2_17  and  C12_18 
REMARK    7  A    between atoms: C12_18  and  C13_19 
REMARK    8  A    between atoms: C13_19  and  N2_20 
REMARK    9  A    between atoms: C13_19  and  C14_24 
REMARK       I    between atoms: C14_24  and  N3_26 
REMARK   10  A    between atoms: N3_26  and  C15_28 
REMARK   11  A    between atoms: C21_34  and  O4_35 
REMARK   12  A    between atoms: C22_37  and  O5_38 
REMARK   13  A    between atoms: C23_40  and  O6_41 
REMARK   14  A    between atoms: C24_43  and  O7_44 
REMARK   15  A    between atoms: C25_46  and  O8_47 
ROOT
HETATM    1  C9  UNL     1     -32.284   7.970 -27.918  1.00  0.00     0.186 C 
HETATM    2  C10 UNL     1     -31.919   8.144 -26.492  1.00  0.00     0.246 C 
HETATM    3  C11 UNL     1     -32.428   9.543 -26.016  1.00  0.00     0.185 C 
HETATM    4  C21 UNL     1     -31.415  10.492 -26.672  1.00  0.00     0.180 C 
HETATM    5  C22 UNL     1     -31.603  10.386 -28.150  1.00  0.00     0.180 C 
HETATM    6  C23 UNL     1     -32.537   9.302 -28.599  1.00  0.00     0.180 C 
ENDROOT
BRANCH   3   7
HETATM    7  O2  UNL     1     -32.447   9.621 -24.682  1.00  0.00    -0.378 OA
BRANCH   7   8
HETATM    8  C12 UNL     1     -33.571   9.491 -23.947  1.00  0.00     0.211 C 
BRANCH   8   9
HETATM    9  C13 UNL     1     -33.666   8.425 -22.915  1.00  0.00     0.298 C 
BRANCH   9  10
HETATM   10  N2  UNL     1     -32.450   7.694 -22.684  1.00  0.00    -0.064 N 
ATOM     11  H23 UNL     1     -32.098   7.310 -23.561  1.00  0.00     0.275 HD
ATOM     12  H22 UNL     1     -31.692   8.336 -22.453  1.00  0.00     0.275 HD
ATOM     13  H21 UNL     1     -32.517   6.959 -21.980  1.00  0.00     0.275 HD
ENDBRANCH   9  10
BRANCH   9  14
HETATM   14  C14 UNL     1     -34.108   8.980 -21.588  1.00  0.00     0.250 C 
HETATM   15  O3  UNL     1     -33.454   8.760 -20.568  1.00  0.00    -0.271 OA
HETATM   16  N3  UNL     1     -35.294   9.755 -21.560  1.00  0.00    -0.355 N 
ATOM     17  H3  UNL     1     -35.804   9.912 -22.429  1.00  0.00     0.162 HD
BRANCH  16  18
HETATM   18  C15 UNL     1     -35.800  10.331 -20.331  1.00  0.00     0.084 C 
HETATM   19  C16 UNL     1     -35.803  11.823 -20.499  1.00  0.00     0.025 C 
HETATM   20  C17 UNL     1     -36.406  12.562 -19.345  1.00  0.00     0.002 C 
HETATM   21  C18 UNL     1     -37.565  11.830 -18.724  1.00  0.00     0.000 C 
HETATM   22  C19 UNL     1     -38.174  10.866 -19.714  1.00  0.00     0.002 C 
HETATM   23  C20 UNL     1     -37.181   9.784 -20.062  1.00  0.00     0.025 C 
ENDBRANCH  16  18
ENDBRANCH   9  14
ENDBRANCH   8   9
ENDBRANCH   7   8
ENDBRANCH   3   7
BRANCH   2  24
HETATM   24  N1  UNL     1     -30.542   8.093 -26.151  1.00  0.00    -0.070 N 
ATOM     25  H13 UNL     1     -30.087   7.362 -26.698  1.00  0.00     0.274 HD
ATOM     26  H12 UNL     1     -30.075   8.924 -26.516  1.00  0.00     0.274 HD
ATOM     27  H11 UNL     1     -30.300   7.976 -25.166  1.00  0.00     0.274 HD
ENDBRANCH   2  24
BRANCH   4  28
HETATM   28  O4  UNL     1     -31.497  11.782 -26.208  1.00  0.00    -0.390 OA
ATOM     29  H4  UNL     1     -30.867  12.368 -26.610  1.00  0.00     0.210 HD
ENDBRANCH   4  28
BRANCH   1  30
HETATM   30  O1  UNL     1     -31.411   7.266 -28.709  1.00  0.00    -0.373 OA
BRANCH  30  31
HETATM   31  C8  UNL     1     -31.833   6.005 -29.104  1.00  0.00     0.153 C 
HETATM   32  C7  UNL     1     -32.200   5.877 -30.528  1.00  0.00     0.034 C 
HETATM   33  C6  UNL     1     -32.047   4.490 -31.060  1.00  0.00     0.002 C 
HETATM   34  C5  UNL     1     -30.672   4.059 -31.406  1.00  0.00     0.001 C 
HETATM   35  C4  UNL     1     -29.656   5.130 -31.545  1.00  0.00     0.007 C 
HETATM   36  C3  UNL     1     -29.155   5.728 -30.285  1.00  0.00     0.017 C 
HETATM   37  C25 UNL     1     -29.503   5.004 -29.031  1.00  0.00     0.153 C 
HETATM   38  C24 UNL     1     -30.879   4.985 -28.580  1.00  0.00     0.176 C 
BRANCH  36  39
HETATM   39  C2  UNL     1     -27.632   5.739 -30.340  1.00  0.00     0.002 C 
HETATM   40  C1  UNL     1     -27.086   4.996 -31.514  1.00  0.00     0.005 C 
ENDBRANCH  36  39
BRANCH  37  41
HETATM   41  O8  UNL     1     -28.648   5.502 -28.042  1.00  0.00    -0.393 OA
ATOM     42  H8  UNL     1     -28.864   5.034 -27.244  1.00  0.00     0.210 HD
ENDBRANCH  37  41
BRANCH  38  43
HETATM   43  O7  UNL     1     -30.917   5.109 -27.173  1.00  0.00    -0.390 OA
ATOM     44  H7  UNL     1     -30.265   4.502 -26.842  1.00  0.00     0.210 HD
ENDBRANCH  38  43
ENDBRANCH  30  31
ENDBRANCH   1  30
BRANCH   5  45
HETATM   45  O5  UNL     1     -32.076  11.615 -28.603  1.00  0.00    -0.390 OA
ATOM     46  H5  UNL     1     -32.537  11.462 -29.419  1.00  0.00     0.210 HD
ENDBRANCH   5  45
BRANCH   6  47
HETATM   47  O6  UNL     1     -32.313   9.149 -29.974  1.00  0.00    -0.390 OA
ATOM     48  H6  UNL     1     -31.643   9.768 -30.241  1.00  0.00     0.210 HD
ENDBRANCH   6  47
TORSDOF 15
ENDMDL
MODEL 3
REMARK VINA RESULT: -8.006299025      1.030      1.133
REMARK  15 active torsions:
REMARK  status: ('A' for Active; 'I' for Inactive)
REMARK    1  A    between atoms: C2_2  and  C3_3 
REMARK    2  A    between atoms: C8_8  and  O1_9 
REMARK    3  A    between atoms: O1_9  and  C9_10 
REMARK    4  A    between atoms: C10_11  and  N1_12 
REMARK    5  A    between atoms: C11_16  and  O2_17 
REMARK    6  A    between atoms: O2_17  and  C12_18 
REMARK    7  A    between atoms: C12_18  and  C13_19 
REMARK    8  A    between atoms: C13_19  and  N2_20 
REMARK    9  A    between atoms: C13_19  and  C14_24 
REMARK       I    between atoms: C14_24  and  N3_26 
REMARK   10  A    between atoms: N3_26  and  C15_28 
REMARK   11  A    between atoms: C21_34  and  O4_35 
REMARK   12  A    between atoms: C22_37  and  O5_38 
REMARK   13  A    between atoms: C23_40  and  O6_41 
REMARK   14  A    between atoms: C24_43  and  O7_44 
REMARK   15  A    between atoms: C25_46  and  O8_47 
ROOT
HETATM    1  C9  UNL     1     -29.672   6.136 -26.717  1.00  0.00     0.186 C 
HETATM    2  C10 UNL     1     -30.660   7.103 -26.181  1.00  0.00     0.246 C 
HETATM    3  C11 UNL     1     -30.691   6.971 -24.624  1.00  0.00     0.185 C 
HETATM    4  C21 UNL     1     -31.463   5.660 -24.430  1.00  0.00     0.180 C 
HETATM    5  C22 UNL     1     -30.620   4.562 -24.992  1.00  0.00     0.180 C 
HETATM    6  C23 UNL     1     -29.398   5.013 -25.736  1.00  0.00     0.180 C 
ENDROOT
BRANCH   3   7
HETATM    7  O2  UNL     1     -31.283   8.030 -24.062  1.00  0.00    -0.378 OA
BRANCH   7   8
HETATM    8  C12 UNL     1     -32.592   8.319 -24.220  1.00  0.00     0.211 C 
BRANCH   8   9
HETATM    9  C13 UNL     1     -33.509   8.271 -23.051  1.00  0.00     0.298 C 
BRANCH   9  10
HETATM   10  N2  UNL     1     -32.882   7.947 -21.800  1.00  0.00    -0.064 N 
ATOM     11  H23 UNL     1     -32.959   6.947 -21.616  1.00  0.00     0.275 HD
ATOM     12  H22 UNL     1     -31.869   8.036 -21.880  1.00  0.00     0.275 HD
ATOM     13  H21 UNL     1     -33.220   8.479 -20.998  1.00  0.00     0.275 HD
ENDBRANCH   9  10
BRANCH   9  14
HETATM   14  C14 UNL     1     -34.228   9.579 -22.862  1.00  0.00     0.250 C 
HETATM   15  O3  UNL     1     -34.104  10.487 -23.685  1.00  0.00    -0.271 OA
HETATM   16  N3  UNL     1     -35.042   9.723 -21.711  1.00  0.00    -0.355 N 
ATOM     17  H3  UNL     1     -35.116   8.945 -21.055  1.00  0.00     0.162 HD
BRANCH  16  18
HETATM   18  C15 UNL     1     -35.773  10.945 -21.442  1.00  0.00     0.084 C 
HETATM   19  C16 UNL     1     -37.187  10.735 -21.899  1.00  0.00     0.025 C 
HETATM   20  C17 UNL     1     -38.102  11.879 -21.586  1.00  0.00     0.002 C 
HETATM   21  C18 UNL     1     -37.781  12.542 -20.274  1.00  0.00     0.000 C 
HETATM   22  C19 UNL     1     -37.034  11.591 -19.369  1.00  0.00     0.002 C 
HETATM   23  C20 UNL     1     -35.689  11.254 -19.967  1.00  0.00     0.025 C 
ENDBRANCH  16  18
ENDBRANCH   9  14
ENDBRANCH   8   9
ENDBRANCH   7   8
ENDBRANCH   3   7
BRANCH   2  24
HETATM   24  N1  UNL     1     -32.008   6.978 -26.610  1.00  0.00    -0.070 N 
ATOM     25  H13 UNL     1     -32.629   7.260 -25.851  1.00  0.00     0.274 HD
ATOM     26  H12 UNL     1     -32.209   7.700 -27.301  1.00  0.00     0.274 HD
ATOM     27  H11 UNL     1     -32.309   6.072 -26.972  1.00  0.00     0.274 HD
ENDBRANCH   2  24
BRANCH   4  28
HETATM   28  O4  UNL     1     -31.842   5.438 -23.128  1.00  0.00    -0.390 OA
ATOM     29  H4  UNL     1     -32.443   4.709 -23.029  1.00  0.00     0.210 HD
ENDBRANCH   4  28
BRANCH   1  30
HETATM   30  O1  UNL     1     -29.951   5.561 -27.931  1.00  0.00    -0.373 OA
BRANCH  30  31
HETATM   31  C8  UNL     1     -29.180   5.995 -29.000  1.00  0.00     0.153 C 
HETATM   32  C7  UNL     1     -28.389   4.949 -29.677  1.00  0.00     0.034 C 
HETATM   33  C6  UNL     1     -28.087   5.262 -31.105  1.00  0.00     0.002 C 
HETATM   34  C5  UNL     1     -29.178   5.027 -32.081  1.00  0.00     0.001 C 
HETATM   35  C4  UNL     1     -30.305   4.179 -31.626  1.00  0.00     0.007 C 
HETATM   36  C3  UNL     1     -31.269   4.811 -30.695  1.00  0.00     0.017 C 
HETATM   37  C25 UNL     1     -31.168   6.290 -30.548  1.00  0.00     0.153 C 
HETATM   38  C24 UNL     1     -30.015   6.860 -29.883  1.00  0.00     0.176 C 
BRANCH  36  39
HETATM   39  C2  UNL     1     -32.676   4.550 -31.221  1.00  0.00     0.002 C 
HETATM   40  C1  UNL     1     -32.744   4.526 -32.713  1.00  0.00     0.005 C 
ENDBRANCH  36  39
BRANCH  37  41
HETATM   41  O8  UNL     1     -32.361   6.706 -29.949  1.00  0.00    -0.393 OA
ATOM     42  H8  UNL     1     -32.731   7.366 -30.524  1.00  0.00     0.210 HD
ENDBRANCH  37  41
BRANCH  38  43
HETATM   43  O7  UNL     1     -30.422   7.950 -29.083  1.00  0.00    -0.390 OA
ATOM     44  H7  UNL     1     -30.827   8.571 -29.677  1.00  0.00     0.210 HD
ENDBRANCH  38  43
ENDBRANCH  30  31
ENDBRANCH   1  30
BRANCH   5  45
HETATM   45  O5  UNL     1     -30.236   3.742 -23.934  1.00  0.00    -0.390 OA
ATOM     46  H5  UNL     1     -30.692   2.915 -24.031  1.00  0.00     0.210 HD
ENDBRANCH   5  45
BRANCH   6  47
HETATM   47  O6  UNL     1     -28.953   3.894 -26.453  1.00  0.00    -0.390 OA
ATOM     48  H6  UNL     1     -29.673   3.279 -26.531  1.00  0.00     0.210 HD
ENDBRANCH   6  47
TORSDOF 15
ENDMDL
MODEL 4
REMARK VINA RESULT: -7.897101365      2.416      3.810
REMARK  15 active torsions:
REMARK  status: ('A' for Active; 'I' for Inactive)
REMARK    1  A    between atoms: C2_2  and  C3_3 
REMARK    2  A    between atoms: C8_8  and  O1_9 
REMARK    3  A    between atoms: O1_9  and  C9_10 
REMARK    4  A    between atoms: C10_11  and  N1_12 
REMARK    5  A    between atoms: C11_16  and  O2_17 
REMARK    6  A    between atoms: O2_17  and  C12_18 
REMARK    7  A    between atoms: C12_18  and  C13_19 
REMARK    8  A    between atoms: C13_19  and  N2_20 
REMARK    9  A    between atoms: C13_19  and  C14_24 
REMARK       I    between atoms: C14_24  and  N3_26 
REMARK   10  A    between atoms: N3_26  and  C15_28 
REMARK   11  A    between atoms: C21_34  and  O4_35 
REMARK   12  A    between atoms: C22_37  and  O5_38 
REMARK   13  A    between atoms: C23_40  and  O6_41 
REMARK   14  A    between atoms: C24_43  and  O7_44 
REMARK   15  A    between atoms: C25_46  and  O8_47 
ROOT
HETATM    1  C9  UNL     1     -29.575   6.040 -26.831  1.00  0.00     0.186 C 
HETATM    2  C10 UNL     1     -30.620   6.969 -26.337  1.00  0.00     0.246 C 
HETATM    3  C11 UNL     1     -30.682   6.864 -24.779  1.00  0.00     0.185 C 
HETATM    4  C21 UNL     1     -31.397   5.521 -24.578  1.00  0.00     0.180 C 
HETATM    5  C22 UNL     1     -30.490   4.455 -25.099  1.00  0.00     0.180 C 
HETATM    6  C23 UNL     1     -29.273   4.948 -25.822  1.00  0.00     0.180 C 
ENDROOT
BRANCH   3   7
HETATM    7  O2  UNL     1     -31.337   7.903 -24.252  1.00  0.00    -0.378 OA
BRANCH   7   8
HETATM    8  C12 UNL     1     -32.214   7.788 -23.232  1.00  0.00     0.211 C 
BRANCH   8   9
HETATM    9  C13 UNL     1     -33.601   8.301 -23.384  1.00  0.00     0.298 C 
BRANCH   9  10
HETATM   10  N2  UNL     1     -34.277   8.597 -22.151  1.00  0.00    -0.064 N 
ATOM     11  H23 UNL     1     -35.284   8.649 -22.305  1.00  0.00     0.275 HD
ATOM     12  H22 UNL     1     -34.234   7.793 -21.524  1.00  0.00     0.275 HD
ATOM     13  H21 UNL     1     -33.951   9.436 -21.671  1.00  0.00     0.275 HD
ENDBRANCH   9  10
BRANCH   9  14
HETATM   14  C14 UNL     1     -33.638   9.551 -24.221  1.00  0.00     0.250 C 
HETATM   15  O3  UNL     1     -33.975  10.626 -23.725  1.00  0.00    -0.271 OA
HETATM   16  N3  UNL     1     -33.274   9.441 -25.586  1.00  0.00    -0.355 N 
ATOM     17  H3  UNL     1     -33.001   8.530 -25.955  1.00  0.00     0.162 HD
BRANCH  16  18
HETATM   18  C15 UNL     1     -33.280  10.588 -26.471  1.00  0.00     0.084 C 
HETATM   19  C16 UNL     1     -31.898  11.175 -26.458  1.00  0.00     0.025 C 
HETATM   20  C17 UNL     1     -31.711  12.311 -27.416  1.00  0.00     0.002 C 
HETATM   21  C18 UNL     1     -32.487  12.131 -28.693  1.00  0.00     0.000 C 
HETATM   22  C19 UNL     1     -32.784  10.669 -28.931  1.00  0.00     0.002 C 
HETATM   23  C20 UNL     1     -33.699  10.143 -27.851  1.00  0.00     0.025 C 
ENDBRANCH  16  18
ENDBRANCH   9  14
ENDBRANCH   8   9
ENDBRANCH   7   8
ENDBRANCH   3   7
BRANCH   2  24
HETATM   24  N1  UNL     1     -31.949   6.772 -26.795  1.00  0.00    -0.070 N 
ATOM     25  H13 UNL     1     -32.251   7.597 -27.314  1.00  0.00     0.274 HD
ATOM     26  H12 UNL     1     -31.949   6.069 -27.534  1.00  0.00     0.274 HD
ATOM     27  H11 UNL     1     -32.660   6.533 -26.103  1.00  0.00     0.274 HD
ENDBRANCH   2  24
BRANCH   4  28
HETATM   28  O4  UNL     1     -31.796   5.305 -23.282  1.00  0.00    -0.390 OA
ATOM     29  H4  UNL     1     -32.057   4.407 -23.112  1.00  0.00     0.210 HD
ENDBRANCH   4  28
BRANCH   1  30
HETATM   30  O1  UNL     1     -29.797   5.431 -28.040  1.00  0.00    -0.373 OA
BRANCH  30  31
HETATM   31  C8  UNL     1     -29.028   5.888 -29.101  1.00  0.00     0.153 C 
HETATM   32  C7  UNL     1     -28.244   4.855 -29.806  1.00  0.00     0.034 C 
HETATM   33  C6  UNL     1     -27.946   5.202 -31.228  1.00  0.00     0.002 C 
HETATM   34  C5  UNL     1     -29.041   4.997 -32.205  1.00  0.00     0.001 C 
HETATM   35  C4  UNL     1     -30.171   4.144 -31.767  1.00  0.00     0.007 C 
HETATM   36  C3  UNL     1     -31.128   4.756 -30.817  1.00  0.00     0.017 C 
HETATM   37  C25 UNL     1     -31.019   6.230 -30.633  1.00  0.00     0.153 C 
HETATM   38  C24 UNL     1     -29.861   6.778 -29.958  1.00  0.00     0.176 C 
BRANCH  36  39
HETATM   39  C2  UNL     1     -32.538   4.516 -31.344  1.00  0.00     0.002 C 
HETATM   40  C1  UNL     1     -32.613   4.532 -32.836  1.00  0.00     0.005 C 
ENDBRANCH  36  39
BRANCH  37  41
HETATM   41  O8  UNL     1     -32.208   6.637 -30.020  1.00  0.00    -0.393 OA
ATOM     42  H8  UNL     1     -32.816   6.833 -30.722  1.00  0.00     0.210 HD
ENDBRANCH  37  41
BRANCH  38  43
HETATM   43  O7  UNL     1     -30.260   7.850 -29.130  1.00  0.00    -0.390 OA
ATOM     44  H7  UNL     1     -29.639   8.549 -29.293  1.00  0.00     0.210 HD
ENDBRANCH  38  43
ENDBRANCH  30  31
ENDBRANCH   1  30
BRANCH   5  45
HETATM   45  O5  UNL     1     -30.094   3.673 -24.017  1.00  0.00    -0.390 OA
ATOM     46  H5  UNL     1     -29.479   3.025 -24.340  1.00  0.00     0.210 HD
ENDBRANCH   5  45
BRANCH   6  47
HETATM   47  O6  UNL     1     -28.758   3.839 -26.507  1.00  0.00    -0.390 OA
ATOM     48  H6  UNL     1     -28.794   3.085 -25.930  1.00  0.00     0.210 HD
ENDBRANCH   6  47
TORSDOF 15
ENDMDL
MODEL 5
REMARK VINA RESULT: -7.841257992      1.118      1.440
REMARK  15 active torsions:
REMARK  status: ('A' for Active; 'I' for Inactive)
REMARK    1  A    between atoms: C2_2  and  C3_3 
REMARK    2  A    between atoms: C8_8  and  O1_9 
REMARK    3  A    between atoms: O1_9  and  C9_10 
REMARK    4  A    between atoms: C10_11  and  N1_12 
REMARK    5  A    between atoms: C11_16  and  O2_17 
REMARK    6  A    between atoms: O2_17  and  C12_18 
REMARK    7  A    between atoms: C12_18  and  C13_19 
REMARK    8  A    between atoms: C13_19  and  N2_20 
REMARK    9  A    between atoms: C13_19  and  C14_24 
REMARK       I    between atoms: C14_24  and  N3_26 
REMARK   10  A    between atoms: N3_26  and  C15_28 
REMARK   11  A    between atoms: C21_34  and  O4_35 
REMARK   12  A    between atoms: C22_37  and  O5_38 
REMARK   13  A    between atoms: C23_40  and  O6_41 
REMARK   14  A    between atoms: C24_43  and  O7_44 
REMARK   15  A    between atoms: C25_46  and  O8_47 
ROOT
HETATM    1  C9  UNL     1     -29.640   6.018 -26.692  1.00  0.00     0.186 C 
HETATM    2  C10 UNL     1     -30.656   6.956 -26.158  1.00  0.00     0.246 C 
HETATM    3  C11 UNL     1     -30.716   6.793 -24.605  1.00  0.00     0.185 C 
HETATM    4  C21 UNL     1     -31.468   5.464 -24.452  1.00  0.00     0.180 C 
HETATM    5  C22 UNL     1     -30.595   4.393 -25.018  1.00  0.00     0.180 C 
HETATM    6  C23 UNL     1     -29.366   4.879 -25.727  1.00  0.00     0.180 C 
ENDROOT
BRANCH   3   7
HETATM    7  O2  UNL     1     -31.338   7.829 -24.035  1.00  0.00    -0.378 OA
BRANCH   7   8
HETATM    8  C12 UNL     1     -32.655   8.080 -24.188  1.00  0.00     0.211 C 
BRANCH   8   9
HETATM    9  C13 UNL     1     -33.128   9.475 -24.387  1.00  0.00     0.298 C 
BRANCH   9  10
HETATM   10  N2  UNL     1     -33.146   9.921 -25.753  1.00  0.00    -0.064 N 
ATOM     11  H23 UNL     1     -33.445   9.163 -26.366  1.00  0.00     0.275 HD
ATOM     12  H22 UNL     1     -33.911  10.580 -25.898  1.00  0.00     0.275 HD
ATOM     13  H21 UNL     1     -32.269  10.320 -26.088  1.00  0.00     0.275 HD
ENDBRANCH   9  10
BRANCH   9  14
HETATM   14  C14 UNL     1     -34.515   9.671 -23.838  1.00  0.00     0.250 C 
HETATM   15  O3  UNL     1     -35.503   9.430 -24.533  1.00  0.00    -0.271 OA
HETATM   16  N3  UNL     1     -34.636  10.139 -22.506  1.00  0.00    -0.355 N 
ATOM     17  H3  UNL     1     -33.791  10.326 -21.967  1.00  0.00     0.162 HD
BRANCH  16  18
HETATM   18  C15 UNL     1     -35.929  10.359 -21.890  1.00  0.00     0.084 C 
HETATM   19  C16 UNL     1     -36.317   9.089 -21.190  1.00  0.00     0.025 C 
HETATM   20  C17 UNL     1     -37.589   9.192 -20.406  1.00  0.00     0.002 C 
HETATM   21  C18 UNL     1     -37.773  10.541 -19.766  1.00  0.00     0.000 C 
HETATM   22  C19 UNL     1     -36.440  11.231 -19.591  1.00  0.00     0.002 C 
HETATM   23  C20 UNL     1     -35.830  11.528 -20.940  1.00  0.00     0.025 C 
ENDBRANCH  16  18
ENDBRANCH   9  14
ENDBRANCH   8   9
ENDBRANCH   7   8
ENDBRANCH   3   7
BRANCH   2  24
HETATM   24  N1  UNL     1     -31.992   6.816 -26.617  1.00  0.00    -0.070 N 
ATOM     25  H13 UNL     1     -32.595   7.450 -26.093  1.00  0.00     0.274 HD
ATOM     26  H12 UNL     1     -32.068   7.209 -27.554  1.00  0.00     0.274 HD
ATOM     27  H11 UNL     1     -32.401   5.881 -26.610  1.00  0.00     0.274 HD
ENDBRANCH   2  24
BRANCH   4  28
HETATM   28  O4  UNL     1     -31.869   5.210 -23.163  1.00  0.00    -0.390 OA
ATOM     29  H4  UNL     1     -32.790   4.987 -23.091  1.00  0.00     0.210 HD
ENDBRANCH   4  28
BRANCH   1  30
HETATM   30  O1  UNL     1     -29.884   5.462 -27.923  1.00  0.00    -0.373 OA
BRANCH  30  31
HETATM   31  C8  UNL     1     -29.102   5.932 -28.967  1.00  0.00     0.153 C 
HETATM   32  C7  UNL     1     -28.290   4.913 -29.661  1.00  0.00     0.034 C 
HETATM   33  C6  UNL     1     -27.970   5.267 -31.075  1.00  0.00     0.002 C 
HETATM   34  C5  UNL     1     -29.044   5.050 -32.074  1.00  0.00     0.001 C 
HETATM   35  C4  UNL     1     -30.170   4.180 -31.659  1.00  0.00     0.007 C 
HETATM   36  C3  UNL     1     -31.154   4.776 -30.726  1.00  0.00     0.017 C 
HETATM   37  C25 UNL     1     -31.069   6.251 -30.536  1.00  0.00     0.153 C 
HETATM   38  C24 UNL     1     -29.931   6.813 -29.839  1.00  0.00     0.176 C 
BRANCH  36  39
HETATM   39  C2  UNL     1     -32.550   4.517 -31.281  1.00  0.00     0.002 C 
HETATM   40  C1  UNL     1     -32.597   4.541 -32.773  1.00  0.00     0.005 C 
ENDBRANCH  36  39
BRANCH  37  41
HETATM   41  O8  UNL     1     -32.274   6.640 -29.944  1.00  0.00    -0.393 OA
ATOM     42  H8  UNL     1     -32.878   5.917 -30.071  1.00  0.00     0.210 HD
ENDBRANCH  37  41
BRANCH  38  43
HETATM   43  O7  UNL     1     -30.361   7.877 -29.015  1.00  0.00    -0.390 OA
ATOM     44  H7  UNL     1     -30.071   8.672 -29.446  1.00  0.00     0.210 HD
ENDBRANCH  38  43
ENDBRANCH  30  31
ENDBRANCH   1  30
BRANCH   5  45
HETATM   45  O5  UNL     1     -30.217   3.559 -23.969  1.00  0.00    -0.390 OA
ATOM     46  H5  UNL     1     -29.299   3.720 -23.789  1.00  0.00     0.210 HD
ENDBRANCH   5  45
BRANCH   6  47
HETATM   47  O6  UNL     1     -28.887   3.783 -26.457  1.00  0.00    -0.390 OA
ATOM     48  H6  UNL     1     -28.575   3.126 -25.845  1.00  0.00     0.210 HD
ENDBRANCH   6  47
TORSDOF 15
ENDMDL
