MODEL 1
REMARK VINA RESULT: -8.395960477      0.000      0.000
REMARK  16 active torsions:
REMARK  status: ('A' for Active; 'I' for Inactive)
REMARK    1  A    between atoms: C3_4  and  C4_5 
REMARK    2  A    between atoms: C5_6  and  C6_7 
REMARK    3  A    between atoms: C6_7  and  O2_8 
REMARK    4  A    between atoms: C6_7  and  C7_10 
REMARK    5  A    between atoms: C9_12  and  O3_13 
REMARK    6  A    between atoms: C11_16  and  C12_17 
REMARK    7  A    between atoms: C12_17  and  O4_18 
REMARK    8  A    between atoms: C14_23  and  O7_25 
REMARK    9  A    between atoms: C16_27  and  O8_28 
REMARK   10  A    between atoms: C17_30  and  O9_31 
REMARK   11  A    between atoms: C18_33  and  C19_34 
REMARK   12  A    between atoms: C19_34  and  O10_35 
REMARK   13  A    between atoms: C19_34  and  C20_37 
REMARK   14  A    between atoms: C20_37  and  C21_38 
REMARK   15  A    between atoms: C21_38  and  C22_39 
REMARK   16  A    between atoms: C26_43  and  O11_44 
ROOT
HETATM    1  C1  UNL     1     -29.966   8.973 -27.705  1.00  0.00     0.049 C 
HETATM    2  C2  UNL     1     -30.261   7.782 -28.126  1.00  0.00     0.084 C 
HETATM    3  O1  UNL     1     -29.484   7.068 -29.066  1.00  0.00    -0.309 OA
HETATM    4  C3  UNL     1     -29.707   5.637 -28.917  1.00  0.00     0.226 C 
HETATM    5  O6  UNL     1     -30.975   5.453 -29.491  1.00  0.00    -0.309 OA
HETATM    6  C14 UNL     1     -31.893   6.441 -29.094  1.00  0.00     0.202 C 
HETATM    7  C15 UNL     1     -33.297   5.966 -29.107  1.00  0.00     0.083 C 
HETATM    8  C16 UNL     1     -31.443   6.969 -27.704  1.00  0.00     0.196 C 
HETATM    9  C17 UNL     1     -31.018   5.809 -26.954  1.00  0.00     0.143 C 
HETATM   10  C18 UNL     1     -30.905   5.636 -25.552  1.00  0.00     0.056 C 
HETATM   11  C24 UNL     1     -29.919   4.477 -25.417  1.00  0.00     0.014 C 
HETATM   12  C25 UNL     1     -29.551   4.094 -26.872  1.00  0.00     0.048 C 
HETATM   13  C26 UNL     1     -29.615   5.424 -27.483  1.00  0.00     0.153 C 
ENDROOT
BRANCH   4  14
HETATM   14  C4  UNL     1     -28.735   4.986 -29.785  1.00  0.00     0.043 C 
HETATM   15  C5  UNL     1     -28.033   5.550 -30.745  1.00  0.00     0.007 C 
BRANCH  15  16
HETATM   16  C6  UNL     1     -27.063   4.879 -31.604  1.00  0.00     0.152 C 
BRANCH  16  17
HETATM   17  O2  UNL     1     -25.786   5.328 -31.273  1.00  0.00    -0.391 OA
ATOM     18  H2  UNL     1     -25.407   4.726 -30.643  1.00  0.00     0.210 HD
ENDBRANCH  16  17
BRANCH  16  19
HETATM   19  C7  UNL     1     -27.257   5.104 -33.072  1.00  0.00     0.090 C 
HETATM   20  C8  UNL     1     -25.976   4.890 -33.860  1.00  0.00     0.046 C 
HETATM   21  C9  UNL     1     -26.281   5.381 -35.283  1.00  0.00     0.119 C 
HETATM   22  C10 UNL     1     -27.242   4.408 -35.882  1.00  0.00     0.046 C 
HETATM   23  C11 UNL     1     -28.536   4.284 -35.120  1.00  0.00     0.082 C 
HETATM   24  C13 UNL     1     -28.362   4.349 -33.665  1.00  0.00     0.140 C 
HETATM   25  O5  UNL     1     -29.147   3.767 -32.949  1.00  0.00    -0.297 OA
BRANCH  21  26
HETATM   26  O3  UNL     1     -25.105   5.346 -36.007  1.00  0.00    -0.396 OA
ATOM     27  H3  UNL     1     -25.005   6.183 -36.443  1.00  0.00     0.210 HD
ENDBRANCH  21  26
BRANCH  23  28
HETATM   28  C12 UNL     1     -29.502   5.323 -35.645  1.00  0.00     0.176 C 
BRANCH  28  29
HETATM   29  O4  UNL     1     -30.329   5.817 -34.642  1.00  0.00    -0.400 OA
ATOM     30  H4  UNL     1     -30.128   6.721 -34.429  1.00  0.00     0.209 HD
ENDBRANCH  28  29
ENDBRANCH  23  28
ENDBRANCH  16  19
ENDBRANCH  15  16
ENDBRANCH   4  14
BRANCH  13  31
HETATM   31  O11 UNL     1     -28.636   6.230 -26.924  1.00  0.00    -0.381 OA
ATOM     32  H11 UNL     1     -28.937   6.613 -26.109  1.00  0.00     0.211 HD
ENDBRANCH  13  31
BRANCH   6  33
HETATM   33  O7  UNL     1     -31.775   7.464 -30.049  1.00  0.00    -0.363 OA
ATOM     34  H7  UNL     1     -32.285   8.190 -29.707  1.00  0.00     0.213 HD
ENDBRANCH   6  33
BRANCH   9  35
HETATM   35  O9  UNL     1     -31.790   4.685 -27.403  1.00  0.00    -0.382 OA
ATOM     36  H9  UNL     1     -31.515   3.924 -26.905  1.00  0.00     0.210 HD
ENDBRANCH   9  35
BRANCH   8  37
HETATM   37  O8  UNL     1     -32.467   7.732 -27.214  1.00  0.00    -0.375 OA
ATOM     38  H8  UNL     1     -33.324   7.378 -27.421  1.00  0.00     0.211 HD
ENDBRANCH   8  37
BRANCH  10  39
HETATM   39  C19 UNL     1     -30.513   6.705 -24.602  1.00  0.00     0.125 C 
BRANCH  39  40
HETATM   40  O10 UNL     1     -30.348   7.958 -25.133  1.00  0.00    -0.395 OA
ATOM     41  H10 UNL     1     -29.545   8.410 -24.902  1.00  0.00     0.210 HD
ENDBRANCH  39  40
BRANCH  39  42
HETATM   42  C20 UNL     1     -31.649   6.825 -23.602  1.00  0.00     0.032 C 
BRANCH  42  43
HETATM   43  C21 UNL     1     -32.443   8.079 -23.721  1.00  0.00     0.002 C 
BRANCH  43  44
HETATM   44  C22 UNL     1     -33.180   8.397 -22.443  1.00  0.00    -0.004 C 
HETATM   45  C23 UNL     1     -34.270   9.432 -22.685  1.00  0.00     0.005 C 
ENDBRANCH  43  44
ENDBRANCH  42  43
ENDBRANCH  39  42
ENDBRANCH  10  39
TORSDOF 16
ENDMDL
MODEL 2
REMARK VINA RESULT: -8.308229166      1.261      1.663
REMARK  16 active torsions:
REMARK  status: ('A' for Active; 'I' for Inactive)
REMARK    1  A    between atoms: C3_4  and  C4_5 
REMARK    2  A    between atoms: C5_6  and  C6_7 
REMARK    3  A    between atoms: C6_7  and  O2_8 
REMARK    4  A    between atoms: C6_7  and  C7_10 
REMARK    5  A    between atoms: C9_12  and  O3_13 
REMARK    6  A    between atoms: C11_16  and  C12_17 
REMARK    7  A    between atoms: C12_17  and  O4_18 
REMARK    8  A    between atoms: C14_23  and  O7_25 
REMARK    9  A    between atoms: C16_27  and  O8_28 
REMARK   10  A    between atoms: C17_30  and  O9_31 
REMARK   11  A    between atoms: C18_33  and  C19_34 
REMARK   12  A    between atoms: C19_34  and  O10_35 
REMARK   13  A    between atoms: C19_34  and  C20_37 
REMARK   14  A    between atoms: C20_37  and  C21_38 
REMARK   15  A    between atoms: C21_38  and  C22_39 
REMARK   16  A    between atoms: C26_43  and  O11_44 
ROOT
HETATM    1  C1  UNL     1     -30.916   9.324 -27.951  1.00  0.00     0.049 C 
HETATM    2  C2  UNL     1     -30.834   8.137 -28.469  1.00  0.00     0.084 C 
HETATM    3  O1  UNL     1     -29.856   7.761 -29.418  1.00  0.00    -0.309 OA
HETATM    4  C3  UNL     1     -29.650   6.320 -29.380  1.00  0.00     0.226 C 
HETATM    5  O6  UNL     1     -30.793   5.822 -30.029  1.00  0.00    -0.309 OA
HETATM    6  C14 UNL     1     -31.971   6.463 -29.610  1.00  0.00     0.202 C 
HETATM    7  C15 UNL     1     -33.172   5.600 -29.728  1.00  0.00     0.083 C 
HETATM    8  C16 UNL     1     -31.735   6.983 -28.166  1.00  0.00     0.196 C 
HETATM    9  C17 UNL     1     -31.007   5.939 -27.479  1.00  0.00     0.143 C 
HETATM   10  C18 UNL     1     -30.886   5.693 -26.088  1.00  0.00     0.056 C 
HETATM   11  C24 UNL     1     -29.606   4.865 -25.987  1.00  0.00     0.014 C 
HETATM   12  C25 UNL     1     -29.102   4.728 -27.445  1.00  0.00     0.048 C 
HETATM   13  C26 UNL     1     -29.539   6.027 -27.962  1.00  0.00     0.153 C 
ENDROOT
BRANCH   4  14
HETATM   14  C4  UNL     1     -28.507   6.055 -30.243  1.00  0.00     0.043 C 
HETATM   15  C5  UNL     1     -28.214   4.918 -30.837  1.00  0.00     0.007 C 
BRANCH  15  16
HETATM   16  C6  UNL     1     -27.063   4.673 -31.699  1.00  0.00     0.152 C 
BRANCH  16  17
HETATM   17  O2  UNL     1     -25.995   5.447 -31.248  1.00  0.00    -0.391 OA
ATOM     18  H2  UNL     1     -25.184   5.023 -31.502  1.00  0.00     0.210 HD
ENDBRANCH  16  17
BRANCH  16  19
HETATM   19  C7  UNL     1     -27.276   4.992 -33.146  1.00  0.00     0.090 C 
HETATM   20  C8  UNL     1     -26.022   4.773 -33.974  1.00  0.00     0.046 C 
HETATM   21  C9  UNL     1     -26.334   5.359 -35.358  1.00  0.00     0.119 C 
HETATM   22  C10 UNL     1     -27.346   4.463 -35.992  1.00  0.00     0.046 C 
HETATM   23  C11 UNL     1     -28.629   4.347 -35.209  1.00  0.00     0.082 C 
HETATM   24  C13 UNL     1     -28.424   4.319 -33.757  1.00  0.00     0.140 C 
HETATM   25  O5  UNL     1     -29.218   3.728 -33.059  1.00  0.00    -0.297 OA
BRANCH  21  26
HETATM   26  O3  UNL     1     -25.175   5.319 -36.109  1.00  0.00    -0.396 OA
ATOM     27  H3  UNL     1     -25.312   5.846 -36.887  1.00  0.00     0.210 HD
ENDBRANCH  21  26
BRANCH  23  28
HETATM   28  C12 UNL     1     -29.561   5.454 -35.651  1.00  0.00     0.176 C 
BRANCH  28  29
HETATM   29  O4  UNL     1     -30.299   5.966 -34.590  1.00  0.00    -0.400 OA
ATOM     30  H4  UNL     1     -31.203   5.673 -34.612  1.00  0.00     0.209 HD
ENDBRANCH  28  29
ENDBRANCH  23  28
ENDBRANCH  16  19
ENDBRANCH  15  16
ENDBRANCH   4  14
BRANCH  13  31
HETATM   31  O11 UNL     1     -28.858   7.034 -27.300  1.00  0.00    -0.381 OA
ATOM     32  H11 UNL     1     -27.968   7.113 -27.625  1.00  0.00     0.211 HD
ENDBRANCH  13  31
BRANCH   6  33
HETATM   33  O7  UNL     1     -32.134   7.551 -30.484  1.00  0.00    -0.363 OA
ATOM     34  H7  UNL     1     -32.929   7.366 -30.971  1.00  0.00     0.213 HD
ENDBRANCH   6  33
BRANCH   9  35
HETATM   35  O9  UNL     1     -31.400   4.680 -28.044  1.00  0.00    -0.382 OA
ATOM     36  H9  UNL     1     -31.443   4.044 -27.340  1.00  0.00     0.210 HD
ENDBRANCH   9  35
BRANCH   8  37
HETATM   37  O8  UNL     1     -32.951   7.370 -27.675  1.00  0.00    -0.375 OA
ATOM     38  H8  UNL     1     -33.051   7.189 -26.748  1.00  0.00     0.211 HD
ENDBRANCH   8  37
BRANCH  10  39
HETATM   39  C19 UNL     1     -30.854   6.747 -25.048  1.00  0.00     0.125 C 
BRANCH  39  40
HETATM   40  O10 UNL     1     -31.921   7.608 -25.021  1.00  0.00    -0.395 OA
ATOM     41  H10 UNL     1     -31.990   8.215 -25.747  1.00  0.00     0.210 HD
ENDBRANCH  39  40
BRANCH  39  42
HETATM   42  C20 UNL     1     -30.867   6.029 -23.710  1.00  0.00     0.032 C 
BRANCH  42  43
HETATM   43  C21 UNL     1     -32.034   5.126 -23.510  1.00  0.00     0.002 C 
BRANCH  43  44
HETATM   44  C22 UNL     1     -31.611   3.772 -22.996  1.00  0.00    -0.004 C 
HETATM   45  C23 UNL     1     -31.819   2.697 -24.054  1.00  0.00     0.005 C 
ENDBRANCH  43  44
ENDBRANCH  42  43
ENDBRANCH  39  42
ENDBRANCH  10  39
TORSDOF 16
ENDMDL
MODEL 3
REMARK VINA RESULT: -8.006982048      4.492      8.565
REMARK  16 active torsions:
REMARK  status: ('A' for Active; 'I' for Inactive)
REMARK    1  A    between atoms: C3_4  and  C4_5 
REMARK    2  A    between atoms: C5_6  and  C6_7 
REMARK    3  A    between atoms: C6_7  and  O2_8 
REMARK    4  A    between atoms: C6_7  and  C7_10 
REMARK    5  A    between atoms: C9_12  and  O3_13 
REMARK    6  A    between atoms: C11_16  and  C12_17 
REMARK    7  A    between atoms: C12_17  and  O4_18 
REMARK    8  A    between atoms: C14_23  and  O7_25 
REMARK    9  A    between atoms: C16_27  and  O8_28 
REMARK   10  A    between atoms: C17_30  and  O9_31 
REMARK   11  A    between atoms: C18_33  and  C19_34 
REMARK   12  A    between atoms: C19_34  and  O10_35 
REMARK   13  A    between atoms: C19_34  and  C20_37 
REMARK   14  A    between atoms: C20_37  and  C21_38 
REMARK   15  A    between atoms: C21_38  and  C22_39 
REMARK   16  A    between atoms: C26_43  and  O11_44 
ROOT
HETATM    1  C1  UNL     1     -37.168  11.436 -24.664  1.00  0.00     0.049 C 
HETATM    2  C2  UNL     1     -36.595  10.353 -24.237  1.00  0.00     0.084 C 
HETATM    3  O1  UNL     1     -35.263   9.997 -24.549  1.00  0.00    -0.309 OA
HETATM    4  C3  UNL     1     -34.733   9.102 -23.530  1.00  0.00     0.226 C 
HETATM    5  O6  UNL     1     -35.365   7.882 -23.822  1.00  0.00    -0.309 OA
HETATM    6  C14 UNL     1     -36.733   8.038 -24.102  1.00  0.00     0.202 C 
HETATM    7  C15 UNL     1     -37.533   6.834 -23.769  1.00  0.00     0.083 C 
HETATM    8  C16 UNL     1     -37.220   9.314 -23.363  1.00  0.00     0.196 C 
HETATM    9  C17 UNL     1     -36.583   9.294 -22.065  1.00  0.00     0.143 C 
HETATM   10  C18 UNL     1     -36.958   9.953 -20.868  1.00  0.00     0.056 C 
HETATM   11  C24 UNL     1     -35.656  10.003 -20.069  1.00  0.00     0.014 C 
HETATM   12  C25 UNL     1     -34.604   9.316 -20.976  1.00  0.00     0.048 C 
HETATM   13  C26 UNL     1     -35.116   9.739 -22.282  1.00  0.00     0.153 C 
ENDROOT
BRANCH   4  14
HETATM   14  C4  UNL     1     -33.317   8.944 -23.831  1.00  0.00     0.043 C 
HETATM   15  C5  UNL     1     -32.722   7.859 -24.279  1.00  0.00     0.007 C 
BRANCH  15  16
HETATM   16  C6  UNL     1     -31.300   7.722 -24.575  1.00  0.00     0.152 C 
BRANCH  16  17
HETATM   17  O2  UNL     1     -30.879   8.851 -25.276  1.00  0.00    -0.391 OA
ATOM     18  H2  UNL     1     -31.582   9.133 -25.849  1.00  0.00     0.210 HD
ENDBRANCH  16  17
BRANCH  16  19
HETATM   19  C7  UNL     1     -30.936   6.519 -25.389  1.00  0.00     0.090 C 
HETATM   20  C8  UNL     1     -29.781   6.795 -26.337  1.00  0.00     0.046 C 
HETATM   21  C9  UNL     1     -29.692   5.560 -27.246  1.00  0.00     0.119 C 
HETATM   22  C10 UNL     1     -29.204   4.431 -26.400  1.00  0.00     0.046 C 
HETATM   23  C11 UNL     1     -30.103   4.114 -25.232  1.00  0.00     0.082 C 
HETATM   24  C13 UNL     1     -30.687   5.306 -24.608  1.00  0.00     0.140 C 
HETATM   25  O5  UNL     1     -30.965   5.281 -23.429  1.00  0.00    -0.297 OA
BRANCH  21  26
HETATM   26  O3  UNL     1     -28.752   5.820 -28.225  1.00  0.00    -0.396 OA
ATOM     27  H3  UNL     1     -29.214   6.013 -29.031  1.00  0.00     0.210 HD
ENDBRANCH  21  26
BRANCH  23  28
HETATM   28  C12 UNL     1     -31.145   3.118 -25.688  1.00  0.00     0.176 C 
BRANCH  28  29
HETATM   29  O4  UNL     1     -32.254   3.105 -24.849  1.00  0.00    -0.400 OA
ATOM     30  H4  UNL     1     -32.714   2.275 -24.882  1.00  0.00     0.209 HD
ENDBRANCH  28  29
ENDBRANCH  23  28
ENDBRANCH  16  19
ENDBRANCH  15  16
ENDBRANCH   4  14
BRANCH  13  31
HETATM   31  O11 UNL     1     -35.025  11.118 -22.382  1.00  0.00    -0.381 OA
ATOM     32  H11 UNL     1     -34.980  11.519 -21.522  1.00  0.00     0.211 HD
ENDBRANCH  13  31
BRANCH   6  33
HETATM   33  O7  UNL     1     -36.809   8.237 -25.490  1.00  0.00    -0.363 OA
ATOM     34  H7  UNL     1     -36.227   8.965 -25.673  1.00  0.00     0.213 HD
ENDBRANCH   6  33
BRANCH   9  35
HETATM   35  O9  UNL     1     -36.392   7.922 -21.688  1.00  0.00    -0.382 OA
ATOM     36  H9  UNL     1     -35.918   7.490 -22.388  1.00  0.00     0.210 HD
ENDBRANCH   9  35
BRANCH   8  37
HETATM   37  O8  UNL     1     -38.586   9.317 -23.425  1.00  0.00    -0.375 OA
ATOM     38  H8  UNL     1     -38.978   8.564 -22.998  1.00  0.00     0.211 HD
ENDBRANCH   8  37
BRANCH  10  39
HETATM   39  C19 UNL     1     -37.602  11.286 -20.809  1.00  0.00     0.125 C 
BRANCH  39  40
HETATM   40  O10 UNL     1     -38.960  11.314 -20.994  1.00  0.00    -0.395 OA
ATOM     41  H10 UNL     1     -39.261  11.357 -21.894  1.00  0.00     0.210 HD
ENDBRANCH  39  40
BRANCH  39  42
HETATM   42  C20 UNL     1     -37.365  11.814 -19.405  1.00  0.00     0.032 C 
BRANCH  42  43
HETATM   43  C21 UNL     1     -37.361  13.299 -19.299  1.00  0.00     0.002 C 
BRANCH  43  44
HETATM   44  C22 UNL     1     -35.960  13.859 -19.345  1.00  0.00    -0.004 C 
HETATM   45  C23 UNL     1     -35.585  14.274 -20.761  1.00  0.00     0.005 C 
ENDBRANCH  43  44
ENDBRANCH  42  43
ENDBRANCH  39  42
ENDBRANCH  10  39
TORSDOF 16
ENDMDL
MODEL 4
REMARK VINA RESULT: -7.873610362      2.878     10.190
REMARK  16 active torsions:
REMARK  status: ('A' for Active; 'I' for Inactive)
REMARK    1  A    between atoms: C3_4  and  C4_5 
REMARK    2  A    between atoms: C5_6  and  C6_7 
REMARK    3  A    between atoms: C6_7  and  O2_8 
REMARK    4  A    between atoms: C6_7  and  C7_10 
REMARK    5  A    between atoms: C9_12  and  O3_13 
REMARK    6  A    between atoms: C11_16  and  C12_17 
REMARK    7  A    between atoms: C12_17  and  O4_18 
REMARK    8  A    between atoms: C14_23  and  O7_25 
REMARK    9  A    between atoms: C16_27  and  O8_28 
REMARK   10  A    between atoms: C17_30  and  O9_31 
REMARK   11  A    between atoms: C18_33  and  C19_34 
REMARK   12  A    between atoms: C19_34  and  O10_35 
REMARK   13  A    between atoms: C19_34  and  C20_37 
REMARK   14  A    between atoms: C20_37  and  C21_38 
REMARK   15  A    between atoms: C21_38  and  C22_39 
REMARK   16  A    between atoms: C26_43  and  O11_44 
ROOT
HETATM    1  C1  UNL     1     -32.131   8.845 -29.391  1.00  0.00     0.049 C 
HETATM    2  C2  UNL     1     -31.618   8.704 -28.208  1.00  0.00     0.084 C 
HETATM    3  O1  UNL     1     -32.384   8.676 -27.020  1.00  0.00    -0.309 OA
HETATM    4  C3  UNL     1     -31.661   7.965 -25.976  1.00  0.00     0.226 C 
HETATM    5  O6  UNL     1     -30.678   8.890 -25.586  1.00  0.00    -0.309 OA
HETATM    6  C14 UNL     1     -30.065   9.517 -26.684  1.00  0.00     0.202 C 
HETATM    7  C15 UNL     1     -28.675   9.950 -26.400  1.00  0.00     0.083 C 
HETATM    8  C16 UNL     1     -30.165   8.549 -27.894  1.00  0.00     0.196 C 
HETATM    9  C17 UNL     1     -29.898   7.227 -27.372  1.00  0.00     0.143 C 
HETATM   10  C18 UNL     1     -29.464   6.061 -28.052  1.00  0.00     0.056 C 
HETATM   11  C24 UNL     1     -29.901   4.928 -27.125  1.00  0.00     0.014 C 
HETATM   12  C25 UNL     1     -30.591   5.632 -25.931  1.00  0.00     0.048 C 
HETATM   13  C26 UNL     1     -31.184   6.766 -26.644  1.00  0.00     0.153 C 
ENDROOT
BRANCH   4  14
HETATM   14  C4  UNL     1     -32.594   7.824 -24.866  1.00  0.00     0.043 C 
HETATM   15  C5  UNL     1     -33.112   8.795 -24.144  1.00  0.00     0.007 C 
BRANCH  15  16
HETATM   16  C6  UNL     1     -34.047   8.633 -23.035  1.00  0.00     0.152 C 
BRANCH  16  17
HETATM   17  O2  UNL     1     -35.103   7.827 -23.456  1.00  0.00    -0.391 OA
ATOM     18  H2  UNL     1     -35.303   7.204 -22.767  1.00  0.00     0.210 HD
ENDBRANCH  16  17
BRANCH  16  19
HETATM   19  C7  UNL     1     -34.629   9.907 -22.507  1.00  0.00     0.090 C 
HETATM   20  C8  UNL     1     -34.931  10.903 -23.614  1.00  0.00     0.046 C 
HETATM   21  C9  UNL     1     -35.290  12.214 -22.901  1.00  0.00     0.119 C 
HETATM   22  C10 UNL     1     -36.610  12.001 -22.236  1.00  0.00     0.046 C 
HETATM   23  C11 UNL     1     -36.608  10.881 -21.228  1.00  0.00     0.082 C 
HETATM   24  C13 UNL     1     -35.793   9.732 -21.637  1.00  0.00     0.140 C 
HETATM   25  O5  UNL     1     -36.091   8.625 -21.245  1.00  0.00    -0.297 OA
BRANCH  21  26
HETATM   26  O3  UNL     1     -35.431  13.197 -23.862  1.00  0.00    -0.396 OA
ATOM     27  H3  UNL     1     -35.628  12.773 -24.688  1.00  0.00     0.210 HD
ENDBRANCH  21  26
BRANCH  23  28
HETATM   28  C12 UNL     1     -36.199  11.446 -19.886  1.00  0.00     0.176 C 
BRANCH  28  29
HETATM   29  O4  UNL     1     -36.388  10.530 -18.857  1.00  0.00    -0.400 OA
ATOM     30  H4  UNL     1     -35.598  10.039 -18.669  1.00  0.00     0.209 HD
ENDBRANCH  28  29
ENDBRANCH  23  28
ENDBRANCH  16  19
ENDBRANCH  15  16
ENDBRANCH   4  14
BRANCH  13  31
HETATM   31  O11 UNL     1     -32.124   6.296 -27.547  1.00  0.00    -0.381 OA
ATOM     32  H11 UNL     1     -31.783   6.316 -28.433  1.00  0.00     0.211 HD
ENDBRANCH  13  31
BRANCH   6  33
HETATM   33  O7  UNL     1     -30.833  10.666 -26.933  1.00  0.00    -0.363 OA
ATOM     34  H7  UNL     1     -31.484  10.689 -26.242  1.00  0.00     0.213 HD
ENDBRANCH   6  33
BRANCH   9  35
HETATM   35  O9  UNL     1     -28.997   7.363 -26.262  1.00  0.00    -0.382 OA
ATOM     36  H9  UNL     1     -28.143   7.055 -26.540  1.00  0.00     0.210 HD
ENDBRANCH   9  35
BRANCH   8  37
HETATM   37  O8  UNL     1     -29.351   9.046 -28.874  1.00  0.00    -0.375 OA
ATOM     38  H8  UNL     1     -29.744   9.768 -29.351  1.00  0.00     0.211 HD
ENDBRANCH   8  37
BRANCH  10  39
HETATM   39  C19 UNL     1     -29.842   5.710 -29.442  1.00  0.00     0.125 C 
BRANCH  39  40
HETATM   40  O10 UNL     1     -29.940   6.752 -30.327  1.00  0.00    -0.395 OA
ATOM     41  H10 UNL     1     -29.842   6.534 -31.246  1.00  0.00     0.210 HD
ENDBRANCH  39  40
BRANCH  39  42
HETATM   42  C20 UNL     1     -28.734   4.818 -29.973  1.00  0.00     0.032 C 
BRANCH  42  43
HETATM   43  C21 UNL     1     -27.566   5.555 -30.529  1.00  0.00     0.002 C 
BRANCH  43  44
HETATM   44  C22 UNL     1     -27.097   4.955 -31.833  1.00  0.00    -0.004 C 
HETATM   45  C23 UNL     1     -28.178   4.080 -32.451  1.00  0.00     0.005 C 
ENDBRANCH  43  44
ENDBRANCH  42  43
ENDBRANCH  39  42
ENDBRANCH  10  39
TORSDOF 16
ENDMDL
MODEL 5
REMARK VINA RESULT: -7.862454217      3.150     10.543
REMARK  16 active torsions:
REMARK  status: ('A' for Active; 'I' for Inactive)
REMARK    1  A    between atoms: C3_4  and  C4_5 
REMARK    2  A    between atoms: C5_6  and  C6_7 
REMARK    3  A    between atoms: C6_7  and  O2_8 
REMARK    4  A    between atoms: C6_7  and  C7_10 
REMARK    5  A    between atoms: C9_12  and  O3_13 
REMARK    6  A    between atoms: C11_16  and  C12_17 
REMARK    7  A    between atoms: C12_17  and  O4_18 
REMARK    8  A    between atoms: C14_23  and  O7_25 
REMARK    9  A    between atoms: C16_27  and  O8_28 
REMARK   10  A    between atoms: C17_30  and  O9_31 
REMARK   11  A    between atoms: C18_33  and  C19_34 
REMARK   12  A    between atoms: C19_34  and  O10_35 
REMARK   13  A    between atoms: C19_34  and  C20_37 
REMARK   14  A    between atoms: C20_37  and  C21_38 
REMARK   15  A    between atoms: C21_38  and  C22_39 
REMARK   16  A    between atoms: C26_43  and  O11_44 
ROOT
HETATM    1  C1  UNL     1     -33.926   7.049 -28.600  1.00  0.00     0.049 C 
HETATM    2  C2  UNL     1     -33.259   7.857 -27.834  1.00  0.00     0.084 C 
HETATM    3  O1  UNL     1     -33.531   8.034 -26.457  1.00  0.00    -0.309 OA
HETATM    4  C3  UNL     1     -32.340   8.514 -25.771  1.00  0.00     0.226 C 
HETATM    5  O6  UNL     1     -32.273   9.862 -26.160  1.00  0.00    -0.309 OA
HETATM    6  C14 UNL     1     -32.518  10.038 -27.533  1.00  0.00     0.202 C 
HETATM    7  C15 UNL     1     -31.846  11.236 -28.092  1.00  0.00     0.083 C 
HETATM    8  C16 UNL     1     -32.116   8.723 -28.254  1.00  0.00     0.196 C 
HETATM    9  C17 UNL     1     -30.889   8.282 -27.627  1.00  0.00     0.143 C 
HETATM   10  C18 UNL     1     -29.889   7.409 -28.122  1.00  0.00     0.056 C 
HETATM   11  C24 UNL     1     -29.194   6.913 -26.855  1.00  0.00     0.014 C 
HETATM   12  C25 UNL     1     -29.939   7.611 -25.691  1.00  0.00     0.048 C 
HETATM   13  C26 UNL     1     -31.285   7.650 -26.269  1.00  0.00     0.153 C 
ENDROOT
BRANCH   4  14
HETATM   14  C4  UNL     1     -32.657   8.485 -24.349  1.00  0.00     0.043 C 
HETATM   15  C5  UNL     1     -33.410   9.341 -23.691  1.00  0.00     0.007 C 
BRANCH  15  16
HETATM   16  C6  UNL     1     -33.715   9.293 -22.266  1.00  0.00     0.152 C 
BRANCH  16  17
HETATM   17  O2  UNL     1     -33.300   8.063 -21.761  1.00  0.00    -0.391 OA
ATOM     18  H2  UNL     1     -33.476   8.041 -20.828  1.00  0.00     0.210 HD
ENDBRANCH  16  17
BRANCH  16  19
HETATM   19  C7  UNL     1     -35.163   9.460 -21.923  1.00  0.00     0.090 C 
HETATM   20  C8  UNL     1     -36.039   8.428 -22.613  1.00  0.00     0.046 C 
HETATM   21  C9  UNL     1     -37.485   8.876 -22.352  1.00  0.00     0.119 C 
HETATM   22  C10 UNL     1     -37.751   8.662 -20.898  1.00  0.00     0.046 C 
HETATM   23  C11 UNL     1     -36.829   9.437 -19.992  1.00  0.00     0.082 C 
HETATM   24  C13 UNL     1     -35.450   9.507 -20.488  1.00  0.00     0.140 C 
HETATM   25  O5  UNL     1     -34.540   9.605 -19.695  1.00  0.00    -0.297 OA
BRANCH  21  26
HETATM   26  O3  UNL     1     -38.323   8.054 -23.081  1.00  0.00    -0.396 OA
ATOM     27  H3  UNL     1     -37.929   7.191 -23.118  1.00  0.00     0.210 HD
ENDBRANCH  21  26
BRANCH  23  28
HETATM   28  C12 UNL     1     -37.436  10.800 -19.744  1.00  0.00     0.176 C 
BRANCH  28  29
HETATM   29  O4  UNL     1     -36.905  11.407 -18.612  1.00  0.00    -0.400 OA
ATOM     30  H4  UNL     1     -37.316  12.244 -18.431  1.00  0.00     0.209 HD
ENDBRANCH  28  29
ENDBRANCH  23  28
ENDBRANCH  16  19
ENDBRANCH  15  16
ENDBRANCH   4  14
BRANCH  13  31
HETATM   31  O11 UNL     1     -31.745   6.355 -26.441  1.00  0.00    -0.381 OA
ATOM     32  H11 UNL     1     -31.888   6.164 -27.360  1.00  0.00     0.211 HD
ENDBRANCH  13  31
BRANCH   6  33
HETATM   33  O7  UNL     1     -33.905  10.231 -27.642  1.00  0.00    -0.363 OA
ATOM     34  H7  UNL     1     -34.033  10.685 -28.467  1.00  0.00     0.213 HD
ENDBRANCH   6  33
BRANCH   9  35
HETATM   35  O9  UNL     1     -30.177   9.446 -27.182  1.00  0.00    -0.382 OA
ATOM     36  H9  UNL     1     -29.494   9.630 -27.816  1.00  0.00     0.210 HD
ENDBRANCH   9  35
BRANCH   8  37
HETATM   37  O8  UNL     1     -32.111   8.986 -29.596  1.00  0.00    -0.375 OA
ATOM     38  H8  UNL     1     -31.904   8.222 -30.122  1.00  0.00     0.211 HD
ENDBRANCH   8  37
BRANCH  10  39
HETATM   39  C19 UNL     1     -30.149   6.248 -29.006  1.00  0.00     0.125 C 
BRANCH  39  40
HETATM   40  O10 UNL     1     -30.486   6.536 -30.303  1.00  0.00    -0.395 OA
ATOM     41  H10 UNL     1     -30.821   5.813 -30.821  1.00  0.00     0.210 HD
ENDBRANCH  39  40
BRANCH  39  42
HETATM   42  C20 UNL     1     -28.849   5.467 -29.080  1.00  0.00     0.032 C 
BRANCH  42  43
HETATM   43  C21 UNL     1     -27.980   5.827 -30.234  1.00  0.00     0.002 C 
BRANCH  43  44
HETATM   44  C22 UNL     1     -27.725   4.641 -31.132  1.00  0.00    -0.004 C 
HETATM   45  C23 UNL     1     -26.862   5.034 -32.323  1.00  0.00     0.005 C 
ENDBRANCH  43  44
ENDBRANCH  42  43
ENDBRANCH  39  42
ENDBRANCH  10  39
TORSDOF 16
ENDMDL
