MODEL 1
REMARK VINA RESULT: -8.584076817      0.000      0.000
REMARK  5 active torsions:
REMARK  status: ('A' for Active; 'I' for Inactive)
REMARK    1  A    between atoms: C3_3  and  C4_4 
REMARK    2  A    between atoms: C6_7  and  O1_8 
REMARK    3  A    between atoms: C6_7  and  C7_10 
REMARK    4  A    between atoms: C9_13  and  N2_14 
REMARK       I    between atoms: N2_14  and  C10_16 
REMARK    5  A    between atoms: C13_25  and  N6_26 
ROOT
HETATM    1  C1  UNL     1     -21.143 -30.968  -0.299  1.00  0.00     0.096 C 
HETATM    2  C2  UNL     1     -21.597 -31.331  -1.478  1.00  0.00    -0.187 C 
HETATM    3  C3  UNL     1     -22.090 -31.745  -2.606  1.00  0.00     0.087 C 
ENDROOT
BRANCH   3   4
HETATM    4  C4  UNL     1     -22.594 -33.120  -2.656  1.00  0.00     0.037 C 
HETATM    5  C5  UNL     1     -23.264 -33.245  -4.020  1.00  0.00     0.132 C 
HETATM    6  N1  UNL     1     -22.300 -32.834  -5.055  1.00  0.00    -0.360 N 
HETATM    7  C6  UNL     1     -22.693 -31.861  -5.907  1.00  0.00     0.166 C 
HETATM    8  C11 UNL     1     -21.045 -33.505  -5.017  1.00  0.00     0.127 C 
HETATM    9  C12 UNL     1     -21.109 -34.600  -3.973  1.00  0.00     0.046 C 
HETATM   10  C13 UNL     1     -21.446 -34.135  -2.579  1.00  0.00     0.096 C 
BRANCH   7  11
HETATM   11  O1  UNL     1     -23.936 -31.391  -5.673  1.00  0.00    -0.344 OA
ATOM     12  H1  UNL     1     -24.210 -30.704  -6.269  1.00  0.00     0.219 HD
ENDBRANCH   7  11
BRANCH   7  13
HETATM   13  C7  UNL     1     -22.058 -31.179  -7.056  1.00  0.00     0.092 A 
HETATM   14  C8  UNL     1     -21.273 -31.863  -7.943  1.00  0.00     0.087 A 
HETATM   15  S1  UNL     1     -20.829 -30.639  -9.063  1.00  0.00    -0.063 SA
HETATM   16  C9  UNL     1     -21.650 -29.337  -8.358  1.00  0.00     0.151 A 
HETATM   17  N5  UNL     1     -22.236 -29.903  -7.279  1.00  0.00    -0.333 N 
ATOM     18  H5  UNL     1     -22.809 -29.342  -6.648  1.00  0.00     0.168 HD
BRANCH  16  19
HETATM   19  N2  UNL     1     -21.784 -28.096  -8.694  1.00  0.00    -0.311 N 
HETATM   20  C10 UNL     1     -21.500 -27.056  -7.818  1.00  0.00     0.187 C 
HETATM   21  N3  UNL     1     -20.310 -26.964  -7.309  1.00  0.00    -0.373 N 
HETATM   22  N4  UNL     1     -22.523 -26.132  -7.519  1.00  0.00    -0.064 NA
ATOM     23  H32 UNL     1     -19.570 -27.631  -7.526  1.00  0.00     0.158 HD
ATOM     24  H31 UNL     1     -20.101 -26.201  -6.666  1.00  0.00     0.158 HD
ATOM     25  H2  UNL     1     -22.110 -27.873  -9.634  1.00  0.00     0.170 HD
ENDBRANCH  16  19
ENDBRANCH   7  13
BRANCH  10  26
HETATM   26  N6  UNL     1     -21.754 -35.223  -1.760  1.00  0.00    -0.369 N 
HETATM   27  C14 UNL     1     -22.036 -35.077  -0.397  1.00  0.00     0.063 C 
HETATM   28  C15 UNL     1     -23.305 -35.817   0.030  1.00  0.00     0.045 C 
HETATM   29  C16 UNL     1     -23.080 -37.279  -0.298  1.00  0.00     0.010 C 
HETATM   30  C17 UNL     1     -22.930 -37.376  -1.804  1.00  0.00     0.045 C 
HETATM   31  C18 UNL     1     -21.761 -36.531  -2.250  1.00  0.00     0.063 C 
ENDBRANCH  10  26
ENDBRANCH   3   4
TORSDOF 5
ENDMDL
MODEL 2
REMARK VINA RESULT: -8.473805862      1.104      1.190
REMARK  5 active torsions:
REMARK  status: ('A' for Active; 'I' for Inactive)
REMARK    1  A    between atoms: C3_3  and  C4_4 
REMARK    2  A    between atoms: C6_7  and  O1_8 
REMARK    3  A    between atoms: C6_7  and  C7_10 
REMARK    4  A    between atoms: C9_13  and  N2_14 
REMARK       I    between atoms: N2_14  and  C10_16 
REMARK    5  A    between atoms: C13_25  and  N6_26 
ROOT
HETATM    1  C1  UNL     1     -21.773 -30.718  -1.278  1.00  0.00     0.096 C 
HETATM    2  C2  UNL     1     -22.217 -31.300  -2.370  1.00  0.00    -0.187 C 
HETATM    3  C3  UNL     1     -22.692 -31.930  -3.403  1.00  0.00     0.087 C 
ENDROOT
BRANCH   3   4
HETATM    4  C4  UNL     1     -23.016 -33.349  -3.234  1.00  0.00     0.037 C 
HETATM    5  C5  UNL     1     -23.695 -33.755  -4.538  1.00  0.00     0.132 C 
HETATM    6  N1  UNL     1     -22.817 -33.384  -5.660  1.00  0.00    -0.360 N 
HETATM    7  C6  UNL     1     -23.352 -32.604  -6.625  1.00  0.00     0.166 C 
HETATM    8  C11 UNL     1     -21.485 -33.882  -5.579  1.00  0.00     0.127 C 
HETATM    9  C12 UNL     1     -21.383 -34.810  -4.388  1.00  0.00     0.046 C 
HETATM   10  C13 UNL     1     -21.745 -34.191  -3.061  1.00  0.00     0.096 C 
BRANCH   7  11
HETATM   11  O1  UNL     1     -24.638 -32.262  -6.409  1.00  0.00    -0.344 OA
ATOM     12  H1  UNL     1     -25.103 -32.849  -5.824  1.00  0.00     0.219 HD
ENDBRANCH   7  11
BRANCH   7  13
HETATM   13  C7  UNL     1     -22.836 -32.024  -7.885  1.00  0.00     0.092 A 
HETATM   14  C8  UNL     1     -22.730 -32.776  -9.023  1.00  0.00     0.087 A 
HETATM   15  S1  UNL     1     -22.128 -31.641 -10.161  1.00  0.00    -0.063 SA
HETATM   16  C9  UNL     1     -22.039 -30.286  -9.149  1.00  0.00     0.151 A 
HETATM   17  N5  UNL     1     -22.480 -30.768  -7.966  1.00  0.00    -0.333 N 
ATOM     18  H5  UNL     1     -22.535 -30.161  -7.149  1.00  0.00     0.168 HD
BRANCH  16  19
HETATM   19  N2  UNL     1     -21.694 -29.057  -9.354  1.00  0.00    -0.311 N 
HETATM   20  C10 UNL     1     -20.766 -28.405  -8.552  1.00  0.00     0.187 C 
HETATM   21  N3  UNL     1     -19.571 -28.898  -8.437  1.00  0.00    -0.373 N 
HETATM   22  N4  UNL     1     -21.162 -27.222  -7.894  1.00  0.00    -0.064 NA
ATOM     23  H32 UNL     1     -19.285 -29.753  -8.914  1.00  0.00     0.158 HD
ATOM     24  H31 UNL     1     -18.889 -28.420  -7.848  1.00  0.00     0.158 HD
ATOM     25  H2  UNL     1     -22.117 -28.549 -10.129  1.00  0.00     0.170 HD
ENDBRANCH  16  19
ENDBRANCH   7  13
BRANCH  10  26
HETATM   26  N6  UNL     1     -21.891 -35.177  -2.083  1.00  0.00    -0.369 N 
HETATM   27  C14 UNL     1     -22.107 -34.868  -0.736  1.00  0.00     0.063 C 
HETATM   28  C15 UNL     1     -23.266 -35.655  -0.122  1.00  0.00     0.045 C 
HETATM   29  C16 UNL     1     -22.911 -37.122  -0.266  1.00  0.00     0.010 C 
HETATM   30  C17 UNL     1     -22.840 -37.415  -1.751  1.00  0.00     0.045 C 
HETATM   31  C18 UNL     1     -21.792 -36.535  -2.391  1.00  0.00     0.063 C 
ENDBRANCH  10  26
ENDBRANCH   3   4
TORSDOF 5
ENDMDL
MODEL 3
REMARK VINA RESULT: -8.447960770      2.771      3.551
REMARK  5 active torsions:
REMARK  status: ('A' for Active; 'I' for Inactive)
REMARK    1  A    between atoms: C3_3  and  C4_4 
REMARK    2  A    between atoms: C6_7  and  O1_8 
REMARK    3  A    between atoms: C6_7  and  C7_10 
REMARK    4  A    between atoms: C9_13  and  N2_14 
REMARK       I    between atoms: N2_14  and  C10_16 
REMARK    5  A    between atoms: C13_25  and  N6_26 
ROOT
HETATM    1  C1  UNL     1     -21.439 -31.713  -1.387  1.00  0.00     0.096 C 
HETATM    2  C2  UNL     1     -21.364 -32.808  -2.111  1.00  0.00    -0.187 C 
HETATM    3  C3  UNL     1     -21.370 -33.901  -2.814  1.00  0.00     0.087 C 
ENDROOT
BRANCH   3   4
HETATM    4  C4  UNL     1     -22.424 -34.879  -2.529  1.00  0.00     0.037 C 
HETATM    5  C5  UNL     1     -23.644 -34.377  -3.293  1.00  0.00     0.132 C 
HETATM    6  N1  UNL     1     -23.264 -34.175  -4.702  1.00  0.00    -0.360 N 
HETATM    7  C6  UNL     1     -23.500 -32.954  -5.231  1.00  0.00     0.166 C 
HETATM    8  C11 UNL     1     -22.667 -35.300  -5.337  1.00  0.00     0.127 C 
HETATM    9  C12 UNL     1     -22.724 -36.481  -4.392  1.00  0.00     0.046 C 
HETATM   10  C13 UNL     1     -22.050 -36.268  -3.060  1.00  0.00     0.096 C 
BRANCH   7  11
HETATM   11  O1  UNL     1     -24.051 -32.075  -4.368  1.00  0.00    -0.344 OA
ATOM     12  H1  UNL     1     -25.001 -32.061  -4.381  1.00  0.00     0.219 HD
ENDBRANCH   7  11
BRANCH   7  13
HETATM   13  C7  UNL     1     -23.282 -32.348  -6.563  1.00  0.00     0.092 A 
HETATM   14  C8  UNL     1     -22.300 -31.417  -6.769  1.00  0.00     0.087 A 
HETATM   15  S1  UNL     1     -22.456 -31.082  -8.445  1.00  0.00    -0.063 SA
HETATM   16  C9  UNL     1     -23.743 -32.125  -8.797  1.00  0.00     0.151 A 
HETATM   17  N5  UNL     1     -24.003 -32.692  -7.598  1.00  0.00    -0.333 N 
ATOM     18  H5  UNL     1     -24.750 -33.379  -7.503  1.00  0.00     0.168 HD
BRANCH  16  19
HETATM   19  N2  UNL     1     -24.368 -32.412  -9.892  1.00  0.00    -0.311 N 
HETATM   20  C10 UNL     1     -23.917 -33.393 -10.766  1.00  0.00     0.187 C 
HETATM   21  N3  UNL     1     -23.769 -34.608 -10.333  1.00  0.00    -0.373 N 
HETATM   22  N4  UNL     1     -23.641 -33.027 -12.100  1.00  0.00    -0.064 NA
ATOM     23  H32 UNL     1     -23.969 -34.872  -9.369  1.00  0.00     0.158 HD
ATOM     24  H31 UNL     1     -23.438 -35.328 -10.975  1.00  0.00     0.158 HD
ATOM     25  H2  UNL     1     -25.220 -31.902 -10.121  1.00  0.00     0.170 HD
ENDBRANCH  16  19
ENDBRANCH   7  13
BRANCH  10  26
HETATM   26  N6  UNL     1     -22.392 -37.287  -2.168  1.00  0.00    -0.369 N 
HETATM   27  C14 UNL     1     -22.004 -37.266  -0.825  1.00  0.00     0.063 C 
HETATM   28  C15 UNL     1     -23.160 -37.557   0.134  1.00  0.00     0.045 C 
HETATM   29  C16 UNL     1     -23.685 -38.931  -0.232  1.00  0.00     0.010 C 
HETATM   30  C17 UNL     1     -24.221 -38.836  -1.647  1.00  0.00     0.045 C 
HETATM   31  C18 UNL     1     -23.113 -38.410  -2.580  1.00  0.00     0.063 C 
ENDBRANCH  10  26
ENDBRANCH   3   4
TORSDOF 5
ENDMDL
MODEL 4
REMARK VINA RESULT: -8.391743795      3.641      4.613
REMARK  5 active torsions:
REMARK  status: ('A' for Active; 'I' for Inactive)
REMARK    1  A    between atoms: C3_3  and  C4_4 
REMARK    2  A    between atoms: C6_7  and  O1_8 
REMARK    3  A    between atoms: C6_7  and  C7_10 
REMARK    4  A    between atoms: C9_13  and  N2_14 
REMARK       I    between atoms: N2_14  and  C10_16 
REMARK    5  A    between atoms: C13_25  and  N6_26 
ROOT
HETATM    1  C1  UNL     1     -22.479 -30.348  -2.176  1.00  0.00     0.096 C 
HETATM    2  C2  UNL     1     -22.107 -31.547  -2.563  1.00  0.00    -0.187 C 
HETATM    3  C3  UNL     1     -21.812 -32.761  -2.923  1.00  0.00     0.087 C 
ENDROOT
BRANCH   3   4
HETATM    4  C4  UNL     1     -22.535 -33.852  -2.266  1.00  0.00     0.037 C 
HETATM    5  C5  UNL     1     -23.478 -34.399  -3.333  1.00  0.00     0.132 C 
HETATM    6  N1  UNL     1     -22.689 -34.728  -4.531  1.00  0.00    -0.360 N 
HETATM    7  C6  UNL     1     -23.080 -34.166  -5.697  1.00  0.00     0.166 C 
HETATM    8  C11 UNL     1     -21.581 -35.594  -4.310  1.00  0.00     0.127 C 
HETATM    9  C12 UNL     1     -21.611 -36.068  -2.873  1.00  0.00     0.046 C 
HETATM   10  C13 UNL     1     -21.579 -34.973  -1.837  1.00  0.00     0.096 C 
BRANCH   7  11
HETATM   11  O1  UNL     1     -24.154 -33.357  -5.586  1.00  0.00    -0.344 OA
ATOM     12  H1  UNL     1     -24.037 -32.500  -5.977  1.00  0.00     0.219 HD
ENDBRANCH   7  11
BRANCH   7  13
HETATM   13  C7  UNL     1     -22.585 -34.231  -7.090  1.00  0.00     0.092 A 
HETATM   14  C8  UNL     1     -21.337 -33.780  -7.423  1.00  0.00     0.087 A 
HETATM   15  S1  UNL     1     -21.262 -34.112  -9.105  1.00  0.00    -0.063 SA
HETATM   16  C9  UNL     1     -22.799 -34.796  -9.301  1.00  0.00     0.151 A 
HETATM   17  N5  UNL     1     -23.311 -34.740  -8.051  1.00  0.00    -0.333 N 
ATOM     18  H5  UNL     1     -24.250 -35.088  -7.861  1.00  0.00     0.168 HD
BRANCH  16  19
HETATM   19  N2  UNL     1     -23.412 -35.307 -10.318  1.00  0.00    -0.311 N 
HETATM   20  C10 UNL     1     -23.005 -36.497 -10.908  1.00  0.00     0.187 C 
HETATM   21  N3  UNL     1     -22.951 -37.574 -10.187  1.00  0.00    -0.373 N 
HETATM   22  N4  UNL     1     -22.669 -36.486 -12.278  1.00  0.00    -0.064 NA
ATOM     23  H32 UNL     1     -23.194 -37.582  -9.196  1.00  0.00     0.158 HD
ATOM     24  H31 UNL     1     -22.652 -38.448 -10.619  1.00  0.00     0.158 HD
ATOM     25  H2  UNL     1     -24.221 -34.819 -10.701  1.00  0.00     0.170 HD
ENDBRANCH  16  19
ENDBRANCH   7  13
BRANCH  10  26
HETATM   26  N6  UNL     1     -21.890 -35.482  -0.574  1.00  0.00    -0.369 N 
HETATM   27  C14 UNL     1     -21.927 -34.676   0.569  1.00  0.00     0.063 C 
HETATM   28  C15 UNL     1     -23.196 -34.877   1.399  1.00  0.00     0.045 C 
HETATM   29  C16 UNL     1     -23.221 -36.340   1.796  1.00  0.00     0.010 C 
HETATM   30  C17 UNL     1     -23.330 -37.143   0.515  1.00  0.00     0.045 C 
HETATM   31  C18 UNL     1     -22.147 -36.840  -0.374  1.00  0.00     0.063 C 
ENDBRANCH  10  26
ENDBRANCH   3   4
TORSDOF 5
ENDMDL
MODEL 5
REMARK VINA RESULT: -8.347229821      3.150      3.759
REMARK  5 active torsions:
REMARK  status: ('A' for Active; 'I' for Inactive)
REMARK    1  A    between atoms: C3_3  and  C4_4 
REMARK    2  A    between atoms: C6_7  and  O1_8 
REMARK    3  A    between atoms: C6_7  and  C7_10 
REMARK    4  A    between atoms: C9_13  and  N2_14 
REMARK       I    between atoms: N2_14  and  C10_16 
REMARK    5  A    between atoms: C13_25  and  N6_26 
ROOT
HETATM    1  C1  UNL     1     -21.738 -30.942  -1.184  1.00  0.00     0.096 C 
HETATM    2  C2  UNL     1     -21.511 -32.158  -1.629  1.00  0.00    -0.187 C 
HETATM    3  C3  UNL     1     -21.364 -33.376  -2.057  1.00  0.00     0.087 C 
ENDROOT
BRANCH   3   4
HETATM    4  C4  UNL     1     -22.340 -34.371  -1.604  1.00  0.00     0.037 C 
HETATM    5  C5  UNL     1     -23.454 -34.332  -2.645  1.00  0.00     0.132 C 
HETATM    6  N1  UNL     1     -22.857 -34.520  -3.978  1.00  0.00    -0.360 N 
HETATM    7  C6  UNL     1     -23.126 -33.577  -4.908  1.00  0.00     0.166 C 
HETATM    8  C11 UNL     1     -22.040 -35.677  -4.120  1.00  0.00     0.127 C 
HETATM    9  C12 UNL     1     -22.135 -36.500  -2.853  1.00  0.00     0.046 C 
HETATM   10  C13 UNL     1     -21.731 -35.779  -1.591  1.00  0.00     0.096 C 
BRANCH   7  11
HETATM   11  O1  UNL     1     -23.911 -32.573  -4.466  1.00  0.00    -0.344 OA
ATOM     12  H1  UNL     1     -24.058 -31.885  -5.104  1.00  0.00     0.219 HD
ENDBRANCH   7  11
BRANCH   7  13
HETATM   13  C7  UNL     1     -22.744 -33.389  -6.326  1.00  0.00     0.092 A 
HETATM   14  C8  UNL     1     -21.439 -33.202  -6.690  1.00  0.00     0.087 A 
HETATM   15  S1  UNL     1     -21.548 -33.075  -8.399  1.00  0.00    -0.063 SA
HETATM   16  C9  UNL     1     -23.223 -33.262  -8.563  1.00  0.00     0.151 A 
HETATM   17  N5  UNL     1     -23.633 -33.415  -7.284  1.00  0.00    -0.333 N 
ATOM     18  H5  UNL     1     -24.621 -33.548  -7.070  1.00  0.00     0.168 HD
BRANCH  16  19
HETATM   19  N2  UNL     1     -24.007 -33.303  -9.590  1.00  0.00    -0.311 N 
HETATM   20  C10 UNL     1     -23.684 -34.011 -10.741  1.00  0.00     0.187 C 
HETATM   21  N3  UNL     1     -23.451 -35.284 -10.657  1.00  0.00    -0.373 N 
HETATM   22  N4  UNL     1     -23.627 -33.311 -11.965  1.00  0.00    -0.064 NA
ATOM     23  H32 UNL     1     -23.493 -35.790  -9.773  1.00  0.00     0.158 HD
ATOM     24  H31 UNL     1     -23.213 -35.804 -11.502  1.00  0.00     0.158 HD
ATOM     25  H2  UNL     1     -24.893 -32.800  -9.554  1.00  0.00     0.170 HD
ENDBRANCH  16  19
ENDBRANCH   7  13
BRANCH  10  26
HETATM   26  N6  UNL     1     -22.113 -36.511  -0.464  1.00  0.00    -0.369 N 
HETATM   27  C14 UNL     1     -22.229 -35.929   0.802  1.00  0.00     0.063 C 
HETATM   28  C15 UNL     1     -23.543 -36.280   1.501  1.00  0.00     0.045 C 
HETATM   29  C16 UNL     1     -23.575 -37.790   1.621  1.00  0.00     0.010 C 
HETATM   30  C17 UNL     1     -23.596 -38.345   0.211  1.00  0.00     0.045 C 
HETATM   31  C18 UNL     1     -22.365 -37.883  -0.533  1.00  0.00     0.063 C 
ENDBRANCH  10  26
ENDBRANCH   3   4
TORSDOF 5
ENDMDL
