MODEL 1
REMARK VINA RESULT: -8.609059540      0.000      0.000
REMARK  4 active torsions:
REMARK  status: ('A' for Active; 'I' for Inactive)
REMARK    1  A    between atoms: C8_8  and  N1_9 
REMARK       I    between atoms: N1_9  and  C9_11 
REMARK    2  A    between atoms: C13_17  and  O2_18 
REMARK    3  A    between atoms: C15_21  and  C16_22 
REMARK    4  A    between atoms: C21_27  and  O3_28 
ROOT
HETATM    1  C1  UNL     1     -21.476 -36.310  -1.814  1.00  0.00     0.018 C 
HETATM    2  C2  UNL     1     -22.572 -35.381  -2.203  1.00  0.00    -0.010 C 
HETATM    3  C3  UNL     1     -23.668 -36.296  -1.888  1.00  0.00     0.012 C 
HETATM    4  C4  UNL     1     -23.695 -37.365  -2.992  1.00  0.00     0.001 C 
HETATM    5  C5  UNL     1     -22.944 -37.235  -4.264  1.00  0.00     0.005 C 
HETATM    6  C6  UNL     1     -22.142 -35.968  -4.357  1.00  0.00    -0.003 C 
HETATM    7  C7  UNL     1     -21.633 -35.346  -5.547  1.00  0.00     0.021 C 
HETATM    8  C8  UNL     1     -22.498 -35.167  -6.723  1.00  0.00     0.091 C 
HETATM    9  C10 UNL     1     -22.809 -33.787  -7.169  1.00  0.00     0.037 C 
HETATM   10  C11 UNL     1     -22.715 -32.697  -6.189  1.00  0.00    -0.011 C 
HETATM   11  C12 UNL     1     -22.058 -31.442  -6.769  1.00  0.00     0.018 C 
HETATM   12  C13 UNL     1     -24.113 -32.237  -5.737  1.00  0.00     0.127 C 
HETATM   13  C14 UNL     1     -24.434 -33.340  -4.793  1.00  0.00     0.038 C 
HETATM   14  C15 UNL     1     -23.152 -33.617  -3.973  1.00  0.00    -0.001 C 
HETATM   15  C16 UNL     1     -22.968 -35.039  -3.594  1.00  0.00     0.005 C 
HETATM   16  C17 UNL     1     -22.129 -33.009  -4.878  1.00  0.00     0.009 C 
HETATM   17  C18 UNL     1     -21.049 -34.017  -4.999  1.00  0.00     0.019 C 
HETATM   18  C19 UNL     1     -20.384 -34.089  -3.692  1.00  0.00    -0.023 C 
HETATM   19  C20 UNL     1     -20.906 -33.673  -2.420  1.00  0.00     0.002 C 
HETATM   20  C21 UNL     1     -22.071 -34.169  -1.633  1.00  0.00     0.149 C 
ENDROOT
BRANCH   8  21
HETATM   21  N1  UNL     1     -21.953 -35.833  -7.928  1.00  0.00    -0.340 N 
HETATM   22  C9  UNL     1     -22.483 -36.983  -8.504  1.00  0.00     0.329 C 
HETATM   23  N2  UNL     1     -21.863 -37.522  -9.663  1.00  0.00    -0.040 NA
HETATM   24  O1  UNL     1     -23.494 -37.547  -8.020  1.00  0.00    -0.251 OA
ATOM     25  H1  UNL     1     -21.131 -35.419  -8.367  1.00  0.00     0.164 HD
ENDBRANCH   8  21
BRANCH  12  26
HETATM   26  O2  UNL     1     -24.996 -32.217  -6.787  1.00  0.00    -0.395 OA
ATOM     27  H2  UNL     1     -25.786 -31.739  -6.566  1.00  0.00     0.210 HD
ENDBRANCH  12  26
BRANCH  20  28
HETATM   28  O3  UNL     1     -21.678 -34.443  -0.274  1.00  0.00    -0.391 OA
ATOM     29  H3  UNL     1     -20.852 -34.002  -0.111  1.00  0.00     0.210 HD
ENDBRANCH  20  28
TORSDOF 4
ENDMDL
MODEL 2
REMARK VINA RESULT: -7.737272178      2.027      2.856
REMARK  4 active torsions:
REMARK  status: ('A' for Active; 'I' for Inactive)
REMARK    1  A    between atoms: C8_8  and  N1_9 
REMARK       I    between atoms: N1_9  and  C9_11 
REMARK    2  A    between atoms: C13_17  and  O2_18 
REMARK    3  A    between atoms: C15_21  and  C16_22 
REMARK    4  A    between atoms: C21_27  and  O3_28 
ROOT
HETATM    1  C1  UNL     1     -23.220 -39.055  -3.628  1.00  0.00     0.018 C 
HETATM    2  C2  UNL     1     -24.049 -37.822  -3.529  1.00  0.00    -0.010 C 
HETATM    3  C3  UNL     1     -25.131 -38.296  -4.391  1.00  0.00     0.012 C 
HETATM    4  C4  UNL     1     -24.608 -38.262  -5.835  1.00  0.00     0.001 C 
HETATM    5  C5  UNL     1     -23.361 -37.560  -6.228  1.00  0.00     0.005 C 
HETATM    6  C6  UNL     1     -22.655 -36.906  -5.075  1.00  0.00    -0.003 C 
HETATM    7  C7  UNL     1     -21.679 -35.854  -5.135  1.00  0.00     0.021 C 
HETATM    8  C8  UNL     1     -21.914 -34.668  -5.974  1.00  0.00     0.091 C 
HETATM    9  C10 UNL     1     -22.036 -33.347  -5.311  1.00  0.00     0.037 C 
HETATM   10  C11 UNL     1     -22.445 -33.306  -3.901  1.00  0.00    -0.011 C 
HETATM   11  C12 UNL     1     -21.643 -32.287  -3.088  1.00  0.00     0.018 C 
HETATM   12  C13 UNL     1     -23.910 -32.855  -3.762  1.00  0.00     0.127 C 
HETATM   13  C14 UNL     1     -24.587 -34.124  -4.139  1.00  0.00     0.038 C 
HETATM   14  C15 UNL     1     -23.816 -35.270  -3.442  1.00  0.00    -0.001 C 
HETATM   15  C16 UNL     1     -23.774 -36.534  -4.216  1.00  0.00     0.005 C 
HETATM   16  C17 UNL     1     -22.515 -34.582  -3.176  1.00  0.00     0.009 C 
HETATM   17  C18 UNL     1     -21.463 -35.519  -3.636  1.00  0.00     0.019 C 
HETATM   18  C19 UNL     1     -21.472 -36.658  -2.708  1.00  0.00    -0.023 C 
HETATM   19  C20 UNL     1     -22.535 -37.067  -1.833  1.00  0.00     0.002 C 
HETATM   20  C21 UNL     1     -23.912 -37.555  -2.131  1.00  0.00     0.149 C 
ENDROOT
BRANCH   8  21
HETATM   21  N1  UNL     1     -20.851 -34.479  -6.988  1.00  0.00    -0.340 N 
HETATM   22  C9  UNL     1     -21.081 -34.245  -8.340  1.00  0.00     0.329 C 
HETATM   23  N2  UNL     1     -19.969 -34.079  -9.208  1.00  0.00    -0.040 NA
HETATM   24  O1  UNL     1     -22.245 -34.177  -8.799  1.00  0.00    -0.251 OA
ATOM     25  H1  UNL     1     -19.882 -34.523  -6.672  1.00  0.00     0.164 HD
ENDBRANCH   8  21
BRANCH  12  26
HETATM   26  O2  UNL     1     -24.212 -31.855  -4.652  1.00  0.00    -0.395 OA
ATOM     27  H2  UNL     1     -23.606 -31.128  -4.574  1.00  0.00     0.210 HD
ENDBRANCH  12  26
BRANCH  20  28
HETATM   28  O3  UNL     1     -24.177 -38.776  -1.414  1.00  0.00    -0.391 OA
ATOM     29  H3  UNL     1     -23.852 -38.674  -0.527  1.00  0.00     0.210 HD
ENDBRANCH  20  28
TORSDOF 4
ENDMDL
MODEL 3
REMARK VINA RESULT: -7.491844216      3.310      6.471
REMARK  4 active torsions:
REMARK  status: ('A' for Active; 'I' for Inactive)
REMARK    1  A    between atoms: C8_8  and  N1_9 
REMARK       I    between atoms: N1_9  and  C9_11 
REMARK    2  A    between atoms: C13_17  and  O2_18 
REMARK    3  A    between atoms: C15_21  and  C16_22 
REMARK    4  A    between atoms: C21_27  and  O3_28 
ROOT
HETATM    1  C1  UNL     1     -21.732 -32.202  -5.975  1.00  0.00     0.018 C 
HETATM    2  C2  UNL     1     -22.719 -33.123  -5.346  1.00  0.00    -0.010 C 
HETATM    3  C3  UNL     1     -23.886 -32.271  -5.567  1.00  0.00     0.012 C 
HETATM    4  C4  UNL     1     -23.793 -31.108  -4.567  1.00  0.00     0.001 C 
HETATM    5  C5  UNL     1     -22.856 -31.102  -3.417  1.00  0.00     0.005 C 
HETATM    6  C6  UNL     1     -21.998 -32.332  -3.340  1.00  0.00    -0.003 C 
HETATM    7  C7  UNL     1     -21.291 -32.830  -2.192  1.00  0.00     0.021 C 
HETATM    8  C8  UNL     1     -21.963 -32.925  -0.887  1.00  0.00     0.091 C 
HETATM    9  C10 UNL     1     -22.146 -34.269  -0.284  1.00  0.00     0.037 C 
HETATM   10  C11 UNL     1     -22.155 -35.439  -1.171  1.00  0.00    -0.011 C 
HETATM   11  C12 UNL     1     -21.367 -36.618  -0.593  1.00  0.00     0.018 C 
HETATM   12  C13 UNL     1     -23.584 -35.978  -1.364  1.00  0.00     0.127 C 
HETATM   13  C14 UNL     1     -24.087 -34.974  -2.338  1.00  0.00     0.038 C 
HETATM   14  C15 UNL     1     -22.955 -34.735  -3.364  1.00  0.00    -0.001 C 
HETATM   15  C16 UNL     1     -22.889 -33.349  -3.887  1.00  0.00     0.005 C 
HETATM   16  C17 UNL     1     -21.784 -35.230  -2.577  1.00  0.00     0.009 C 
HETATM   17  C18 UNL     1     -20.741 -34.185  -2.708  1.00  0.00     0.019 C 
HETATM   18  C19 UNL     1     -20.282 -34.213  -4.103  1.00  0.00    -0.023 C 
HETATM   19  C20 UNL     1     -20.970 -34.756  -5.240  1.00  0.00     0.002 C 
HETATM   20  C21 UNL     1     -22.259 -34.367  -5.880  1.00  0.00     0.149 C 
ENDROOT
BRANCH   8  21
HETATM   21  N1  UNL     1     -21.272 -32.139   0.159  1.00  0.00    -0.340 N 
HETATM   22  C9  UNL     1     -21.872 -31.679   1.327  1.00  0.00     0.329 C 
HETATM   23  N2  UNL     1     -21.094 -30.933   2.253  1.00  0.00    -0.040 NA
HETATM   24  O1  UNL     1     -23.079 -31.912   1.574  1.00  0.00    -0.251 OA
ATOM     25  H1  UNL     1     -20.287 -31.918   0.014  1.00  0.00     0.164 HD
ENDBRANCH   8  21
BRANCH  12  26
HETATM   26  O2  UNL     1     -24.299 -35.927  -0.194  1.00  0.00    -0.395 OA
ATOM     27  H2  UNL     1     -25.117 -36.404  -0.267  1.00  0.00     0.210 HD
ENDBRANCH  12  26
BRANCH  20  28
HETATM   28  O3  UNL     1     -22.084 -34.206  -7.302  1.00  0.00    -0.391 OA
ATOM     29  H3  UNL     1     -21.525 -33.451  -7.447  1.00  0.00     0.210 HD
ENDBRANCH  20  28
TORSDOF 4
ENDMDL
MODEL 4
REMARK VINA RESULT: -7.430926940      3.190      5.083
REMARK  4 active torsions:
REMARK  status: ('A' for Active; 'I' for Inactive)
REMARK    1  A    between atoms: C8_8  and  N1_9 
REMARK       I    between atoms: N1_9  and  C9_11 
REMARK    2  A    between atoms: C13_17  and  O2_18 
REMARK    3  A    between atoms: C15_21  and  C16_22 
REMARK    4  A    between atoms: C21_27  and  O3_28 
ROOT
HETATM    1  C1  UNL     1     -22.756 -34.984  -2.225  1.00  0.00     0.018 C 
HETATM    2  C2  UNL     1     -22.032 -34.788  -3.512  1.00  0.00    -0.010 C 
HETATM    3  C3  UNL     1     -20.700 -34.666  -2.922  1.00  0.00     0.012 C 
HETATM    4  C4  UNL     1     -20.626 -33.283  -2.255  1.00  0.00     0.001 C 
HETATM    5  C5  UNL     1     -21.627 -32.214  -2.494  1.00  0.00     0.005 C 
HETATM    6  C6  UNL     1     -22.725 -32.624  -3.433  1.00  0.00    -0.003 C 
HETATM    7  C7  UNL     1     -23.605 -31.761  -4.172  1.00  0.00     0.021 C 
HETATM    8  C8  UNL     1     -23.069 -30.612  -4.918  1.00  0.00     0.091 C 
HETATM    9  C10 UNL     1     -23.215 -30.599  -6.394  1.00  0.00     0.037 C 
HETATM   10  C11 UNL     1     -23.382 -31.879  -7.094  1.00  0.00    -0.011 C 
HETATM   11  C12 UNL     1     -24.439 -31.810  -8.199  1.00  0.00     0.018 C 
HETATM   12  C13 UNL     1     -22.085 -32.290  -7.814  1.00  0.00     0.127 C 
HETATM   13  C14 UNL     1     -21.312 -32.789  -6.647  1.00  0.00     0.038 C 
HETATM   14  C15 UNL     1     -22.288 -33.619  -5.781  1.00  0.00    -0.001 C 
HETATM   15  C16 UNL     1     -22.025 -33.543  -4.323  1.00  0.00     0.005 C 
HETATM   16  C17 UNL     1     -23.593 -33.080  -6.273  1.00  0.00     0.009 C 
HETATM   17  C18 UNL     1     -24.384 -32.768  -5.059  1.00  0.00     0.019 C 
HETATM   18  C19 UNL     1     -24.730 -34.052  -4.435  1.00  0.00    -0.023 C 
HETATM   19  C20 UNL     1     -24.085 -35.321  -4.626  1.00  0.00     0.002 C 
HETATM   20  C21 UNL     1     -22.698 -35.769  -4.312  1.00  0.00     0.149 C 
ENDROOT
BRANCH   8  21
HETATM   21  N1  UNL     1     -23.659 -29.330  -4.474  1.00  0.00    -0.340 N 
HETATM   22  C9  UNL     1     -23.263 -28.077  -4.931  1.00  0.00     0.329 C 
HETATM   23  N2  UNL     1     -23.914 -26.921  -4.423  1.00  0.00    -0.040 NA
HETATM   24  O1  UNL     1     -22.348 -27.954  -5.780  1.00  0.00    -0.251 OA
ATOM     25  H1  UNL     1     -24.410 -29.367  -3.783  1.00  0.00     0.164 HD
ENDBRANCH   8  21
BRANCH  12  26
HETATM   26  O2  UNL     1     -21.467 -31.207  -8.385  1.00  0.00    -0.395 OA
ATOM     27  H2  UNL     1     -21.148 -30.603  -7.725  1.00  0.00     0.210 HD
ENDBRANCH  12  26
BRANCH  20  28
HETATM   28  O3  UNL     1     -22.727 -37.005  -3.571  1.00  0.00    -0.391 OA
ATOM     29  H3  UNL     1     -22.977 -37.701  -4.168  1.00  0.00     0.210 HD
ENDBRANCH  20  28
TORSDOF 4
ENDMDL
MODEL 5
REMARK VINA RESULT: -7.392849023      3.434      5.703
REMARK  4 active torsions:
REMARK  status: ('A' for Active; 'I' for Inactive)
REMARK    1  A    between atoms: C8_8  and  N1_9 
REMARK       I    between atoms: N1_9  and  C9_11 
REMARK    2  A    between atoms: C13_17  and  O2_18 
REMARK    3  A    between atoms: C15_21  and  C16_22 
REMARK    4  A    between atoms: C21_27  and  O3_28 
ROOT
HETATM    1  C1  UNL     1     -24.981 -38.548  -2.605  1.00  0.00     0.018 C 
HETATM    2  C2  UNL     1     -23.607 -38.286  -3.117  1.00  0.00    -0.010 C 
HETATM    3  C3  UNL     1     -22.942 -39.296  -2.296  1.00  0.00     0.012 C 
HETATM    4  C4  UNL     1     -22.899 -38.753  -0.859  1.00  0.00     0.001 C 
HETATM    5  C5  UNL     1     -23.192 -37.340  -0.518  1.00  0.00     0.005 C 
HETATM    6  C6  UNL     1     -23.553 -36.501  -1.710  1.00  0.00    -0.003 C 
HETATM    7  C7  UNL     1     -23.513 -35.068  -1.811  1.00  0.00     0.021 C 
HETATM    8  C8  UNL     1     -22.335 -34.322  -1.341  1.00  0.00     0.091 C 
HETATM    9  C10 UNL     1     -21.543 -33.554  -2.334  1.00  0.00     0.037 C 
HETATM   10  C11 UNL     1     -21.607 -33.959  -3.744  1.00  0.00    -0.011 C 
HETATM   11  C12 UNL     1     -21.700 -32.763  -4.694  1.00  0.00     0.018 C 
HETATM   12  C13 UNL     1     -20.324 -34.698  -4.167  1.00  0.00     0.127 C 
HETATM   13  C14 UNL     1     -20.601 -36.025  -3.556  1.00  0.00     0.038 C 
HETATM   14  C15 UNL     1     -22.087 -36.348  -3.836  1.00  0.00    -0.001 C 
HETATM   15  C16 UNL     1     -22.755 -37.122  -2.761  1.00  0.00     0.005 C 
HETATM   16  C17 UNL     1     -22.603 -34.974  -4.116  1.00  0.00     0.009 C 
HETATM   17  C18 UNL     1     -23.838 -34.834  -3.309  1.00  0.00     0.019 C 
HETATM   18  C19 UNL     1     -24.840 -35.729  -3.904  1.00  0.00    -0.023 C 
HETATM   19  C20 UNL     1     -24.606 -36.858  -4.761  1.00  0.00     0.002 C 
HETATM   20  C21 UNL     1     -23.895 -38.144  -4.511  1.00  0.00     0.149 C 
ENDROOT
BRANCH   8  21
HETATM   21  N1  UNL     1     -22.677 -33.333  -0.294  1.00  0.00    -0.340 N 
HETATM   22  C9  UNL     1     -22.021 -33.214   0.927  1.00  0.00     0.329 C 
HETATM   23  N2  UNL     1     -22.450 -32.219   1.845  1.00  0.00    -0.040 NA
HETATM   24  O1  UNL     1     -21.062 -33.966   1.225  1.00  0.00    -0.251 OA
ATOM     25  H1  UNL     1     -23.450 -32.692  -0.481  1.00  0.00     0.164 HD
ENDBRANCH   8  21
BRANCH  12  26
HETATM   26  O2  UNL     1     -19.210 -34.124  -3.609  1.00  0.00    -0.395 OA
ATOM     27  H2  UNL     1     -18.726 -33.615  -4.248  1.00  0.00     0.210 HD
ENDBRANCH  12  26
BRANCH  20  28
HETATM   28  O3  UNL     1     -24.718 -39.258  -4.913  1.00  0.00    -0.391 OA
ATOM     29  H3  UNL     1     -25.201 -39.002  -5.690  1.00  0.00     0.210 HD
ENDBRANCH  20  28
TORSDOF 4
ENDMDL
