MODEL 1
REMARK VINA RESULT: -9.151970437      0.000      0.000
REMARK  17 active torsions:
REMARK  status: ('A' for Active; 'I' for Inactive)
REMARK    1  A    between atoms: N1_1  and  C1_5 
REMARK    2  A    between atoms: C1_5  and  O1_6 
REMARK    3  A    between atoms: C1_5  and  C2_8 
REMARK    4  A    between atoms: C2_8  and  C6_20 
REMARK    5  A    between atoms: N2_9  and  O2_11 
REMARK    6  A    between atoms: O2_11  and  C3_12 
REMARK    7  A    between atoms: C3_12  and  O3_13 
REMARK    8  A    between atoms: C3_12  and  C4_15 
REMARK    9  A    between atoms: C4_15  and  C5_17 
REMARK   10  A    between atoms: C7_21  and  O7_22 
REMARK   11  A    between atoms: C8_24  and  O8_25 
REMARK   12  A    between atoms: C9_27  and  O9_28 
REMARK   13  A    between atoms: C10_30  and  C11_31 
REMARK   14  A    between atoms: C13_38  and  O12_39 
REMARK   15  A    between atoms: C15_42  and  O13_43 
REMARK   16  A    between atoms: C16_45  and  O14_46 
REMARK   17  A    between atoms: C18_49  and  O15_50 
ROOT
HETATM    1  C6  UNL     1      27.910  29.165  85.036  1.00  0.00     0.063 A 
HETATM    2  C7  UNL     1      28.228  28.289  86.058  1.00  0.00     0.117 A 
HETATM    3  C8  UNL     1      29.510  28.243  86.564  1.00  0.00     0.134 A 
HETATM    4  C9  UNL     1      30.421  29.073  86.017  1.00  0.00     0.117 A 
HETATM    5  C10 UNL     1      30.220  30.000  84.975  1.00  0.00     0.062 A 
HETATM    6  C18 UNL     1      28.890  30.023  84.495  1.00  0.00     0.096 A 
ENDROOT
BRANCH   1   7
HETATM    7  C2  UNL     1      26.537  29.120  84.583  1.00  0.00     0.103 C 
HETATM    8  N2  UNL     1      25.692  29.990  85.116  1.00  0.00    -0.262 N 
ATOM      9  H2  UNL     1      26.096  30.605  85.823  1.00  0.00     0.194 HD
BRANCH   7  10
HETATM   10  C1  UNL     1      25.981  28.235  83.577  1.00  0.00     0.370 C 
BRANCH  10  11
HETATM   11  N1  UNL     1      27.056  27.616  82.761  1.00  0.00    -0.047 N 
ATOM     12  H13 UNL     1      26.779  27.373  81.810  1.00  0.00     0.277 HD
ATOM     13  H12 UNL     1      27.805  28.255  82.494  1.00  0.00     0.277 HD
ATOM     14  H11 UNL     1      27.360  26.824  83.328  1.00  0.00     0.277 HD
ENDBRANCH  10  11
BRANCH  10  15
HETATM   15  O1  UNL     1      25.335  27.119  84.176  1.00  0.00    -0.365 OA
ATOM     16  H1  UNL     1      25.356  26.458  83.495  1.00  0.00     0.212 HD
ENDBRANCH  10  15
ENDBRANCH   7  10
BRANCH   8  17
HETATM   17  O2  UNL     1      24.417  30.183  84.877  1.00  0.00    -0.239 OA
BRANCH  17  18
HETATM   18  C3  UNL     1      23.342  29.647  85.632  1.00  0.00     0.368 C 
BRANCH  18  19
HETATM   19  O3  UNL     1      22.601  30.631  86.250  1.00  0.00    -0.363 OA
ATOM     20  H3  UNL     1      21.831  30.868  85.746  1.00  0.00     0.213 HD
ENDBRANCH  18  19
BRANCH  18  21
HETATM   21  C4  UNL     1      22.454  28.809  84.811  1.00  0.00     0.281 C 
HETATM   22  O4  UNL     1      22.701  27.554  84.699  1.00  0.00    -0.280 OA
BRANCH  21  23
HETATM   23  C5  UNL     1      21.317  29.385  84.135  1.00  0.00     0.252 C 
HETATM   24  O5  UNL     1      21.416  29.900  83.002  1.00  0.00    -0.642 OA
HETATM   25  O6  UNL     1      20.071  29.378  84.740  1.00  0.00    -0.642 OA
ENDBRANCH  21  23
ENDBRANCH  18  21
ENDBRANCH  17  18
ENDBRANCH   8  17
ENDBRANCH   1   7
BRANCH   2  26
HETATM   26  O7  UNL     1      27.292  27.441  86.606  1.00  0.00    -0.357 OA
ATOM     27  H7  UNL     1      26.431  27.744  86.866  1.00  0.00     0.217 HD
ENDBRANCH   2  26
BRANCH   6  28
HETATM   28  O15 UNL     1      28.551  30.874  83.566  1.00  0.00    -0.359 OA
ATOM     29  H15 UNL     1      27.632  31.001  83.366  1.00  0.00     0.217 HD
ENDBRANCH   6  28
BRANCH   3  30
HETATM   30  O8  UNL     1      29.767  27.342  87.600  1.00  0.00    -0.356 OA
ATOM     31  H8  UNL     1      30.322  27.635  88.312  1.00  0.00     0.218 HD
ENDBRANCH   3  30
BRANCH   5  32
HETATM   32  C11 UNL     1      31.201  31.075  84.775  1.00  0.00     0.073 C 
HETATM   33  N3  UNL     1      31.555  31.282  83.495  1.00  0.00    -0.278 N 
HETATM   34  S1  UNL     1      32.677  32.497  83.365  1.00  0.00     0.267 S 
ATOM     35  H3  UNL     1      31.182  30.759  82.703  1.00  0.00     0.179 HD
HETATM   36  O10 UNL     1      32.322  33.599  82.410  1.00  0.00    -0.200 OA
HETATM   37  O11 UNL     1      34.096  32.047  83.194  1.00  0.00    -0.200 OA
HETATM   38  C12 UNL     1      32.420  33.134  85.001  1.00  0.00     0.128 A 
HETATM   39  C13 UNL     1      32.812  34.327  85.502  1.00  0.00     0.092 A 
HETATM   40  C17 UNL     1      31.673  32.148  85.620  1.00  0.00     0.054 A 
HETATM   41  C14 UNL     1      32.448  34.653  86.776  1.00  0.00     0.077 A 
HETATM   42  C15 UNL     1      31.714  33.760  87.457  1.00  0.00     0.102 A 
HETATM   43  C16 UNL     1      31.309  32.525  86.927  1.00  0.00     0.113 A 
BRANCH  39  44
HETATM   44  O12 UNL     1      33.569  35.181  84.707  1.00  0.00    -0.359 OA
ATOM     45  H12 UNL     1      34.493  34.999  84.582  1.00  0.00     0.217 HD
ENDBRANCH  39  44
BRANCH  42  46
HETATM   46  O13 UNL     1      31.330  34.070  88.757  1.00  0.00    -0.358 OA
ATOM     47  H13 UNL     1      30.501  34.516  88.891  1.00  0.00     0.217 HD
ENDBRANCH  42  46
BRANCH  43  48
HETATM   48  O14 UNL     1      30.542  31.768  87.742  1.00  0.00    -0.357 OA
ATOM     49  H14 UNL     1      29.604  31.849  87.612  1.00  0.00     0.217 HD
ENDBRANCH  43  48
ENDBRANCH   5  32
BRANCH   4  50
HETATM   50  O9  UNL     1      31.731  29.037  86.516  1.00  0.00    -0.357 OA
ATOM     51  H9  UNL     1      32.430  29.363  85.962  1.00  0.00     0.217 HD
ENDBRANCH   4  50
TORSDOF 17
ENDMDL
MODEL 2
REMARK VINA RESULT: -8.572190753      3.909      6.234
REMARK  17 active torsions:
REMARK  status: ('A' for Active; 'I' for Inactive)
REMARK    1  A    between atoms: N1_1  and  C1_5 
REMARK    2  A    between atoms: C1_5  and  O1_6 
REMARK    3  A    between atoms: C1_5  and  C2_8 
REMARK    4  A    between atoms: C2_8  and  C6_20 
REMARK    5  A    between atoms: N2_9  and  O2_11 
REMARK    6  A    between atoms: O2_11  and  C3_12 
REMARK    7  A    between atoms: C3_12  and  O3_13 
REMARK    8  A    between atoms: C3_12  and  C4_15 
REMARK    9  A    between atoms: C4_15  and  C5_17 
REMARK   10  A    between atoms: C7_21  and  O7_22 
REMARK   11  A    between atoms: C8_24  and  O8_25 
REMARK   12  A    between atoms: C9_27  and  O9_28 
REMARK   13  A    between atoms: C10_30  and  C11_31 
REMARK   14  A    between atoms: C13_38  and  O12_39 
REMARK   15  A    between atoms: C15_42  and  O13_43 
REMARK   16  A    between atoms: C16_45  and  O14_46 
REMARK   17  A    between atoms: C18_49  and  O15_50 
ROOT
HETATM    1  C6  UNL     1      29.875  29.138  86.788  1.00  0.00     0.063 A 
HETATM    2  C7  UNL     1      30.258  30.090  87.714  1.00  0.00     0.117 A 
HETATM    3  C8  UNL     1      31.344  29.868  88.535  1.00  0.00     0.134 A 
HETATM    4  C9  UNL     1      31.996  28.695  88.395  1.00  0.00     0.117 A 
HETATM    5  C10 UNL     1      31.698  27.651  87.497  1.00  0.00     0.062 A 
HETATM    6  C18 UNL     1      30.586  27.926  86.668  1.00  0.00     0.096 A 
ENDROOT
BRANCH   1   7
HETATM    7  C2  UNL     1      28.718  29.478  85.989  1.00  0.00     0.103 C 
HETATM    8  N2  UNL     1      27.530  29.130  86.460  1.00  0.00    -0.262 N 
ATOM      9  H2  UNL     1      27.549  28.628  87.348  1.00  0.00     0.194 HD
BRANCH   7  10
HETATM   10  C1  UNL     1      28.712  30.191  84.725  1.00  0.00     0.370 C 
BRANCH  10  11
HETATM   11  N1  UNL     1      28.035  29.394  83.670  1.00  0.00    -0.047 N 
ATOM     12  H13 UNL     1      27.258  28.824  84.004  1.00  0.00     0.277 HD
ATOM     13  H12 UNL     1      27.487  29.945  83.010  1.00  0.00     0.277 HD
ATOM     14  H11 UNL     1      28.797  28.864  83.247  1.00  0.00     0.277 HD
ENDBRANCH  10  11
BRANCH  10  15
HETATM   15  O1  UNL     1      27.923  31.371  84.806  1.00  0.00    -0.365 OA
ATOM     16  H1  UNL     1      28.556  32.046  85.020  1.00  0.00     0.212 HD
ENDBRANCH  10  15
ENDBRANCH   7  10
BRANCH   8  17
HETATM   17  O2  UNL     1      26.333  29.329  85.962  1.00  0.00    -0.239 OA
BRANCH  17  18
HETATM   18  C3  UNL     1      25.110  28.927  86.557  1.00  0.00     0.368 C 
BRANCH  18  19
HETATM   19  O3  UNL     1      24.881  29.567  87.755  1.00  0.00    -0.363 OA
ATOM     20  H3  UNL     1      24.014  29.953  87.794  1.00  0.00     0.213 HD
ENDBRANCH  18  19
BRANCH  18  21
HETATM   21  C4  UNL     1      23.963  29.141  85.661  1.00  0.00     0.281 C 
HETATM   22  O4  UNL     1      23.730  28.293  84.725  1.00  0.00    -0.280 OA
BRANCH  21  23
HETATM   23  C5  UNL     1      23.105  30.290  85.825  1.00  0.00     0.252 C 
HETATM   24  O5  UNL     1      22.122  30.272  86.594  1.00  0.00    -0.642 OA
HETATM   25  O6  UNL     1      23.361  31.455  85.121  1.00  0.00    -0.642 OA
ENDBRANCH  21  23
ENDBRANCH  18  21
ENDBRANCH  17  18
ENDBRANCH   8  17
ENDBRANCH   1   7
BRANCH   2  26
HETATM   26  O7  UNL     1      29.584  31.282  87.855  1.00  0.00    -0.357 OA
ATOM     27  H7  UNL     1      29.553  31.927  87.157  1.00  0.00     0.217 HD
ENDBRANCH   2  26
BRANCH   6  28
HETATM   28  O15 UNL     1      30.233  27.067  85.752  1.00  0.00    -0.359 OA
ATOM     29  H15 UNL     1      30.235  27.332  84.840  1.00  0.00     0.217 HD
ENDBRANCH   6  28
BRANCH   3  30
HETATM   30  O8  UNL     1      31.686  30.870  89.445  1.00  0.00    -0.356 OA
ATOM     31  H8  UNL     1      32.544  30.826  89.849  1.00  0.00     0.218 HD
ENDBRANCH   3  30
BRANCH   5  32
HETATM   32  C11 UNL     1      32.723  26.637  87.214  1.00  0.00     0.073 C 
HETATM   33  N3  UNL     1      33.855  27.118  86.670  1.00  0.00    -0.278 N 
HETATM   34  S1  UNL     1      34.945  25.906  86.368  1.00  0.00     0.267 S 
ATOM     35  H3  UNL     1      34.022  28.104  86.468  1.00  0.00     0.179 HD
HETATM   36  O10 UNL     1      36.312  26.111  86.955  1.00  0.00    -0.200 OA
HETATM   37  O11 UNL     1      35.013  25.441  84.944  1.00  0.00    -0.200 OA
HETATM   38  C12 UNL     1      34.130  24.696  87.378  1.00  0.00     0.128 A 
HETATM   39  C13 UNL     1      34.622  23.521  87.832  1.00  0.00     0.092 A 
HETATM   40  C17 UNL     1      32.898  25.268  87.640  1.00  0.00     0.054 A 
HETATM   41  C14 UNL     1      33.846  22.764  88.661  1.00  0.00     0.077 A 
HETATM   42  C15 UNL     1      32.634  23.240  88.980  1.00  0.00     0.102 A 
HETATM   43  C16 UNL     1      32.133  24.463  88.506  1.00  0.00     0.113 A 
BRANCH  39  44
HETATM   44  O12 UNL     1      35.896  23.124  87.442  1.00  0.00    -0.359 OA
ATOM     45  H12 UNL     1      36.013  22.708  86.596  1.00  0.00     0.217 HD
ENDBRANCH  39  44
BRANCH  42  46
HETATM   46  O13 UNL     1      31.825  22.487  89.824  1.00  0.00    -0.358 OA
ATOM     47  H13 UNL     1      32.211  22.116  90.609  1.00  0.00     0.217 HD
ENDBRANCH  42  46
BRANCH  43  48
HETATM   48  O14 UNL     1      30.906  24.803  88.960  1.00  0.00    -0.357 OA
ATOM     49  H14 UNL     1      30.238  24.908  88.292  1.00  0.00     0.217 HD
ENDBRANCH  43  48
ENDBRANCH   5  32
BRANCH   4  50
HETATM   50  O9  UNL     1      33.100  28.450  89.223  1.00  0.00    -0.357 OA
ATOM     51  H9  UNL     1      33.052  27.721  89.829  1.00  0.00     0.217 HD
ENDBRANCH   4  50
TORSDOF 17
ENDMDL
MODEL 3
REMARK VINA RESULT: -8.389136778      3.119      4.897
REMARK  17 active torsions:
REMARK  status: ('A' for Active; 'I' for Inactive)
REMARK    1  A    between atoms: N1_1  and  C1_5 
REMARK    2  A    between atoms: C1_5  and  O1_6 
REMARK    3  A    between atoms: C1_5  and  C2_8 
REMARK    4  A    between atoms: C2_8  and  C6_20 
REMARK    5  A    between atoms: N2_9  and  O2_11 
REMARK    6  A    between atoms: O2_11  and  C3_12 
REMARK    7  A    between atoms: C3_12  and  O3_13 
REMARK    8  A    between atoms: C3_12  and  C4_15 
REMARK    9  A    between atoms: C4_15  and  C5_17 
REMARK   10  A    between atoms: C7_21  and  O7_22 
REMARK   11  A    between atoms: C8_24  and  O8_25 
REMARK   12  A    between atoms: C9_27  and  O9_28 
REMARK   13  A    between atoms: C10_30  and  C11_31 
REMARK   14  A    between atoms: C13_38  and  O12_39 
REMARK   15  A    between atoms: C15_42  and  O13_43 
REMARK   16  A    between atoms: C16_45  and  O14_46 
REMARK   17  A    between atoms: C18_49  and  O15_50 
ROOT
HETATM    1  C6  UNL     1      28.438  28.564  85.424  1.00  0.00     0.063 A 
HETATM    2  C7  UNL     1      28.331  29.681  86.231  1.00  0.00     0.117 A 
HETATM    3  C8  UNL     1      29.403  30.096  86.994  1.00  0.00     0.134 A 
HETATM    4  C9  UNL     1      30.535  29.365  86.918  1.00  0.00     0.117 A 
HETATM    5  C10 UNL     1      30.761  28.213  86.141  1.00  0.00     0.062 A 
HETATM    6  C18 UNL     1      29.641  27.831  85.367  1.00  0.00     0.096 A 
ENDROOT
BRANCH   1   7
HETATM    7  C2  UNL     1      27.248  28.222  84.676  1.00  0.00     0.103 C 
HETATM    8  N2  UNL     1      26.190  27.821  85.366  1.00  0.00    -0.262 N 
ATOM      9  H2  UNL     1      26.328  27.774  86.375  1.00  0.00     0.194 HD
BRANCH   7  10
HETATM   10  C1  UNL     1      27.072  28.294  83.237  1.00  0.00     0.370 C 
BRANCH  10  11
HETATM   11  N1  UNL     1      28.181  29.053  82.604  1.00  0.00    -0.047 N 
ATOM     12  H13 UNL     1      28.730  28.518  81.932  1.00  0.00     0.277 HD
ATOM     13  H12 UNL     1      27.880  29.773  81.947  1.00  0.00     0.277 HD
ATOM     14  H11 UNL     1      28.714  29.404  83.400  1.00  0.00     0.277 HD
ENDBRANCH  10  11
BRANCH  10  15
HETATM   15  O1  UNL     1      27.172  27.006  82.643  1.00  0.00    -0.365 OA
ATOM     16  H1  UNL     1      26.399  26.955  82.093  1.00  0.00     0.212 HD
ENDBRANCH  10  15
ENDBRANCH   7  10
BRANCH   8  17
HETATM   17  O2  UNL     1      24.994  27.476  84.953  1.00  0.00    -0.239 OA
BRANCH  17  18
HETATM   18  C3  UNL     1      23.766  27.910  85.515  1.00  0.00     0.368 C 
BRANCH  18  19
HETATM   19  O3  UNL     1      23.406  27.162  86.614  1.00  0.00    -0.363 OA
ATOM     20  H3  UNL     1      22.621  26.650  86.456  1.00  0.00     0.213 HD
ENDBRANCH  18  19
BRANCH  18  21
HETATM   21  C4  UNL     1      23.800  29.335  85.882  1.00  0.00     0.281 C 
HETATM   22  O4  UNL     1      24.390  29.690  86.966  1.00  0.00    -0.280 OA
BRANCH  21  23
HETATM   23  C5  UNL     1      23.179  30.327  85.039  1.00  0.00     0.252 C 
HETATM   24  O5  UNL     1      23.408  31.546  85.179  1.00  0.00    -0.642 OA
HETATM   25  O6  UNL     1      22.300  29.940  84.042  1.00  0.00    -0.642 OA
ENDBRANCH  21  23
ENDBRANCH  18  21
ENDBRANCH  17  18
ENDBRANCH   8  17
ENDBRANCH   1   7
BRANCH   2  26
HETATM   26  O7  UNL     1      27.170  30.417  86.307  1.00  0.00    -0.357 OA
ATOM     27  H7  UNL     1      27.130  31.246  86.769  1.00  0.00     0.217 HD
ENDBRANCH   2  26
BRANCH   6  28
HETATM   28  O15 UNL     1      29.730  26.810  84.559  1.00  0.00    -0.359 OA
ATOM     29  H15 UNL     1      30.175  26.024  84.851  1.00  0.00     0.217 HD
ENDBRANCH   6  28
BRANCH   3  30
HETATM   30  O8  UNL     1      29.236  31.235  87.784  1.00  0.00    -0.356 OA
ATOM     31  H8  UNL     1      29.986  31.544  88.277  1.00  0.00     0.218 HD
ENDBRANCH   3  30
BRANCH   5  32
HETATM   32  C11 UNL     1      32.142  27.783  85.885  1.00  0.00     0.073 C 
HETATM   33  N3  UNL     1      32.925  28.716  85.315  1.00  0.00    -0.278 N 
HETATM   34  S1  UNL     1      34.457  28.141  85.045  1.00  0.00     0.267 S 
ATOM     35  H3  UNL     1      32.616  29.659  85.078  1.00  0.00     0.179 HD
HETATM   36  O10 UNL     1      35.566  28.978  85.613  1.00  0.00    -0.200 OA
HETATM   37  O11 UNL     1      34.745  27.713  83.638  1.00  0.00    -0.200 OA
HETATM   38  C12 UNL     1      34.290  26.727  86.103  1.00  0.00     0.128 A 
HETATM   39  C13 UNL     1      35.268  25.931  86.592  1.00  0.00     0.092 A 
HETATM   40  C17 UNL     1      32.931  26.668  86.355  1.00  0.00     0.054 A 
HETATM   41  C14 UNL     1      34.927  24.929  87.453  1.00  0.00     0.077 A 
HETATM   42  C15 UNL     1      33.629  24.797  87.766  1.00  0.00     0.102 A 
HETATM   43  C16 UNL     1      32.621  25.629  87.255  1.00  0.00     0.113 A 
BRANCH  39  44
HETATM   44  O12 UNL     1      36.584  26.159  86.206  1.00  0.00    -0.359 OA
ATOM     45  H12 UNL     1      37.177  26.590  86.811  1.00  0.00     0.217 HD
ENDBRANCH  39  44
BRANCH  42  46
HETATM   46  O13 UNL     1      33.257  23.784  88.642  1.00  0.00    -0.358 OA
ATOM     47  H13 UNL     1      32.445  23.319  88.480  1.00  0.00     0.217 HD
ENDBRANCH  42  46
BRANCH  43  48
HETATM   48  O14 UNL     1      31.373  25.374  87.707  1.00  0.00    -0.357 OA
ATOM     49  H14 UNL     1      30.669  25.583  87.105  1.00  0.00     0.217 HD
ENDBRANCH  43  48
ENDBRANCH   5  32
BRANCH   4  50
HETATM   50  O9  UNL     1      31.634  29.770  87.689  1.00  0.00    -0.357 OA
ATOM     51  H9  UNL     1      32.222  29.100  88.016  1.00  0.00     0.217 HD
ENDBRANCH   4  50
TORSDOF 17
ENDMDL
MODEL 4
REMARK VINA RESULT: -8.289085733      3.413      4.619
REMARK  17 active torsions:
REMARK  status: ('A' for Active; 'I' for Inactive)
REMARK    1  A    between atoms: N1_1  and  C1_5 
REMARK    2  A    between atoms: C1_5  and  O1_6 
REMARK    3  A    between atoms: C1_5  and  C2_8 
REMARK    4  A    between atoms: C2_8  and  C6_20 
REMARK    5  A    between atoms: N2_9  and  O2_11 
REMARK    6  A    between atoms: O2_11  and  C3_12 
REMARK    7  A    between atoms: C3_12  and  O3_13 
REMARK    8  A    between atoms: C3_12  and  C4_15 
REMARK    9  A    between atoms: C4_15  and  C5_17 
REMARK   10  A    between atoms: C7_21  and  O7_22 
REMARK   11  A    between atoms: C8_24  and  O8_25 
REMARK   12  A    between atoms: C9_27  and  O9_28 
REMARK   13  A    between atoms: C10_30  and  C11_31 
REMARK   14  A    between atoms: C13_38  and  O12_39 
REMARK   15  A    between atoms: C15_42  and  O13_43 
REMARK   16  A    between atoms: C16_45  and  O14_46 
REMARK   17  A    between atoms: C18_49  and  O15_50 
ROOT
HETATM    1  C6  UNL     1      26.316  28.154  84.593  1.00  0.00     0.063 A 
HETATM    2  C7  UNL     1      26.582  28.232  83.239  1.00  0.00     0.117 A 
HETATM    3  C8  UNL     1      27.883  28.227  82.781  1.00  0.00     0.134 A 
HETATM    4  C9  UNL     1      28.863  28.152  83.705  1.00  0.00     0.117 A 
HETATM    5  C10 UNL     1      28.718  28.073  85.104  1.00  0.00     0.062 A 
HETATM    6  C18 UNL     1      27.369  28.069  85.527  1.00  0.00     0.096 A 
ENDROOT
BRANCH   1   7
HETATM    7  C2  UNL     1      24.916  28.174  84.954  1.00  0.00     0.103 C 
HETATM    8  N2  UNL     1      24.037  27.926  83.994  1.00  0.00    -0.262 N 
ATOM      9  H2  UNL     1      24.441  27.762  83.072  1.00  0.00     0.194 HD
BRANCH   7  10
HETATM   10  C1  UNL     1      24.360  28.412  86.274  1.00  0.00     0.370 C 
BRANCH  10  11
HETATM   11  N1  UNL     1      23.562  29.665  86.294  1.00  0.00    -0.047 N 
ATOM     12  H13 UNL     1      22.812  29.677  86.986  1.00  0.00     0.277 HD
ATOM     13  H12 UNL     1      24.058  30.476  86.661  1.00  0.00     0.277 HD
ATOM     14  H11 UNL     1      23.247  29.762  85.329  1.00  0.00     0.277 HD
ENDBRANCH  10  11
BRANCH  10  15
HETATM   15  O1  UNL     1      23.413  27.410  86.619  1.00  0.00    -0.365 OA
ATOM     16  H1  UNL     1      23.946  26.633  86.738  1.00  0.00     0.212 HD
ENDBRANCH  10  15
ENDBRANCH   7  10
BRANCH   8  17
HETATM   17  O2  UNL     1      22.728  27.860  84.046  1.00  0.00    -0.239 OA
BRANCH  17  18
HETATM   18  C3  UNL     1      21.827  28.737  83.389  1.00  0.00     0.368 C 
BRANCH  18  19
HETATM   19  O3  UNL     1      22.071  30.057  83.697  1.00  0.00    -0.363 OA
ATOM     20  H3  UNL     1      21.746  30.289  84.559  1.00  0.00     0.213 HD
ENDBRANCH  18  19
BRANCH  18  21
HETATM   21  C4  UNL     1      21.854  28.563  81.927  1.00  0.00     0.281 C 
HETATM   22  O4  UNL     1      22.976  28.631  81.307  1.00  0.00    -0.280 OA
BRANCH  21  23
HETATM   23  C5  UNL     1      20.636  28.318  81.194  1.00  0.00     0.252 C 
HETATM   24  O5  UNL     1      19.626  29.036  81.338  1.00  0.00    -0.642 OA
HETATM   25  O6  UNL     1      20.563  27.264  80.298  1.00  0.00    -0.642 OA
ENDBRANCH  21  23
ENDBRANCH  18  21
ENDBRANCH  17  18
ENDBRANCH   8  17
ENDBRANCH   1   7
BRANCH   2  26
HETATM   26  O7  UNL     1      25.575  28.315  82.303  1.00  0.00    -0.357 OA
ATOM     27  H7  UNL     1      24.786  28.820  82.459  1.00  0.00     0.217 HD
ENDBRANCH   2  26
BRANCH   6  28
HETATM   28  O15 UNL     1      27.089  27.947  86.796  1.00  0.00    -0.359 OA
ATOM     29  H15 UNL     1      26.372  27.382  87.061  1.00  0.00     0.217 HD
ENDBRANCH   6  28
BRANCH   3  30
HETATM   30  O8  UNL     1      28.087  28.302  81.402  1.00  0.00    -0.356 OA
ATOM     31  H8  UNL     1      28.618  29.016  81.072  1.00  0.00     0.218 HD
ENDBRANCH   3  30
BRANCH   5  32
HETATM   32  C11 UNL     1      29.853  27.612  85.915  1.00  0.00     0.073 C 
HETATM   33  N3  UNL     1      30.562  26.608  85.371  1.00  0.00    -0.278 N 
HETATM   34  S1  UNL     1      31.807  26.139  86.360  1.00  0.00     0.267 S 
ATOM     35  H3  UNL     1      30.360  26.188  84.463  1.00  0.00     0.179 HD
HETATM   36  O10 UNL     1      33.165  26.126  85.720  1.00  0.00    -0.200 OA
HETATM   37  O11 UNL     1      31.558  24.900  87.165  1.00  0.00    -0.200 OA
HETATM   38  C12 UNL     1      31.744  27.577  87.397  1.00  0.00     0.128 A 
HETATM   39  C13 UNL     1      32.676  28.014  88.275  1.00  0.00     0.092 A 
HETATM   40  C17 UNL     1      30.547  28.176  87.050  1.00  0.00     0.054 A 
HETATM   41  C14 UNL     1      32.458  29.193  88.927  1.00  0.00     0.077 A 
HETATM   42  C15 UNL     1      31.324  29.852  88.650  1.00  0.00     0.102 A 
HETATM   43  C16 UNL     1      30.364  29.393  87.736  1.00  0.00     0.113 A 
BRANCH  39  44
HETATM   44  O12 UNL     1      33.821  27.253  88.483  1.00  0.00    -0.359 OA
ATOM     45  H12 UNL     1      34.203  26.782  87.752  1.00  0.00     0.217 HD
ENDBRANCH  39  44
BRANCH  42  46
HETATM   46  O13 UNL     1      31.081  31.057  89.302  1.00  0.00    -0.358 OA
ATOM     47  H13 UNL     1      31.718  31.756  89.215  1.00  0.00     0.217 HD
ENDBRANCH  42  46
BRANCH  43  48
HETATM   48  O14 UNL     1      29.299  30.205  87.554  1.00  0.00    -0.357 OA
ATOM     49  H14 UNL     1      28.990  30.280  86.659  1.00  0.00     0.217 HD
ENDBRANCH  43  48
ENDBRANCH   5  32
BRANCH   4  50
HETATM   50  O9  UNL     1      30.192  28.149  83.259  1.00  0.00    -0.357 OA
ATOM     51  H9  UNL     1      30.813  28.720  83.697  1.00  0.00     0.217 HD
ENDBRANCH   4  50
TORSDOF 17
ENDMDL
MODEL 5
REMARK VINA RESULT: -8.275534065      1.737      2.429
REMARK  17 active torsions:
REMARK  status: ('A' for Active; 'I' for Inactive)
REMARK    1  A    between atoms: N1_1  and  C1_5 
REMARK    2  A    between atoms: C1_5  and  O1_6 
REMARK    3  A    between atoms: C1_5  and  C2_8 
REMARK    4  A    between atoms: C2_8  and  C6_20 
REMARK    5  A    between atoms: N2_9  and  O2_11 
REMARK    6  A    between atoms: O2_11  and  C3_12 
REMARK    7  A    between atoms: C3_12  and  O3_13 
REMARK    8  A    between atoms: C3_12  and  C4_15 
REMARK    9  A    between atoms: C4_15  and  C5_17 
REMARK   10  A    between atoms: C7_21  and  O7_22 
REMARK   11  A    between atoms: C8_24  and  O8_25 
REMARK   12  A    between atoms: C9_27  and  O9_28 
REMARK   13  A    between atoms: C10_30  and  C11_31 
REMARK   14  A    between atoms: C13_38  and  O12_39 
REMARK   15  A    between atoms: C15_42  and  O13_43 
REMARK   16  A    between atoms: C16_45  and  O14_46 
REMARK   17  A    between atoms: C18_49  and  O15_50 
ROOT
HETATM    1  C6  UNL     1      28.690  28.661  83.997  1.00  0.00     0.063 A 
HETATM    2  C7  UNL     1      29.358  27.596  83.421  1.00  0.00     0.117 A 
HETATM    3  C8  UNL     1      30.629  27.762  82.913  1.00  0.00     0.134 A 
HETATM    4  C9  UNL     1      31.173  28.993  82.999  1.00  0.00     0.117 A 
HETATM    5  C10 UNL     1      30.593  30.150  83.555  1.00  0.00     0.062 A 
HETATM    6  C18 UNL     1      29.297  29.932  84.074  1.00  0.00     0.096 A 
ENDROOT
BRANCH   1   7
HETATM    7  C2  UNL     1      27.361  28.369  84.489  1.00  0.00     0.103 C 
HETATM    8  N2  UNL     1      26.397  28.230  83.590  1.00  0.00    -0.262 N 
ATOM      9  H2  UNL     1      26.689  28.364  82.622  1.00  0.00     0.194 HD
BRANCH   7  10
HETATM   10  C1  UNL     1      26.965  28.184  85.873  1.00  0.00     0.370 C 
BRANCH  10  11
HETATM   11  N1  UNL     1      26.305  29.404  86.403  1.00  0.00    -0.047 N 
ATOM     12  H13 UNL     1      26.201  30.158  85.724  1.00  0.00     0.277 HD
ATOM     13  H12 UNL     1      25.309  29.296  86.595  1.00  0.00     0.277 HD
ATOM     14  H11 UNL     1      26.868  29.645  87.219  1.00  0.00     0.277 HD
ENDBRANCH  10  11
BRANCH  10  15
HETATM   15  O1  UNL     1      25.961  27.186  85.989  1.00  0.00    -0.365 OA
ATOM     16  H1  UNL     1      25.173  27.628  85.695  1.00  0.00     0.212 HD
ENDBRANCH  10  15
ENDBRANCH   7  10
BRANCH   8  17
HETATM   17  O2  UNL     1      25.127  27.946  83.753  1.00  0.00    -0.239 OA
BRANCH  17  18
HETATM   18  C3  UNL     1      24.043  28.825  83.498  1.00  0.00     0.368 C 
BRANCH  18  19
HETATM   19  O3  UNL     1      23.340  28.469  82.368  1.00  0.00    -0.363 OA
ATOM     20  H3  UNL     1      23.823  27.856  81.825  1.00  0.00     0.213 HD
ENDBRANCH  18  19
BRANCH  18  21
HETATM   21  C4  UNL     1      23.121  28.910  84.642  1.00  0.00     0.281 C 
HETATM   22  O4  UNL     1      22.271  27.968  84.834  1.00  0.00    -0.280 OA
BRANCH  21  23
HETATM   23  C5  UNL     1      23.166  30.037  85.541  1.00  0.00     0.252 C 
HETATM   24  O5  UNL     1      23.113  29.894  86.780  1.00  0.00    -0.642 OA
HETATM   25  O6  UNL     1      23.270  31.324  85.038  1.00  0.00    -0.642 OA
ENDBRANCH  21  23
ENDBRANCH  18  21
ENDBRANCH  17  18
ENDBRANCH   8  17
ENDBRANCH   1   7
BRANCH   2  26
HETATM   26  O7  UNL     1      28.792  26.344  83.332  1.00  0.00    -0.357 OA
ATOM     27  H7  UNL     1      27.916  26.165  83.655  1.00  0.00     0.217 HD
ENDBRANCH   2  26
BRANCH   6  28
HETATM   28  O15 UNL     1      28.663  30.906  84.666  1.00  0.00    -0.359 OA
ATOM     29  H15 UNL     1      28.407  30.809  85.576  1.00  0.00     0.217 HD
ENDBRANCH   6  28
BRANCH   3  30
HETATM   30  O8  UNL     1      31.254  26.647  82.350  1.00  0.00    -0.356 OA
ATOM     31  H8  UNL     1      30.998  25.790  82.668  1.00  0.00     0.218 HD
ENDBRANCH   3  30
BRANCH   5  32
HETATM   32  C11 UNL     1      31.458  31.283  83.910  1.00  0.00     0.073 C 
HETATM   33  N3  UNL     1      31.943  31.971  82.862  1.00  0.00    -0.278 N 
HETATM   34  S1  UNL     1      32.921  33.217  83.354  1.00  0.00     0.267 S 
ATOM     35  H3  UNL     1      31.735  31.755  81.887  1.00  0.00     0.179 HD
HETATM   36  O10 UNL     1      32.560  34.569  82.811  1.00  0.00    -0.200 OA
HETATM   37  O11 UNL     1      34.394  32.954  83.262  1.00  0.00    -0.200 OA
HETATM   38  C12 UNL     1      32.388  33.186  85.046  1.00  0.00     0.128 A 
HETATM   39  C13 UNL     1      32.571  34.132  85.995  1.00  0.00     0.092 A 
HETATM   40  C17 UNL     1      31.691  31.996  85.145  1.00  0.00     0.054 A 
HETATM   41  C14 UNL     1      32.015  33.939  87.226  1.00  0.00     0.077 A 
HETATM   42  C15 UNL     1      31.311  32.814  87.418  1.00  0.00     0.102 A 
HETATM   43  C16 UNL     1      31.124  31.839  86.425  1.00  0.00     0.113 A 
BRANCH  39  44
HETATM   44  O12 UNL     1      33.315  35.265  85.688  1.00  0.00    -0.359 OA
ATOM     45  H12 UNL     1      33.844  35.272  84.898  1.00  0.00     0.217 HD
ENDBRANCH  39  44
BRANCH  42  46
HETATM   46  O13 UNL     1      30.734  32.596  88.664  1.00  0.00    -0.358 OA
ATOM     47  H13 UNL     1      29.788  32.648  88.741  1.00  0.00     0.217 HD
ENDBRANCH  42  46
BRANCH  43  48
HETATM   48  O14 UNL     1      30.355  30.786  86.783  1.00  0.00    -0.357 OA
ATOM     49  H14 UNL     1      30.453  30.008  86.247  1.00  0.00     0.217 HD
ENDBRANCH  43  48
ENDBRANCH   5  32
BRANCH   4  50
HETATM   50  O9  UNL     1      32.464  29.181  82.484  1.00  0.00    -0.357 OA
ATOM     51  H9  UNL     1      33.185  28.730  82.907  1.00  0.00     0.217 HD
ENDBRANCH   4  50
TORSDOF 17
ENDMDL
