MODEL 1
REMARK VINA RESULT: -7.418098908      0.000      0.000
REMARK  15 active torsions:
REMARK  status: ('A' for Active; 'I' for Inactive)
REMARK    1  A    between atoms: O1_2  and  N1_3 
REMARK    2  A    between atoms: N1_3  and  C2_5 
REMARK    3  A    between atoms: C3_6  and  N2_7 
REMARK    4  A    between atoms: N2_7  and  N3_9 
REMARK    5  A    between atoms: C4_10  and  O2_11 
REMARK    6  A    between atoms: C5_13  and  C6_14 
REMARK    7  A    between atoms: C6_14  and  O3_15 
REMARK    8  A    between atoms: C6_14  and  O4_17 
REMARK    9  A    between atoms: C9_21  and  N4_22 
REMARK   10  A    between atoms: C10_23  and  N5_24 
REMARK   11  A    between atoms: C11_29  and  N7_30 
REMARK   12  A    between atoms: C16_42  and  N11_43 
REMARK   13  A    between atoms: C17_47  and  O6_48 
REMARK   14  A    between atoms: C18_50  and  O7_51 
REMARK   15  A    between atoms: O7_51  and  C19_52 
ROOT
HETATM    1  N3  UNL     1      31.542  32.139  86.196  1.00  0.00    -0.219 N 
HETATM    2  C4  UNL     1      31.313  32.836  87.394  1.00  0.00     0.175 A 
HETATM    3  C5  UNL     1      31.864  34.076  87.334  1.00  0.00     0.063 A 
HETATM    4  C7  UNL     1      32.439  34.151  86.097  1.00  0.00     0.030 A 
HETATM    5  C8  UNL     1      33.168  35.006  85.297  1.00  0.00     0.067 A 
HETATM    6  C9  UNL     1      33.426  34.365  84.119  1.00  0.00     0.152 A 
HETATM    7  N9  UNL     1      32.855  33.123  84.202  1.00  0.00    -0.214 N 
HETATM    8  C13 UNL     1      32.977  32.225  83.153  1.00  0.00     0.192 C 
HETATM    9  N10 UNL     1      33.085  31.497  82.263  1.00  0.00    -0.171 NA
HETATM   10  C14 UNL     1      32.245  32.957  85.388  1.00  0.00     0.158 A 
ENDROOT
BRANCH   6  11
HETATM   11  N4  UNL     1      34.153  34.930  83.049  1.00  0.00    -0.079 N 
HETATM   12  C10 UNL     1      33.566  35.803  82.199  1.00  0.00     0.702 A 
HETATM   13  N6  UNL     1      34.267  36.345  81.168  1.00  0.00    -0.022 N 
HETATM   14  C11 UNL     1      35.554  36.039  80.958  1.00  0.00     0.694 A 
ATOM     15  H6  UNL     1      33.802  37.000  80.540  1.00  0.00     0.203 HD
HETATM   16  N8  UNL     1      36.143  35.178  81.793  1.00  0.00    -0.140 N 
HETATM   17  C12 UNL     1      35.451  34.640  82.812  1.00  0.00     0.361 A 
ATOM     18  H8  UNL     1      37.122  34.927  81.655  1.00  0.00     0.189 HD
HETATM   19  O5  UNL     1      36.041  33.829  83.582  1.00  0.00    -0.245 OA
BRANCH  12  20
HETATM   20  N5  UNL     1      32.319  36.157  82.328  1.00  0.00    -0.233 N 
ATOM     21  H52 UNL     1      31.625  35.635  81.793  1.00  0.00     0.174 HD
ATOM     22  H51 UNL     1      32.036  36.924  82.938  1.00  0.00     0.174 HD
ENDBRANCH  12  20
BRANCH  14  23
HETATM   23  N7  UNL     1      36.180  36.579  79.966  1.00  0.00    -0.234 N 
ATOM     24  H72 UNL     1      36.395  37.575  79.933  1.00  0.00     0.174 HD
ATOM     25  H71 UNL     1      36.474  35.995  79.183  1.00  0.00     0.174 HD
ENDBRANCH  14  23
ENDBRANCH   6  11
BRANCH   1  26
HETATM   26  N2  UNL     1      31.110  30.866  86.060  1.00  0.00    -0.319 N 
ATOM     27  H2  UNL     1      30.111  30.770  86.243  1.00  0.00     0.181 HD
BRANCH  26  28
HETATM   28  C3  UNL     1      31.716  29.643  85.725  1.00  0.00     0.129 C 
HETATM   29  C2  UNL     1      31.676  28.638  86.883  1.00  0.00     0.162 C 
HETATM   30  C18 UNL     1      30.757  27.519  86.555  1.00  0.00     0.189 C 
HETATM   31  C17 UNL     1      29.430  27.936  85.981  1.00  0.00     0.180 C 
HETATM   32  C16 UNL     1      29.636  28.688  84.684  1.00  0.00     0.216 C 
HETATM   33  C15 UNL     1      31.103  29.009  84.485  1.00  0.00     0.064 C 
BRANCH  29  34
HETATM   34  N1  UNL     1      31.344  29.206  88.143  1.00  0.00    -0.294 N 
ATOM     35  H1  UNL     1      30.385  29.253  88.488  1.00  0.00     0.188 HD
BRANCH  34  36
HETATM   36  O1  UNL     1      32.395  29.681  88.848  1.00  0.00    -0.289 OA
HETATM   37  C1  UNL     1      33.093  28.539  89.302  1.00  0.00     0.237 C 
ENDBRANCH  34  36
ENDBRANCH  29  34
BRANCH  30  38
HETATM   38  O7  UNL     1      30.568  26.735  87.726  1.00  0.00    -0.311 OA
BRANCH  38  39
HETATM   39  C19 UNL     1      31.268  25.526  87.853  1.00  0.00     0.255 C 
HETATM   40  C20 UNL     1      32.272  25.150  86.830  1.00  0.00     0.126 C 
HETATM   41  O8  UNL     1      31.010  24.801  88.844  1.00  0.00    -0.266 OA
ENDBRANCH  38  39
ENDBRANCH  30  38
BRANCH  31  42
HETATM   42  O6  UNL     1      28.626  28.653  86.832  1.00  0.00    -0.391 OA
ATOM     43  H6  UNL     1      28.085  28.070  87.350  1.00  0.00     0.210 HD
ENDBRANCH  31  42
BRANCH  32  44
HETATM   44  N11 UNL     1      28.778  29.849  84.551  1.00  0.00    -0.072 N 
ATOM     45 3H11 UNL     1      28.948  30.514  85.306  1.00  0.00     0.274 HD
ATOM     46 2H11 UNL     1      29.062  30.421  83.756  1.00  0.00     0.274 HD
ATOM     47 1H11 UNL     1      27.788  29.609  84.492  1.00  0.00     0.274 HD
ENDBRANCH  32  44
ENDBRANCH  26  28
ENDBRANCH   1  26
BRANCH   2  48
HETATM   48  O2  UNL     1      30.630  32.371  88.502  1.00  0.00    -0.344 OA
ATOM     49  H2  UNL     1      29.739  32.588  88.751  1.00  0.00     0.219 HD
ENDBRANCH   2  48
BRANCH   3  50
HETATM   50  C6  UNL     1      31.828  35.110  88.413  1.00  0.00     0.293 C 
BRANCH  50  51
HETATM   51  O3  UNL     1      33.047  35.136  89.111  1.00  0.00    -0.367 OA
ATOM     52  H3  UNL     1      33.122  35.935  89.620  1.00  0.00     0.213 HD
ENDBRANCH  50  51
BRANCH  50  53
HETATM   53  O4  UNL     1      30.768  34.941  89.270  1.00  0.00    -0.367 OA
ATOM     54  H4  UNL     1      30.836  35.485  90.046  1.00  0.00     0.213 HD
ENDBRANCH  50  53
ENDBRANCH   3  50
TORSDOF 15
ENDMDL
MODEL 2
REMARK VINA RESULT: -7.074916499      2.984      8.237
REMARK  15 active torsions:
REMARK  status: ('A' for Active; 'I' for Inactive)
REMARK    1  A    between atoms: O1_2  and  N1_3 
REMARK    2  A    between atoms: N1_3  and  C2_5 
REMARK    3  A    between atoms: C3_6  and  N2_7 
REMARK    4  A    between atoms: N2_7  and  N3_9 
REMARK    5  A    between atoms: C4_10  and  O2_11 
REMARK    6  A    between atoms: C5_13  and  C6_14 
REMARK    7  A    between atoms: C6_14  and  O3_15 
REMARK    8  A    between atoms: C6_14  and  O4_17 
REMARK    9  A    between atoms: C9_21  and  N4_22 
REMARK   10  A    between atoms: C10_23  and  N5_24 
REMARK   11  A    between atoms: C11_29  and  N7_30 
REMARK   12  A    between atoms: C16_42  and  N11_43 
REMARK   13  A    between atoms: C17_47  and  O6_48 
REMARK   14  A    between atoms: C18_50  and  O7_51 
REMARK   15  A    between atoms: O7_51  and  C19_52 
ROOT
HETATM    1  N3  UNL     1      32.373  33.142  85.256  1.00  0.00    -0.219 N 
HETATM    2  C4  UNL     1      32.466  34.060  86.316  1.00  0.00     0.175 A 
HETATM    3  C5  UNL     1      31.497  33.820  87.238  1.00  0.00     0.063 A 
HETATM    4  C7  UNL     1      30.798  32.751  86.751  1.00  0.00     0.030 A 
HETATM    5  C8  UNL     1      29.723  31.941  87.046  1.00  0.00     0.067 A 
HETATM    6  C9  UNL     1      29.585  31.035  86.035  1.00  0.00     0.152 A 
HETATM    7  N9  UNL     1      30.576  31.293  85.124  1.00  0.00    -0.214 N 
HETATM    8  C13 UNL     1      30.671  30.542  83.962  1.00  0.00     0.192 C 
HETATM    9  N10 UNL     1      30.737  29.898  83.006  1.00  0.00    -0.171 NA
HETATM   10  C14 UNL     1      31.333  32.328  85.525  1.00  0.00     0.158 A 
ENDROOT
BRANCH   6  11
HETATM   11  N4  UNL     1      28.586  30.038  85.989  1.00  0.00    -0.079 N 
HETATM   12  C10 UNL     1      28.718  28.894  86.698  1.00  0.00     0.702 A 
HETATM   13  N6  UNL     1      27.757  27.935  86.653  1.00  0.00    -0.022 N 
HETATM   14  C11 UNL     1      26.651  28.086  85.912  1.00  0.00     0.694 A 
ATOM     15  H6  UNL     1      27.880  27.080  87.195  1.00  0.00     0.203 HD
HETATM   16  N8  UNL     1      26.511  29.213  85.208  1.00  0.00    -0.140 N 
HETATM   17  C12 UNL     1      27.461  30.162  85.251  1.00  0.00     0.361 A 
ATOM     18  H8  UNL     1      25.678  29.353  84.635  1.00  0.00     0.189 HD
HETATM   19  O5  UNL     1      27.295  31.215  84.572  1.00  0.00    -0.245 OA
BRANCH  12  20
HETATM   20  N5  UNL     1      29.761  28.664  87.445  1.00  0.00    -0.233 N 
ATOM     21  H52 UNL     1      30.668  28.969  87.093  1.00  0.00     0.174 HD
ATOM     22  H51 UNL     1      29.684  28.197  88.349  1.00  0.00     0.174 HD
ENDBRANCH  12  20
BRANCH  14  23
HETATM   23  N7  UNL     1      25.764  27.147  85.900  1.00  0.00    -0.234 N 
ATOM     24  H72 UNL     1      25.629  26.512  86.686  1.00  0.00     0.174 HD
ATOM     25  H71 UNL     1      25.170  27.031  85.079  1.00  0.00     0.174 HD
ENDBRANCH  14  23
ENDBRANCH   6  11
BRANCH   1  26
HETATM   26  N2  UNL     1      33.221  33.230  84.208  1.00  0.00    -0.319 N 
ATOM     27  H2  UNL     1      34.123  32.792  84.398  1.00  0.00     0.181 HD
BRANCH  26  28
HETATM   28  C3  UNL     1      33.151  33.782  82.918  1.00  0.00     0.129 C 
HETATM   29  C2  UNL     1      34.414  34.574  82.556  1.00  0.00     0.162 C 
HETATM   30  C18 UNL     1      35.174  33.864  81.495  1.00  0.00     0.189 C 
HETATM   31  C17 UNL     1      35.348  32.387  81.723  1.00  0.00     0.180 C 
HETATM   32  C16 UNL     1      33.999  31.704  81.784  1.00  0.00     0.216 C 
HETATM   33  C15 UNL     1      32.888  32.733  81.848  1.00  0.00     0.064 C 
BRANCH  29  34
HETATM   34  N1  UNL     1      35.256  34.875  83.660  1.00  0.00    -0.294 N 
ATOM     35  H1  UNL     1      36.017  34.261  83.953  1.00  0.00     0.188 HD
BRANCH  34  36
HETATM   36  O1  UNL     1      34.973  36.034  84.292  1.00  0.00    -0.289 OA
HETATM   37  C1  UNL     1      35.929  36.964  83.826  1.00  0.00     0.237 C 
ENDBRANCH  34  36
ENDBRANCH  29  34
BRANCH  30  38
HETATM   38  O7  UNL     1      36.438  34.498  81.348  1.00  0.00    -0.311 OA
BRANCH  38  39
HETATM   39  C19 UNL     1      36.583  35.506  80.383  1.00  0.00     0.255 C 
HETATM   40  C20 UNL     1      35.767  35.458  79.146  1.00  0.00     0.126 C 
HETATM   41  O8  UNL     1      37.410  36.420  80.611  1.00  0.00    -0.266 OA
ENDBRANCH  38  39
ENDBRANCH  30  38
BRANCH  31  42
HETATM   42  O6  UNL     1      36.108  32.051  82.816  1.00  0.00    -0.391 OA
ATOM     43  H6  UNL     1      36.978  31.780  82.547  1.00  0.00     0.210 HD
ENDBRANCH  31  42
BRANCH  32  44
HETATM   44  N11 UNL     1      33.907  30.705  82.829  1.00  0.00    -0.072 N 
ATOM     45 3H11 UNL     1      34.611  30.867  83.549  1.00  0.00     0.274 HD
ATOM     46 2H11 UNL     1      33.063  30.838  83.385  1.00  0.00     0.274 HD
ATOM     47 1H11 UNL     1      33.963  29.750  82.474  1.00  0.00     0.274 HD
ENDBRANCH  32  44
ENDBRANCH  26  28
ENDBRANCH   1  26
BRANCH   2  48
HETATM   48  O2  UNL     1      33.392  35.077  86.448  1.00  0.00    -0.344 OA
ATOM     49  H2  UNL     1      33.234  35.946  86.799  1.00  0.00     0.219 HD
ENDBRANCH   2  48
BRANCH   3  50
HETATM   50  C6  UNL     1      31.275  34.584  88.503  1.00  0.00     0.293 C 
BRANCH  50  51
HETATM   51  O3  UNL     1      29.997  35.166  88.508  1.00  0.00    -0.367 OA
ATOM     52  H3  UNL     1      29.994  35.967  87.996  1.00  0.00     0.213 HD
ENDBRANCH  50  51
BRANCH  50  53
HETATM   53  O4  UNL     1      32.250  35.524  88.729  1.00  0.00    -0.367 OA
ATOM     54  H4  UNL     1      32.055  36.081  89.474  1.00  0.00     0.213 HD
ENDBRANCH  50  53
ENDBRANCH   3  50
TORSDOF 15
ENDMDL
MODEL 3
REMARK VINA RESULT: -7.061516693      1.528      1.760
REMARK  15 active torsions:
REMARK  status: ('A' for Active; 'I' for Inactive)
REMARK    1  A    between atoms: O1_2  and  N1_3 
REMARK    2  A    between atoms: N1_3  and  C2_5 
REMARK    3  A    between atoms: C3_6  and  N2_7 
REMARK    4  A    between atoms: N2_7  and  N3_9 
REMARK    5  A    between atoms: C4_10  and  O2_11 
REMARK    6  A    between atoms: C5_13  and  C6_14 
REMARK    7  A    between atoms: C6_14  and  O3_15 
REMARK    8  A    between atoms: C6_14  and  O4_17 
REMARK    9  A    between atoms: C9_21  and  N4_22 
REMARK   10  A    between atoms: C10_23  and  N5_24 
REMARK   11  A    between atoms: C11_29  and  N7_30 
REMARK   12  A    between atoms: C16_42  and  N11_43 
REMARK   13  A    between atoms: C17_47  and  O6_48 
REMARK   14  A    between atoms: C18_50  and  O7_51 
REMARK   15  A    between atoms: O7_51  and  C19_52 
ROOT
HETATM    1  N3  UNL     1      31.464  32.219  86.159  1.00  0.00    -0.219 N 
HETATM    2  C4  UNL     1      31.251  32.925  87.355  1.00  0.00     0.175 A 
HETATM    3  C5  UNL     1      31.861  34.138  87.304  1.00  0.00     0.063 A 
HETATM    4  C7  UNL     1      32.456  34.187  86.075  1.00  0.00     0.030 A 
HETATM    5  C8  UNL     1      33.234  35.007  85.286  1.00  0.00     0.067 A 
HETATM    6  C9  UNL     1      33.478  34.356  84.111  1.00  0.00     0.152 A 
HETATM    7  N9  UNL     1      32.848  33.142  84.184  1.00  0.00    -0.214 N 
HETATM    8  C13 UNL     1      32.943  32.240  83.136  1.00  0.00     0.192 C 
HETATM    9  N10 UNL     1      33.029  31.508  82.247  1.00  0.00    -0.171 NA
HETATM   10  C14 UNL     1      32.215  33.004  85.362  1.00  0.00     0.158 A 
ENDROOT
BRANCH   6  11
HETATM   11  N4  UNL     1      34.245  34.887  83.051  1.00  0.00    -0.079 N 
HETATM   12  C10 UNL     1      33.705  35.771  82.183  1.00  0.00     0.702 A 
HETATM   13  N6  UNL     1      34.444  36.280  81.162  1.00  0.00    -0.022 N 
HETATM   14  C11 UNL     1      35.725  35.930  80.981  1.00  0.00     0.694 A 
ATOM     15  H6  UNL     1      34.015  36.945  80.519  1.00  0.00     0.203 HD
HETATM   16  N8  UNL     1      36.268  35.057  81.835  1.00  0.00    -0.140 N 
HETATM   17  C12 UNL     1      35.538  34.552  82.844  1.00  0.00     0.361 A 
ATOM     18  H8  UNL     1      37.241  34.773  81.720  1.00  0.00     0.189 HD
HETATM   19  O5  UNL     1      36.084  33.729  83.633  1.00  0.00    -0.245 OA
BRANCH  12  20
HETATM   20  N5  UNL     1      32.468  36.167  82.283  1.00  0.00    -0.233 N 
ATOM     21  H52 UNL     1      31.744  35.536  81.940  1.00  0.00     0.174 HD
ATOM     22  H51 UNL     1      32.222  37.071  82.687  1.00  0.00     0.174 HD
ENDBRANCH  12  20
BRANCH  14  23
HETATM   23  N7  UNL     1      36.388  36.440  79.998  1.00  0.00    -0.234 N 
ATOM     24  H72 UNL     1      36.257  37.404  79.691  1.00  0.00     0.174 HD
ATOM     25  H71 UNL     1      37.072  35.866  79.505  1.00  0.00     0.174 HD
ENDBRANCH  14  23
ENDBRANCH   6  11
BRANCH   1  26
HETATM   26  N2  UNL     1      30.974  30.968  86.015  1.00  0.00    -0.319 N 
ATOM     27  H2  UNL     1      30.839  30.495  86.909  1.00  0.00     0.181 HD
BRANCH  26  28
HETATM   28  C3  UNL     1      30.608  30.166  84.921  1.00  0.00     0.129 C 
HETATM   29  C2  UNL     1      31.287  28.791  84.955  1.00  0.00     0.162 C 
HETATM   30  C18 UNL     1      30.280  27.732  85.226  1.00  0.00     0.189 C 
HETATM   31  C17 UNL     1      29.325  28.038  86.347  1.00  0.00     0.180 C 
HETATM   32  C16 UNL     1      28.529  29.286  86.029  1.00  0.00     0.216 C 
HETATM   33  C15 UNL     1      29.101  29.982  84.811  1.00  0.00     0.064 C 
BRANCH  29  34
HETATM   34  N1  UNL     1      32.373  28.694  85.867  1.00  0.00    -0.294 N 
ATOM     35  H1  UNL     1      32.352  28.080  86.682  1.00  0.00     0.188 HD
BRANCH  34  36
HETATM   36  O1  UNL     1      33.434  29.477  85.573  1.00  0.00    -0.289 OA
HETATM   37  C1  UNL     1      34.106  28.823  84.515  1.00  0.00     0.237 C 
ENDBRANCH  34  36
ENDBRANCH  29  34
BRANCH  30  38
HETATM   38  O7  UNL     1      30.968  26.513  85.476  1.00  0.00    -0.311 OA
BRANCH  38  39
HETATM   39  C19 UNL     1      30.822  25.453  84.569  1.00  0.00     0.255 C 
HETATM   40  C20 UNL     1      31.385  24.123  84.901  1.00  0.00     0.126 C 
HETATM   41  O8  UNL     1      30.210  25.679  83.498  1.00  0.00    -0.266 OA
ENDBRANCH  38  39
ENDBRANCH  30  38
BRANCH  31  42
HETATM   42  O6  UNL     1      29.897  28.136  87.591  1.00  0.00    -0.391 OA
ATOM     43  H6  UNL     1      30.055  27.272  87.954  1.00  0.00     0.210 HD
ENDBRANCH  31  42
BRANCH  32  44
HETATM   44  N11 UNL     1      28.369  30.170  87.165  1.00  0.00    -0.072 N 
ATOM     45 3H11 UNL     1      29.174  30.790  87.260  1.00  0.00     0.274 HD
ATOM     46 2H11 UNL     1      27.643  30.864  86.986  1.00  0.00     0.274 HD
ATOM     47 1H11 UNL     1      28.188  29.671  88.037  1.00  0.00     0.274 HD
ENDBRANCH  32  44
ENDBRANCH  26  28
ENDBRANCH   1  26
BRANCH   2  48
HETATM   48  O2  UNL     1      30.532  32.492  88.453  1.00  0.00    -0.344 OA
ATOM     49  H2  UNL     1      30.119  33.037  89.112  1.00  0.00     0.219 HD
ENDBRANCH   2  48
BRANCH   3  50
HETATM   50  C6  UNL     1      31.858  35.172  88.384  1.00  0.00     0.293 C 
BRANCH  50  51
HETATM   51  O3  UNL     1      33.057  35.124  89.114  1.00  0.00    -0.367 OA
ATOM     52  H3  UNL     1      33.082  35.821  89.759  1.00  0.00     0.213 HD
ENDBRANCH  50  51
BRANCH  50  53
HETATM   53  O4  UNL     1      30.768  35.067  89.212  1.00  0.00    -0.367 OA
ATOM     54  H4  UNL     1      29.966  34.880  88.738  1.00  0.00     0.213 HD
ENDBRANCH  50  53
ENDBRANCH   3  50
TORSDOF 15
ENDMDL
MODEL 4
REMARK VINA RESULT: -7.056454624      0.834      1.276
REMARK  15 active torsions:
REMARK  status: ('A' for Active; 'I' for Inactive)
REMARK    1  A    between atoms: O1_2  and  N1_3 
REMARK    2  A    between atoms: N1_3  and  C2_5 
REMARK    3  A    between atoms: C3_6  and  N2_7 
REMARK    4  A    between atoms: N2_7  and  N3_9 
REMARK    5  A    between atoms: C4_10  and  O2_11 
REMARK    6  A    between atoms: C5_13  and  C6_14 
REMARK    7  A    between atoms: C6_14  and  O3_15 
REMARK    8  A    between atoms: C6_14  and  O4_17 
REMARK    9  A    between atoms: C9_21  and  N4_22 
REMARK   10  A    between atoms: C10_23  and  N5_24 
REMARK   11  A    between atoms: C11_29  and  N7_30 
REMARK   12  A    between atoms: C16_42  and  N11_43 
REMARK   13  A    between atoms: C17_47  and  O6_48 
REMARK   14  A    between atoms: C18_50  and  O7_51 
REMARK   15  A    between atoms: O7_51  and  C19_52 
ROOT
HETATM    1  N3  UNL     1      31.576  32.166  86.169  1.00  0.00    -0.219 N 
HETATM    2  C4  UNL     1      31.370  32.837  87.386  1.00  0.00     0.175 A 
HETATM    3  C5  UNL     1      31.895  34.089  87.334  1.00  0.00     0.063 A 
HETATM    4  C7  UNL     1      32.430  34.199  86.081  1.00  0.00     0.030 A 
HETATM    5  C8  UNL     1      33.116  35.082  85.276  1.00  0.00     0.067 A 
HETATM    6  C9  UNL     1      33.351  34.470  84.078  1.00  0.00     0.152 A 
HETATM    7  N9  UNL     1      32.807  33.215  84.154  1.00  0.00    -0.214 N 
HETATM    8  C13 UNL     1      32.915  32.339  83.085  1.00  0.00     0.192 C 
HETATM    9  N10 UNL     1      33.009  31.630  82.178  1.00  0.00    -0.171 NA
HETATM   10  C14 UNL     1      32.237  33.014  85.355  1.00  0.00     0.158 A 
ENDROOT
BRANCH   6  11
HETATM   11  N4  UNL     1      34.033  35.069  82.997  1.00  0.00    -0.079 N 
HETATM   12  C10 UNL     1      35.328  34.773  82.748  1.00  0.00     0.702 A 
HETATM   13  N6  UNL     1      35.984  35.352  81.708  1.00  0.00    -0.022 N 
HETATM   14  C11 UNL     1      35.376  36.228  80.896  1.00  0.00     0.694 A 
ATOM     15  H6  UNL     1      36.961  35.113  81.540  1.00  0.00     0.203 HD
HETATM   16  N8  UNL     1      34.096  36.527  81.135  1.00  0.00    -0.140 N 
HETATM   17  C12 UNL     1      33.447  35.957  82.164  1.00  0.00     0.361 A 
ATOM     18  H8  UNL     1      33.610  37.192  80.533  1.00  0.00     0.189 HD
HETATM   19  O5  UNL     1      32.236  36.263  82.359  1.00  0.00    -0.245 OA
BRANCH  12  20
HETATM   20  N5  UNL     1      35.997  33.932  83.485  1.00  0.00    -0.233 N 
ATOM     21  H52 UNL     1      36.972  34.154  83.684  1.00  0.00     0.174 HD
ATOM     22  H51 UNL     1      35.570  33.082  83.854  1.00  0.00     0.174 HD
ENDBRANCH  12  20
BRANCH  14  23
HETATM   23  N7  UNL     1      36.040  36.753  79.920  1.00  0.00    -0.234 N 
ATOM     24  H72 UNL     1      35.845  37.690  79.568  1.00  0.00     0.174 HD
ATOM     25  H71 UNL     1      36.789  36.218  79.480  1.00  0.00     0.174 HD
ENDBRANCH  14  23
ENDBRANCH   6  11
BRANCH   1  26
HETATM   26  N2  UNL     1      31.165  30.888  86.021  1.00  0.00    -0.319 N 
ATOM     27  H2  UNL     1      30.164  30.778  86.183  1.00  0.00     0.181 HD
BRANCH  26  28
HETATM   28  C3  UNL     1      31.795  29.675  85.695  1.00  0.00     0.129 C 
HETATM   29  C2  UNL     1      31.750  28.668  86.852  1.00  0.00     0.162 C 
HETATM   30  C18 UNL     1      30.853  27.535  86.506  1.00  0.00     0.189 C 
HETATM   31  C17 UNL     1      29.531  27.934  85.909  1.00  0.00     0.180 C 
HETATM   32  C16 UNL     1      29.748  28.690  84.617  1.00  0.00     0.216 C 
HETATM   33  C15 UNL     1      31.214  29.033  84.444  1.00  0.00     0.064 C 
BRANCH  29  34
HETATM   34  N1  UNL     1      31.387  29.230  88.106  1.00  0.00    -0.294 N 
ATOM     35  H1  UNL     1      30.421  29.267  88.432  1.00  0.00     0.188 HD
BRANCH  34  36
HETATM   36  O1  UNL     1      32.418  29.711  88.834  1.00  0.00    -0.289 OA
HETATM   37  C1  UNL     1      33.113  28.574  89.304  1.00  0.00     0.237 C 
ENDBRANCH  34  36
ENDBRANCH  29  34
BRANCH  30  38
HETATM   38  O7  UNL     1      30.656  26.747  87.673  1.00  0.00    -0.311 OA
BRANCH  38  39
HETATM   39  C19 UNL     1      31.356  25.540  87.803  1.00  0.00     0.255 C 
HETATM   40  C20 UNL     1      32.386  25.179  86.800  1.00  0.00     0.126 C 
HETATM   41  O8  UNL     1      31.079  24.803  88.780  1.00  0.00    -0.266 OA
ENDBRANCH  38  39
ENDBRANCH  30  38
BRANCH  31  42
HETATM   42  O6  UNL     1      28.701  28.637  86.746  1.00  0.00    -0.391 OA
ATOM     43  H6  UNL     1      29.055  29.502  86.917  1.00  0.00     0.210 HD
ENDBRANCH  31  42
BRANCH  32  44
HETATM   44  N11 UNL     1      28.876  29.838  84.469  1.00  0.00    -0.072 N 
ATOM     45 3H11 UNL     1      28.679  30.020  83.485  1.00  0.00     0.274 HD
ATOM     46 2H11 UNL     1      27.934  29.622  84.793  1.00  0.00     0.274 HD
ATOM     47 1H11 UNL     1      29.236  30.674  84.930  1.00  0.00     0.274 HD
ENDBRANCH  32  44
ENDBRANCH  26  28
ENDBRANCH   1  26
BRANCH   2  48
HETATM   48  O2  UNL     1      30.731  32.337  88.505  1.00  0.00    -0.344 OA
ATOM     49  H2  UNL     1      30.206  32.828  89.125  1.00  0.00     0.219 HD
ENDBRANCH   2  48
BRANCH   3  50
HETATM   50  C6  UNL     1      31.872  35.101  88.433  1.00  0.00     0.293 C 
BRANCH  50  51
HETATM   51  O3  UNL     1      33.097  35.109  89.120  1.00  0.00    -0.367 OA
ATOM     52  H3  UNL     1      33.790  35.441  88.560  1.00  0.00     0.213 HD
ENDBRANCH  50  51
BRANCH  50  53
HETATM   53  O4  UNL     1      30.820  34.918  89.296  1.00  0.00    -0.367 OA
ATOM     54  H4  UNL     1      30.647  35.685  89.830  1.00  0.00     0.213 HD
ENDBRANCH  50  53
ENDBRANCH   3  50
TORSDOF 15
ENDMDL
MODEL 5
REMARK VINA RESULT: -7.053185543      3.495      6.044
REMARK  15 active torsions:
REMARK  status: ('A' for Active; 'I' for Inactive)
REMARK    1  A    between atoms: O1_2  and  N1_3 
REMARK    2  A    between atoms: N1_3  and  C2_5 
REMARK    3  A    between atoms: C3_6  and  N2_7 
REMARK    4  A    between atoms: N2_7  and  N3_9 
REMARK    5  A    between atoms: C4_10  and  O2_11 
REMARK    6  A    between atoms: C5_13  and  C6_14 
REMARK    7  A    between atoms: C6_14  and  O3_15 
REMARK    8  A    between atoms: C6_14  and  O4_17 
REMARK    9  A    between atoms: C9_21  and  N4_22 
REMARK   10  A    between atoms: C10_23  and  N5_24 
REMARK   11  A    between atoms: C11_29  and  N7_30 
REMARK   12  A    between atoms: C16_42  and  N11_43 
REMARK   13  A    between atoms: C17_47  and  O6_48 
REMARK   14  A    between atoms: C18_50  and  O7_51 
REMARK   15  A    between atoms: O7_51  and  C19_52 
ROOT
HETATM    1  N3  UNL     1      29.251  28.927  85.450  1.00  0.00    -0.219 N 
HETATM    2  C4  UNL     1      29.682  28.421  86.688  1.00  0.00     0.175 A 
HETATM    3  C5  UNL     1      30.998  28.695  86.881  1.00  0.00     0.063 A 
HETATM    4  C7  UNL     1      31.389  29.372  85.760  1.00  0.00     0.030 A 
HETATM    5  C8  UNL     1      32.497  29.960  85.187  1.00  0.00     0.067 A 
HETATM    6  C9  UNL     1      32.130  30.459  83.971  1.00  0.00     0.152 A 
HETATM    7  N9  UNL     1      30.800  30.177  83.804  1.00  0.00    -0.214 N 
HETATM    8  C13 UNL     1      30.148  30.542  82.636  1.00  0.00     0.192 C 
HETATM    9  N10 UNL     1      29.624  30.863  81.658  1.00  0.00    -0.171 NA
HETATM   10  C14 UNL     1      30.315  29.518  84.871  1.00  0.00     0.158 A 
ENDROOT
BRANCH   6  11
HETATM   11  N4  UNL     1      33.003  31.133  83.090  1.00  0.00    -0.079 N 
HETATM   12  C10 UNL     1      33.661  30.461  82.119  1.00  0.00     0.702 A 
HETATM   13  N6  UNL     1      34.503  31.111  81.273  1.00  0.00    -0.022 N 
HETATM   14  C11 UNL     1      34.709  32.431  81.367  1.00  0.00     0.694 A 
ATOM     15  H6  UNL     1      34.989  30.582  80.550  1.00  0.00     0.203 HD
HETATM   16  N8  UNL     1      34.063  33.105  82.323  1.00  0.00    -0.140 N 
HETATM   17  C12 UNL     1      33.232  32.463  83.162  1.00  0.00     0.361 A 
ATOM     18  H8  UNL     1      34.203  34.111  82.418  1.00  0.00     0.189 HD
HETATM   19  O5  UNL     1      32.637  33.133  84.054  1.00  0.00    -0.245 OA
BRANCH  12  20
HETATM   20  N5  UNL     1      33.521  29.176  81.955  1.00  0.00    -0.233 N 
ATOM     21  H52 UNL     1      33.277  28.621  82.776  1.00  0.00     0.174 HD
ATOM     22  H51 UNL     1      33.646  28.731  81.046  1.00  0.00     0.174 HD
ENDBRANCH  12  20
BRANCH  14  23
HETATM   23  N7  UNL     1      35.518  33.007  80.541  1.00  0.00    -0.234 N 
ATOM     24  H72 UNL     1      35.790  32.580  79.655  1.00  0.00     0.174 HD
ATOM     25  H71 UNL     1      35.903  33.922  80.773  1.00  0.00     0.174 HD
ENDBRANCH  14  23
ENDBRANCH   6  11
BRANCH   1  26
HETATM   26  N2  UNL     1      27.979  28.728  85.042  1.00  0.00    -0.319 N 
ATOM     27  H2  UNL     1      27.661  27.772  85.205  1.00  0.00     0.181 HD
BRANCH  26  28
HETATM   28  C3  UNL     1      26.991  29.530  84.446  1.00  0.00     0.129 C 
HETATM   29  C2  UNL     1      26.082  28.730  83.505  1.00  0.00     0.162 C 
HETATM   30  C18 UNL     1      24.717  28.626  84.081  1.00  0.00     0.189 C 
HETATM   31  C17 UNL     1      24.671  28.253  85.538  1.00  0.00     0.180 C 
HETATM   32  C16 UNL     1      25.385  29.298  86.367  1.00  0.00     0.216 C 
HETATM   33  C15 UNL     1      26.137  30.262  85.472  1.00  0.00     0.064 C 
BRANCH  29  34
HETATM   34  N1  UNL     1      26.580  27.444  83.160  1.00  0.00    -0.294 N 
ATOM     35  H1  UNL     1      26.178  26.583  83.531  1.00  0.00     0.188 HD
BRANCH  34  36
HETATM   36  O1  UNL     1      27.625  27.449  82.304  1.00  0.00    -0.289 OA
HETATM   37  C1  UNL     1      27.196  28.201  81.187  1.00  0.00     0.237 C 
ENDBRANCH  34  36
ENDBRANCH  29  34
BRANCH  30  38
HETATM   38  O7  UNL     1      23.972  27.696  83.305  1.00  0.00    -0.311 OA
BRANCH  38  39
HETATM   39  C19 UNL     1      22.715  28.076  82.813  1.00  0.00     0.255 C 
HETATM   40  C20 UNL     1      22.554  28.377  81.370  1.00  0.00     0.126 C 
HETATM   41  O8  UNL     1      21.764  28.146  83.627  1.00  0.00    -0.266 OA
ENDBRANCH  38  39
ENDBRANCH  30  38
BRANCH  31  42
HETATM   42  O6  UNL     1      25.142  26.998  85.834  1.00  0.00    -0.391 OA
ATOM     43  H6  UNL     1      24.931  26.389  85.136  1.00  0.00     0.210 HD
ENDBRANCH  31  42
BRANCH  32  44
HETATM   44  N11 UNL     1      26.212  28.734  87.414  1.00  0.00    -0.072 N 
ATOM     45 3H11 UNL     1      25.647  28.204  88.078  1.00  0.00     0.274 HD
ATOM     46 2H11 UNL     1      26.795  27.980  87.050  1.00  0.00     0.274 HD
ATOM     47 1H11 UNL     1      26.780  29.432  87.895  1.00  0.00     0.274 HD
ENDBRANCH  32  44
ENDBRANCH  26  28
ENDBRANCH   1  26
BRANCH   2  48
HETATM   48  O2  UNL     1      28.914  27.737  87.612  1.00  0.00    -0.344 OA
ATOM     49  H2  UNL     1      28.653  28.045  88.471  1.00  0.00     0.219 HD
ENDBRANCH   2  48
BRANCH   3  50
HETATM   50  C6  UNL     1      31.811  28.320  88.078  1.00  0.00     0.293 C 
BRANCH  50  51
HETATM   51  O3  UNL     1      31.789  26.928  88.270  1.00  0.00    -0.367 OA
ATOM     52  H3  UNL     1      31.289  26.708  89.048  1.00  0.00     0.213 HD
ENDBRANCH  50  51
BRANCH  50  53
HETATM   53  O4  UNL     1      31.416  28.984  89.213  1.00  0.00    -0.367 OA
ATOM     54  H4  UNL     1      32.138  29.419  89.651  1.00  0.00     0.213 HD
ENDBRANCH  50  53
ENDBRANCH   3  50
TORSDOF 15
ENDMDL
