MODEL 1
REMARK VINA RESULT: -6.827440268      0.000      0.000
REMARK  10 active torsions:
REMARK  status: ('A' for Active; 'I' for Inactive)
REMARK    1  A    between atoms: C2_2  and  C3_3 
REMARK    2  A    between atoms: C2_2  and  O1_8 
REMARK    3  A    between atoms: C2_2  and  C9_19 
REMARK    4  A    between atoms: C3_3  and  N1_4 
REMARK    5  A    between atoms: O1_8  and  C4_9 
REMARK    6  A    between atoms: C4_9  and  C5_10 
REMARK    7  A    between atoms: C5_10  and  O2_11 
REMARK    8  A    between atoms: O2_11  and  C6_12 
REMARK    9  A    between atoms: C6_12  and  C7_13 
REMARK   10  A    between atoms: C7_13  and  N2_14 
REMARK       I    between atoms: N2_14  and  C8_16 
ROOT
HETATM    1  O1  UNL     1      19.250  -7.971  -0.883  1.00  0.00    -0.367 OA
ENDROOT
BRANCH   1   2
HETATM    2  C2  UNL     1      18.263  -7.461  -0.166  1.00  0.00     0.158 C 
HETATM    3  C1  UNL     1      18.638  -6.563   1.002  1.00  0.00     0.058 C 
BRANCH   2   4
HETATM    4  C3  UNL     1      17.531  -8.655   0.492  1.00  0.00     0.276 C 
BRANCH   4   5
HETATM    5  N1  UNL     1      16.706  -8.224   1.579  1.00  0.00    -0.076 N 
ATOM      6  H13 UNL     1      17.253  -7.749   2.297  1.00  0.00     0.274 HD
ATOM      7  H12 UNL     1      16.101  -7.450   1.305  1.00  0.00     0.274 HD
ATOM      8  H11 UNL     1      16.171  -9.000   1.968  1.00  0.00     0.274 HD
ENDBRANCH   4   5
ENDBRANCH   2   4
BRANCH   2   9
HETATM    9  C9  UNL     1      17.187  -6.745  -0.903  1.00  0.00     0.267 C 
HETATM   10  N4  UNL     1      17.421  -5.380  -1.226  1.00  0.00    -0.059 NA
HETATM   11  O4  UNL     1      16.130  -7.231  -1.250  1.00  0.00    -0.273 OA
ENDBRANCH   2   9
ENDBRANCH   1   2
BRANCH   1  12
HETATM   12  C4  UNL     1      20.452  -7.452  -1.077  1.00  0.00     0.195 C 
BRANCH  12  13
HETATM   13  C5  UNL     1      21.121  -7.618  -2.410  1.00  0.00     0.193 C 
BRANCH  13  14
HETATM   14  O2  UNL     1      21.306  -6.287  -2.916  1.00  0.00    -0.387 OA
BRANCH  14  15
HETATM   15  C6  UNL     1      20.122  -5.752  -3.310  1.00  0.00     0.187 C 
BRANCH  15  16
HETATM   16  C7  UNL     1      19.316  -6.399  -4.365  1.00  0.00     0.150 C 
BRANCH  16  17
HETATM   17  N2  UNL     1      17.920  -6.192  -4.376  1.00  0.00    -0.343 N 
HETATM   18  C8  UNL     1      16.884  -7.042  -4.709  1.00  0.00     0.328 C 
HETATM   19  N3  UNL     1      15.528  -6.495  -4.605  1.00  0.00    -0.040 NA
HETATM   20  O3  UNL     1      16.969  -8.215  -5.086  1.00  0.00    -0.251 OA
ATOM     21  H2  UNL     1      17.627  -5.257  -4.091  1.00  0.00     0.163 HD
ENDBRANCH  16  17
ENDBRANCH  15  16
ENDBRANCH  14  15
ENDBRANCH  13  14
ENDBRANCH  12  13
ENDBRANCH   1  12
TORSDOF 10
ENDMDL
MODEL 2
REMARK VINA RESULT: -6.604317306      1.362      2.077
REMARK  10 active torsions:
REMARK  status: ('A' for Active; 'I' for Inactive)
REMARK    1  A    between atoms: C2_2  and  C3_3 
REMARK    2  A    between atoms: C2_2  and  O1_8 
REMARK    3  A    between atoms: C2_2  and  C9_19 
REMARK    4  A    between atoms: C3_3  and  N1_4 
REMARK    5  A    between atoms: O1_8  and  C4_9 
REMARK    6  A    between atoms: C4_9  and  C5_10 
REMARK    7  A    between atoms: C5_10  and  O2_11 
REMARK    8  A    between atoms: O2_11  and  C6_12 
REMARK    9  A    between atoms: C6_12  and  C7_13 
REMARK   10  A    between atoms: C7_13  and  N2_14 
REMARK       I    between atoms: N2_14  and  C8_16 
ROOT
HETATM    1  O1  UNL     1      19.964  -6.691  -1.009  1.00  0.00    -0.367 OA
ENDROOT
BRANCH   1   2
HETATM    2  C2  UNL     1      18.725  -7.018  -0.681  1.00  0.00     0.158 C 
HETATM    3  C1  UNL     1      18.120  -8.237  -1.356  1.00  0.00     0.058 C 
BRANCH   2   4
HETATM    4  C3  UNL     1      17.824  -5.845  -1.135  1.00  0.00     0.276 C 
BRANCH   4   5
HETATM    5  N1  UNL     1      16.652  -5.744  -0.320  1.00  0.00    -0.076 N 
ATOM      6  H13 UNL     1      16.890  -5.663   0.668  1.00  0.00     0.274 HD
ATOM      7  H12 UNL     1      16.187  -4.844  -0.444  1.00  0.00     0.274 HD
ATOM      8  H11 UNL     1      16.015  -6.521  -0.490  1.00  0.00     0.274 HD
ENDBRANCH   4   5
ENDBRANCH   2   4
BRANCH   2   9
HETATM    9  C9  UNL     1      18.421  -7.159   0.769  1.00  0.00     0.267 C 
HETATM   10  N4  UNL     1      17.852  -8.392   1.193  1.00  0.00    -0.059 NA
HETATM   11  O4  UNL     1      18.620  -6.312   1.615  1.00  0.00    -0.273 OA
ENDBRANCH   2   9
ENDBRANCH   1   2
BRANCH   1  12
HETATM   12  C4  UNL     1      20.873  -7.467  -1.580  1.00  0.00     0.195 C 
BRANCH  12  13
HETATM   13  C5  UNL     1      21.438  -7.081  -2.915  1.00  0.00     0.193 C 
BRANCH  13  14
HETATM   14  O2  UNL     1      20.514  -6.129  -3.463  1.00  0.00    -0.387 OA
BRANCH  14  15
HETATM   15  C6  UNL     1      19.874  -6.645  -4.544  1.00  0.00     0.187 C 
BRANCH  15  16
HETATM   16  C7  UNL     1      18.784  -5.898  -5.203  1.00  0.00     0.150 C 
BRANCH  16  17
HETATM   17  N2  UNL     1      17.478  -5.994  -4.674  1.00  0.00    -0.343 N 
HETATM   18  C8  UNL     1      16.593  -7.053  -4.643  1.00  0.00     0.328 C 
HETATM   19  N3  UNL     1      15.297  -6.806  -4.003  1.00  0.00    -0.040 NA
HETATM   20  O3  UNL     1      16.768  -8.189  -5.096  1.00  0.00    -0.251 OA
ATOM     21  H2  UNL     1      17.130  -5.137  -4.243  1.00  0.00     0.163 HD
ENDBRANCH  16  17
ENDBRANCH  15  16
ENDBRANCH  14  15
ENDBRANCH  13  14
ENDBRANCH  12  13
ENDBRANCH   1  12
TORSDOF 10
ENDMDL
MODEL 3
REMARK VINA RESULT: -6.574028496      1.150      2.021
REMARK  10 active torsions:
REMARK  status: ('A' for Active; 'I' for Inactive)
REMARK    1  A    between atoms: C2_2  and  C3_3 
REMARK    2  A    between atoms: C2_2  and  O1_8 
REMARK    3  A    between atoms: C2_2  and  C9_19 
REMARK    4  A    between atoms: C3_3  and  N1_4 
REMARK    5  A    between atoms: O1_8  and  C4_9 
REMARK    6  A    between atoms: C4_9  and  C5_10 
REMARK    7  A    between atoms: C5_10  and  O2_11 
REMARK    8  A    between atoms: O2_11  and  C6_12 
REMARK    9  A    between atoms: C6_12  and  C7_13 
REMARK   10  A    between atoms: C7_13  and  N2_14 
REMARK       I    between atoms: N2_14  and  C8_16 
ROOT
HETATM    1  O1  UNL     1      18.881  -7.895  -0.726  1.00  0.00    -0.367 OA
ENDROOT
BRANCH   1   2
HETATM    2  C2  UNL     1      17.870  -7.626   0.083  1.00  0.00     0.158 C 
HETATM    3  C1  UNL     1      17.100  -8.804   0.657  1.00  0.00     0.058 C 
BRANCH   2   4
HETATM    4  C3  UNL     1      16.822  -6.860  -0.759  1.00  0.00     0.276 C 
BRANCH   4   5
HETATM    5  N1  UNL     1      16.526  -5.583  -0.185  1.00  0.00    -0.076 N 
ATOM      6  H13 UNL     1      15.632  -5.223  -0.516  1.00  0.00     0.274 HD
ATOM      7  H12 UNL     1      16.307  -5.661   0.808  1.00  0.00     0.274 HD
ATOM      8  H11 UNL     1      17.282  -4.919  -0.351  1.00  0.00     0.274 HD
ENDBRANCH   4   5
ENDBRANCH   2   4
BRANCH   2   9
HETATM    9  C9  UNL     1      18.140  -6.716   1.228  1.00  0.00     0.267 C 
HETATM   10  N4  UNL     1      17.259  -6.799   2.342  1.00  0.00    -0.059 NA
HETATM   11  O4  UNL     1      19.048  -5.912   1.290  1.00  0.00    -0.273 OA
ENDBRANCH   2   9
ENDBRANCH   1   2
BRANCH   1  12
HETATM   12  C4  UNL     1      19.091  -7.402  -1.937  1.00  0.00     0.195 C 
BRANCH  12  13
HETATM   13  C5  UNL     1      20.463  -6.923  -2.310  1.00  0.00     0.193 C 
BRANCH  13  14
HETATM   14  O2  UNL     1      20.261  -5.933  -3.329  1.00  0.00    -0.387 OA
BRANCH  14  15
HETATM   15  C6  UNL     1      19.897  -6.514  -4.501  1.00  0.00     0.187 C 
BRANCH  15  16
HETATM   16  C7  UNL     1      18.839  -5.919  -5.341  1.00  0.00     0.150 C 
BRANCH  16  17
HETATM   17  N2  UNL     1      17.506  -5.947  -4.877  1.00  0.00    -0.343 N 
HETATM   18  C8  UNL     1      16.604  -6.989  -4.783  1.00  0.00     0.328 C 
HETATM   19  N3  UNL     1      15.281  -6.665  -4.243  1.00  0.00    -0.040 NA
HETATM   20  O3  UNL     1      16.787  -8.167  -5.104  1.00  0.00    -0.251 OA
ATOM     21  H2  UNL     1      17.148  -5.047  -4.557  1.00  0.00     0.163 HD
ENDBRANCH  16  17
ENDBRANCH  15  16
ENDBRANCH  14  15
ENDBRANCH  13  14
ENDBRANCH  12  13
ENDBRANCH   1  12
TORSDOF 10
ENDMDL
MODEL 4
REMARK VINA RESULT: -6.408790736      1.498      2.202
REMARK  10 active torsions:
REMARK  status: ('A' for Active; 'I' for Inactive)
REMARK    1  A    between atoms: C2_2  and  C3_3 
REMARK    2  A    between atoms: C2_2  and  O1_8 
REMARK    3  A    between atoms: C2_2  and  C9_19 
REMARK    4  A    between atoms: C3_3  and  N1_4 
REMARK    5  A    between atoms: O1_8  and  C4_9 
REMARK    6  A    between atoms: C4_9  and  C5_10 
REMARK    7  A    between atoms: C5_10  and  O2_11 
REMARK    8  A    between atoms: O2_11  and  C6_12 
REMARK    9  A    between atoms: C6_12  and  C7_13 
REMARK   10  A    between atoms: C7_13  and  N2_14 
REMARK       I    between atoms: N2_14  and  C8_16 
ROOT
HETATM    1  O1  UNL     1      19.118  -6.873   0.277  1.00  0.00    -0.367 OA
ENDROOT
BRANCH   1   2
HETATM    2  C2  UNL     1      17.905  -7.263   0.632  1.00  0.00     0.158 C 
HETATM    3  C1  UNL     1      17.435  -8.623   0.143  1.00  0.00     0.058 C 
BRANCH   2   4
HETATM    4  C3  UNL     1      16.914  -6.264  -0.012  1.00  0.00     0.276 C 
BRANCH   4   5
HETATM    5  N1  UNL     1      15.959  -6.938  -0.837  1.00  0.00    -0.076 N 
ATOM      6  H13 UNL     1      15.820  -7.902  -0.536  1.00  0.00     0.274 HD
ATOM      7  H12 UNL     1      15.014  -6.587  -0.679  1.00  0.00     0.274 HD
ATOM      8  H11 UNL     1      16.218  -6.886  -1.822  1.00  0.00     0.274 HD
ENDBRANCH   4   5
ENDBRANCH   2   4
BRANCH   2   9
HETATM    9  C9  UNL     1      17.572  -7.210   2.081  1.00  0.00     0.267 C 
HETATM   10  N4  UNL     1      18.049  -8.276   2.893  1.00  0.00    -0.059 NA
HETATM   11  O4  UNL     1      16.929  -6.335   2.624  1.00  0.00    -0.273 OA
ENDBRANCH   2   9
ENDBRANCH   1   2
BRANCH   1  12
HETATM   12  C4  UNL     1      19.536  -6.563  -0.941  1.00  0.00     0.195 C 
BRANCH  12  13
HETATM   13  C5  UNL     1      20.502  -7.472  -1.642  1.00  0.00     0.193 C 
BRANCH  13  14
HETATM   14  O2  UNL     1      21.046  -6.697  -2.720  1.00  0.00    -0.387 OA
BRANCH  14  15
HETATM   15  C6  UNL     1      20.087  -5.923  -3.290  1.00  0.00     0.187 C 
BRANCH  15  16
HETATM   16  C7  UNL     1      19.518  -6.274  -4.607  1.00  0.00     0.150 C 
BRANCH  16  17
HETATM   17  N2  UNL     1      18.121  -6.185  -4.789  1.00  0.00    -0.343 N 
HETATM   18  C8  UNL     1      17.088  -6.893  -4.207  1.00  0.00     0.328 C 
HETATM   19  N3  UNL     1      15.730  -6.537  -4.629  1.00  0.00    -0.040 NA
HETATM   20  O3  UNL     1      17.177  -7.796  -3.370  1.00  0.00    -0.251 OA
ATOM     21  H2  UNL     1      17.824  -5.479  -5.463  1.00  0.00     0.163 HD
ENDBRANCH  16  17
ENDBRANCH  15  16
ENDBRANCH  14  15
ENDBRANCH  13  14
ENDBRANCH  12  13
ENDBRANCH   1  12
TORSDOF 10
ENDMDL
MODEL 5
REMARK VINA RESULT: -6.403708447      1.801      2.524
REMARK  10 active torsions:
REMARK  status: ('A' for Active; 'I' for Inactive)
REMARK    1  A    between atoms: C2_2  and  C3_3 
REMARK    2  A    between atoms: C2_2  and  O1_8 
REMARK    3  A    between atoms: C2_2  and  C9_19 
REMARK    4  A    between atoms: C3_3  and  N1_4 
REMARK    5  A    between atoms: O1_8  and  C4_9 
REMARK    6  A    between atoms: C4_9  and  C5_10 
REMARK    7  A    between atoms: C5_10  and  O2_11 
REMARK    8  A    between atoms: O2_11  and  C6_12 
REMARK    9  A    between atoms: C6_12  and  C7_13 
REMARK   10  A    between atoms: C7_13  and  N2_14 
REMARK       I    between atoms: N2_14  and  C8_16 
ROOT
HETATM    1  O1  UNL     1      19.769  -6.449  -1.301  1.00  0.00    -0.367 OA
ENDROOT
BRANCH   1   2
HETATM    2  C2  UNL     1      18.655  -6.910  -0.758  1.00  0.00     0.158 C 
HETATM    3  C1  UNL     1      18.126  -8.241  -1.266  1.00  0.00     0.058 C 
BRANCH   2   4
HETATM    4  C3  UNL     1      17.539  -5.898  -1.111  1.00  0.00     0.276 C 
BRANCH   4   5
HETATM    5  N1  UNL     1      16.560  -5.819  -0.070  1.00  0.00    -0.076 N 
ATOM      6  H13 UNL     1      15.844  -5.125  -0.283  1.00  0.00     0.274 HD
ATOM      7  H12 UNL     1      15.971  -6.651  -0.047  1.00  0.00     0.274 HD
ATOM      8  H11 UNL     1      16.995  -5.642   0.835  1.00  0.00     0.274 HD
ENDBRANCH   4   5
ENDBRANCH   2   4
BRANCH   2   9
HETATM    9  C9  UNL     1      18.606  -6.989   0.727  1.00  0.00     0.267 C 
HETATM   10  N4  UNL     1      18.207  -8.231   1.295  1.00  0.00    -0.059 NA
HETATM   11  O4  UNL     1      18.879  -6.085   1.490  1.00  0.00    -0.273 OA
ENDBRANCH   2   9
ENDBRANCH   1   2
BRANCH   1  12
HETATM   12  C4  UNL     1      19.892  -5.808  -2.453  1.00  0.00     0.195 C 
BRANCH  12  13
HETATM   13  C5  UNL     1      20.302  -6.569  -3.680  1.00  0.00     0.193 C 
BRANCH  13  14
HETATM   14  O2  UNL     1      19.765  -5.831  -4.788  1.00  0.00    -0.387 OA
BRANCH  14  15
HETATM   15  C6  UNL     1      19.614  -6.633  -5.873  1.00  0.00     0.187 C 
BRANCH  15  16
HETATM   16  C7  UNL     1      18.271  -6.918  -6.418  1.00  0.00     0.150 C 
BRANCH  16  17
HETATM   17  N2  UNL     1      17.218  -7.196  -5.519  1.00  0.00    -0.343 N 
HETATM   18  C8  UNL     1      16.481  -6.360  -4.705  1.00  0.00     0.328 C 
HETATM   19  N3  UNL     1      15.442  -6.990  -3.886  1.00  0.00    -0.040 NA
HETATM   20  O3  UNL     1      16.599  -5.136  -4.586  1.00  0.00    -0.251 OA
ATOM     21  H2  UNL     1      16.958  -8.181  -5.462  1.00  0.00     0.163 HD
ENDBRANCH  16  17
ENDBRANCH  15  16
ENDBRANCH  14  15
ENDBRANCH  13  14
ENDBRANCH  12  13
ENDBRANCH   1  12
TORSDOF 10
ENDMDL
