MODEL 1
REMARK VINA RESULT: -7.951606959      0.000      0.000
REMARK  10 active torsions:
REMARK  status: ('A' for Active; 'I' for Inactive)
REMARK    1  A    between atoms: C2_2  and  N1_3 
REMARK    2  A    between atoms: N1_3  and  C3_6 
REMARK    3  A    between atoms: C3_6  and  C4_7 
REMARK       I    between atoms: C4_7  and  N2_9 
REMARK       I    between atoms: N2_9  and  C5_11 
REMARK       I    between atoms: C5_11  and  N3_13 
REMARK    4  A    between atoms: N3_13  and  C6_15 
REMARK    5  A    between atoms: C6_15  and  C7_16 
REMARK    6  A    between atoms: C7_16  and  O3_17 
REMARK    7  A    between atoms: C7_16  and  C8_19 
REMARK    8  A    between atoms: C7_16  and  C9_24 
REMARK    9  A    between atoms: C8_19  and  N4_20 
REMARK   10  A    between atoms: C9_24  and  O4_25 
ROOT
HETATM    1  C4  UNL     1      19.147  -6.379  -4.563  1.00  0.00     0.251 C 
HETATM    2  O1  UNL     1      18.025  -6.339  -4.030  1.00  0.00    -0.271 OA
HETATM    3  N2  UNL     1      20.339  -6.663  -3.921  1.00  0.00    -0.278 N 
ATOM      4  H2  UNL     1      21.174  -6.656  -4.505  1.00  0.00     0.173 HD
HETATM    5  C5  UNL     1      20.536  -6.959  -2.573  1.00  0.00     0.322 C 
HETATM    6  O2  UNL     1      21.767  -7.178  -2.265  1.00  0.00    -0.247 OA
HETATM    7  N3  UNL     1      19.511  -7.014  -1.644  1.00  0.00    -0.340 N 
ATOM      8  H3  UNL     1      18.568  -6.867  -2.005  1.00  0.00     0.164 HD
ENDROOT
BRANCH   7   9
HETATM    9  C6  UNL     1      19.618  -7.253  -0.237  1.00  0.00     0.166 C 
BRANCH   9  10
HETATM   10  C7  UNL     1      18.354  -7.247   0.516  1.00  0.00     0.118 C 
BRANCH  10  11
HETATM   11  O3  UNL     1      18.296  -6.203   1.468  1.00  0.00    -0.384 OA
ATOM     12  H3  UNL     1      18.218  -5.346   1.065  1.00  0.00     0.210 HD
ENDBRANCH  10  11
BRANCH  10  13
HETATM   13  C8  UNL     1      17.342  -6.629  -0.577  1.00  0.00     0.271 C 
BRANCH  13  14
HETATM   14  N4  UNL     1      16.492  -5.686   0.055  1.00  0.00    -0.076 N 
ATOM     15  H43 UNL     1      15.621  -6.106   0.379  1.00  0.00     0.274 HD
ATOM     16  H42 UNL     1      16.853  -5.384   0.960  1.00  0.00     0.274 HD
ATOM     17  H41 UNL     1      16.331  -4.902  -0.578  1.00  0.00     0.274 HD
ENDBRANCH  13  14
ENDBRANCH  10  13
BRANCH  10  18
HETATM   18  C9  UNL     1      17.776  -8.520   0.922  1.00  0.00     0.205 C 
BRANCH  18  19
HETATM   19  O4  UNL     1      16.649  -8.317   1.718  1.00  0.00    -0.398 OA
ATOM     20  H4  UNL     1      16.749  -8.751   2.557  1.00  0.00     0.209 HD
ENDBRANCH  18  19
ENDBRANCH  10  18
ENDBRANCH   9  10
ENDBRANCH   7   9
BRANCH   1  21
HETATM   21  C3  UNL     1      19.154  -6.081  -6.057  1.00  0.00     0.335 C 
BRANCH  21  22
HETATM   22  N1  UNL     1      19.660  -7.252  -6.723  1.00  0.00    -0.067 N 
ATOM     23  H12 UNL     1      19.195  -8.109  -6.423  1.00  0.00     0.277 HD
ATOM     24  H11 UNL     1      20.604  -7.498  -6.426  1.00  0.00     0.277 HD
BRANCH  22  25
HETATM   25  C2  UNL     1      19.559  -7.028  -8.165  1.00  0.00     0.228 C 
HETATM   26  C1  UNL     1      20.595  -7.843  -8.886  1.00  0.00     0.034 C 
ENDBRANCH  22  25
ENDBRANCH  21  22
ENDBRANCH   1  21
TORSDOF 10
ENDMDL
MODEL 2
REMARK VINA RESULT: -7.781899798      2.006      2.963
REMARK  10 active torsions:
REMARK  status: ('A' for Active; 'I' for Inactive)
REMARK    1  A    between atoms: C2_2  and  N1_3 
REMARK    2  A    between atoms: N1_3  and  C3_6 
REMARK    3  A    between atoms: C3_6  and  C4_7 
REMARK       I    between atoms: C4_7  and  N2_9 
REMARK       I    between atoms: N2_9  and  C5_11 
REMARK       I    between atoms: C5_11  and  N3_13 
REMARK    4  A    between atoms: N3_13  and  C6_15 
REMARK    5  A    between atoms: C6_15  and  C7_16 
REMARK    6  A    between atoms: C7_16  and  O3_17 
REMARK    7  A    between atoms: C7_16  and  C8_19 
REMARK    8  A    between atoms: C7_16  and  C9_24 
REMARK    9  A    between atoms: C8_19  and  N4_20 
REMARK   10  A    between atoms: C9_24  and  O4_25 
ROOT
HETATM    1  C4  UNL     1      18.751  -5.933  -5.585  1.00  0.00     0.251 C 
HETATM    2  O1  UNL     1      19.615  -6.011  -4.696  1.00  0.00    -0.271 OA
HETATM    3  N2  UNL     1      17.397  -6.167  -5.420  1.00  0.00    -0.278 N 
ATOM      4  H2  UNL     1      16.820  -6.061  -6.254  1.00  0.00     0.173 HD
HETATM    5  C5  UNL     1      16.726  -6.531  -4.253  1.00  0.00     0.322 C 
HETATM    6  O2  UNL     1      15.457  -6.682  -4.410  1.00  0.00    -0.247 OA
HETATM    7  N3  UNL     1      17.357  -6.714  -3.034  1.00  0.00    -0.340 N 
ATOM      8  H3  UNL     1      18.359  -6.525  -3.013  1.00  0.00     0.164 HD
ENDROOT
BRANCH   7   9
HETATM    9  C6  UNL     1      16.769  -7.137  -1.800  1.00  0.00     0.166 C 
BRANCH   9  10
HETATM   10  C7  UNL     1      17.389  -6.609  -0.576  1.00  0.00     0.118 C 
BRANCH  10  11
HETATM   11  O3  UNL     1      16.545  -5.709   0.115  1.00  0.00    -0.384 OA
ATOM     12  H3  UNL     1      16.362  -5.991   1.004  1.00  0.00     0.210 HD
ENDBRANCH  10  11
BRANCH  10  13
HETATM   13  C8  UNL     1      17.251  -7.874   0.415  1.00  0.00     0.271 C 
BRANCH  13  14
HETATM   14  N4  UNL     1      17.055  -7.409   1.741  1.00  0.00    -0.076 N 
ATOM     15  H43 UNL     1      17.936  -7.264   2.235  1.00  0.00     0.274 HD
ATOM     16  H42 UNL     1      16.715  -6.447   1.768  1.00  0.00     0.274 HD
ATOM     17  H41 UNL     1      16.437  -8.052   2.235  1.00  0.00     0.274 HD
ENDBRANCH  13  14
ENDBRANCH  10  13
BRANCH  10  18
HETATM   18  C9  UNL     1      18.806  -6.272  -0.599  1.00  0.00     0.205 C 
BRANCH  18  19
HETATM   19  O4  UNL     1      19.029  -5.138  -1.380  1.00  0.00    -0.398 OA
ATOM     20  H4  UNL     1      19.942  -4.880  -1.343  1.00  0.00     0.209 HD
ENDBRANCH  18  19
ENDBRANCH  10  18
ENDBRANCH   9  10
ENDBRANCH   7   9
BRANCH   1  21
HETATM   21  C3  UNL     1      19.281  -5.543  -6.959  1.00  0.00     0.335 C 
BRANCH  21  22
HETATM   22  N1  UNL     1      18.985  -6.630  -7.854  1.00  0.00    -0.067 N 
ATOM     23  H12 UNL     1      18.710  -6.313  -8.784  1.00  0.00     0.277 HD
ATOM     24  H11 UNL     1      18.120  -7.116  -7.614  1.00  0.00     0.277 HD
BRANCH  22  25
HETATM   25  C2  UNL     1      20.146  -7.520  -7.880  1.00  0.00     0.228 C 
HETATM   26  C1  UNL     1      20.584  -7.753  -9.298  1.00  0.00     0.034 C 
ENDBRANCH  22  25
ENDBRANCH  21  22
ENDBRANCH   1  21
TORSDOF 10
ENDMDL
MODEL 3
REMARK VINA RESULT: -7.668954737      1.957      2.339
REMARK  10 active torsions:
REMARK  status: ('A' for Active; 'I' for Inactive)
REMARK    1  A    between atoms: C2_2  and  N1_3 
REMARK    2  A    between atoms: N1_3  and  C3_6 
REMARK    3  A    between atoms: C3_6  and  C4_7 
REMARK       I    between atoms: C4_7  and  N2_9 
REMARK       I    between atoms: N2_9  and  C5_11 
REMARK       I    between atoms: C5_11  and  N3_13 
REMARK    4  A    between atoms: N3_13  and  C6_15 
REMARK    5  A    between atoms: C6_15  and  C7_16 
REMARK    6  A    between atoms: C7_16  and  O3_17 
REMARK    7  A    between atoms: C7_16  and  C8_19 
REMARK    8  A    between atoms: C7_16  and  C9_24 
REMARK    9  A    between atoms: C8_19  and  N4_20 
REMARK   10  A    between atoms: C9_24  and  O4_25 
ROOT
HETATM    1  C4  UNL     1      16.929  -6.842  -4.109  1.00  0.00     0.251 C 
HETATM    2  O1  UNL     1      15.835  -7.236  -3.673  1.00  0.00    -0.271 OA
HETATM    3  N2  UNL     1      17.946  -6.280  -3.357  1.00  0.00    -0.278 N 
ATOM      4  H2  UNL     1      18.784  -6.008  -3.870  1.00  0.00     0.173 HD
HETATM    5  C5  UNL     1      17.963  -6.040  -1.984  1.00  0.00     0.322 C 
HETATM    6  O2  UNL     1      19.054  -5.499  -1.565  1.00  0.00    -0.247 OA
HETATM    7  N3  UNL     1      16.910  -6.352  -1.140  1.00  0.00    -0.340 N 
ATOM      8  H3  UNL     1      16.111  -6.818  -1.570  1.00  0.00     0.164 HD
ENDROOT
BRANCH   7   9
HETATM    9  C6  UNL     1      16.810  -6.096   0.265  1.00  0.00     0.166 C 
BRANCH   9  10
HETATM   10  C7  UNL     1      17.714  -6.873   1.126  1.00  0.00     0.118 C 
BRANCH  10  11
HETATM   11  O3  UNL     1      18.888  -6.159   1.462  1.00  0.00    -0.384 OA
ATOM     12  H3  UNL     1      19.678  -6.663   1.304  1.00  0.00     0.210 HD
ENDBRANCH  10  11
BRANCH  10  13
HETATM   13  C8  UNL     1      16.957  -6.769   2.547  1.00  0.00     0.271 C 
BRANCH  13  14
HETATM   14  N4  UNL     1      17.509  -7.723   3.440  1.00  0.00    -0.076 N 
ATOM     15  H43 UNL     1      18.528  -7.711   3.439  1.00  0.00     0.274 HD
ATOM     16  H42 UNL     1      17.363  -7.469   4.417  1.00  0.00     0.274 HD
ATOM     17  H41 UNL     1      17.133  -8.646   3.220  1.00  0.00     0.274 HD
ENDBRANCH  13  14
ENDBRANCH  10  13
BRANCH  10  18
HETATM   18  C9  UNL     1      17.880  -8.295   0.863  1.00  0.00     0.205 C 
BRANCH  18  19
HETATM   19  O4  UNL     1      16.645  -8.942   0.856  1.00  0.00    -0.398 OA
ATOM     20  H4  UNL     1      16.760  -9.883   0.789  1.00  0.00     0.209 HD
ENDBRANCH  18  19
ENDBRANCH  10  18
ENDBRANCH   9  10
ENDBRANCH   7   9
BRANCH   1  21
HETATM   21  C3  UNL     1      17.118  -7.015  -5.612  1.00  0.00     0.335 C 
BRANCH  21  22
HETATM   22  N1  UNL     1      18.486  -7.408  -5.827  1.00  0.00    -0.067 N 
ATOM     23  H12 UNL     1      18.587  -8.408  -6.001  1.00  0.00     0.277 HD
ATOM     24  H11 UNL     1      19.049  -7.360  -4.977  1.00  0.00     0.277 HD
BRANCH  22  25
HETATM   25  C2  UNL     1      19.024  -6.586  -6.910  1.00  0.00     0.228 C 
HETATM   26  C1  UNL     1      19.917  -7.415  -7.789  1.00  0.00     0.034 C 
ENDBRANCH  22  25
ENDBRANCH  21  22
ENDBRANCH   1  21
TORSDOF 10
ENDMDL
MODEL 4
REMARK VINA RESULT: -7.486273233      2.019      2.925
REMARK  10 active torsions:
REMARK  status: ('A' for Active; 'I' for Inactive)
REMARK    1  A    between atoms: C2_2  and  N1_3 
REMARK    2  A    between atoms: N1_3  and  C3_6 
REMARK    3  A    between atoms: C3_6  and  C4_7 
REMARK       I    between atoms: C4_7  and  N2_9 
REMARK       I    between atoms: N2_9  and  C5_11 
REMARK       I    between atoms: C5_11  and  N3_13 
REMARK    4  A    between atoms: N3_13  and  C6_15 
REMARK    5  A    between atoms: C6_15  and  C7_16 
REMARK    6  A    between atoms: C7_16  and  O3_17 
REMARK    7  A    between atoms: C7_16  and  C8_19 
REMARK    8  A    between atoms: C7_16  and  C9_24 
REMARK    9  A    between atoms: C8_19  and  N4_20 
REMARK   10  A    between atoms: C9_24  and  O4_25 
ROOT
HETATM    1  C4  UNL     1      18.826  -5.948  -5.676  1.00  0.00     0.251 C 
HETATM    2  O1  UNL     1      19.693  -6.052  -4.792  1.00  0.00    -0.271 OA
HETATM    3  N2  UNL     1      17.469  -6.158  -5.508  1.00  0.00    -0.278 N 
ATOM      4  H2  UNL     1      16.890  -6.031  -6.338  1.00  0.00     0.173 HD
HETATM    5  C5  UNL     1      16.796  -6.521  -4.342  1.00  0.00     0.322 C 
HETATM    6  O2  UNL     1      15.524  -6.647  -4.494  1.00  0.00    -0.247 OA
HETATM    7  N3  UNL     1      17.428  -6.729  -3.127  1.00  0.00    -0.340 N 
ATOM      8  H3  UNL     1      18.434  -6.560  -3.109  1.00  0.00     0.164 HD
ENDROOT
BRANCH   7   9
HETATM    9  C6  UNL     1      16.838  -7.155  -1.895  1.00  0.00     0.166 C 
BRANCH   9  10
HETATM   10  C7  UNL     1      17.728  -7.168  -0.725  1.00  0.00     0.118 C 
BRANCH  10  11
HETATM   11  O3  UNL     1      18.344  -8.427  -0.527  1.00  0.00    -0.384 OA
ATOM     12  H3  UNL     1      18.625  -8.557   0.371  1.00  0.00     0.210 HD
ENDBRANCH  10  11
BRANCH  10  13
HETATM   13  C8  UNL     1      19.004  -6.364  -1.293  1.00  0.00     0.271 C 
BRANCH  13  14
HETATM   14  N4  UNL     1      20.185  -7.090  -0.991  1.00  0.00    -0.076 N 
ATOM     15  H43 UNL     1      20.998  -6.482  -0.888  1.00  0.00     0.274 HD
ATOM     16  H42 UNL     1      20.172  -7.475  -0.046  1.00  0.00     0.274 HD
ATOM     17  H41 UNL     1      20.328  -7.809  -1.700  1.00  0.00     0.274 HD
ENDBRANCH  13  14
ENDBRANCH  10  13
BRANCH  10  18
HETATM   18  C9  UNL     1      17.312  -6.461   0.478  1.00  0.00     0.205 C 
BRANCH  18  19
HETATM   19  O4  UNL     1      16.397  -5.456   0.167  1.00  0.00    -0.398 OA
ATOM     20  H4  UNL     1      16.299  -4.855   0.895  1.00  0.00     0.209 HD
ENDBRANCH  18  19
ENDBRANCH  10  18
ENDBRANCH   9  10
ENDBRANCH   7   9
BRANCH   1  21
HETATM   21  C3  UNL     1      19.357  -5.554  -7.049  1.00  0.00     0.335 C 
BRANCH  21  22
HETATM   22  N1  UNL     1      19.037  -6.625  -7.954  1.00  0.00    -0.067 N 
ATOM     23  H12 UNL     1      18.774  -6.293  -8.883  1.00  0.00     0.277 HD
ATOM     24  H11 UNL     1      18.158  -7.088  -7.722  1.00  0.00     0.277 HD
BRANCH  22  25
HETATM   25  C2  UNL     1      20.173  -7.545  -7.982  1.00  0.00     0.228 C 
HETATM   26  C1  UNL     1      20.621  -7.766  -9.399  1.00  0.00     0.034 C 
ENDBRANCH  22  25
ENDBRANCH  21  22
ENDBRANCH   1  21
TORSDOF 10
ENDMDL
MODEL 5
REMARK VINA RESULT: -7.446053995      1.835      2.506
REMARK  10 active torsions:
REMARK  status: ('A' for Active; 'I' for Inactive)
REMARK    1  A    between atoms: C2_2  and  N1_3 
REMARK    2  A    between atoms: N1_3  and  C3_6 
REMARK    3  A    between atoms: C3_6  and  C4_7 
REMARK       I    between atoms: C4_7  and  N2_9 
REMARK       I    between atoms: N2_9  and  C5_11 
REMARK       I    between atoms: C5_11  and  N3_13 
REMARK    4  A    between atoms: N3_13  and  C6_15 
REMARK    5  A    between atoms: C6_15  and  C7_16 
REMARK    6  A    between atoms: C7_16  and  O3_17 
REMARK    7  A    between atoms: C7_16  and  C8_19 
REMARK    8  A    between atoms: C7_16  and  C9_24 
REMARK    9  A    between atoms: C8_19  and  N4_20 
REMARK   10  A    between atoms: C9_24  and  O4_25 
ROOT
HETATM    1  C4  UNL     1      18.795  -5.956  -5.558  1.00  0.00     0.251 C 
HETATM    2  O1  UNL     1      19.682  -6.049  -4.694  1.00  0.00    -0.271 OA
HETATM    3  N2  UNL     1      17.447  -6.199  -5.364  1.00  0.00    -0.278 N 
ATOM      4  H2  UNL     1      16.848  -6.077  -6.180  1.00  0.00     0.173 HD
HETATM    5  C5  UNL     1      16.808  -6.590  -4.189  1.00  0.00     0.322 C 
HETATM    6  O2  UNL     1      15.535  -6.743  -4.315  1.00  0.00    -0.247 OA
HETATM    7  N3  UNL     1      17.470  -6.796  -2.990  1.00  0.00    -0.340 N 
ATOM      8  H3  UNL     1      18.472  -6.604  -2.990  1.00  0.00     0.164 HD
ENDROOT
BRANCH   7   9
HETATM    9  C6  UNL     1      16.916  -7.248  -1.750  1.00  0.00     0.166 C 
BRANCH   9  10
HETATM   10  C7  UNL     1      17.878  -7.502  -0.668  1.00  0.00     0.118 C 
BRANCH  10  11
HETATM   11  O3  UNL     1      19.209  -7.208  -1.047  1.00  0.00    -0.384 OA
ATOM     12  H3  UNL     1      19.718  -6.843  -0.332  1.00  0.00     0.210 HD
ENDBRANCH  10  11
BRANCH  10  13
HETATM   13  C8  UNL     1      17.616  -6.231   0.288  1.00  0.00     0.271 C 
BRANCH  13  14
HETATM   14  N4  UNL     1      16.370  -5.642  -0.049  1.00  0.00    -0.076 N 
ATOM     15  H43 UNL     1      15.776  -6.274  -0.586  1.00  0.00     0.274 HD
ATOM     16  H42 UNL     1      15.762  -5.528   0.763  1.00  0.00     0.274 HD
ATOM     17  H41 UNL     1      16.536  -4.761  -0.534  1.00  0.00     0.274 HD
ENDBRANCH  13  14
ENDBRANCH  10  13
BRANCH  10  18
HETATM   18  C9  UNL     1      17.694  -8.679   0.169  1.00  0.00     0.205 C 
BRANCH  18  19
HETATM   19  O4  UNL     1      16.629  -8.495   1.050  1.00  0.00    -0.398 OA
ATOM     20  H4  UNL     1      15.985  -7.904   0.678  1.00  0.00     0.209 HD
ENDBRANCH  18  19
ENDBRANCH  10  18
ENDBRANCH   9  10
ENDBRANCH   7   9
BRANCH   1  21
HETATM   21  C3  UNL     1      19.288  -5.535  -6.937  1.00  0.00     0.335 C 
BRANCH  21  22
HETATM   22  N1  UNL     1      18.985  -6.609  -7.845  1.00  0.00    -0.067 N 
ATOM     23  H12 UNL     1      18.687  -6.279  -8.763  1.00  0.00     0.277 HD
ATOM     24  H11 UNL     1      18.131  -7.108  -7.596  1.00  0.00     0.277 HD
BRANCH  22  25
HETATM   25  C2  UNL     1      20.155  -7.485  -7.911  1.00  0.00     0.228 C 
HETATM   26  C1  UNL     1      20.554  -7.703  -9.343  1.00  0.00     0.034 C 
ENDBRANCH  22  25
ENDBRANCH  21  22
ENDBRANCH   1  21
TORSDOF 10
ENDMDL
