MODEL 1
REMARK VINA RESULT: -7.088408556      0.000      0.000
REMARK  11 active torsions:
REMARK  status: ('A' for Active; 'I' for Inactive)
REMARK    1  A    between atoms: C1_2  and  C2_4 
REMARK    2  A    between atoms: C3_5  and  N2_6 
REMARK    3  A    between atoms: C3_5  and  C8_15 
REMARK    4  A    between atoms: C4_8  and  C5_10 
REMARK    5  A    between atoms: C5_10  and  C6_11 
REMARK    6  A    between atoms: C6_11  and  C7_12 
REMARK    7  A    between atoms: C7_12  and  O2_13 
REMARK    8  A    between atoms: C8_15  and  O3_16 
REMARK    9  A    between atoms: C8_15  and  C9_18 
REMARK   10  A    between atoms: C9_18  and  O4_19 
REMARK   11  A    between atoms: O4_19  and  N4_20 
ROOT
HETATM    1  C2  UNL     1     -15.471  80.292   0.847  1.00  0.00     0.098 C 
HETATM    2  C3  UNL     1     -15.058  79.287   1.537  1.00  0.00     0.046 C 
ENDROOT
BRANCH   2   3
HETATM    3  N2  UNL     1     -15.566  79.143   2.884  1.00  0.00    -0.349 N 
HETATM    4  C4  UNL     1     -15.046  79.723   3.886  1.00  0.00     0.093 C 
HETATM    5  N3  UNL     1     -13.912  80.562   3.719  1.00  0.00    -0.088 NA
ATOM      6  H2  UNL     1     -16.380  78.546   3.035  1.00  0.00     0.166 HD
BRANCH   4   7
HETATM    7  C5  UNL     1     -15.628  79.520   5.227  1.00  0.00     0.075 C 
BRANCH   7   8
HETATM    8  C6  UNL     1     -17.099  79.858   5.278  1.00  0.00     0.033 C 
BRANCH   8   9
HETATM    9  C7  UNL     1     -17.436  80.238   6.712  1.00  0.00     0.164 C 
BRANCH   9  10
HETATM   10  O2  UNL     1     -16.277  80.314   7.491  1.00  0.00    -0.401 OA
ATOM     11  H2  UNL     1     -16.303  81.074   8.061  1.00  0.00     0.209 HD
ENDBRANCH   9  10
ENDBRANCH   8   9
ENDBRANCH   7   8
ENDBRANCH   4   7
ENDBRANCH   2   3
BRANCH   2  12
HETATM   12  C8  UNL     1     -14.123  78.269   1.109  1.00  0.00     0.194 C 
BRANCH  12  13
HETATM   13  O3  UNL     1     -13.094  78.201   2.103  1.00  0.00    -0.387 OA
ATOM     14  H3  UNL     1     -12.405  78.794   1.830  1.00  0.00     0.210 HD
ENDBRANCH  12  13
BRANCH  12  15
HETATM   15  C9  UNL     1     -14.737  76.866   1.155  1.00  0.00     0.238 C 
BRANCH  15  16
HETATM   16  O4  UNL     1     -14.370  76.134   0.030  1.00  0.00    -0.284 OA
BRANCH  16  17
HETATM   17  N4  UNL     1     -14.408  76.929  -1.056  1.00  0.00    -0.311 N 
ATOM     18  H42 UNL     1     -14.846  77.850  -1.082  1.00  0.00     0.184 HD
ATOM     19  H41 UNL     1     -13.935  76.468  -1.833  1.00  0.00     0.184 HD
ENDBRANCH  16  17
ENDBRANCH  15  16
ENDBRANCH  12  15
ENDBRANCH   2  12
BRANCH   1  20
HETATM   20  C1  UNL     1     -15.141  80.685  -0.501  1.00  0.00     0.256 C 
HETATM   21  N1  UNL     1     -15.686  80.010  -1.655  1.00  0.00    -0.058 NA
HETATM   22  O1  UNL     1     -14.372  81.623  -0.762  1.00  0.00    -0.272 OA
ENDBRANCH   1  20
TORSDOF 11
ENDMDL
MODEL 2
REMARK VINA RESULT: -6.573458556      3.387      6.962
REMARK  11 active torsions:
REMARK  status: ('A' for Active; 'I' for Inactive)
REMARK    1  A    between atoms: C1_2  and  C2_4 
REMARK    2  A    between atoms: C3_5  and  N2_6 
REMARK    3  A    between atoms: C3_5  and  C8_15 
REMARK    4  A    between atoms: C4_8  and  C5_10 
REMARK    5  A    between atoms: C5_10  and  C6_11 
REMARK    6  A    between atoms: C6_11  and  C7_12 
REMARK    7  A    between atoms: C7_12  and  O2_13 
REMARK    8  A    between atoms: C8_15  and  O3_16 
REMARK    9  A    between atoms: C8_15  and  C9_18 
REMARK   10  A    between atoms: C9_18  and  O4_19 
REMARK   11  A    between atoms: O4_19  and  N4_20 
ROOT
HETATM    1  C2  UNL     1     -14.625  77.667   0.334  1.00  0.00     0.098 C 
HETATM    2  C3  UNL     1     -15.216  78.667  -0.217  1.00  0.00     0.046 C 
ENDROOT
BRANCH   2   3
HETATM    3  N2  UNL     1     -16.037  78.405  -1.380  1.00  0.00    -0.349 N 
HETATM    4  C4  UNL     1     -15.729  77.550  -2.266  1.00  0.00     0.093 C 
HETATM    5  N3  UNL     1     -14.531  76.795  -2.148  1.00  0.00    -0.088 NA
ATOM      6  H2  UNL     1     -16.903  78.932  -1.493  1.00  0.00     0.166 HD
BRANCH   4   7
HETATM    7  C5  UNL     1     -16.624  77.345  -3.422  1.00  0.00     0.075 C 
BRANCH   7   8
HETATM    8  C6  UNL     1     -16.089  77.974  -4.686  1.00  0.00     0.033 C 
BRANCH   8   9
HETATM    9  C7  UNL     1     -15.552  76.855  -5.566  1.00  0.00     0.164 C 
BRANCH   9  10
HETATM   10  O2  UNL     1     -15.863  75.604  -5.024  1.00  0.00    -0.401 OA
ATOM     11  H2  UNL     1     -15.258  75.379  -4.326  1.00  0.00     0.209 HD
ENDBRANCH   9  10
ENDBRANCH   8   9
ENDBRANCH   7   8
ENDBRANCH   4   7
ENDBRANCH   2   3
BRANCH   2  12
HETATM   12  C8  UNL     1     -15.149  80.051   0.201  1.00  0.00     0.194 C 
BRANCH  12  13
HETATM   13  O3  UNL     1     -14.514  80.778  -0.858  1.00  0.00    -0.387 OA
ATOM     14  H3  UNL     1     -13.728  81.168  -0.494  1.00  0.00     0.210 HD
ENDBRANCH  12  13
BRANCH  12  15
HETATM   15  C9  UNL     1     -16.535  80.699   0.278  1.00  0.00     0.238 C 
BRANCH  15  16
HETATM   16  O4  UNL     1     -16.658  81.706  -0.674  1.00  0.00    -0.284 OA
BRANCH  16  17
HETATM   17  N4  UNL     1     -17.387  81.257  -1.713  1.00  0.00    -0.311 N 
ATOM     18  H42 UNL     1     -17.011  80.711  -2.488  1.00  0.00     0.184 HD
ATOM     19  H41 UNL     1     -18.358  81.547  -1.598  1.00  0.00     0.184 HD
ENDBRANCH  16  17
ENDBRANCH  15  16
ENDBRANCH  12  15
ENDBRANCH   2  12
BRANCH   1  20
HETATM   20  C1  UNL     1     -13.757  77.627   1.486  1.00  0.00     0.256 C 
HETATM   21  N1  UNL     1     -14.224  77.216   2.789  1.00  0.00    -0.058 NA
HETATM   22  O1  UNL     1     -12.557  77.942   1.438  1.00  0.00    -0.272 OA
ENDBRANCH   1  20
TORSDOF 11
ENDMDL
MODEL 3
REMARK VINA RESULT: -6.556007704      1.310      1.316
REMARK  11 active torsions:
REMARK  status: ('A' for Active; 'I' for Inactive)
REMARK    1  A    between atoms: C1_2  and  C2_4 
REMARK    2  A    between atoms: C3_5  and  N2_6 
REMARK    3  A    between atoms: C3_5  and  C8_15 
REMARK    4  A    between atoms: C4_8  and  C5_10 
REMARK    5  A    between atoms: C5_10  and  C6_11 
REMARK    6  A    between atoms: C6_11  and  C7_12 
REMARK    7  A    between atoms: C7_12  and  O2_13 
REMARK    8  A    between atoms: C8_15  and  O3_16 
REMARK    9  A    between atoms: C8_15  and  C9_18 
REMARK   10  A    between atoms: C9_18  and  O4_19 
REMARK   11  A    between atoms: O4_19  and  N4_20 
ROOT
HETATM    1  C2  UNL     1     -16.390  80.274   0.246  1.00  0.00     0.098 C 
HETATM    2  C3  UNL     1     -15.769  79.340   0.876  1.00  0.00     0.046 C 
ENDROOT
BRANCH   2   3
HETATM    3  N2  UNL     1     -15.872  79.321   2.319  1.00  0.00    -0.349 N 
HETATM    4  C4  UNL     1     -14.985  79.812   3.083  1.00  0.00     0.093 C 
HETATM    5  N3  UNL     1     -13.822  80.417   2.534  1.00  0.00    -0.088 NA
ATOM      6  H2  UNL     1     -16.696  78.893   2.743  1.00  0.00     0.166 HD
BRANCH   4   7
HETATM    7  C5  UNL     1     -15.168  79.749   4.546  1.00  0.00     0.075 C 
BRANCH   7   8
HETATM    8  C6  UNL     1     -16.621  79.647   4.944  1.00  0.00     0.033 C 
BRANCH   8   9
HETATM    9  C7  UNL     1     -16.740  80.121   6.385  1.00  0.00     0.164 C 
BRANCH   9  10
HETATM   10  O2  UNL     1     -18.083  80.238   6.759  1.00  0.00    -0.401 OA
ATOM     11  H2  UNL     1     -18.218  79.906   7.639  1.00  0.00     0.209 HD
ENDBRANCH   9  10
ENDBRANCH   8   9
ENDBRANCH   7   8
ENDBRANCH   4   7
ENDBRANCH   2   3
BRANCH   2  12
HETATM   12  C8  UNL     1     -14.963  78.289   0.293  1.00  0.00     0.194 C 
BRANCH  12  13
HETATM   13  O3  UNL     1     -13.653  78.832   0.089  1.00  0.00    -0.387 OA
ATOM     14  H3  UNL     1     -13.710  79.765   0.255  1.00  0.00     0.210 HD
ENDBRANCH  12  13
BRANCH  12  15
HETATM   15  C9  UNL     1     -14.709  77.143   1.277  1.00  0.00     0.238 C 
BRANCH  15  16
HETATM   16  O4  UNL     1     -13.838  76.208   0.726  1.00  0.00    -0.284 OA
BRANCH  16  17
HETATM   17  N4  UNL     1     -14.123  76.043  -0.579  1.00  0.00    -0.311 N 
ATOM     18  H42 UNL     1     -13.984  76.756  -1.295  1.00  0.00     0.184 HD
ATOM     19  H41 UNL     1     -14.493  75.104  -0.730  1.00  0.00     0.184 HD
ENDBRANCH  16  17
ENDBRANCH  15  16
ENDBRANCH  12  15
ENDBRANCH   2  12
BRANCH   1  20
HETATM   20  C1  UNL     1     -16.466  80.539  -1.170  1.00  0.00     0.256 C 
HETATM   21  N1  UNL     1     -15.730  79.764  -2.140  1.00  0.00    -0.058 NA
HETATM   22  O1  UNL     1     -17.164  81.446  -1.651  1.00  0.00    -0.272 OA
ENDBRANCH   1  20
TORSDOF 11
ENDMDL
MODEL 4
REMARK VINA RESULT: -6.362722771      1.496      2.938
REMARK  11 active torsions:
REMARK  status: ('A' for Active; 'I' for Inactive)
REMARK    1  A    between atoms: C1_2  and  C2_4 
REMARK    2  A    between atoms: C3_5  and  N2_6 
REMARK    3  A    between atoms: C3_5  and  C8_15 
REMARK    4  A    between atoms: C4_8  and  C5_10 
REMARK    5  A    between atoms: C5_10  and  C6_11 
REMARK    6  A    between atoms: C6_11  and  C7_12 
REMARK    7  A    between atoms: C7_12  and  O2_13 
REMARK    8  A    between atoms: C8_15  and  O3_16 
REMARK    9  A    between atoms: C8_15  and  C9_18 
REMARK   10  A    between atoms: C9_18  and  O4_19 
REMARK   11  A    between atoms: O4_19  and  N4_20 
ROOT
HETATM    1  C2  UNL     1     -14.809  78.147   1.453  1.00  0.00     0.098 C 
HETATM    2  C3  UNL     1     -15.509  79.191   1.732  1.00  0.00     0.046 C 
ENDROOT
BRANCH   2   3
HETATM    3  N2  UNL     1     -16.016  79.318   3.081  1.00  0.00    -0.349 N 
HETATM    4  C4  UNL     1     -15.346  79.836   4.026  1.00  0.00     0.093 C 
HETATM    5  N3  UNL     1     -14.034  80.325   3.791  1.00  0.00    -0.088 NA
ATOM      6  H2  UNL     1     -16.956  78.975   3.282  1.00  0.00     0.166 HD
BRANCH   4   7
HETATM    7  C5  UNL     1     -15.941  79.926   5.375  1.00  0.00     0.075 C 
BRANCH   7   8
HETATM    8  C6  UNL     1     -17.447  80.024   5.339  1.00  0.00     0.033 C 
BRANCH   8   9
HETATM    9  C7  UNL     1     -17.931  80.227   6.767  1.00  0.00     0.164 C 
BRANCH   9  10
HETATM   10  O2  UNL     1     -19.313  80.442   6.797  1.00  0.00    -0.401 OA
ATOM     11  H2  UNL     1     -19.676  80.420   5.919  1.00  0.00     0.209 HD
ENDBRANCH   9  10
ENDBRANCH   8   9
ENDBRANCH   7   8
ENDBRANCH   4   7
ENDBRANCH   2   3
BRANCH   2  12
HETATM   12  C8  UNL     1     -15.852  80.270   0.831  1.00  0.00     0.194 C 
BRANCH  12  13
HETATM   13  O3  UNL     1     -14.627  80.917   0.468  1.00  0.00    -0.387 OA
ATOM     14  H3  UNL     1     -14.698  81.150  -0.450  1.00  0.00     0.210 HD
ENDBRANCH  12  13
BRANCH  12  15
HETATM   15  C9  UNL     1     -16.378  79.755  -0.513  1.00  0.00     0.238 C 
BRANCH  15  16
HETATM   16  O4  UNL     1     -16.609  80.812  -1.386  1.00  0.00    -0.284 OA
BRANCH  16  17
HETATM   17  N4  UNL     1     -17.054  81.878  -0.694  1.00  0.00    -0.311 N 
ATOM     18  H42 UNL     1     -16.615  82.241   0.152  1.00  0.00     0.184 HD
ATOM     19  H41 UNL     1     -17.886  82.256  -1.148  1.00  0.00     0.184 HD
ENDBRANCH  16  17
ENDBRANCH  15  16
ENDBRANCH  12  15
ENDBRANCH   2  12
BRANCH   1  20
HETATM   20  C1  UNL     1     -14.185  77.760   0.212  1.00  0.00     0.256 C 
HETATM   21  N1  UNL     1     -14.453  76.491  -0.422  1.00  0.00    -0.058 NA
HETATM   22  O1  UNL     1     -13.378  78.483  -0.393  1.00  0.00    -0.272 OA
ENDBRANCH   1  20
TORSDOF 11
ENDMDL
MODEL 5
REMARK VINA RESULT: -6.296274993      0.880      1.154
REMARK  11 active torsions:
REMARK  status: ('A' for Active; 'I' for Inactive)
REMARK    1  A    between atoms: C1_2  and  C2_4 
REMARK    2  A    between atoms: C3_5  and  N2_6 
REMARK    3  A    between atoms: C3_5  and  C8_15 
REMARK    4  A    between atoms: C4_8  and  C5_10 
REMARK    5  A    between atoms: C5_10  and  C6_11 
REMARK    6  A    between atoms: C6_11  and  C7_12 
REMARK    7  A    between atoms: C7_12  and  O2_13 
REMARK    8  A    between atoms: C8_15  and  O3_16 
REMARK    9  A    between atoms: C8_15  and  C9_18 
REMARK   10  A    between atoms: C9_18  and  O4_19 
REMARK   11  A    between atoms: O4_19  and  N4_20 
ROOT
HETATM    1  C2  UNL     1     -15.634  80.423   0.839  1.00  0.00     0.098 C 
HETATM    2  C3  UNL     1     -15.684  79.343   1.536  1.00  0.00     0.046 C 
ENDROOT
BRANCH   2   3
HETATM    3  N2  UNL     1     -16.041  79.462   2.934  1.00  0.00    -0.349 N 
HETATM    4  C4  UNL     1     -15.217  79.820   3.830  1.00  0.00     0.093 C 
HETATM    5  N3  UNL     1     -13.873  80.127   3.487  1.00  0.00    -0.088 NA
ATOM      6  H2  UNL     1     -16.999  79.248   3.211  1.00  0.00     0.166 HD
BRANCH   4   7
HETATM    7  C5  UNL     1     -15.664  79.915   5.234  1.00  0.00     0.075 C 
BRANCH   7   8
HETATM    8  C6  UNL     1     -17.167  79.982   5.359  1.00  0.00     0.033 C 
BRANCH   8   9
HETATM    9  C7  UNL     1     -17.501  80.145   6.835  1.00  0.00     0.164 C 
BRANCH   9  10
HETATM   10  O2  UNL     1     -16.365  80.519   7.562  1.00  0.00    -0.401 OA
ATOM     11  H2  UNL     1     -16.604  80.800   8.438  1.00  0.00     0.209 HD
ENDBRANCH   9  10
ENDBRANCH   8   9
ENDBRANCH   7   8
ENDBRANCH   4   7
ENDBRANCH   2   3
BRANCH   2  12
HETATM   12  C8  UNL     1     -15.418  77.998   1.071  1.00  0.00     0.194 C 
BRANCH  12  13
HETATM   13  O3  UNL     1     -16.029  77.873  -0.218  1.00  0.00    -0.387 OA
ATOM     14  H3  UNL     1     -15.518  77.239  -0.706  1.00  0.00     0.210 HD
ENDBRANCH  12  13
BRANCH  12  15
HETATM   15  C9  UNL     1     -13.932  77.776   0.769  1.00  0.00     0.238 C 
BRANCH  15  16
HETATM   16  O4  UNL     1     -13.625  76.420   0.800  1.00  0.00    -0.284 OA
BRANCH  16  17
HETATM   17  N4  UNL     1     -13.991  75.848  -0.363  1.00  0.00    -0.311 N 
ATOM     18  H42 UNL     1     -14.238  76.365  -1.207  1.00  0.00     0.184 HD
ATOM     19  H41 UNL     1     -13.980  74.833  -0.262  1.00  0.00     0.184 HD
ENDBRANCH  16  17
ENDBRANCH  15  16
ENDBRANCH  12  15
ENDBRANCH   2  12
BRANCH   1  20
HETATM   20  C1  UNL     1     -15.311  80.608  -0.555  1.00  0.00     0.256 C 
HETATM   21  N1  UNL     1     -16.240  80.280  -1.611  1.00  0.00    -0.058 NA
HETATM   22  O1  UNL     1     -14.221  81.058  -0.942  1.00  0.00    -0.272 OA
ENDBRANCH   1  20
TORSDOF 11
ENDMDL
