MODEL 1
REMARK VINA RESULT: -6.312995068      0.000      0.000
REMARK  10 active torsions:
REMARK  status: ('A' for Active; 'I' for Inactive)
REMARK    1  A    between atoms: C2_2  and  C3_3 
REMARK    2  A    between atoms: C2_2  and  O1_8 
REMARK    3  A    between atoms: C2_2  and  C9_19 
REMARK    4  A    between atoms: C3_3  and  N1_4 
REMARK    5  A    between atoms: O1_8  and  C4_9 
REMARK    6  A    between atoms: C4_9  and  C5_10 
REMARK    7  A    between atoms: C5_10  and  O2_11 
REMARK    8  A    between atoms: O2_11  and  C6_12 
REMARK    9  A    between atoms: C6_12  and  C7_13 
REMARK   10  A    between atoms: C7_13  and  N2_14 
REMARK       I    between atoms: N2_14  and  C8_16 
ROOT
HETATM    1  O1  UNL     1     -15.614  78.604   0.358  1.00  0.00    -0.367 OA
ENDROOT
BRANCH   1   2
HETATM    2  C2  UNL     1     -14.965  78.242   1.452  1.00  0.00     0.158 C 
HETATM    3  C1  UNL     1     -15.720  77.403   2.469  1.00  0.00     0.058 C 
BRANCH   2   4
HETATM    4  C3  UNL     1     -14.622  79.544   2.214  1.00  0.00     0.276 C 
BRANCH   4   5
HETATM    5  N1  UNL     1     -15.674  79.916   3.109  1.00  0.00    -0.076 N 
ATOM      6  H13 UNL     1     -16.124  80.784   2.817  1.00  0.00     0.274 HD
ATOM      7  H12 UNL     1     -16.475  79.289   3.026  1.00  0.00     0.274 HD
ATOM      8  H11 UNL     1     -15.340  79.972   4.071  1.00  0.00     0.274 HD
ENDBRANCH   4   5
ENDBRANCH   2   4
BRANCH   2   9
HETATM    9  C9  UNL     1     -13.646  77.577   1.272  1.00  0.00     0.267 C 
HETATM   10  N4  UNL     1     -13.659  76.214   0.866  1.00  0.00    -0.059 NA
HETATM   11  O4  UNL     1     -12.565  78.102   1.441  1.00  0.00    -0.273 OA
ENDBRANCH   2   9
ENDBRANCH   1   2
BRANCH   1  12
HETATM   12  C4  UNL     1     -15.366  79.654  -0.409  1.00  0.00     0.195 C 
BRANCH  12  13
HETATM   13  C5  UNL     1     -15.954  79.714  -1.788  1.00  0.00     0.193 C 
BRANCH  13  14
HETATM   14  O2  UNL     1     -16.323  78.364  -2.108  1.00  0.00    -0.387 OA
BRANCH  14  15
HETATM   15  C6  UNL     1     -16.385  78.187  -3.453  1.00  0.00     0.187 C 
BRANCH  15  16
HETATM   16  C7  UNL     1     -15.995  76.900  -4.063  1.00  0.00     0.150 C 
BRANCH  16  17
HETATM   17  N2  UNL     1     -14.982  76.894  -5.047  1.00  0.00    -0.343 N 
HETATM   18  C8  UNL     1     -15.063  76.857  -6.425  1.00  0.00     0.328 C 
HETATM   19  N3  UNL     1     -13.793  76.866  -7.157  1.00  0.00    -0.040 NA
HETATM   20  O3  UNL     1     -16.087  76.817  -7.114  1.00  0.00    -0.251 OA
ATOM     21  H2  UNL     1     -14.032  76.922  -4.678  1.00  0.00     0.163 HD
ENDBRANCH  16  17
ENDBRANCH  15  16
ENDBRANCH  14  15
ENDBRANCH  13  14
ENDBRANCH  12  13
ENDBRANCH   1  12
TORSDOF 10
ENDMDL
MODEL 2
REMARK VINA RESULT: -6.250543284      3.672      7.931
REMARK  10 active torsions:
REMARK  status: ('A' for Active; 'I' for Inactive)
REMARK    1  A    between atoms: C2_2  and  C3_3 
REMARK    2  A    between atoms: C2_2  and  O1_8 
REMARK    3  A    between atoms: C2_2  and  C9_19 
REMARK    4  A    between atoms: C3_3  and  N1_4 
REMARK    5  A    between atoms: O1_8  and  C4_9 
REMARK    6  A    between atoms: C4_9  and  C5_10 
REMARK    7  A    between atoms: C5_10  and  O2_11 
REMARK    8  A    between atoms: O2_11  and  C6_12 
REMARK    9  A    between atoms: C6_12  and  C7_13 
REMARK   10  A    between atoms: C7_13  and  N2_14 
REMARK       I    between atoms: N2_14  and  C8_16 
ROOT
HETATM    1  O1  UNL     1     -15.950  78.411  -0.154  1.00  0.00    -0.367 OA
ENDROOT
BRANCH   1   2
HETATM    2  C2  UNL     1     -15.953  79.455  -0.966  1.00  0.00     0.158 C 
HETATM    3  C1  UNL     1     -15.996  79.180  -2.460  1.00  0.00     0.058 C 
BRANCH   2   4
HETATM    4  C3  UNL     1     -14.606  80.185  -0.753  1.00  0.00     0.276 C 
BRANCH   4   5
HETATM    5  N1  UNL     1     -14.806  81.502  -0.230  1.00  0.00    -0.076 N 
ATOM      6  H13 UNL     1     -15.385  82.067  -0.851  1.00  0.00     0.274 HD
ATOM      7  H12 UNL     1     -15.416  81.492   0.587  1.00  0.00     0.274 HD
ATOM      8  H11 UNL     1     -13.917  81.959  -0.028  1.00  0.00     0.274 HD
ENDBRANCH   4   5
ENDBRANCH   2   4
BRANCH   2   9
HETATM    9  C9  UNL     1     -16.973  80.509  -0.715  1.00  0.00     0.267 C 
HETATM   10  N4  UNL     1     -17.415  81.262  -1.838  1.00  0.00    -0.059 NA
HETATM   11  O4  UNL     1     -17.458  80.776   0.366  1.00  0.00    -0.273 OA
ENDBRANCH   2   9
ENDBRANCH   1   2
BRANCH   1  12
HETATM   12  C4  UNL     1     -14.898  77.836   0.408  1.00  0.00     0.195 C 
BRANCH  12  13
HETATM   13  C5  UNL     1     -14.878  77.627   1.893  1.00  0.00     0.193 C 
BRANCH  13  14
HETATM   14  O2  UNL     1     -14.307  78.823   2.443  1.00  0.00    -0.387 OA
BRANCH  14  15
HETATM   15  C6  UNL     1     -15.260  79.583   3.039  1.00  0.00     0.187 C 
BRANCH  15  16
HETATM   16  C7  UNL     1     -15.442  79.552   4.504  1.00  0.00     0.150 C 
BRANCH  16  17
HETATM   17  N2  UNL     1     -16.728  79.798   5.035  1.00  0.00    -0.343 N 
HETATM   18  C8  UNL     1     -17.131  80.101   6.320  1.00  0.00     0.328 C 
HETATM   19  N3  UNL     1     -18.569  80.301   6.526  1.00  0.00    -0.040 NA
HETATM   20  O3  UNL     1     -16.416  80.223   7.320  1.00  0.00    -0.251 OA
ATOM     21  H2  UNL     1     -17.486  79.742   4.354  1.00  0.00     0.163 HD
ENDBRANCH  16  17
ENDBRANCH  15  16
ENDBRANCH  14  15
ENDBRANCH  13  14
ENDBRANCH  12  13
ENDBRANCH   1  12
TORSDOF 10
ENDMDL
MODEL 3
REMARK VINA RESULT: -6.114959492      1.253      1.276
REMARK  10 active torsions:
REMARK  status: ('A' for Active; 'I' for Inactive)
REMARK    1  A    between atoms: C2_2  and  C3_3 
REMARK    2  A    between atoms: C2_2  and  O1_8 
REMARK    3  A    between atoms: C2_2  and  C9_19 
REMARK    4  A    between atoms: C3_3  and  N1_4 
REMARK    5  A    between atoms: O1_8  and  C4_9 
REMARK    6  A    between atoms: C4_9  and  C5_10 
REMARK    7  A    between atoms: C5_10  and  O2_11 
REMARK    8  A    between atoms: O2_11  and  C6_12 
REMARK    9  A    between atoms: C6_12  and  C7_13 
REMARK   10  A    between atoms: C7_13  and  N2_14 
REMARK       I    between atoms: N2_14  and  C8_16 
ROOT
HETATM    1  O1  UNL     1     -15.222  79.413   1.080  1.00  0.00    -0.367 OA
ENDROOT
BRANCH   1   2
HETATM    2  C2  UNL     1     -14.733  78.512   1.916  1.00  0.00     0.158 C 
HETATM    3  C1  UNL     1     -15.688  77.456   2.446  1.00  0.00     0.058 C 
BRANCH   2   4
HETATM    4  C3  UNL     1     -14.280  79.283   3.180  1.00  0.00     0.276 C 
BRANCH   4   5
HETATM    5  N1  UNL     1     -15.401  79.797   3.904  1.00  0.00    -0.076 N 
ATOM      6  H13 UNL     1     -15.105  80.352   4.707  1.00  0.00     0.274 HD
ATOM      7  H12 UNL     1     -15.884  80.527   3.379  1.00  0.00     0.274 HD
ATOM      8  H11 UNL     1     -16.038  79.051   4.180  1.00  0.00     0.274 HD
ENDBRANCH   4   5
ENDBRANCH   2   4
BRANCH   2   9
HETATM    9  C9  UNL     1     -13.510  77.781   1.488  1.00  0.00     0.267 C 
HETATM   10  N4  UNL     1     -13.661  76.407   1.155  1.00  0.00    -0.059 NA
HETATM   11  O4  UNL     1     -12.398  78.261   1.400  1.00  0.00    -0.273 OA
ENDBRANCH   2   9
ENDBRANCH   1   2
BRANCH   1  12
HETATM   12  C4  UNL     1     -15.136  79.409  -0.241  1.00  0.00     0.195 C 
BRANCH  12  13
HETATM   13  C5  UNL     1     -16.020  80.322  -1.039  1.00  0.00     0.193 C 
BRANCH  13  14
HETATM   14  O2  UNL     1     -16.290  79.622  -2.263  1.00  0.00    -0.387 OA
BRANCH  14  15
HETATM   15  C6  UNL     1     -16.267  78.279  -2.066  1.00  0.00     0.187 C 
BRANCH  15  16
HETATM   16  C7  UNL     1     -15.960  77.359  -3.180  1.00  0.00     0.150 C 
BRANCH  16  17
HETATM   17  N2  UNL     1     -16.535  77.608  -4.445  1.00  0.00    -0.343 N 
HETATM   18  C8  UNL     1     -16.038  77.410  -5.718  1.00  0.00     0.328 C 
HETATM   19  N3  UNL     1     -16.916  77.781  -6.831  1.00  0.00    -0.040 NA
HETATM   20  O3  UNL     1     -14.932  76.953  -6.027  1.00  0.00    -0.251 OA
ATOM     21  H2  UNL     1     -17.476  78.002  -4.414  1.00  0.00     0.163 HD
ENDBRANCH  16  17
ENDBRANCH  15  16
ENDBRANCH  14  15
ENDBRANCH  13  14
ENDBRANCH  12  13
ENDBRANCH   1  12
TORSDOF 10
ENDMDL
MODEL 4
REMARK VINA RESULT: -6.101975243      1.263      1.448
REMARK  10 active torsions:
REMARK  status: ('A' for Active; 'I' for Inactive)
REMARK    1  A    between atoms: C2_2  and  C3_3 
REMARK    2  A    between atoms: C2_2  and  O1_8 
REMARK    3  A    between atoms: C2_2  and  C9_19 
REMARK    4  A    between atoms: C3_3  and  N1_4 
REMARK    5  A    between atoms: O1_8  and  C4_9 
REMARK    6  A    between atoms: C4_9  and  C5_10 
REMARK    7  A    between atoms: C5_10  and  O2_11 
REMARK    8  A    between atoms: O2_11  and  C6_12 
REMARK    9  A    between atoms: C6_12  and  C7_13 
REMARK   10  A    between atoms: C7_13  and  N2_14 
REMARK       I    between atoms: N2_14  and  C8_16 
ROOT
HETATM    1  O1  UNL     1     -15.462  78.935   0.880  1.00  0.00    -0.367 OA
ENDROOT
BRANCH   1   2
HETATM    2  C2  UNL     1     -14.825  78.242   1.809  1.00  0.00     0.158 C 
HETATM    3  C1  UNL     1     -15.623  77.199   2.575  1.00  0.00     0.058 C 
BRANCH   2   4
HETATM    4  C3  UNL     1     -14.385  79.255   2.892  1.00  0.00     0.276 C 
BRANCH   4   5
HETATM    5  N1  UNL     1     -15.222  79.175   4.050  1.00  0.00    -0.076 N 
ATOM      6  H13 UNL     1     -15.686  78.270   4.114  1.00  0.00     0.274 HD
ATOM      7  H12 UNL     1     -14.672  79.130   4.907  1.00  0.00     0.274 HD
ATOM      8  H11 UNL     1     -15.894  79.942   4.075  1.00  0.00     0.274 HD
ENDBRANCH   4   5
ENDBRANCH   2   4
BRANCH   2   9
HETATM    9  C9  UNL     1     -13.557  77.575   1.409  1.00  0.00     0.267 C 
HETATM   10  N4  UNL     1     -13.638  76.208   1.025  1.00  0.00    -0.059 NA
HETATM   11  O4  UNL     1     -12.463  78.101   1.383  1.00  0.00    -0.273 OA
ENDBRANCH   2   9
ENDBRANCH   1   2
BRANCH   1  12
HETATM   12  C4  UNL     1     -15.318  80.221   0.600  1.00  0.00     0.195 C 
BRANCH  12  13
HETATM   13  C5  UNL     1     -15.127  80.648  -0.826  1.00  0.00     0.193 C 
BRANCH  13  14
HETATM   14  O2  UNL     1     -16.363  80.341  -1.488  1.00  0.00    -0.387 OA
BRANCH  14  15
HETATM   15  C6  UNL     1     -16.147  79.556  -2.575  1.00  0.00     0.187 C 
BRANCH  15  16
HETATM   16  C7  UNL     1     -16.274  78.088  -2.482  1.00  0.00     0.150 C 
BRANCH  16  17
HETATM   17  N2  UNL     1     -15.867  77.300  -3.581  1.00  0.00    -0.343 N 
HETATM   18  C8  UNL     1     -16.255  77.328  -4.906  1.00  0.00     0.328 C 
HETATM   19  N3  UNL     1     -15.618  76.354  -5.797  1.00  0.00    -0.040 NA
HETATM   20  O3  UNL     1     -17.081  78.084  -5.428  1.00  0.00    -0.251 OA
ATOM     21  H2  UNL     1     -15.168  76.591  -3.359  1.00  0.00     0.163 HD
ENDBRANCH  16  17
ENDBRANCH  15  16
ENDBRANCH  14  15
ENDBRANCH  13  14
ENDBRANCH  12  13
ENDBRANCH   1  12
TORSDOF 10
ENDMDL
MODEL 5
REMARK VINA RESULT: -6.100451556      3.814      7.594
REMARK  10 active torsions:
REMARK  status: ('A' for Active; 'I' for Inactive)
REMARK    1  A    between atoms: C2_2  and  C3_3 
REMARK    2  A    between atoms: C2_2  and  O1_8 
REMARK    3  A    between atoms: C2_2  and  C9_19 
REMARK    4  A    between atoms: C3_3  and  N1_4 
REMARK    5  A    between atoms: O1_8  and  C4_9 
REMARK    6  A    between atoms: C4_9  and  C5_10 
REMARK    7  A    between atoms: C5_10  and  O2_11 
REMARK    8  A    between atoms: O2_11  and  C6_12 
REMARK    9  A    between atoms: C6_12  and  C7_13 
REMARK   10  A    between atoms: C7_13  and  N2_14 
REMARK       I    between atoms: N2_14  and  C8_16 
ROOT
HETATM    1  O1  UNL     1     -15.917  78.641  -0.307  1.00  0.00    -0.367 OA
ENDROOT
BRANCH   1   2
HETATM    2  C2  UNL     1     -15.938  79.621  -1.195  1.00  0.00     0.158 C 
HETATM    3  C1  UNL     1     -15.894  79.237  -2.664  1.00  0.00     0.058 C 
BRANCH   2   4
HETATM    4  C3  UNL     1     -14.644  80.442  -0.978  1.00  0.00     0.276 C 
BRANCH   4   5
HETATM    5  N1  UNL     1     -14.886  81.587  -0.155  1.00  0.00    -0.076 N 
ATOM      6  H13 UNL     1     -15.705  82.107  -0.470  1.00  0.00     0.274 HD
ATOM      7  H12 UNL     1     -15.217  81.319   0.772  1.00  0.00     0.274 HD
ATOM      8  H11 UNL     1     -14.062  82.184  -0.100  1.00  0.00     0.274 HD
ENDBRANCH   4   5
ENDBRANCH   2   4
BRANCH   2   9
HETATM    9  C9  UNL     1     -17.024  80.630  -1.067  1.00  0.00     0.267 C 
HETATM   10  N4  UNL     1     -17.643  80.757   0.207  1.00  0.00    -0.059 NA
HETATM   11  O4  UNL     1     -17.422  81.352  -1.959  1.00  0.00    -0.273 OA
ENDBRANCH   2   9
ENDBRANCH   1   2
BRANCH   1  12
HETATM   12  C4  UNL     1     -15.013  77.679  -0.197  1.00  0.00     0.195 C 
BRANCH  12  13
HETATM   13  C5  UNL     1     -14.658  77.155   1.163  1.00  0.00     0.193 C 
BRANCH  13  14
HETATM   14  O2  UNL     1     -14.135  78.280   1.885  1.00  0.00    -0.387 OA
BRANCH  14  15
HETATM   15  C6  UNL     1     -14.886  78.536   2.987  1.00  0.00     0.187 C 
BRANCH  15  16
HETATM   16  C7  UNL     1     -14.779  79.832   3.687  1.00  0.00     0.150 C 
BRANCH  16  17
HETATM   17  N2  UNL     1     -15.147  79.902   5.049  1.00  0.00    -0.343 N 
HETATM   18  C8  UNL     1     -16.386  80.033   5.644  1.00  0.00     0.328 C 
HETATM   19  N3  UNL     1     -16.409  80.070   7.109  1.00  0.00    -0.040 NA
HETATM   20  O3  UNL     1     -17.481  80.123   5.080  1.00  0.00    -0.251 OA
ATOM     21  H2  UNL     1     -14.366  79.846   5.703  1.00  0.00     0.163 HD
ENDBRANCH  16  17
ENDBRANCH  15  16
ENDBRANCH  14  15
ENDBRANCH  13  14
ENDBRANCH  12  13
ENDBRANCH   1  12
TORSDOF 10
ENDMDL
