MODEL 1
REMARK VINA RESULT: -6.878450700      0.000      0.000
REMARK  10 active torsions:
REMARK  status: ('A' for Active; 'I' for Inactive)
REMARK    1  A    between atoms: C2_2  and  N1_3 
REMARK    2  A    between atoms: N1_3  and  C3_6 
REMARK    3  A    between atoms: C3_6  and  C4_7 
REMARK       I    between atoms: C4_7  and  N2_9 
REMARK       I    between atoms: N2_9  and  C5_11 
REMARK       I    between atoms: C5_11  and  N3_13 
REMARK    4  A    between atoms: N3_13  and  C6_15 
REMARK    5  A    between atoms: C6_15  and  C7_16 
REMARK    6  A    between atoms: C7_16  and  O3_17 
REMARK    7  A    between atoms: C7_16  and  C8_19 
REMARK    8  A    between atoms: C7_16  and  C9_24 
REMARK    9  A    between atoms: C8_19  and  N4_20 
REMARK   10  A    between atoms: C9_24  and  O4_25 
ROOT
HETATM    1  C4  UNL     1     -14.653  79.591   2.789  1.00  0.00     0.251 C 
HETATM    2  O1  UNL     1     -15.256  80.368   2.030  1.00  0.00    -0.271 OA
HETATM    3  N2  UNL     1     -14.156  78.347   2.444  1.00  0.00    -0.278 N 
ATOM      4  H2  UNL     1     -13.684  77.832   3.187  1.00  0.00     0.173 HD
HETATM    5  C5  UNL     1     -14.222  77.711   1.206  1.00  0.00     0.322 C 
HETATM    6  O2  UNL     1     -13.670  76.548   1.189  1.00  0.00    -0.247 OA
HETATM    7  N3  UNL     1     -14.823  78.269   0.090  1.00  0.00    -0.340 N 
ATOM      8  H3  UNL     1     -15.191  79.214   0.203  1.00  0.00     0.164 HD
ENDROOT
BRANCH   7   9
HETATM    9  C6  UNL     1     -14.990  77.678  -1.202  1.00  0.00     0.166 C 
BRANCH   9  10
HETATM   10  C7  UNL     1     -16.172  78.111  -1.961  1.00  0.00     0.118 C 
BRANCH  10  11
HETATM   11  O3  UNL     1     -17.355  78.084  -1.185  1.00  0.00    -0.384 OA
ATOM     12  H3  UNL     1     -18.083  78.516  -1.617  1.00  0.00     0.210 HD
ENDBRANCH  10  11
BRANCH  10  13
HETATM   13  C8  UNL     1     -15.950  79.707  -2.002  1.00  0.00     0.271 C 
BRANCH  13  14
HETATM   14  N4  UNL     1     -17.148  80.356  -1.603  1.00  0.00    -0.076 N 
ATOM     15  H43 UNL     1     -17.980  79.847  -1.899  1.00  0.00     0.274 HD
ATOM     16  H42 UNL     1     -17.298  80.306  -0.595  1.00  0.00     0.274 HD
ATOM     17  H41 UNL     1     -17.139  81.316  -1.946  1.00  0.00     0.274 HD
ENDBRANCH  13  14
ENDBRANCH  10  13
BRANCH  10  18
HETATM   18  C9  UNL     1     -16.305  77.689  -3.349  1.00  0.00     0.205 C 
BRANCH  18  19
HETATM   19  O4  UNL     1     -15.480  76.597  -3.613  1.00  0.00    -0.398 OA
ATOM     20  H4  UNL     1     -15.974  75.786  -3.573  1.00  0.00     0.209 HD
ENDBRANCH  18  19
ENDBRANCH  10  18
ENDBRANCH   9  10
ENDBRANCH   7   9
BRANCH   1  21
HETATM   21  C3  UNL     1     -14.470  80.102   4.213  1.00  0.00     0.335 C 
BRANCH  21  22
HETATM   22  N1  UNL     1     -15.283  79.278   5.068  1.00  0.00    -0.067 N 
ATOM     23  H12 UNL     1     -14.855  79.111   5.979  1.00  0.00     0.277 HD
ATOM     24  H11 UNL     1     -15.326  78.307   4.758  1.00  0.00     0.277 HD
BRANCH  22  25
HETATM   25  C2  UNL     1     -16.603  79.900   5.169  1.00  0.00     0.228 C 
HETATM   26  C1  UNL     1     -16.913  80.219   6.604  1.00  0.00     0.034 C 
ENDBRANCH  22  25
ENDBRANCH  21  22
ENDBRANCH   1  21
TORSDOF 10
ENDMDL
MODEL 2
REMARK VINA RESULT: -6.851318289      2.323      7.210
REMARK  10 active torsions:
REMARK  status: ('A' for Active; 'I' for Inactive)
REMARK    1  A    between atoms: C2_2  and  N1_3 
REMARK    2  A    between atoms: N1_3  and  C3_6 
REMARK    3  A    between atoms: C3_6  and  C4_7 
REMARK       I    between atoms: C4_7  and  N2_9 
REMARK       I    between atoms: N2_9  and  C5_11 
REMARK       I    between atoms: C5_11  and  N3_13 
REMARK    4  A    between atoms: N3_13  and  C6_15 
REMARK    5  A    between atoms: C6_15  and  C7_16 
REMARK    6  A    between atoms: C7_16  and  O3_17 
REMARK    7  A    between atoms: C7_16  and  C8_19 
REMARK    8  A    between atoms: C7_16  and  C9_24 
REMARK    9  A    between atoms: C8_19  and  N4_20 
REMARK   10  A    between atoms: C9_24  and  O4_25 
ROOT
HETATM    1  C4  UNL     1     -16.140  77.935  -3.420  1.00  0.00     0.251 C 
HETATM    2  O1  UNL     1     -15.482  77.014  -2.909  1.00  0.00    -0.271 OA
HETATM    3  N2  UNL     1     -16.402  79.163  -2.838  1.00  0.00    -0.278 N 
ATOM      4  H2  UNL     1     -16.960  79.811  -3.394  1.00  0.00     0.173 HD
HETATM    5  C5  UNL     1     -15.997  79.621  -1.587  1.00  0.00     0.322 C 
HETATM    6  O2  UNL     1     -16.398  80.814  -1.315  1.00  0.00    -0.247 OA
HETATM    7  N3  UNL     1     -15.232  78.871  -0.708  1.00  0.00    -0.340 N 
ATOM      8  H3  UNL     1     -14.932  77.955  -1.042  1.00  0.00     0.164 HD
ENDROOT
BRANCH   7   9
HETATM    9  C6  UNL     1     -14.815  79.229   0.613  1.00  0.00     0.166 C 
BRANCH   9  10
HETATM   10  C7  UNL     1     -14.201  78.155   1.408  1.00  0.00     0.118 C 
BRANCH  10  11
HETATM   11  O3  UNL     1     -12.790  78.245   1.445  1.00  0.00    -0.384 OA
ATOM     12  H3  UNL     1     -12.369  77.398   1.358  1.00  0.00     0.210 HD
ENDBRANCH  10  11
BRANCH  10  13
HETATM   13  C8  UNL     1     -14.512  78.660   2.908  1.00  0.00     0.271 C 
BRANCH  13  14
HETATM   14  N4  UNL     1     -15.583  79.589   2.875  1.00  0.00    -0.076 N 
ATOM     15  H43 UNL     1     -16.340  79.286   2.262  1.00  0.00     0.274 HD
ATOM     16  H42 UNL     1     -16.106  79.608   3.751  1.00  0.00     0.274 HD
ATOM     17  H41 UNL     1     -15.223  80.508   2.620  1.00  0.00     0.274 HD
ENDBRANCH  13  14
ENDBRANCH  10  13
BRANCH  10  18
HETATM   18  C9  UNL     1     -14.756  76.812   1.315  1.00  0.00     0.205 C 
BRANCH  18  19
HETATM   19  O4  UNL     1     -15.789  76.641   2.236  1.00  0.00    -0.398 OA
ATOM     20  H4  UNL     1     -16.134  75.757   2.192  1.00  0.00     0.209 HD
ENDBRANCH  18  19
ENDBRANCH  10  18
ENDBRANCH   9  10
ENDBRANCH   7   9
BRANCH   1  21
HETATM   21  C3  UNL     1     -16.684  77.635  -4.812  1.00  0.00     0.335 C 
BRANCH  21  22
HETATM   22  N1  UNL     1     -15.646  77.959  -5.754  1.00  0.00    -0.067 N 
ATOM     23  H12 UNL     1     -14.900  78.520  -5.343  1.00  0.00     0.277 HD
ATOM     24  H11 UNL     1     -15.948  78.630  -6.460  1.00  0.00     0.277 HD
BRANCH  22  25
HETATM   25  C2  UNL     1     -15.159  76.707  -6.334  1.00  0.00     0.228 C 
HETATM   26  C1  UNL     1     -13.929  76.966  -7.157  1.00  0.00     0.034 C 
ENDBRANCH  22  25
ENDBRANCH  21  22
ENDBRANCH   1  21
TORSDOF 10
ENDMDL
MODEL 3
REMARK VINA RESULT: -6.759097306      1.905      6.720
REMARK  10 active torsions:
REMARK  status: ('A' for Active; 'I' for Inactive)
REMARK    1  A    between atoms: C2_2  and  N1_3 
REMARK    2  A    between atoms: N1_3  and  C3_6 
REMARK    3  A    between atoms: C3_6  and  C4_7 
REMARK       I    between atoms: C4_7  and  N2_9 
REMARK       I    between atoms: N2_9  and  C5_11 
REMARK       I    between atoms: C5_11  and  N3_13 
REMARK    4  A    between atoms: N3_13  and  C6_15 
REMARK    5  A    between atoms: C6_15  and  C7_16 
REMARK    6  A    between atoms: C7_16  and  O3_17 
REMARK    7  A    between atoms: C7_16  and  C8_19 
REMARK    8  A    between atoms: C7_16  and  C9_24 
REMARK    9  A    between atoms: C8_19  and  N4_20 
REMARK   10  A    between atoms: C9_24  and  O4_25 
ROOT
HETATM    1  C4  UNL     1     -16.156  78.806  -1.972  1.00  0.00     0.251 C 
HETATM    2  O1  UNL     1     -16.676  77.931  -1.259  1.00  0.00    -0.271 OA
HETATM    3  N2  UNL     1     -15.577  79.979  -1.521  1.00  0.00    -0.278 N 
ATOM      4  H2  UNL     1     -15.193  80.593  -2.239  1.00  0.00     0.173 HD
HETATM    5  C5  UNL     1     -15.455  80.424  -0.206  1.00  0.00     0.322 C 
HETATM    6  O2  UNL     1     -14.869  81.565  -0.095  1.00  0.00    -0.247 OA
HETATM    7  N3  UNL     1     -15.919  79.712   0.889  1.00  0.00    -0.340 N 
ATOM      8  H3  UNL     1     -16.329  78.799   0.691  1.00  0.00     0.164 HD
ENDROOT
BRANCH   7   9
HETATM    9  C6  UNL     1     -15.891  80.106   2.264  1.00  0.00     0.166 C 
BRANCH   9  10
HETATM   10  C7  UNL     1     -14.854  79.476   3.094  1.00  0.00     0.118 C 
BRANCH  10  11
HETATM   11  O3  UNL     1     -13.775  80.348   3.368  1.00  0.00    -0.384 OA
ATOM     12  H3  UNL     1     -13.434  80.239   4.248  1.00  0.00     0.210 HD
ENDBRANCH  10  11
BRANCH  10  13
HETATM   13  C8  UNL     1     -15.557  79.501   4.545  1.00  0.00     0.271 C 
BRANCH  13  14
HETATM   14  N4  UNL     1     -16.964  79.417   4.384  1.00  0.00    -0.076 N 
ATOM     15  H43 UNL     1     -17.437  79.153   5.247  1.00  0.00     0.274 HD
ATOM     16  H42 UNL     1     -17.395  80.332   4.257  1.00  0.00     0.274 HD
ATOM     17  H41 UNL     1     -17.176  78.780   3.616  1.00  0.00     0.274 HD
ENDBRANCH  13  14
ENDBRANCH  10  13
BRANCH  10  18
HETATM   18  C9  UNL     1     -14.507  78.084   2.841  1.00  0.00     0.205 C 
BRANCH  18  19
HETATM   19  O4  UNL     1     -15.636  77.354   2.472  1.00  0.00    -0.398 OA
ATOM     20  H4  UNL     1     -16.086  77.776   1.750  1.00  0.00     0.209 HD
ENDBRANCH  18  19
ENDBRANCH  10  18
ENDBRANCH   9  10
ENDBRANCH   7   9
BRANCH   1  21
HETATM   21  C3  UNL     1     -16.183  78.511  -3.467  1.00  0.00     0.335 C 
BRANCH  21  22
HETATM   22  N1  UNL     1     -16.744  77.197  -3.632  1.00  0.00    -0.067 N 
ATOM     23  H12 UNL     1     -17.691  77.215  -4.010  1.00  0.00     0.277 HD
ATOM     24  H11 UNL     1     -16.961  76.745  -2.743  1.00  0.00     0.277 HD
BRANCH  22  25
HETATM   25  C2  UNL     1     -15.821  76.415  -4.454  1.00  0.00     0.228 C 
HETATM   26  C1  UNL     1     -15.442  77.192  -5.683  1.00  0.00     0.034 C 
ENDBRANCH  22  25
ENDBRANCH  21  22
ENDBRANCH   1  21
TORSDOF 10
ENDMDL
MODEL 4
REMARK VINA RESULT: -6.510104906      2.162      6.946
REMARK  10 active torsions:
REMARK  status: ('A' for Active; 'I' for Inactive)
REMARK    1  A    between atoms: C2_2  and  N1_3 
REMARK    2  A    between atoms: N1_3  and  C3_6 
REMARK    3  A    between atoms: C3_6  and  C4_7 
REMARK       I    between atoms: C4_7  and  N2_9 
REMARK       I    between atoms: N2_9  and  C5_11 
REMARK       I    between atoms: C5_11  and  N3_13 
REMARK    4  A    between atoms: N3_13  and  C6_15 
REMARK    5  A    between atoms: C6_15  and  C7_16 
REMARK    6  A    between atoms: C7_16  and  O3_17 
REMARK    7  A    between atoms: C7_16  and  C8_19 
REMARK    8  A    between atoms: C7_16  and  C9_24 
REMARK    9  A    between atoms: C8_19  and  N4_20 
REMARK   10  A    between atoms: C9_24  and  O4_25 
ROOT
HETATM    1  C4  UNL     1     -16.173  78.190  -2.439  1.00  0.00     0.251 C 
HETATM    2  O1  UNL     1     -15.642  77.338  -1.707  1.00  0.00    -0.271 OA
HETATM    3  N2  UNL     1     -16.478  79.490  -2.079  1.00  0.00    -0.278 N 
ATOM      4  H2  UNL     1     -16.914  80.064  -2.801  1.00  0.00     0.173 HD
HETATM    5  C5  UNL     1     -16.263  80.112  -0.850  1.00  0.00     0.322 C 
HETATM    6  O2  UNL     1     -16.657  81.337  -0.811  1.00  0.00    -0.247 OA
HETATM    7  N3  UNL     1     -15.679  79.479   0.235  1.00  0.00    -0.340 N 
ATOM      8  H3  UNL     1     -15.364  78.521   0.081  1.00  0.00     0.164 HD
ENDROOT
BRANCH   7   9
HETATM    9  C6  UNL     1     -15.466  80.010   1.547  1.00  0.00     0.166 C 
BRANCH   9  10
HETATM   10  C7  UNL     1     -14.511  79.277   2.391  1.00  0.00     0.118 C 
BRANCH  10  11
HETATM   11  O3  UNL     1     -13.566  80.131   3.007  1.00  0.00    -0.384 OA
ATOM     12  H3  UNL     1     -13.828  80.394   3.881  1.00  0.00     0.210 HD
ENDBRANCH  10  11
BRANCH  10  13
HETATM   13  C8  UNL     1     -15.420  78.956   3.684  1.00  0.00     0.271 C 
BRANCH  13  14
HETATM   14  N4  UNL     1     -16.486  79.890   3.748  1.00  0.00    -0.076 N 
ATOM     15  H43 UNL     1     -16.220  80.749   4.228  1.00  0.00     0.274 HD
ATOM     16  H42 UNL     1     -16.703  80.294   2.837  1.00  0.00     0.274 HD
ATOM     17  H41 UNL     1     -17.298  79.444   4.176  1.00  0.00     0.274 HD
ENDBRANCH  13  14
ENDBRANCH  10  13
BRANCH  10  18
HETATM   18  C9  UNL     1     -14.008  77.992   1.926  1.00  0.00     0.205 C 
BRANCH  18  19
HETATM   19  O4  UNL     1     -12.865  78.164   1.147  1.00  0.00    -0.398 OA
ATOM     20  H4  UNL     1     -12.088  77.915   1.633  1.00  0.00     0.209 HD
ENDBRANCH  18  19
ENDBRANCH  10  18
ENDBRANCH   9  10
ENDBRANCH   7   9
BRANCH   1  21
HETATM   21  C3  UNL     1     -16.497  77.708  -3.848  1.00  0.00     0.335 C 
BRANCH  21  22
HETATM   22  N1  UNL     1     -15.359  76.963  -4.316  1.00  0.00    -0.067 N 
ATOM     23  H12 UNL     1     -15.244  76.071  -3.834  1.00  0.00     0.277 HD
ATOM     24  H11 UNL     1     -14.471  77.382  -4.039  1.00  0.00     0.277 HD
BRANCH  22  25
HETATM   25  C2  UNL     1     -15.486  76.810  -5.765  1.00  0.00     0.228 C 
HETATM   26  C1  UNL     1     -14.160  77.056  -6.427  1.00  0.00     0.034 C 
ENDBRANCH  22  25
ENDBRANCH  21  22
ENDBRANCH   1  21
TORSDOF 10
ENDMDL
MODEL 5
REMARK VINA RESULT: -6.357506242      1.427      1.803
REMARK  10 active torsions:
REMARK  status: ('A' for Active; 'I' for Inactive)
REMARK    1  A    between atoms: C2_2  and  N1_3 
REMARK    2  A    between atoms: N1_3  and  C3_6 
REMARK    3  A    between atoms: C3_6  and  C4_7 
REMARK       I    between atoms: C4_7  and  N2_9 
REMARK       I    between atoms: N2_9  and  C5_11 
REMARK       I    between atoms: C5_11  and  N3_13 
REMARK    4  A    between atoms: N3_13  and  C6_15 
REMARK    5  A    between atoms: C6_15  and  C7_16 
REMARK    6  A    between atoms: C7_16  and  O3_17 
REMARK    7  A    between atoms: C7_16  and  C8_19 
REMARK    8  A    between atoms: C7_16  and  C9_24 
REMARK    9  A    between atoms: C8_19  and  N4_20 
REMARK   10  A    between atoms: C9_24  and  O4_25 
ROOT
HETATM    1  C4  UNL     1     -15.364  79.154   3.367  1.00  0.00     0.251 C 
HETATM    2  O1  UNL     1     -15.423  77.929   3.164  1.00  0.00    -0.271 OA
HETATM    3  N2  UNL     1     -15.193  80.127   2.399  1.00  0.00    -0.278 N 
ATOM      4  H2  UNL     1     -15.166  81.090   2.734  1.00  0.00     0.173 HD
HETATM    5  C5  UNL     1     -15.051  79.953   1.024  1.00  0.00     0.322 C 
HETATM    6  O2  UNL     1     -14.903  81.054   0.373  1.00  0.00    -0.247 OA
HETATM    7  N3  UNL     1     -15.067  78.714   0.404  1.00  0.00    -0.340 N 
ATOM      8  H3  UNL     1     -15.235  77.910   1.010  1.00  0.00     0.164 HD
ENDROOT
BRANCH   7   9
HETATM    9  C6  UNL     1     -14.876  78.428  -0.985  1.00  0.00     0.166 C 
BRANCH   9  10
HETATM   10  C7  UNL     1     -16.101  78.270  -1.784  1.00  0.00     0.118 C 
BRANCH  10  11
HETATM   11  O3  UNL     1     -17.268  78.238  -0.986  1.00  0.00    -0.384 OA
ATOM     12  H3  UNL     1     -17.984  77.778  -1.409  1.00  0.00     0.210 HD
ENDBRANCH  10  11
BRANCH  10  13
HETATM   13  C8  UNL     1     -16.269  79.753  -2.394  1.00  0.00     0.271 C 
BRANCH  13  14
HETATM   14  N4  UNL     1     -17.224  80.468  -1.626  1.00  0.00    -0.076 N 
ATOM     15  H43 UNL     1     -17.805  81.078  -2.200  1.00  0.00     0.274 HD
ATOM     16  H42 UNL     1     -17.962  79.863  -1.265  1.00  0.00     0.274 HD
ATOM     17  H41 UNL     1     -16.745  80.978  -0.883  1.00  0.00     0.274 HD
ENDBRANCH  13  14
ENDBRANCH  10  13
BRANCH  10  18
HETATM   18  C9  UNL     1     -16.078  77.368  -2.927  1.00  0.00     0.205 C 
BRANCH  18  19
HETATM   19  O4  UNL     1     -16.691  77.957  -4.032  1.00  0.00    -0.398 OA
ATOM     20  H4  UNL     1     -16.068  78.482  -4.519  1.00  0.00     0.209 HD
ENDBRANCH  18  19
ENDBRANCH  10  18
ENDBRANCH   9  10
ENDBRANCH   7   9
BRANCH   1  21
HETATM   21  C3  UNL     1     -15.500  79.566   4.828  1.00  0.00     0.335 C 
BRANCH  21  22
HETATM   22  N1  UNL     1     -16.884  79.886   5.054  1.00  0.00    -0.067 N 
ATOM     23  H12 UNL     1     -17.518  79.170   4.702  1.00  0.00     0.277 HD
ATOM     24  H11 UNL     1     -17.211  80.656   4.471  1.00  0.00     0.277 HD
BRANCH  22  25
HETATM   25  C2  UNL     1     -17.058  80.144   6.483  1.00  0.00     0.228 C 
HETATM   26  C1  UNL     1     -18.520  80.167   6.828  1.00  0.00     0.034 C 
ENDBRANCH  22  25
ENDBRANCH  21  22
ENDBRANCH   1  21
TORSDOF 10
ENDMDL
