MODEL 1
REMARK VINA RESULT: -6.769997324      0.000      0.000
REMARK  12 active torsions:
REMARK  status: ('A' for Active; 'I' for Inactive)
REMARK    1  A    between atoms: N1_1  and  C1_5 
REMARK    2  A    between atoms: C1_5  and  C2_6 
REMARK       I    between atoms: C2_6  and  N2_8 
REMARK    3  A    between atoms: N2_8  and  C3_10 
REMARK    4  A    between atoms: C3_10  and  O2_11 
REMARK    5  A    between atoms: C3_10  and  C4_13 
REMARK    6  A    between atoms: C4_13  and  C5_14 
REMARK    7  A    between atoms: C5_14  and  N3_15 
REMARK    8  A    between atoms: C5_14  and  C6_19 
REMARK       I    between atoms: C6_19  and  N4_21 
REMARK    9  A    between atoms: N4_21  and  C7_23 
REMARK   10  A    between atoms: C7_23  and  C8_24 
REMARK   11  A    between atoms: C8_24  and  C9_25 
REMARK   12  A    between atoms: C9_25  and  O4_26 
ROOT
HETATM    1  C5  UNL     1     -14.186  77.954   1.300  1.00  0.00     0.282 C 
ENDROOT
BRANCH   1   2
HETATM    2  C4  UNL     1     -14.976  77.430   0.063  1.00  0.00     0.126 C 
BRANCH   2   3
HETATM    3  C3  UNL     1     -15.228  78.554  -0.817  1.00  0.00     0.120 C 
BRANCH   3   4
HETATM    4  N2  UNL     1     -14.672  79.835  -0.668  1.00  0.00    -0.310 N 
HETATM    5  C2  UNL     1     -15.337  81.011  -0.373  1.00  0.00     0.248 C 
HETATM    6  O1  UNL     1     -14.608  82.069  -0.249  1.00  0.00    -0.271 OA
ATOM      7  H2  UNL     1     -13.662  79.907  -0.791  1.00  0.00     0.170 HD
BRANCH   5   8
HETATM    8  C1  UNL     1     -16.778  81.154  -0.194  1.00  0.00     0.332 C 
BRANCH   8   9
HETATM    9  N1  UNL     1     -17.423  81.231  -1.521  1.00  0.00    -0.071 N 
ATOM     10  H13 UNL     1     -16.810  80.909  -2.271  1.00  0.00     0.274 HD
ATOM     11  H12 UNL     1     -18.162  80.539  -1.635  1.00  0.00     0.274 HD
ATOM     12  H11 UNL     1     -17.756  82.183  -1.674  1.00  0.00     0.274 HD
ENDBRANCH   8   9
ENDBRANCH   5   8
ENDBRANCH   3   4
BRANCH   3  13
HETATM   13  O2  UNL     1     -16.034  78.370  -1.837  1.00  0.00    -0.349 OA
ATOM     14  H2  UNL     1     -16.967  78.423  -1.664  1.00  0.00     0.219 HD
ENDBRANCH   3  13
ENDBRANCH   2   3
ENDBRANCH   1   2
BRANCH   1  15
HETATM   15  N3  UNL     1     -13.075  77.111   1.501  1.00  0.00    -0.066 N 
ATOM     16  H33 UNL     1     -13.331  76.126   1.548  1.00  0.00     0.275 HD
ATOM     17  H32 UNL     1     -12.469  77.057   0.682  1.00  0.00     0.275 HD
ATOM     18  H31 UNL     1     -12.581  77.430   2.335  1.00  0.00     0.275 HD
ENDBRANCH   1  15
BRANCH   1  19
HETATM   19  C6  UNL     1     -15.159  78.101   2.386  1.00  0.00     0.248 C 
HETATM   20  O3  UNL     1     -15.649  77.003   2.830  1.00  0.00    -0.271 OA
HETATM   21  N4  UNL     1     -15.569  79.316   2.945  1.00  0.00    -0.359 N 
ATOM     22  H4  UNL     1     -15.163  80.172   2.566  1.00  0.00     0.162 HD
BRANCH  21  23
HETATM   23  C7  UNL     1     -16.532  79.447   4.029  1.00  0.00     0.125 C 
BRANCH  23  24
HETATM   24  C8  UNL     1     -15.831  79.718   5.316  1.00  0.00     0.046 C 
BRANCH  24  25
HETATM   25  C9  UNL     1     -16.921  80.110   6.325  1.00  0.00     0.165 C 
BRANCH  25  26
HETATM   26  O4  UNL     1     -16.298  80.507   7.507  1.00  0.00    -0.401 OA
ATOM     27  H4  UNL     1     -16.742  80.085   8.233  1.00  0.00     0.209 HD
ENDBRANCH  25  26
ENDBRANCH  24  25
ENDBRANCH  23  24
ENDBRANCH  21  23
ENDBRANCH   1  19
TORSDOF 12
ENDMDL
MODEL 2
REMARK VINA RESULT: -6.759700672      2.599      4.718
REMARK  12 active torsions:
REMARK  status: ('A' for Active; 'I' for Inactive)
REMARK    1  A    between atoms: N1_1  and  C1_5 
REMARK    2  A    between atoms: C1_5  and  C2_6 
REMARK       I    between atoms: C2_6  and  N2_8 
REMARK    3  A    between atoms: N2_8  and  C3_10 
REMARK    4  A    between atoms: C3_10  and  O2_11 
REMARK    5  A    between atoms: C3_10  and  C4_13 
REMARK    6  A    between atoms: C4_13  and  C5_14 
REMARK    7  A    between atoms: C5_14  and  N3_15 
REMARK    8  A    between atoms: C5_14  and  C6_19 
REMARK       I    between atoms: C6_19  and  N4_21 
REMARK    9  A    between atoms: N4_21  and  C7_23 
REMARK   10  A    between atoms: C7_23  and  C8_24 
REMARK   11  A    between atoms: C8_24  and  C9_25 
REMARK   12  A    between atoms: C9_25  and  O4_26 
ROOT
HETATM    1  C5  UNL     1     -16.722  80.353  -0.956  1.00  0.00     0.282 C 
ENDROOT
BRANCH   1   2
HETATM    2  C4  UNL     1     -15.967  79.609  -2.098  1.00  0.00     0.126 C 
BRANCH   2   3
HETATM    3  C3  UNL     1     -16.195  78.187  -1.933  1.00  0.00     0.120 C 
BRANCH   3   4
HETATM    4  N2  UNL     1     -15.837  77.198  -2.864  1.00  0.00    -0.310 N 
HETATM    5  C2  UNL     1     -16.193  77.130  -4.198  1.00  0.00     0.248 C 
HETATM    6  O1  UNL     1     -15.712  76.141  -4.873  1.00  0.00    -0.271 OA
ATOM      7  H2  UNL     1     -15.246  76.444  -2.516  1.00  0.00     0.170 HD
BRANCH   5   8
HETATM    8  C1  UNL     1     -17.058  78.074  -4.898  1.00  0.00     0.332 C 
BRANCH   8   9
HETATM    9  N1  UNL     1     -16.766  78.011  -6.346  1.00  0.00    -0.071 N 
ATOM     10  H13 UNL     1     -17.332  77.313  -6.827  1.00  0.00     0.274 HD
ATOM     11  H12 UNL     1     -17.101  78.834  -6.845  1.00  0.00     0.274 HD
ATOM     12  H11 UNL     1     -15.766  77.858  -6.476  1.00  0.00     0.274 HD
ENDBRANCH   8   9
ENDBRANCH   5   8
ENDBRANCH   3   4
BRANCH   3  13
HETATM   13  O2  UNL     1     -16.781  77.781  -0.829  1.00  0.00    -0.349 OA
ATOM     14  H2  UNL     1     -16.255  77.778  -0.039  1.00  0.00     0.219 HD
ENDBRANCH   3  13
ENDBRANCH   2   3
ENDBRANCH   1   2
BRANCH   1  15
HETATM   15  N3  UNL     1     -17.276  81.534  -1.492  1.00  0.00    -0.066 N 
ATOM     16  H33 UNL     1     -18.216  81.720  -1.145  1.00  0.00     0.275 HD
ATOM     17  H32 UNL     1     -16.827  82.377  -1.135  1.00  0.00     0.275 HD
ATOM     18  H31 UNL     1     -17.239  81.469  -2.510  1.00  0.00     0.275 HD
ENDBRANCH   1  15
BRANCH   1  19
HETATM   19  C6  UNL     1     -15.783  80.467   0.163  1.00  0.00     0.248 C 
HETATM   20  O3  UNL     1     -14.896  81.384   0.039  1.00  0.00    -0.271 OA
HETATM   21  N4  UNL     1     -15.794  79.667   1.310  1.00  0.00    -0.359 N 
ATOM     22  H4  UNL     1     -16.509  78.942   1.376  1.00  0.00     0.162 HD
BRANCH  21  23
HETATM   23  C7  UNL     1     -14.857  79.794   2.418  1.00  0.00     0.125 C 
BRANCH  23  24
HETATM   24  C8  UNL     1     -14.657  78.475   3.083  1.00  0.00     0.046 C 
BRANCH  24  25
HETATM   25  C9  UNL     1     -14.508  77.444   1.954  1.00  0.00     0.165 C 
BRANCH  25  26
HETATM   26  O4  UNL     1     -15.672  76.679   1.906  1.00  0.00    -0.401 OA
ATOM     27  H4  UNL     1     -15.530  75.960   1.302  1.00  0.00     0.209 HD
ENDBRANCH  25  26
ENDBRANCH  24  25
ENDBRANCH  23  24
ENDBRANCH  21  23
ENDBRANCH   1  19
TORSDOF 12
ENDMDL
MODEL 3
REMARK VINA RESULT: -6.544863834      2.729      4.323
REMARK  12 active torsions:
REMARK  status: ('A' for Active; 'I' for Inactive)
REMARK    1  A    between atoms: N1_1  and  C1_5 
REMARK    2  A    between atoms: C1_5  and  C2_6 
REMARK       I    between atoms: C2_6  and  N2_8 
REMARK    3  A    between atoms: N2_8  and  C3_10 
REMARK    4  A    between atoms: C3_10  and  O2_11 
REMARK    5  A    between atoms: C3_10  and  C4_13 
REMARK    6  A    between atoms: C4_13  and  C5_14 
REMARK    7  A    between atoms: C5_14  and  N3_15 
REMARK    8  A    between atoms: C5_14  and  C6_19 
REMARK       I    between atoms: C6_19  and  N4_21 
REMARK    9  A    between atoms: N4_21  and  C7_23 
REMARK   10  A    between atoms: C7_23  and  C8_24 
REMARK   11  A    between atoms: C8_24  and  C9_25 
REMARK   12  A    between atoms: C9_25  and  O4_26 
ROOT
HETATM    1  C5  UNL     1     -16.709  80.377  -0.949  1.00  0.00     0.282 C 
ENDROOT
BRANCH   1   2
HETATM    2  C4  UNL     1     -15.989  79.621  -2.107  1.00  0.00     0.126 C 
BRANCH   2   3
HETATM    3  C3  UNL     1     -16.267  78.206  -1.958  1.00  0.00     0.120 C 
BRANCH   3   4
HETATM    4  N2  UNL     1     -15.891  77.209  -2.873  1.00  0.00    -0.310 N 
HETATM    5  C2  UNL     1     -16.200  77.142  -4.218  1.00  0.00     0.248 C 
HETATM    6  O1  UNL     1     -15.710  76.143  -4.873  1.00  0.00    -0.271 OA
ATOM      7  H2  UNL     1     -15.324  76.447  -2.502  1.00  0.00     0.170 HD
BRANCH   5   8
HETATM    8  C1  UNL     1     -17.026  78.096  -4.952  1.00  0.00     0.332 C 
BRANCH   8   9
HETATM    9  N1  UNL     1     -16.703  78.005  -6.391  1.00  0.00    -0.071 N 
ATOM     10  H13 UNL     1     -15.780  77.602  -6.558  1.00  0.00     0.274 HD
ATOM     11  H12 UNL     1     -17.256  77.294  -6.869  1.00  0.00     0.274 HD
ATOM     12  H11 UNL     1     -16.806  78.927  -6.814  1.00  0.00     0.274 HD
ENDBRANCH   8   9
ENDBRANCH   5   8
ENDBRANCH   3   4
BRANCH   3  13
HETATM   13  O2  UNL     1     -16.920  77.816  -0.887  1.00  0.00    -0.349 OA
ATOM     14  H2  UNL     1     -17.756  78.232  -0.717  1.00  0.00     0.219 HD
ENDBRANCH   3  13
ENDBRANCH   2   3
ENDBRANCH   1   2
BRANCH   1  15
HETATM   15  N3  UNL     1     -17.291  81.545  -1.482  1.00  0.00    -0.066 N 
ATOM     16  H33 UNL     1     -16.608  82.155  -1.931  1.00  0.00     0.275 HD
ATOM     17  H32 UNL     1     -17.868  81.359  -2.302  1.00  0.00     0.275 HD
ATOM     18  H31 UNL     1     -17.806  82.013  -0.736  1.00  0.00     0.275 HD
ENDBRANCH   1  15
BRANCH   1  19
HETATM   19  C6  UNL     1     -15.732  80.513   0.134  1.00  0.00     0.248 C 
HETATM   20  O3  UNL     1     -14.836  81.411  -0.051  1.00  0.00    -0.271 OA
HETATM   21  N4  UNL     1     -15.716  79.753   1.308  1.00  0.00    -0.359 N 
ATOM     22  H4  UNL     1     -16.439  79.043   1.422  1.00  0.00     0.162 HD
BRANCH  21  23
HETATM   23  C7  UNL     1     -14.741  79.903   2.380  1.00  0.00     0.125 C 
BRANCH  23  24
HETATM   24  C8  UNL     1     -14.955  78.861   3.424  1.00  0.00     0.046 C 
BRANCH  24  25
HETATM   25  C9  UNL     1     -15.732  79.545   4.560  1.00  0.00     0.165 C 
BRANCH  25  26
HETATM   26  O4  UNL     1     -17.084  79.542   4.224  1.00  0.00    -0.401 OA
ATOM     27  H4  UNL     1     -17.582  79.785   4.996  1.00  0.00     0.209 HD
ENDBRANCH  25  26
ENDBRANCH  24  25
ENDBRANCH  23  24
ENDBRANCH  21  23
ENDBRANCH   1  19
TORSDOF 12
ENDMDL
MODEL 4
REMARK VINA RESULT: -6.509425412      3.063      5.118
REMARK  12 active torsions:
REMARK  status: ('A' for Active; 'I' for Inactive)
REMARK    1  A    between atoms: N1_1  and  C1_5 
REMARK    2  A    between atoms: C1_5  and  C2_6 
REMARK       I    between atoms: C2_6  and  N2_8 
REMARK    3  A    between atoms: N2_8  and  C3_10 
REMARK    4  A    between atoms: C3_10  and  O2_11 
REMARK    5  A    between atoms: C3_10  and  C4_13 
REMARK    6  A    between atoms: C4_13  and  C5_14 
REMARK    7  A    between atoms: C5_14  and  N3_15 
REMARK    8  A    between atoms: C5_14  and  C6_19 
REMARK       I    between atoms: C6_19  and  N4_21 
REMARK    9  A    between atoms: N4_21  and  C7_23 
REMARK   10  A    between atoms: C7_23  and  C8_24 
REMARK   11  A    between atoms: C8_24  and  C9_25 
REMARK   12  A    between atoms: C9_25  and  O4_26 
ROOT
HETATM    1  C5  UNL     1     -16.571  80.118  -1.132  1.00  0.00     0.282 C 
ENDROOT
BRANCH   1   2
HETATM    2  C4  UNL     1     -15.681  79.640  -2.318  1.00  0.00     0.126 C 
BRANCH   2   3
HETATM    3  C3  UNL     1     -16.258  78.419  -2.847  1.00  0.00     0.120 C 
BRANCH   3   4
HETATM    4  N2  UNL     1     -16.859  78.292  -4.109  1.00  0.00    -0.310 N 
HETATM    5  C2  UNL     1     -16.292  77.784  -5.263  1.00  0.00     0.248 C 
HETATM    6  O1  UNL     1     -17.054  77.732  -6.305  1.00  0.00    -0.271 OA
ATOM      7  H2  UNL     1     -17.825  78.610  -4.184  1.00  0.00     0.170 HD
BRANCH   5   8
HETATM    8  C1  UNL     1     -14.920  77.308  -5.401  1.00  0.00     0.332 C 
BRANCH   8   9
HETATM    9  N1  UNL     1     -14.882  76.239  -6.421  1.00  0.00    -0.071 N 
ATOM     10  H13 UNL     1     -15.729  75.671  -6.422  1.00  0.00     0.274 HD
ATOM     11  H12 UNL     1     -14.955  76.605  -7.370  1.00  0.00     0.274 HD
ATOM     12  H11 UNL     1     -14.040  75.680  -6.285  1.00  0.00     0.274 HD
ENDBRANCH   8   9
ENDBRANCH   5   8
ENDBRANCH   3   4
BRANCH   3  13
HETATM   13  O2  UNL     1     -16.218  77.343  -2.095  1.00  0.00    -0.349 OA
ATOM     14  H2  UNL     1     -15.612  76.659  -2.354  1.00  0.00     0.219 HD
ENDBRANCH   3  13
ENDBRANCH   2   3
ENDBRANCH   1   2
BRANCH   1  15
HETATM   15  N3  UNL     1     -17.305  81.244  -1.558  1.00  0.00    -0.066 N 
ATOM     16  H33 UNL     1     -17.041  81.554  -2.493  1.00  0.00     0.275 HD
ATOM     17  H32 UNL     1     -18.281  81.025  -1.756  1.00  0.00     0.275 HD
ATOM     18  H31 UNL     1     -17.199  81.976  -0.856  1.00  0.00     0.275 HD
ENDBRANCH   1  15
BRANCH   1  19
HETATM   19  C6  UNL     1     -15.685  80.258   0.027  1.00  0.00     0.248 C 
HETATM   20  O3  UNL     1     -14.876  81.251  -0.024  1.00  0.00    -0.271 OA
HETATM   21  N4  UNL     1     -15.668  79.409   1.138  1.00  0.00    -0.359 N 
ATOM     22  H4  UNL     1     -16.320  78.625   1.145  1.00  0.00     0.162 HD
BRANCH  21  23
HETATM   23  C7  UNL     1     -14.785  79.564   2.286  1.00  0.00     0.125 C 
BRANCH  23  24
HETATM   24  C8  UNL     1     -14.509  78.239   2.910  1.00  0.00     0.046 C 
BRANCH  24  25
HETATM   25  C9  UNL     1     -13.890  77.365   1.809  1.00  0.00     0.165 C 
BRANCH  25  26
HETATM   26  O4  UNL     1     -12.846  78.079   1.223  1.00  0.00    -0.401 OA
ATOM     27  H4  UNL     1     -12.168  77.461   0.974  1.00  0.00     0.209 HD
ENDBRANCH  25  26
ENDBRANCH  24  25
ENDBRANCH  23  24
ENDBRANCH  21  23
ENDBRANCH   1  19
TORSDOF 12
ENDMDL
MODEL 5
REMARK VINA RESULT: -6.478714138      1.768      3.837
REMARK  12 active torsions:
REMARK  status: ('A' for Active; 'I' for Inactive)
REMARK    1  A    between atoms: N1_1  and  C1_5 
REMARK    2  A    between atoms: C1_5  and  C2_6 
REMARK       I    between atoms: C2_6  and  N2_8 
REMARK    3  A    between atoms: N2_8  and  C3_10 
REMARK    4  A    between atoms: C3_10  and  O2_11 
REMARK    5  A    between atoms: C3_10  and  C4_13 
REMARK    6  A    between atoms: C4_13  and  C5_14 
REMARK    7  A    between atoms: C5_14  and  N3_15 
REMARK    8  A    between atoms: C5_14  and  C6_19 
REMARK       I    between atoms: C6_19  and  N4_21 
REMARK    9  A    between atoms: N4_21  and  C7_23 
REMARK   10  A    between atoms: C7_23  and  C8_24 
REMARK   11  A    between atoms: C8_24  and  C9_25 
REMARK   12  A    between atoms: C9_25  and  O4_26 
ROOT
HETATM    1  C5  UNL     1     -16.709  80.622  -0.383  1.00  0.00     0.282 C 
ENDROOT
BRANCH   1   2
HETATM    2  C4  UNL     1     -16.129  79.880  -1.625  1.00  0.00     0.126 C 
BRANCH   2   3
HETATM    3  C3  UNL     1     -16.376  78.462  -1.454  1.00  0.00     0.120 C 
BRANCH   3   4
HETATM    4  N2  UNL     1     -15.470  77.440  -1.782  1.00  0.00    -0.310 N 
HETATM    5  C2  UNL     1     -14.625  76.758  -0.926  1.00  0.00     0.248 C 
HETATM    6  O1  UNL     1     -13.902  75.827  -1.452  1.00  0.00    -0.271 OA
ATOM      7  H2  UNL     1     -15.431  77.170  -2.765  1.00  0.00     0.170 HD
BRANCH   5   8
HETATM    8  C1  UNL     1     -14.484  77.001   0.506  1.00  0.00     0.332 C 
BRANCH   8   9
HETATM    9  N1  UNL     1     -13.354  77.928   0.727  1.00  0.00    -0.071 N 
ATOM     10  H13 UNL     1     -13.201  78.551  -0.066  1.00  0.00     0.274 HD
ATOM     11  H12 UNL     1     -13.567  78.638   1.427  1.00  0.00     0.274 HD
ATOM     12  H11 UNL     1     -12.523  77.387   0.963  1.00  0.00     0.274 HD
ENDBRANCH   8   9
ENDBRANCH   5   8
ENDBRANCH   3   4
BRANCH   3  13
HETATM   13  O2  UNL     1     -17.532  78.094  -0.951  1.00  0.00    -0.349 OA
ATOM     14  H2  UNL     1     -17.555  77.897  -0.022  1.00  0.00     0.219 HD
ENDBRANCH   3  13
ENDBRANCH   2   3
ENDBRANCH   1   2
BRANCH   1  15
HETATM   15  N3  UNL     1     -17.143  81.898  -0.796  1.00  0.00    -0.066 N 
ATOM     16  H33 UNL     1     -16.625  82.654  -0.348  1.00  0.00     0.275 HD
ATOM     17  H32 UNL     1     -16.886  82.108  -1.761  1.00  0.00     0.275 HD
ATOM     18  H31 UNL     1     -18.148  81.960  -0.634  1.00  0.00     0.275 HD
ENDBRANCH   1  15
BRANCH   1  19
HETATM   19  C6  UNL     1     -15.692  80.536   0.669  1.00  0.00     0.248 C 
HETATM   20  O3  UNL     1     -14.521  80.932   0.328  1.00  0.00    -0.271 OA
HETATM   21  N4  UNL     1     -15.911  80.065   1.968  1.00  0.00    -0.359 N 
ATOM     22  H4  UNL     1     -16.852  79.752   2.205  1.00  0.00     0.162 HD
BRANCH  21  23
HETATM   23  C7  UNL     1     -14.892  79.990   3.005  1.00  0.00     0.125 C 
BRANCH  23  24
HETATM   24  C8  UNL     1     -15.293  79.013   4.056  1.00  0.00     0.046 C 
BRANCH  24  25
HETATM   25  C9  UNL     1     -16.027  79.822   5.137  1.00  0.00     0.165 C 
BRANCH  25  26
HETATM   26  O4  UNL     1     -17.390  79.800   4.846  1.00  0.00    -0.401 OA
ATOM     27  H4  UNL     1     -17.852  79.482   5.613  1.00  0.00     0.209 HD
ENDBRANCH  25  26
ENDBRANCH  24  25
ENDBRANCH  23  24
ENDBRANCH  21  23
ENDBRANCH   1  19
TORSDOF 12
ENDMDL
