MODEL 1
REMARK VINA RESULT: -7.064609236      0.000      0.000
REMARK  8 active torsions:
REMARK  status: ('A' for Active; 'I' for Inactive)
REMARK    1  A    between atoms: O1_2  and  C2_3 
REMARK    2  A    between atoms: C2_3  and  C3_4 
REMARK    3  A    between atoms: C2_3  and  C9_16 
REMARK    4  A    between atoms: C3_4  and  O2_5 
REMARK    5  A    between atoms: O2_5  and  C4_6 
REMARK    6  A    between atoms: C4_6  and  C5_7 
REMARK       I    between atoms: C5_7  and  N1_9 
REMARK    7  A    between atoms: N1_9  and  C6_11 
REMARK    8  A    between atoms: C6_11  and  C7_12 
ROOT
HETATM    1  C4  UNL     1     -15.554  79.993  -1.189  1.00  0.00     0.270 C 
ENDROOT
BRANCH   1   2
HETATM    2  O2  UNL     1     -14.660  79.826  -0.188  1.00  0.00    -0.379 OA
BRANCH   2   3
HETATM    3  C3  UNL     1     -15.072  79.930   1.097  1.00  0.00     0.209 C 
BRANCH   3   4
HETATM    4  C2  UNL     1     -14.842  78.690   1.926  1.00  0.00     0.233 C 
BRANCH   4   5
HETATM    5  O1  UNL     1     -14.524  78.993   3.235  1.00  0.00    -0.380 OA
HETATM    6  C1  UNL     1     -15.571  79.509   3.953  1.00  0.00     0.202 C 
ENDBRANCH   4   5
BRANCH   4   7
HETATM    7  C9  UNL     1     -13.811  77.803   1.373  1.00  0.00     0.262 C 
HETATM    8  N4  UNL     1     -14.193  76.543   0.852  1.00  0.00    -0.060 NA
HETATM    9  O4  UNL     1     -12.585  78.081   1.326  1.00  0.00    -0.274 OA
ENDBRANCH   4   7
ENDBRANCH   3   4
ENDBRANCH   2   3
ENDBRANCH   1   2
BRANCH   1  10
HETATM   10  C5  UNL     1     -16.147  78.767  -1.768  1.00  0.00     0.241 C 
HETATM   11  O3  UNL     1     -16.707  77.855  -1.143  1.00  0.00    -0.271 OA
HETATM   12  N1  UNL     1     -16.066  78.621  -3.201  1.00  0.00    -0.354 N 
ATOM     13  H1  UNL     1     -15.615  79.346  -3.759  1.00  0.00     0.162 HD
BRANCH  12  14
HETATM   14  C6  UNL     1     -16.616  77.460  -3.847  1.00  0.00     0.177 C 
BRANCH  14  15
HETATM   15  C7  UNL     1     -16.227  77.445  -5.264  1.00  0.00     0.055 C 
HETATM   16  N2  UNL     1     -17.104  77.945  -6.267  1.00  0.00    -0.104 NA
HETATM   17  C8  UNL     1     -15.052  76.967  -5.623  1.00  0.00     0.123 C 
HETATM   18  N3  UNL     1     -14.629  76.933  -6.988  1.00  0.00    -0.113 NA
ENDBRANCH  14  15
ENDBRANCH  12  14
ENDBRANCH   1  10
TORSDOF 8
ENDMDL
MODEL 2
REMARK VINA RESULT: -6.789844478      1.246      1.599
REMARK  8 active torsions:
REMARK  status: ('A' for Active; 'I' for Inactive)
REMARK    1  A    between atoms: O1_2  and  C2_3 
REMARK    2  A    between atoms: C2_3  and  C3_4 
REMARK    3  A    between atoms: C2_3  and  C9_16 
REMARK    4  A    between atoms: C3_4  and  O2_5 
REMARK    5  A    between atoms: O2_5  and  C4_6 
REMARK    6  A    between atoms: C4_6  and  C5_7 
REMARK       I    between atoms: C5_7  and  N1_9 
REMARK    7  A    between atoms: N1_9  and  C6_11 
REMARK    8  A    between atoms: C6_11  and  C7_12 
ROOT
HETATM    1  C4  UNL     1     -15.445  80.925  -0.301  1.00  0.00     0.270 C 
ENDROOT
BRANCH   1   2
HETATM    2  O2  UNL     1     -14.752  79.978   0.370  1.00  0.00    -0.379 OA
BRANCH   2   3
HETATM    3  C3  UNL     1     -14.989  79.787   1.689  1.00  0.00     0.209 C 
BRANCH   3   4
HETATM    4  C2  UNL     1     -14.845  78.356   2.145  1.00  0.00     0.233 C 
BRANCH   4   5
HETATM    5  O1  UNL     1     -14.697  78.261   3.515  1.00  0.00    -0.380 OA
HETATM    6  C1  UNL     1     -15.226  79.322   4.203  1.00  0.00     0.202 C 
ENDBRANCH   4   5
BRANCH   4   7
HETATM    7  C9  UNL     1     -13.739  77.645   1.492  1.00  0.00     0.262 C 
HETATM    8  N4  UNL     1     -13.991  76.394   0.879  1.00  0.00    -0.060 NA
HETATM    9  O4  UNL     1     -12.556  78.071   1.433  1.00  0.00    -0.274 OA
ENDBRANCH   4   7
ENDBRANCH   3   4
ENDBRANCH   2   3
ENDBRANCH   1   2
BRANCH   1  10
HETATM   10  C5  UNL     1     -16.373  80.454  -1.354  1.00  0.00     0.241 C 
HETATM   11  O3  UNL     1     -17.362  81.062  -1.789  1.00  0.00    -0.271 OA
HETATM   12  N1  UNL     1     -16.099  79.160  -1.929  1.00  0.00    -0.354 N 
ATOM     13  H1  UNL     1     -15.296  78.621  -1.604  1.00  0.00     0.162 HD
BRANCH  12  14
HETATM   14  C6  UNL     1     -16.950  78.625  -2.958  1.00  0.00     0.177 C 
BRANCH  14  15
HETATM   15  C7  UNL     1     -16.208  77.639  -3.757  1.00  0.00     0.055 C 
HETATM   16  N2  UNL     1     -15.322  76.715  -3.136  1.00  0.00    -0.104 NA
HETATM   17  C8  UNL     1     -16.359  77.599  -5.066  1.00  0.00     0.123 C 
HETATM   18  N3  UNL     1     -15.661  76.658  -5.884  1.00  0.00    -0.113 NA
ENDBRANCH  14  15
ENDBRANCH  12  14
ENDBRANCH   1  10
TORSDOF 8
ENDMDL
MODEL 3
REMARK VINA RESULT: -6.603909132      1.632      1.897
REMARK  8 active torsions:
REMARK  status: ('A' for Active; 'I' for Inactive)
REMARK    1  A    between atoms: O1_2  and  C2_3 
REMARK    2  A    between atoms: C2_3  and  C3_4 
REMARK    3  A    between atoms: C2_3  and  C9_16 
REMARK    4  A    between atoms: C3_4  and  O2_5 
REMARK    5  A    between atoms: O2_5  and  C4_6 
REMARK    6  A    between atoms: C4_6  and  C5_7 
REMARK       I    between atoms: C5_7  and  N1_9 
REMARK    7  A    between atoms: N1_9  and  C6_11 
REMARK    8  A    between atoms: C6_11  and  C7_12 
ROOT
HETATM    1  C4  UNL     1     -15.260  80.708  -0.233  1.00  0.00     0.270 C 
ENDROOT
BRANCH   1   2
HETATM    2  O2  UNL     1     -15.609  80.433   1.044  1.00  0.00    -0.379 OA
BRANCH   2   3
HETATM    3  C3  UNL     1     -14.704  79.868   1.876  1.00  0.00     0.209 C 
BRANCH   3   4
HETATM    4  C2  UNL     1     -15.250  78.733   2.708  1.00  0.00     0.233 C 
BRANCH   4   5
HETATM    5  O1  UNL     1     -14.883  78.842   4.036  1.00  0.00    -0.380 OA
HETATM    6  C1  UNL     1     -15.678  79.690   4.761  1.00  0.00     0.202 C 
ENDBRANCH   4   5
BRANCH   4   7
HETATM    7  C9  UNL     1     -14.864  77.408   2.210  1.00  0.00     0.262 C 
HETATM    8  N4  UNL     1     -13.535  77.198   1.768  1.00  0.00    -0.060 NA
HETATM    9  O4  UNL     1     -15.640  76.419   2.144  1.00  0.00    -0.274 OA
ENDBRANCH   4   7
ENDBRANCH   3   4
ENDBRANCH   2   3
ENDBRANCH   1   2
BRANCH   1  10
HETATM   10  C5  UNL     1     -16.220  80.315  -1.288  1.00  0.00     0.241 C 
HETATM   11  O3  UNL     1     -17.206  80.965  -1.665  1.00  0.00    -0.271 OA
HETATM   12  N1  UNL     1     -15.982  79.052  -1.944  1.00  0.00    -0.354 N 
ATOM     13  H1  UNL     1     -15.183  78.481  -1.669  1.00  0.00     0.162 HD
BRANCH  12  14
HETATM   14  C6  UNL     1     -16.866  78.593  -2.981  1.00  0.00     0.177 C 
BRANCH  14  15
HETATM   15  C7  UNL     1     -16.182  77.594  -3.814  1.00  0.00     0.055 C 
HETATM   16  N2  UNL     1     -15.354  76.597  -3.226  1.00  0.00    -0.104 NA
HETATM   17  C8  UNL     1     -16.329  77.611  -5.124  1.00  0.00     0.123 C 
HETATM   18  N3  UNL     1     -15.685  76.661  -5.976  1.00  0.00    -0.113 NA
ENDBRANCH  14  15
ENDBRANCH  12  14
ENDBRANCH   1  10
TORSDOF 8
ENDMDL
MODEL 4
REMARK VINA RESULT: -6.497956880      1.170      1.462
REMARK  8 active torsions:
REMARK  status: ('A' for Active; 'I' for Inactive)
REMARK    1  A    between atoms: O1_2  and  C2_3 
REMARK    2  A    between atoms: C2_3  and  C3_4 
REMARK    3  A    between atoms: C2_3  and  C9_16 
REMARK    4  A    between atoms: C3_4  and  O2_5 
REMARK    5  A    between atoms: O2_5  and  C4_6 
REMARK    6  A    between atoms: C4_6  and  C5_7 
REMARK       I    between atoms: C5_7  and  N1_9 
REMARK    7  A    between atoms: N1_9  and  C6_11 
REMARK    8  A    between atoms: C6_11  and  C7_12 
ROOT
HETATM    1  C4  UNL     1     -16.396  80.202  -1.165  1.00  0.00     0.270 C 
ENDROOT
BRANCH   1   2
HETATM    2  O2  UNL     1     -16.131  80.483   0.130  1.00  0.00    -0.379 OA
BRANCH   2   3
HETATM    3  C3  UNL     1     -14.918  80.172   0.645  1.00  0.00     0.209 C 
BRANCH   3   4
HETATM    4  C2  UNL     1     -14.973  79.326   1.894  1.00  0.00     0.233 C 
BRANCH   4   5
HETATM    5  O1  UNL     1     -14.498  80.004   3.000  1.00  0.00    -0.380 OA
HETATM    6  C1  UNL     1     -15.189  79.734   4.152  1.00  0.00     0.202 C 
ENDBRANCH   4   5
BRANCH   4   7
HETATM    7  C9  UNL     1     -14.254  78.052   1.766  1.00  0.00     0.262 C 
HETATM    8  N4  UNL     1     -12.961  78.046   1.189  1.00  0.00    -0.060 NA
HETATM    9  O4  UNL     1     -14.708  76.938   2.136  1.00  0.00    -0.274 OA
ENDBRANCH   4   7
ENDBRANCH   3   4
ENDBRANCH   2   3
ENDBRANCH   1   2
BRANCH   1  10
HETATM   10  C5  UNL     1     -16.375  78.776  -1.559  1.00  0.00     0.241 C 
HETATM   11  O3  UNL     1     -16.676  77.810  -0.841  1.00  0.00    -0.271 OA
HETATM   12  N1  UNL     1     -15.963  78.481  -2.909  1.00  0.00    -0.354 N 
ATOM     13  H1  UNL     1     -15.705  79.241  -3.538  1.00  0.00     0.162 HD
BRANCH  12  14
HETATM   14  C6  UNL     1     -15.913  77.121  -3.375  1.00  0.00     0.177 C 
BRANCH  14  15
HETATM   15  C7  UNL     1     -16.151  77.080  -4.825  1.00  0.00     0.055 C 
HETATM   16  N2  UNL     1     -15.546  76.080  -5.636  1.00  0.00    -0.104 NA
HETATM   17  C8  UNL     1     -16.934  77.976  -5.392  1.00  0.00     0.123 C 
HETATM   18  N3  UNL     1     -17.196  77.978  -6.797  1.00  0.00    -0.113 NA
ENDBRANCH  14  15
ENDBRANCH  12  14
ENDBRANCH   1  10
TORSDOF 8
ENDMDL
MODEL 5
REMARK VINA RESULT: -6.369695984      3.222      7.321
REMARK  8 active torsions:
REMARK  status: ('A' for Active; 'I' for Inactive)
REMARK    1  A    between atoms: O1_2  and  C2_3 
REMARK    2  A    between atoms: C2_3  and  C3_4 
REMARK    3  A    between atoms: C2_3  and  C9_16 
REMARK    4  A    between atoms: C3_4  and  O2_5 
REMARK    5  A    between atoms: O2_5  and  C4_6 
REMARK    6  A    between atoms: C4_6  and  C5_7 
REMARK       I    between atoms: C5_7  and  N1_9 
REMARK    7  A    between atoms: N1_9  and  C6_11 
REMARK    8  A    between atoms: C6_11  and  C7_12 
ROOT
HETATM    1  C4  UNL     1     -14.496  76.921   0.748  1.00  0.00     0.270 C 
ENDROOT
BRANCH   1   2
HETATM    2  O2  UNL     1     -15.453  77.321  -0.120  1.00  0.00    -0.379 OA
BRANCH   2   3
HETATM    3  C3  UNL     1     -15.177  78.301  -1.011  1.00  0.00     0.209 C 
BRANCH   3   4
HETATM    4  C2  UNL     1     -16.397  78.987  -1.577  1.00  0.00     0.233 C 
BRANCH   4   5
HETATM    5  O1  UNL     1     -16.354  79.065  -2.956  1.00  0.00    -0.380 OA
HETATM    6  C1  UNL     1     -16.347  77.845  -3.579  1.00  0.00     0.202 C 
ENDBRANCH   4   5
BRANCH   4   7
HETATM    7  C9  UNL     1     -16.618  80.330  -1.026  1.00  0.00     0.262 C 
HETATM    8  N4  UNL     1     -16.069  80.654   0.238  1.00  0.00    -0.060 NA
HETATM    9  O4  UNL     1     -17.273  81.237  -1.603  1.00  0.00    -0.274 OA
ENDBRANCH   4   7
ENDBRANCH   3   4
ENDBRANCH   2   3
ENDBRANCH   1   2
BRANCH   1  10
HETATM   10  C5  UNL     1     -14.018  77.923   1.726  1.00  0.00     0.241 C 
HETATM   11  O3  UNL     1     -12.848  78.308   1.873  1.00  0.00    -0.271 OA
HETATM   12  N1  UNL     1     -15.011  78.511   2.592  1.00  0.00    -0.354 N 
ATOM     13  H1  UNL     1     -15.987  78.227   2.508  1.00  0.00     0.162 HD
BRANCH  12  14
HETATM   14  C6  UNL     1     -14.634  79.493   3.571  1.00  0.00     0.177 C 
BRANCH  14  15
HETATM   15  C7  UNL     1     -15.778  79.794   4.443  1.00  0.00     0.055 C 
HETATM   16  N2  UNL     1     -17.058  80.083   3.894  1.00  0.00    -0.104 NA
HETATM   17  C8  UNL     1     -15.629  79.799   5.753  1.00  0.00     0.123 C 
HETATM   18  N3  UNL     1     -16.711  80.085   6.642  1.00  0.00    -0.113 NA
ENDBRANCH  14  15
ENDBRANCH  12  14
ENDBRANCH   1  10
TORSDOF 8
ENDMDL
