MODEL 1
REMARK VINA RESULT: -8.486795092      0.000      0.000
REMARK  7 active torsions:
REMARK  status: ('A' for Active; 'I' for Inactive)
REMARK    1  A    between atoms: C3_5  and  N2_6 
REMARK    2  A    between atoms: C4_10  and  C5_11 
REMARK    3  A    between atoms: C5_11  and  C6_12 
REMARK    4  A    between atoms: C6_12  and  N3_13 
REMARK    5  A    between atoms: N4_16  and  C9_17 
REMARK    6  A    between atoms: C9_17  and  C11_19 
REMARK    7  A    between atoms: C11_19  and  C12_20 
ROOT
HETATM    1  N3  UNL     1     -26.593  23.331   2.121  1.00  0.00    -0.332 N 
HETATM    2  C7  UNL     1     -25.259  23.874   1.970  1.00  0.00     0.147 C 
HETATM    3  C8  UNL     1     -24.425  22.969   2.845  1.00  0.00     0.148 C 
HETATM    4  N4  UNL     1     -25.082  21.691   2.733  1.00  0.00    -0.328 N 
HETATM    5  C18 UNL     1     -26.429  21.934   2.371  1.00  0.00     0.320 C 
HETATM    6  O1  UNL     1     -27.378  21.101   2.268  1.00  0.00    -0.247 OA
ENDROOT
BRANCH   1   7
HETATM    7  C6  UNL     1     -27.819  24.079   2.031  1.00  0.00     0.133 C 
BRANCH   7   8
HETATM    8  C5  UNL     1     -27.873  24.994   3.261  1.00  0.00     0.068 C 
BRANCH   8   9
HETATM    9  C4  UNL     1     -28.596  24.272   4.363  1.00  0.00     0.010 A 
HETATM   10  C2  UNL     1     -28.083  23.684   5.484  1.00  0.00     0.020 A 
HETATM   11  C1  UNL     1     -26.585  23.683   5.793  1.00  0.00     0.069 C 
HETATM   12  N1  UNL     1     -28.929  23.107   6.311  1.00  0.00    -0.340 N 
HETATM   13  C3  UNL     1     -30.226  23.131   6.002  1.00  0.00     0.142 A 
ATOM     14  H1  UNL     1     -28.602  22.654   7.164  1.00  0.00     0.168 HD
HETATM   15  S1  UNL     1     -30.261  23.979   4.526  1.00  0.00    -0.057 SA
BRANCH  13  16
HETATM   16  N2  UNL     1     -31.224  22.616   6.687  1.00  0.00    -0.380 N 
ATOM     17  H22 UNL     1     -32.188  22.453   6.396  1.00  0.00     0.158 HD
ATOM     18  H21 UNL     1     -31.211  22.283   7.652  1.00  0.00     0.158 HD
ENDBRANCH  13  16
ENDBRANCH   8   9
ENDBRANCH   7   8
ENDBRANCH   1   7
BRANCH   4  19
HETATM   19  C9  UNL     1     -24.484  20.338   2.951  1.00  0.00     0.085 C 
HETATM   20  C10 UNL     1     -23.027  20.550   2.634  1.00  0.00     0.032 C 
BRANCH  19  21
HETATM   21  C11 UNL     1     -24.719  19.944   4.368  1.00  0.00     0.029 C 
BRANCH  21  22
HETATM   22  C12 UNL     1     -23.581  19.526   5.217  1.00  0.00    -0.013 C 
HETATM   23  C13 UNL     1     -23.660  19.938   6.620  1.00  0.00     0.005 C 
HETATM   24  C14 UNL     1     -22.573  19.278   7.487  1.00  0.00     0.000 C 
HETATM   25  C15 UNL     1     -22.813  17.787   7.386  1.00  0.00     0.000 C 
HETATM   26  C16 UNL     1     -22.434  17.419   5.956  1.00  0.00     0.000 C 
HETATM   27  C17 UNL     1     -23.417  18.025   5.023  1.00  0.00     0.005 C 
ENDBRANCH  21  22
ENDBRANCH  19  21
ENDBRANCH   4  19
TORSDOF 7
ENDMDL
MODEL 2
REMARK VINA RESULT: -8.486038512      2.128      3.279
REMARK  7 active torsions:
REMARK  status: ('A' for Active; 'I' for Inactive)
REMARK    1  A    between atoms: C3_5  and  N2_6 
REMARK    2  A    between atoms: C4_10  and  C5_11 
REMARK    3  A    between atoms: C5_11  and  C6_12 
REMARK    4  A    between atoms: C6_12  and  N3_13 
REMARK    5  A    between atoms: N4_16  and  C9_17 
REMARK    6  A    between atoms: C9_17  and  C11_19 
REMARK    7  A    between atoms: C11_19  and  C12_20 
ROOT
HETATM    1  N3  UNL     1     -28.706  22.782   4.080  1.00  0.00    -0.332 N 
HETATM    2  C7  UNL     1     -27.693  23.771   4.386  1.00  0.00     0.147 C 
HETATM    3  C8  UNL     1     -26.505  22.928   4.780  1.00  0.00     0.148 C 
HETATM    4  N4  UNL     1     -26.640  21.749   3.962  1.00  0.00    -0.328 N 
HETATM    5  C18 UNL     1     -28.005  21.628   3.611  1.00  0.00     0.320 C 
HETATM    6  O1  UNL     1     -28.577  20.684   2.988  1.00  0.00    -0.247 OA
ENDROOT
BRANCH   1   7
HETATM    7  C6  UNL     1     -30.125  22.959   4.230  1.00  0.00     0.133 C 
BRANCH   7   8
HETATM    8  C5  UNL     1     -30.407  23.042   5.735  1.00  0.00     0.068 C 
BRANCH   8   9
HETATM    9  C4  UNL     1     -31.590  23.942   5.952  1.00  0.00     0.010 A 
HETATM   10  C2  UNL     1     -32.834  23.627   6.420  1.00  0.00     0.020 A 
HETATM   11  C1  UNL     1     -33.220  22.201   6.817  1.00  0.00     0.069 C 
HETATM   12  N1  UNL     1     -33.712  24.603   6.523  1.00  0.00    -0.340 N 
HETATM   13  C3  UNL     1     -33.332  25.830   6.165  1.00  0.00     0.142 A 
ATOM     14  H1  UNL     1     -34.655  24.425   6.867  1.00  0.00     0.168 HD
HETATM   15  S1  UNL     1     -31.715  25.613   5.676  1.00  0.00    -0.057 SA
BRANCH  13  16
HETATM   16  N2  UNL     1     -34.051  26.932   6.191  1.00  0.00    -0.380 N 
ATOM     17  H22 UNL     1     -34.880  27.172   5.647  1.00  0.00     0.158 HD
ATOM     18  H21 UNL     1     -33.903  27.758   6.771  1.00  0.00     0.158 HD
ENDBRANCH  13  16
ENDBRANCH   8   9
ENDBRANCH   7   8
ENDBRANCH   1   7
BRANCH   4  19
HETATM   19  C9  UNL     1     -25.559  20.805   3.541  1.00  0.00     0.085 C 
HETATM   20  C10 UNL     1     -25.084  21.385   2.235  1.00  0.00     0.032 C 
BRANCH  19  21
HETATM   21  C11 UNL     1     -24.505  20.799   4.592  1.00  0.00     0.029 C 
BRANCH  21  22
HETATM   22  C12 UNL     1     -24.223  19.559   5.349  1.00  0.00    -0.013 C 
HETATM   23  C13 UNL     1     -23.532  18.509   4.598  1.00  0.00     0.005 C 
HETATM   24  C14 UNL     1     -23.067  17.351   5.501  1.00  0.00     0.000 C 
HETATM   25  C15 UNL     1     -22.113  17.965   6.501  1.00  0.00     0.000 C 
HETATM   26  C16 UNL     1     -22.986  18.826   7.407  1.00  0.00     0.000 C 
HETATM   27  C17 UNL     1     -23.509  19.977   6.627  1.00  0.00     0.005 C 
ENDBRANCH  21  22
ENDBRANCH  19  21
ENDBRANCH   4  19
TORSDOF 7
ENDMDL
MODEL 3
REMARK VINA RESULT: -8.443380196      5.099      7.973
REMARK  7 active torsions:
REMARK  status: ('A' for Active; 'I' for Inactive)
REMARK    1  A    between atoms: C3_5  and  N2_6 
REMARK    2  A    between atoms: C4_10  and  C5_11 
REMARK    3  A    between atoms: C5_11  and  C6_12 
REMARK    4  A    between atoms: C6_12  and  N3_13 
REMARK    5  A    between atoms: N4_16  and  C9_17 
REMARK    6  A    between atoms: C9_17  and  C11_19 
REMARK    7  A    between atoms: C11_19  and  C12_20 
ROOT
HETATM    1  N3  UNL     1     -21.478  20.631   1.070  1.00  0.00    -0.332 N 
HETATM    2  C7  UNL     1     -22.584  21.344   0.467  1.00  0.00     0.147 C 
HETATM    3  C8  UNL     1     -23.787  20.750   1.159  1.00  0.00     0.148 C 
HETATM    4  N4  UNL     1     -23.300  20.447   2.482  1.00  0.00    -0.328 N 
HETATM    5  C18 UNL     1     -21.896  20.295   2.394  1.00  0.00     0.320 C 
HETATM    6  O1  UNL     1     -21.087  19.927   3.298  1.00  0.00    -0.247 OA
ENDROOT
BRANCH   1   7
HETATM    7  C6  UNL     1     -20.221  20.338   0.434  1.00  0.00     0.133 C 
BRANCH   7   8
HETATM    8  C5  UNL     1     -19.258  21.471   0.811  1.00  0.00     0.068 C 
BRANCH   8   9
HETATM    9  C4  UNL     1     -18.932  22.254  -0.430  1.00  0.00     0.010 A 
HETATM   10  C2  UNL     1     -19.404  23.474  -0.824  1.00  0.00     0.020 A 
HETATM   11  C1  UNL     1     -20.408  24.270   0.012  1.00  0.00     0.069 C 
HETATM   12  N1  UNL     1     -18.964  23.958  -1.967  1.00  0.00    -0.340 N 
HETATM   13  C3  UNL     1     -18.091  23.230  -2.663  1.00  0.00     0.142 A 
ATOM     14  H1  UNL     1     -19.282  24.864  -2.309  1.00  0.00     0.168 HD
HETATM   15  S1  UNL     1     -17.881  21.841  -1.699  1.00  0.00    -0.057 SA
BRANCH  13  16
HETATM   16  N2  UNL     1     -17.535  23.531  -3.817  1.00  0.00    -0.380 N 
ATOM     17  H22 UNL     1     -17.787  24.262  -4.481  1.00  0.00     0.158 HD
ATOM     18  H21 UNL     1     -16.737  23.075  -4.261  1.00  0.00     0.158 HD
ENDBRANCH  13  16
ENDBRANCH   8   9
ENDBRANCH   7   8
ENDBRANCH   1   7
BRANCH   4  19
HETATM   19  C9  UNL     1     -24.101  20.310   3.737  1.00  0.00     0.085 C 
HETATM   20  C10 UNL     1     -25.455  20.838   3.341  1.00  0.00     0.032 C 
BRANCH  19  21
HETATM   21  C11 UNL     1     -24.127  18.871   4.122  1.00  0.00     0.029 C 
BRANCH  21  22
HETATM   22  C12 UNL     1     -23.718  18.464   5.485  1.00  0.00    -0.013 C 
HETATM   23  C13 UNL     1     -22.519  17.627   5.556  1.00  0.00     0.005 C 
HETATM   24  C14 UNL     1     -22.020  17.437   7.000  1.00  0.00     0.000 C 
HETATM   25  C15 UNL     1     -21.697  18.824   7.511  1.00  0.00     0.000 C 
HETATM   26  C16 UNL     1     -23.046  19.517   7.663  1.00  0.00     0.000 C 
HETATM   27  C17 UNL     1     -23.633  19.737   6.316  1.00  0.00     0.005 C 
ENDBRANCH  21  22
ENDBRANCH  19  21
ENDBRANCH   4  19
TORSDOF 7
ENDMDL
MODEL 4
REMARK VINA RESULT: -8.429710287      2.832      3.931
REMARK  7 active torsions:
REMARK  status: ('A' for Active; 'I' for Inactive)
REMARK    1  A    between atoms: C3_5  and  N2_6 
REMARK    2  A    between atoms: C4_10  and  C5_11 
REMARK    3  A    between atoms: C5_11  and  C6_12 
REMARK    4  A    between atoms: C6_12  and  N3_13 
REMARK    5  A    between atoms: N4_16  and  C9_17 
REMARK    6  A    between atoms: C9_17  and  C11_19 
REMARK    7  A    between atoms: C11_19  and  C12_20 
ROOT
HETATM    1  N3  UNL     1     -22.761  21.555   0.269  1.00  0.00    -0.332 N 
HETATM    2  C7  UNL     1     -21.384  21.681  -0.160  1.00  0.00     0.147 C 
HETATM    3  C8  UNL     1     -20.613  21.116   1.009  1.00  0.00     0.148 C 
HETATM    4  N4  UNL     1     -21.486  20.092   1.526  1.00  0.00    -0.328 N 
HETATM    5  C18 UNL     1     -22.806  20.420   1.135  1.00  0.00     0.320 C 
HETATM    6  O1  UNL     1     -23.888  19.846   1.462  1.00  0.00    -0.247 OA
ENDROOT
BRANCH   1   7
HETATM    7  C6  UNL     1     -23.845  22.418  -0.120  1.00  0.00     0.133 C 
BRANCH   7   8
HETATM    8  C5  UNL     1     -24.316  23.140   1.149  1.00  0.00     0.068 C 
BRANCH   8   9
HETATM    9  C4  UNL     1     -25.663  22.599   1.535  1.00  0.00     0.010 A 
HETATM   10  C2  UNL     1     -26.167  22.361   2.783  1.00  0.00     0.020 A 
HETATM   11  C1  UNL     1     -25.363  22.637   4.054  1.00  0.00     0.069 C 
HETATM   12  N1  UNL     1     -27.389  21.879   2.864  1.00  0.00    -0.340 N 
HETATM   13  C3  UNL     1     -28.053  21.653   1.730  1.00  0.00     0.142 A 
ATOM     14  H1  UNL     1     -27.816  21.683   3.770  1.00  0.00     0.168 HD
HETATM   15  S1  UNL     1     -26.945  22.126   0.526  1.00  0.00    -0.057 SA
BRANCH  13  16
HETATM   16  N2  UNL     1     -29.273  21.178   1.595  1.00  0.00    -0.380 N 
ATOM     17  H22 UNL     1     -30.164  21.672   1.643  1.00  0.00     0.158 HD
ATOM     18  H21 UNL     1     -29.548  20.212   1.416  1.00  0.00     0.158 HD
ENDBRANCH  13  16
ENDBRANCH   8   9
ENDBRANCH   7   8
ENDBRANCH   1   7
BRANCH   4  19
HETATM   19  C9  UNL     1     -21.103  18.891   2.330  1.00  0.00     0.085 C 
HETATM   20  C10 UNL     1     -19.822  18.436   1.681  1.00  0.00     0.032 C 
BRANCH  19  21
HETATM   21  C11 UNL     1     -20.919  19.313   3.746  1.00  0.00     0.029 C 
BRANCH  21  22
HETATM   22  C12 UNL     1     -21.846  18.822   4.790  1.00  0.00    -0.013 C 
HETATM   23  C13 UNL     1     -21.241  18.571   6.099  1.00  0.00     0.005 C 
HETATM   24  C14 UNL     1     -22.294  18.290   7.188  1.00  0.00     0.000 C 
HETATM   25  C15 UNL     1     -23.155  19.532   7.260  1.00  0.00     0.000 C 
HETATM   26  C16 UNL     1     -23.948  19.542   5.958  1.00  0.00     0.000 C 
HETATM   27  C17 UNL     1     -23.019  19.791   4.827  1.00  0.00     0.005 C 
ENDBRANCH  21  22
ENDBRANCH  19  21
ENDBRANCH   4  19
TORSDOF 7
ENDMDL
MODEL 5
REMARK VINA RESULT: -8.428090597      4.587      7.464
REMARK  7 active torsions:
REMARK  status: ('A' for Active; 'I' for Inactive)
REMARK    1  A    between atoms: C3_5  and  N2_6 
REMARK    2  A    between atoms: C4_10  and  C5_11 
REMARK    3  A    between atoms: C5_11  and  C6_12 
REMARK    4  A    between atoms: C6_12  and  N3_13 
REMARK    5  A    between atoms: N4_16  and  C9_17 
REMARK    6  A    between atoms: C9_17  and  C11_19 
REMARK    7  A    between atoms: C11_19  and  C12_20 
ROOT
HETATM    1  N3  UNL     1     -22.746  22.470   0.886  1.00  0.00    -0.332 N 
HETATM    2  C7  UNL     1     -23.014  21.180   0.286  1.00  0.00     0.147 C 
HETATM    3  C8  UNL     1     -23.069  20.256   1.479  1.00  0.00     0.148 C 
HETATM    4  N4  UNL     1     -23.614  21.086   2.524  1.00  0.00    -0.328 N 
HETATM    5  C18 UNL     1     -23.336  22.432   2.188  1.00  0.00     0.320 C 
HETATM    6  O1  UNL     1     -23.546  23.475   2.877  1.00  0.00    -0.247 OA
ENDROOT
BRANCH   1   7
HETATM    7  C6  UNL     1     -22.029  23.552   0.268  1.00  0.00     0.133 C 
BRANCH   7   8
HETATM    8  C5  UNL     1     -20.622  23.560   0.880  1.00  0.00     0.068 C 
BRANCH   8   9
HETATM    9  C4  UNL     1     -19.682  22.876  -0.073  1.00  0.00     0.010 A 
HETATM   10  C2  UNL     1     -19.025  21.688   0.076  1.00  0.00     0.020 A 
HETATM   11  C1  UNL     1     -19.170  20.826   1.331  1.00  0.00     0.069 C 
HETATM   12  N1  UNL     1     -18.247  21.294  -0.910  1.00  0.00    -0.340 N 
HETATM   13  C3  UNL     1     -18.150  22.077  -1.985  1.00  0.00     0.142 A 
ATOM     14  H1  UNL     1     -17.733  20.415  -0.854  1.00  0.00     0.168 HD
HETATM   15  S1  UNL     1     -19.168  23.389  -1.608  1.00  0.00    -0.057 SA
BRANCH  13  16
HETATM   16  N2  UNL     1     -17.433  21.868  -3.068  1.00  0.00    -0.380 N 
ATOM     17  H22 UNL     1     -16.750  21.134  -3.255  1.00  0.00     0.158 HD
ATOM     18  H21 UNL     1     -17.434  22.414  -3.930  1.00  0.00     0.158 HD
ENDBRANCH  13  16
ENDBRANCH   8   9
ENDBRANCH   7   8
ENDBRANCH   1   7
BRANCH   4  19
HETATM   19  C9  UNL     1     -24.345  20.642   3.751  1.00  0.00     0.085 C 
HETATM   20  C10 UNL     1     -25.787  20.914   3.410  1.00  0.00     0.032 C 
BRANCH  19  21
HETATM   21  C11 UNL     1     -24.062  19.196   3.968  1.00  0.00     0.029 C 
BRANCH  21  22
HETATM   22  C12 UNL     1     -23.784  18.696   5.333  1.00  0.00    -0.013 C 
HETATM   23  C13 UNL     1     -22.646  17.782   5.446  1.00  0.00     0.005 C 
HETATM   24  C14 UNL     1     -22.273  17.488   6.911  1.00  0.00     0.000 C 
HETATM   25  C15 UNL     1     -21.910  18.824   7.521  1.00  0.00     0.000 C 
HETATM   26  C16 UNL     1     -23.224  19.592   7.610  1.00  0.00     0.000 C 
HETATM   27  C17 UNL     1     -23.690  19.916   6.237  1.00  0.00     0.005 C 
ENDBRANCH  21  22
ENDBRANCH  19  21
ENDBRANCH   4  19
TORSDOF 7
ENDMDL
